MODEL 1
REMARK VINA RESULT: -7.476373257      0.000      0.000
REMARK  12 active torsions:
REMARK  status: ('A' for Active; 'I' for Inactive)
REMARK    1  A    between atoms: C2_2  and  N1_3 
REMARK    2  A    between atoms: N1_3  and  C3_4 
REMARK    3  A    between atoms: N1_3  and  C5_6 
REMARK    4  A    between atoms: C6_9  and  N3_10 
REMARK    5  A    between atoms: C9_22  and  N7_23 
REMARK    6  A    between atoms: C10_25  and  C11_26 
REMARK    7  A    between atoms: C11_26  and  N8_27 
REMARK    8  A    between atoms: N8_27  and  C12_30 
REMARK    9  A    between atoms: C12_30  and  C13_31 
REMARK   10  A    between atoms: C13_31  and  C14_32 
REMARK   11  A    between atoms: C14_32  and  N9_33 
REMARK   12  A    between atoms: N9_33  and  C16_35 
ROOT
HETATM    1  C5  UNL     1      55.057  39.421   3.724  1.00  0.00     0.682 A 
HETATM    2  N2  UNL     1      55.254  40.597   3.141  1.00  0.00    -0.175 N 
ATOM      3  H2  UNL     1      54.697  40.818   2.316  1.00  0.00     0.186 HD
HETATM    4  C6  UNL     1      56.153  41.535   3.570  1.00  0.00     0.144 A 
HETATM    5  C7  UNL     1      56.916  41.218   4.711  1.00  0.00     0.124 A 
HETATM    6  N4  UNL     1      57.831  42.041   5.197  1.00  0.00    -0.186 N 
ATOM      7  H4  UNL     1      57.990  42.949   4.759  1.00  0.00     0.184 HD
HETATM    8  C8  UNL     1      58.568  41.661   6.303  1.00  0.00     0.678 A 
HETATM    9  N5  UNL     1      59.415  42.454   6.729  1.00  0.00    -0.234 N 
ATOM     10  H51 UNL     1      59.959  42.173   7.544  1.00  0.00     0.174 HD
ATOM     11  H52 UNL     1      59.562  43.358   6.280  1.00  0.00     0.174 HD
HETATM   12  N6  UNL     1      58.373  40.461   6.899  1.00  0.00    -0.174 N 
ATOM     13  H6  UNL     1      58.940  40.220   7.713  1.00  0.00     0.186 HD
HETATM   14  C9  UNL     1      57.452  39.568   6.456  1.00  0.00     0.150 A 
HETATM   15  C20 UNL     1      56.722  40.006   5.319  1.00  0.00     0.124 A 
HETATM   16  N10 UNL     1      55.797  39.136   4.815  1.00  0.00    -0.185 N 
ATOM     17  H10 UNL     1      55.661  38.238   5.280  1.00  0.00     0.184 HD
ENDROOT
BRANCH  14  18
HETATM   18  N7  UNL     1      57.233  38.439   6.854  1.00  0.00    -0.352 N 
HETATM   19  C10 UNL     1      57.335  37.585   7.895  1.00  0.00     0.090 C 
ATOM     20  H7  UNL     1      56.791  37.930   6.088  1.00  0.00     0.166 HD
BRANCH  19  21
HETATM   21  C11 UNL     1      57.289  38.034   9.312  1.00  0.00     0.276 C 
BRANCH  21  22
HETATM   22  N8  UNL     1      58.429  37.611  10.093  1.00  0.00    -0.070 N 
ATOM     23  H82 UNL     1      58.346  37.838  11.083  1.00  0.00     0.277 HD
ATOM     24  H81 UNL     1      58.491  36.598  10.198  1.00  0.00     0.277 HD
BRANCH  22  25
HETATM   25  C12 UNL     1      59.630  38.209   9.450  1.00  0.00     0.237 C 
BRANCH  25  26
HETATM   26  C13 UNL     1      60.216  39.194  10.376  1.00  0.00     0.072 C 
BRANCH  26  27
HETATM   27  C14 UNL     1      60.156  40.642  10.010  1.00  0.00     0.059 C 
BRANCH  27  28
HETATM   28  N9  UNL     1      59.835  41.504  11.066  1.00  0.00    -0.393 N 
HETATM   29  C15 UNL     1      60.191  41.179  12.391  1.00  0.00     0.149 C 
BRANCH  28  30
HETATM   30  C16 UNL     1      59.543  42.864  10.787  1.00  0.00     0.083 A 
HETATM   31  C17 UNL     1      59.865  43.831  11.913  1.00  0.00     0.025 A 
HETATM   32  C18 UNL     1      61.066  44.361  11.194  1.00  0.00     0.004 A 
HETATM   33  C19 UNL     1      60.721  43.489  10.017  1.00  0.00     0.025 A 
ENDBRANCH  28  30
ENDBRANCH  27  28
ENDBRANCH  26  27
ENDBRANCH  25  26
ENDBRANCH  22  25
ENDBRANCH  21  22
ENDBRANCH  19  21
ENDBRANCH  14  18
BRANCH   4  34
HETATM   34  N3  UNL     1      56.310  42.628   2.973  1.00  0.00    -0.383 N 
ATOM     35  H32 UNL     1      55.508  43.191   2.691  1.00  0.00     0.157 HD
ATOM     36  H31 UNL     1      57.236  42.998   2.758  1.00  0.00     0.157 HD
ENDBRANCH   4  34
BRANCH   1  37
HETATM   37  N1  UNL     1      54.132  38.432   3.220  1.00  0.00    -0.218 N 
BRANCH  37  38
HETATM   38  C2  UNL     1      54.670  37.280   2.545  1.00  0.00     0.136 C 
HETATM   39  C1  UNL     1      55.001  37.612   1.128  1.00  0.00     0.027 C 
ENDBRANCH  37  38
BRANCH  37  40
HETATM   40  C3  UNL     1      52.713  38.587   3.391  1.00  0.00     0.136 C 
HETATM   41  C4  UNL     1      52.094  37.671   4.406  1.00  0.00     0.027 C 
ENDBRANCH  37  40
ENDBRANCH   1  37
TORSDOF 12
ENDMDL
MODEL 2
REMARK VINA RESULT: -7.414164409      0.614      1.300
REMARK  12 active torsions:
REMARK  status: ('A' for Active; 'I' for Inactive)
REMARK    1  A    between atoms: C2_2  and  N1_3 
REMARK    2  A    between atoms: N1_3  and  C3_4 
REMARK    3  A    between atoms: N1_3  and  C5_6 
REMARK    4  A    between atoms: C6_9  and  N3_10 
REMARK    5  A    between atoms: C9_22  and  N7_23 
REMARK    6  A    between atoms: C10_25  and  C11_26 
REMARK    7  A    between atoms: C11_26  and  N8_27 
REMARK    8  A    between atoms: N8_27  and  C12_30 
REMARK    9  A    between atoms: C12_30  and  C13_31 
REMARK   10  A    between atoms: C13_31  and  C14_32 
REMARK   11  A    between atoms: C14_32  and  N9_33 
REMARK   12  A    between atoms: N9_33  and  C16_35 
ROOT
HETATM    1  C5  UNL     1      55.050  39.525   3.704  1.00  0.00     0.682 A 
HETATM    2  N2  UNL     1      55.282  40.696   3.124  1.00  0.00    -0.175 N 
ATOM      3  H2  UNL     1      54.733  40.934   2.298  1.00  0.00     0.186 HD
HETATM    4  C6  UNL     1      56.207  41.606   3.557  1.00  0.00     0.144 A 
HETATM    5  C7  UNL     1      56.958  41.265   4.698  1.00  0.00     0.124 A 
HETATM    6  N4  UNL     1      57.895  42.060   5.188  1.00  0.00    -0.186 N 
ATOM      7  H4  UNL     1      58.081  42.964   4.753  1.00  0.00     0.184 HD
HETATM    8  C8  UNL     1      58.618  41.657   6.295  1.00  0.00     0.678 A 
HETATM    9  N5  UNL     1      59.487  42.424   6.724  1.00  0.00    -0.234 N 
ATOM     10  H51 UNL     1      60.021  42.126   7.540  1.00  0.00     0.174 HD
ATOM     11  H52 UNL     1      59.662  43.324   6.277  1.00  0.00     0.174 HD
HETATM   12  N6  UNL     1      58.388  40.462   6.889  1.00  0.00    -0.174 N 
ATOM     13  H6  UNL     1      58.945  40.203   7.702  1.00  0.00     0.186 HD
HETATM   14  C9  UNL     1      57.442  39.597   6.441  1.00  0.00     0.150 A 
HETATM   15  C20 UNL     1      56.727  40.058   5.303  1.00  0.00     0.124 A 
HETATM   16  N10 UNL     1      55.778  39.216   4.796  1.00  0.00    -0.185 N 
ATOM     17  H10 UNL     1      55.615  38.322   5.259  1.00  0.00     0.184 HD
ENDROOT
BRANCH  14  18
HETATM   18  N7  UNL     1      57.189  38.474   6.836  1.00  0.00    -0.352 N 
HETATM   19  C10 UNL     1      57.424  37.549   7.793  1.00  0.00     0.090 C 
ATOM     20  H7  UNL     1      56.530  38.063   6.175  1.00  0.00     0.166 HD
BRANCH  19  21
HETATM   21  C11 UNL     1      57.752  37.911   9.198  1.00  0.00     0.276 C 
BRANCH  21  22
HETATM   22  N8  UNL     1      59.144  37.720   9.537  1.00  0.00    -0.070 N 
ATOM     23  H82 UNL     1      59.383  36.747   9.726  1.00  0.00     0.277 HD
ATOM     24  H81 UNL     1      59.773  37.855   8.746  1.00  0.00     0.277 HD
BRANCH  22  25
HETATM   25  C12 UNL     1      59.432  38.630  10.679  1.00  0.00     0.237 C 
BRANCH  25  26
HETATM   26  C13 UNL     1      59.870  39.930  10.143  1.00  0.00     0.072 C 
BRANCH  26  27
HETATM   27  C14 UNL     1      60.767  40.783  10.982  1.00  0.00     0.059 C 
BRANCH  27  28
HETATM   28  N9  UNL     1      60.106  41.656  11.853  1.00  0.00    -0.393 N 
HETATM   29  C15 UNL     1      60.303  41.568  13.246  1.00  0.00     0.149 C 
BRANCH  28  30
HETATM   30  C16 UNL     1      59.580  42.874  11.347  1.00  0.00     0.083 A 
HETATM   31  C17 UNL     1      59.615  44.039  12.321  1.00  0.00     0.025 A 
HETATM   32  C18 UNL     1      60.747  44.693  11.593  1.00  0.00     0.004 A 
HETATM   33  C19 UNL     1      60.677  43.608  10.551  1.00  0.00     0.025 A 
ENDBRANCH  28  30
ENDBRANCH  27  28
ENDBRANCH  26  27
ENDBRANCH  25  26
ENDBRANCH  22  25
ENDBRANCH  21  22
ENDBRANCH  19  21
ENDBRANCH  14  18
BRANCH   4  34
HETATM   34  N3  UNL     1      56.397  42.696   2.962  1.00  0.00    -0.383 N 
ATOM     35  H32 UNL     1      56.194  42.792   1.967  1.00  0.00     0.157 HD
ATOM     36  H31 UNL     1      56.746  43.522   3.447  1.00  0.00     0.157 HD
ENDBRANCH   4  34
BRANCH   1  37
HETATM   37  N1  UNL     1      54.097  38.564   3.196  1.00  0.00    -0.218 N 
BRANCH  37  38
HETATM   38  C2  UNL     1      53.053  38.111   4.078  1.00  0.00     0.136 C 
HETATM   39  C1  UNL     1      51.746  38.062   3.360  1.00  0.00     0.027 C 
ENDBRANCH  37  38
BRANCH  37  40
HETATM   40  C3  UNL     1      54.180  38.078   1.847  1.00  0.00     0.136 C 
HETATM   41  C4  UNL     1      54.998  36.831   1.672  1.00  0.00     0.027 C 
ENDBRANCH  37  40
ENDBRANCH   1  37
TORSDOF 12
ENDMDL
MODEL 3
REMARK VINA RESULT: -6.905472882      1.903      3.148
REMARK  12 active torsions:
REMARK  status: ('A' for Active; 'I' for Inactive)
REMARK    1  A    between atoms: C2_2  and  N1_3 
REMARK    2  A    between atoms: N1_3  and  C3_4 
REMARK    3  A    between atoms: N1_3  and  C5_6 
REMARK    4  A    between atoms: C6_9  and  N3_10 
REMARK    5  A    between atoms: C9_22  and  N7_23 
REMARK    6  A    between atoms: C10_25  and  C11_26 
REMARK    7  A    between atoms: C11_26  and  N8_27 
REMARK    8  A    between atoms: N8_27  and  C12_30 
REMARK    9  A    between atoms: C12_30  and  C13_31 
REMARK   10  A    between atoms: C13_31  and  C14_32 
REMARK   11  A    between atoms: C14_32  and  N9_33 
REMARK   12  A    between atoms: N9_33  and  C16_35 
ROOT
HETATM    1  C5  UNL     1      55.038  39.520   3.659  1.00  0.00     0.682 A 
HETATM    2  N2  UNL     1      55.258  40.698   3.088  1.00  0.00    -0.175 N 
ATOM      3  H2  UNL     1      54.709  40.935   2.262  1.00  0.00     0.186 HD
HETATM    4  C6  UNL     1      56.168  41.617   3.533  1.00  0.00     0.144 A 
HETATM    5  C7  UNL     1      56.918  41.278   4.675  1.00  0.00     0.124 A 
HETATM    6  N4  UNL     1      57.841  42.083   5.175  1.00  0.00    -0.186 N 
ATOM      7  H4  UNL     1      58.018  42.992   4.747  1.00  0.00     0.184 HD
HETATM    8  C8  UNL     1      58.565  41.681   6.283  1.00  0.00     0.678 A 
HETATM    9  N5  UNL     1      59.421  42.457   6.722  1.00  0.00    -0.234 N 
ATOM     10  H51 UNL     1      59.955  42.160   7.538  1.00  0.00     0.174 HD
ATOM     11  H52 UNL     1      59.585  43.363   6.282  1.00  0.00     0.174 HD
HETATM   12  N6  UNL     1      58.348  40.479   6.867  1.00  0.00    -0.174 N 
ATOM     13  H6  UNL     1      58.905  40.221   7.681  1.00  0.00     0.186 HD
HETATM   14  C9  UNL     1      57.416  39.604   6.408  1.00  0.00     0.150 A 
HETATM   15  C20 UNL     1      56.700  40.064   5.270  1.00  0.00     0.124 A 
HETATM   16  N10 UNL     1      55.766  39.213   4.752  1.00  0.00    -0.185 N 
ATOM     17  H10 UNL     1      55.612  38.314   5.208  1.00  0.00     0.184 HD
ENDROOT
BRANCH  14  18
HETATM   18  N7  UNL     1      57.177  38.475   6.794  1.00  0.00    -0.352 N 
HETATM   19  C10 UNL     1      57.305  37.594   7.810  1.00  0.00     0.090 C 
ATOM     20  H7  UNL     1      56.674  38.001   6.045  1.00  0.00     0.166 HD
BRANCH  19  21
HETATM   21  C11 UNL     1      57.356  38.011   9.236  1.00  0.00     0.276 C 
BRANCH  21  22
HETATM   22  N8  UNL     1      58.667  37.888   9.830  1.00  0.00    -0.070 N 
ATOM     23  H82 UNL     1      58.664  37.373  10.711  1.00  0.00     0.277 HD
ATOM     24  H81 UNL     1      59.285  37.260   9.317  1.00  0.00     0.277 HD
BRANCH  22  25
HETATM   25  C12 UNL     1      59.208  39.269   9.959  1.00  0.00     0.237 C 
BRANCH  25  26
HETATM   26  C13 UNL     1      60.447  39.215  10.753  1.00  0.00     0.072 C 
BRANCH  26  27
HETATM   27  C14 UNL     1      61.735  39.590  10.093  1.00  0.00     0.059 C 
BRANCH  27  28
HETATM   28  N9  UNL     1      62.705  38.581  10.080  1.00  0.00    -0.393 N 
HETATM   29  C15 UNL     1      63.979  38.802  10.643  1.00  0.00     0.149 C 
BRANCH  28  30
HETATM   30  C16 UNL     1      62.302  37.232   9.894  1.00  0.00     0.083 A 
HETATM   31  C17 UNL     1      61.986  36.852   8.458  1.00  0.00     0.025 A 
HETATM   32  C18 UNL     1      63.253  36.069   8.323  1.00  0.00     0.004 A 
HETATM   33  C19 UNL     1      63.553  36.341   9.773  1.00  0.00     0.025 A 
ENDBRANCH  28  30
ENDBRANCH  27  28
ENDBRANCH  26  27
ENDBRANCH  25  26
ENDBRANCH  22  25
ENDBRANCH  21  22
ENDBRANCH  19  21
ENDBRANCH  14  18
BRANCH   4  34
HETATM   34  N3  UNL     1      56.345  42.714   2.946  1.00  0.00    -0.383 N 
ATOM     35  H32 UNL     1      56.113  42.824   1.959  1.00  0.00     0.157 HD
ATOM     36  H31 UNL     1      56.714  43.532   3.432  1.00  0.00     0.157 HD
ENDBRANCH   4  34
BRANCH   1  37
HETATM   37  N1  UNL     1      54.101  38.550   3.139  1.00  0.00    -0.218 N 
BRANCH  37  38
HETATM   38  C2  UNL     1      54.244  38.134   1.768  1.00  0.00     0.136 C 
HETATM   39  C1  UNL     1      54.976  36.836   1.689  1.00  0.00     0.027 C 
ENDBRANCH  37  38
BRANCH  37  40
HETATM   40  C3  UNL     1      53.058  38.008   3.966  1.00  0.00     0.136 C 
HETATM   41  C4  UNL     1      51.671  38.156   3.413  1.00  0.00     0.027 C 
ENDBRANCH  37  40
ENDBRANCH   1  37
TORSDOF 12
ENDMDL
MODEL 4
REMARK VINA RESULT: -6.841679140      1.597      2.941
REMARK  12 active torsions:
REMARK  status: ('A' for Active; 'I' for Inactive)
REMARK    1  A    between atoms: C2_2  and  N1_3 
REMARK    2  A    between atoms: N1_3  and  C3_4 
REMARK    3  A    between atoms: N1_3  and  C5_6 
REMARK    4  A    between atoms: C6_9  and  N3_10 
REMARK    5  A    between atoms: C9_22  and  N7_23 
REMARK    6  A    between atoms: C10_25  and  C11_26 
REMARK    7  A    between atoms: C11_26  and  N8_27 
REMARK    8  A    between atoms: N8_27  and  C12_30 
REMARK    9  A    between atoms: C12_30  and  C13_31 
REMARK   10  A    between atoms: C13_31  and  C14_32 
REMARK   11  A    between atoms: C14_32  and  N9_33 
REMARK   12  A    between atoms: N9_33  and  C16_35 
ROOT
HETATM    1  C5  UNL     1      55.117  39.410   3.827  1.00  0.00     0.682 A 
HETATM    2  N2  UNL     1      55.319  40.595   3.263  1.00  0.00    -0.175 N 
ATOM      3  H2  UNL     1      54.770  40.827   2.435  1.00  0.00     0.186 HD
HETATM    4  C6  UNL     1      56.210  41.528   3.717  1.00  0.00     0.144 A 
HETATM    5  C7  UNL     1      56.960  41.195   4.862  1.00  0.00     0.124 A 
HETATM    6  N4  UNL     1      57.867  42.013   5.371  1.00  0.00    -0.186 N 
ATOM      7  H4  UNL     1      58.030  42.927   4.949  1.00  0.00     0.184 HD
HETATM    8  C8  UNL     1      58.591  41.618   6.480  1.00  0.00     0.678 A 
HETATM    9  N5  UNL     1      59.432  42.406   6.928  1.00  0.00    -0.234 N 
ATOM     10  H51 UNL     1      59.967  42.115   7.746  1.00  0.00     0.174 HD
ATOM     11  H52 UNL     1      59.583  43.317   6.494  1.00  0.00     0.174 HD
HETATM   12  N6  UNL     1      58.392  40.409   7.057  1.00  0.00    -0.174 N 
ATOM     13  H6  UNL     1      58.949  40.157   7.873  1.00  0.00     0.186 HD
HETATM   14  C9  UNL     1      57.478  39.521   6.589  1.00  0.00     0.150 A 
HETATM   15  C20 UNL     1      56.760  39.975   5.450  1.00  0.00     0.124 A 
HETATM   16  N10 UNL     1      55.843  39.110   4.922  1.00  0.00    -0.185 N 
ATOM     17  H10 UNL     1      55.703  38.206   5.373  1.00  0.00     0.184 HD
ENDROOT
BRANCH  14  18
HETATM   18  N7  UNL     1      57.256  38.386   6.968  1.00  0.00    -0.352 N 
HETATM   19  C10 UNL     1      57.275  37.538   8.019  1.00  0.00     0.090 C 
ATOM     20  H7  UNL     1      56.917  37.860   6.162  1.00  0.00     0.166 HD
BRANCH  19  21
HETATM   21  C11 UNL     1      57.061  37.989   9.420  1.00  0.00     0.276 C 
BRANCH  21  22
HETATM   22  N8  UNL     1      56.937  36.903  10.366  1.00  0.00    -0.070 N 
ATOM     23  H82 UNL     1      56.345  37.130  11.165  1.00  0.00     0.277 HD
ATOM     24  H81 UNL     1      56.383  36.123  10.014  1.00  0.00     0.277 HD
BRANCH  22  25
HETATM   25  C12 UNL     1      58.321  36.515  10.751  1.00  0.00     0.237 C 
BRANCH  25  26
HETATM   26  C13 UNL     1      58.869  37.554  11.640  1.00  0.00     0.072 C 
BRANCH  26  27
HETATM   27  C14 UNL     1      60.269  38.026  11.410  1.00  0.00     0.059 C 
BRANCH  27  28
HETATM   28  N9  UNL     1      60.425  38.905  10.332  1.00  0.00    -0.393 N 
HETATM   29  C15 UNL     1      59.885  40.206  10.382  1.00  0.00     0.149 C 
BRANCH  28  30
HETATM   30  C16 UNL     1      61.455  38.665   9.385  1.00  0.00     0.083 A 
HETATM   31  C17 UNL     1      62.461  37.601   9.790  1.00  0.00     0.025 A 
HETATM   32  C18 UNL     1      61.894  36.611   8.822  1.00  0.00     0.004 A 
HETATM   33  C19 UNL     1      60.947  37.670   8.324  1.00  0.00     0.025 A 
ENDBRANCH  28  30
ENDBRANCH  27  28
ENDBRANCH  26  27
ENDBRANCH  25  26
ENDBRANCH  22  25
ENDBRANCH  21  22
ENDBRANCH  19  21
ENDBRANCH  14  18
BRANCH   4  34
HETATM   34  N3  UNL     1      56.372  42.630   3.137  1.00  0.00    -0.383 N 
ATOM     35  H32 UNL     1      57.106  43.274   3.431  1.00  0.00     0.157 HD
ATOM     36  H31 UNL     1      55.789  42.917   2.350  1.00  0.00     0.157 HD
ENDBRANCH   4  34
BRANCH   1  37
HETATM   37  N1  UNL     1      54.199  38.427   3.297  1.00  0.00    -0.218 N 
BRANCH  37  38
HETATM   38  C2  UNL     1      52.801  38.565   3.610  1.00  0.00     0.136 C 
HETATM   39  C1  UNL     1      52.028  37.406   3.075  1.00  0.00     0.027 C 
ENDBRANCH  37  38
BRANCH  37  40
HETATM   40  C3  UNL     1      54.664  37.344   2.475  1.00  0.00     0.136 C 
HETATM   41  C4  UNL     1      55.298  37.759   1.179  1.00  0.00     0.027 C 
ENDBRANCH  37  40
ENDBRANCH   1  37
TORSDOF 12
ENDMDL
MODEL 5
REMARK VINA RESULT: -6.837560068      1.180      1.772
REMARK  12 active torsions:
REMARK  status: ('A' for Active; 'I' for Inactive)
REMARK    1  A    between atoms: C2_2  and  N1_3 
REMARK    2  A    between atoms: N1_3  and  C3_4 
REMARK    3  A    between atoms: N1_3  and  C5_6 
REMARK    4  A    between atoms: C6_9  and  N3_10 
REMARK    5  A    between atoms: C9_22  and  N7_23 
REMARK    6  A    between atoms: C10_25  and  C11_26 
REMARK    7  A    between atoms: C11_26  and  N8_27 
REMARK    8  A    between atoms: N8_27  and  C12_30 
REMARK    9  A    between atoms: C12_30  and  C13_31 
REMARK   10  A    between atoms: C13_31  and  C14_32 
REMARK   11  A    between atoms: C14_32  and  N9_33 
REMARK   12  A    between atoms: N9_33  and  C16_35 
ROOT
HETATM    1  C5  UNL     1      55.105  39.381   3.797  1.00  0.00     0.682 A 
HETATM    2  N2  UNL     1      55.272  40.567   3.226  1.00  0.00    -0.175 N 
ATOM      3  H2  UNL     1      54.696  40.789   2.414  1.00  0.00     0.186 HD
HETATM    4  C6  UNL     1      56.163  41.514   3.651  1.00  0.00     0.144 A 
HETATM    5  C7  UNL     1      56.952  41.196   4.773  1.00  0.00     0.124 A 
HETATM    6  N4  UNL     1      57.861  42.028   5.253  1.00  0.00    -0.186 N 
ATOM      7  H4  UNL     1      57.998  42.943   4.824  1.00  0.00     0.184 HD
HETATM    8  C8  UNL     1      58.625  41.647   6.341  1.00  0.00     0.678 A 
HETATM    9  N5  UNL     1      59.466  42.448   6.761  1.00  0.00    -0.234 N 
ATOM     10  H51 UNL     1      60.030  42.167   7.563  1.00  0.00     0.174 HD
ATOM     11  H52 UNL     1      59.591  43.360   6.321  1.00  0.00     0.174 HD
HETATM   12  N6  UNL     1      58.461  40.437   6.925  1.00  0.00    -0.174 N 
ATOM     13  H6  UNL     1      59.046  40.195   7.725  1.00  0.00     0.186 HD
HETATM   14  C9  UNL     1      57.547  39.534   6.487  1.00  0.00     0.150 A 
HETATM   15  C20 UNL     1      56.788  39.974   5.369  1.00  0.00     0.124 A 
HETATM   16  N10 UNL     1      55.868  39.095   4.871  1.00  0.00    -0.185 N 
ATOM     17  H10 UNL     1      55.756  38.189   5.328  1.00  0.00     0.184 HD
ENDROOT
BRANCH  14  18
HETATM   18  N7  UNL     1      57.353  38.396   6.875  1.00  0.00    -0.352 N 
HETATM   19  C10 UNL     1      57.316  37.575   7.947  1.00  0.00     0.090 C 
ATOM     20  H7  UNL     1      57.126  37.833   6.055  1.00  0.00     0.166 HD
BRANCH  19  21
HETATM   21  C11 UNL     1      56.938  38.044   9.307  1.00  0.00     0.276 C 
BRANCH  21  22
HETATM   22  N8  UNL     1      56.644  36.972  10.229  1.00  0.00    -0.070 N 
ATOM     23  H82 UNL     1      56.113  37.276  11.045  1.00  0.00     0.277 HD
ATOM     24  H81 UNL     1      55.959  36.308   9.870  1.00  0.00     0.277 HD
BRANCH  22  25
HETATM   25  C12 UNL     1      57.947  36.342  10.578  1.00  0.00     0.237 C 
BRANCH  25  26
HETATM   26  C13 UNL     1      58.659  37.226  11.515  1.00  0.00     0.072 C 
BRANCH  26  27
HETATM   27  C14 UNL     1      60.111  37.494  11.281  1.00  0.00     0.059 C 
BRANCH  27  28
HETATM   28  N9  UNL     1      60.382  38.573  10.432  1.00  0.00    -0.393 N 
HETATM   29  C15 UNL     1      60.879  38.356   9.131  1.00  0.00     0.149 C 
BRANCH  28  30
HETATM   30  C16 UNL     1      59.782  39.832  10.697  1.00  0.00     0.083 A 
HETATM   31  C17 UNL     1      60.245  40.504  11.978  1.00  0.00     0.025 A 
HETATM   32  C18 UNL     1      61.065  41.506  11.227  1.00  0.00     0.004 A 
HETATM   33  C19 UNL     1      60.549  40.930   9.935  1.00  0.00     0.025 A 
ENDBRANCH  28  30
ENDBRANCH  27  28
ENDBRANCH  26  27
ENDBRANCH  25  26
ENDBRANCH  22  25
ENDBRANCH  21  22
ENDBRANCH  19  21
ENDBRANCH  14  18
BRANCH   4  34
HETATM   34  N3  UNL     1      56.291  42.617   3.064  1.00  0.00    -0.383 N 
ATOM     35  H32 UNL     1      55.476  43.181   2.826  1.00  0.00     0.157 HD
ATOM     36  H31 UNL     1      57.206  42.994   2.817  1.00  0.00     0.157 HD
ENDBRANCH   4  34
BRANCH   1  37
HETATM   37  N1  UNL     1      54.186  38.383   3.298  1.00  0.00    -0.218 N 
BRANCH  37  38
HETATM   38  C2  UNL     1      54.734  37.225   2.640  1.00  0.00     0.136 C 
HETATM   39  C1  UNL     1      54.940  37.498   1.187  1.00  0.00     0.027 C 
ENDBRANCH  37  38
BRANCH  37  40
HETATM   40  C3  UNL     1      52.766  38.535   3.456  1.00  0.00     0.136 C 
HETATM   41  C4  UNL     1      52.146  37.644   4.492  1.00  0.00     0.027 C 
ENDBRANCH  37  40
ENDBRANCH   1  37
TORSDOF 12
ENDMDL
