MODEL 1
REMARK VINA RESULT: -6.607510736      0.000      0.000
REMARK  14 active torsions:
REMARK  status: ('A' for Active; 'I' for Inactive)
REMARK    1  A    between atoms: O1_2  and  C2_3 
REMARK    2  A    between atoms: C2_3  and  C3_4 
REMARK    3  A    between atoms: C3_4  and  O2_5 
REMARK    4  A    between atoms: O2_5  and  C4_6 
REMARK    5  A    between atoms: C4_6  and  C5_7 
REMARK    6  A    between atoms: C5_7  and  O3_8 
REMARK    7  A    between atoms: O3_8  and  C6_9 
REMARK    8  A    between atoms: C6_9  and  C7_10 
REMARK    9  A    between atoms: C7_10  and  S1_11 
REMARK   10  A    between atoms: S1_11  and  C8_12 
REMARK   11  A    between atoms: C11_19  and  N3_20 
REMARK   12  A    between atoms: C12_25  and  N5_26 
REMARK   13  A    between atoms: N5_26  and  C13_28 
REMARK   14  A    between atoms: N6_33  and  N7_34 
ROOT
HETATM    1  C8  UNL     1      58.081  38.118   9.024  1.00  0.00     0.086 A 
HETATM    2  N1  UNL     1      57.251  37.307   8.335  1.00  0.00    -0.357 N 
ATOM      3  H1  UNL     1      56.951  36.383   8.646  1.00  0.00     0.166 HD
HETATM    4  C9  UNL     1      56.877  37.880   7.191  1.00  0.00     0.120 A 
HETATM    5  C10 UNL     1      57.485  39.131   7.116  1.00  0.00     0.081 A 
HETATM    6  N2  UNL     1      57.470  40.121   6.213  1.00  0.00    -0.190 N 
ATOM      7  H2  UNL     1      56.919  40.025   5.361  1.00  0.00     0.184 HD
HETATM    8  C11 UNL     1      58.188  41.249   6.432  1.00  0.00     0.677 A 
HETATM    9  N4  UNL     1      58.925  41.406   7.545  1.00  0.00    -0.176 N 
ATOM     10  H4  UNL     1      59.459  42.263   7.691  1.00  0.00     0.186 HD
HETATM   11  C12 UNL     1      58.955  40.426   8.466  1.00  0.00     0.133 A 
HETATM   12  C18 UNL     1      58.230  39.266   8.261  1.00  0.00     0.070 A 
ENDROOT
BRANCH   1  13
HETATM   13  S1  UNL     1      58.846  37.798  10.607  1.00  0.00    -0.109 SA
BRANCH  13  14
HETATM   14  C7  UNL     1      60.268  36.702  10.321  1.00  0.00     0.107 C 
BRANCH  14  15
HETATM   15  C6  UNL     1      61.524  37.539  10.026  1.00  0.00     0.178 C 
BRANCH  15  16
HETATM   16  O3  UNL     1      61.474  37.832   8.687  1.00  0.00    -0.388 OA
BRANCH  16  17
HETATM   17  C5  UNL     1      61.507  36.705   7.857  1.00  0.00     0.193 C 
BRANCH  17  18
HETATM   18  C4  UNL     1      60.636  36.827   6.651  1.00  0.00     0.193 C 
BRANCH  18  19
HETATM   19  O2  UNL     1      59.610  35.928   6.677  1.00  0.00    -0.387 OA
BRANCH  19  20
HETATM   20  C3  UNL     1      59.938  34.681   7.215  1.00  0.00     0.193 C 
BRANCH  20  21
HETATM   21  C2  UNL     1      59.463  33.657   6.218  1.00  0.00     0.193 C 
BRANCH  21  22
HETATM   22  O1  UNL     1      59.824  33.986   4.952  1.00  0.00    -0.394 OA
HETATM   23  C1  UNL     1      59.431  33.075   4.018  1.00  0.00     0.201 C 
ENDBRANCH  21  22
ENDBRANCH  20  21
ENDBRANCH  19  20
ENDBRANCH  18  19
ENDBRANCH  17  18
ENDBRANCH  16  17
ENDBRANCH  15  16
ENDBRANCH  14  15
ENDBRANCH  13  14
ENDBRANCH   1  13
BRANCH  11  24
HETATM   24  N5  UNL     1      59.637  40.501   9.551  1.00  0.00    -0.357 N 
ATOM     25  H5  UNL     1      60.261  39.720   9.756  1.00  0.00     0.162 HD
BRANCH  24  26
HETATM   26  C13 UNL     1      59.609  41.561  10.493  1.00  0.00     0.177 C 
HETATM   27  C14 UNL     1      60.533  41.226  11.637  1.00  0.00     0.042 C 
HETATM   28  C15 UNL     1      60.226  42.163  12.782  1.00  0.00     0.004 C 
HETATM   29  C16 UNL     1      59.637  43.458  12.322  1.00  0.00     0.016 C 
HETATM   30  C17 UNL     1      60.228  43.823  10.984  1.00  0.00     0.115 C 
HETATM   31  N6  UNL     1      59.999  42.843   9.972  1.00  0.00    -0.215 NA
BRANCH  31  32
HETATM   32  N7  UNL     1      61.112  42.801   9.141  1.00  0.00    -0.361 NA
ATOM     33  H72 UNL     1      60.987  42.041   8.472  1.00  0.00     0.171 HD
ATOM     34  H71 UNL     1      61.338  43.694   8.704  1.00  0.00     0.171 HD
ENDBRANCH  31  32
ENDBRANCH  24  26
ENDBRANCH  11  24
BRANCH   8  35
HETATM   35  N3  UNL     1      58.135  42.172   5.525  1.00  0.00    -0.234 N 
ATOM     36  H32 UNL     1      57.584  42.048   4.675  1.00  0.00     0.174 HD
ATOM     37  H31 UNL     1      58.665  43.026   5.695  1.00  0.00     0.174 HD
ENDBRANCH   8  35
TORSDOF 14
ENDMDL
MODEL 2
REMARK VINA RESULT: -6.479682672      3.896      6.309
REMARK  14 active torsions:
REMARK  status: ('A' for Active; 'I' for Inactive)
REMARK    1  A    between atoms: O1_2  and  C2_3 
REMARK    2  A    between atoms: C2_3  and  C3_4 
REMARK    3  A    between atoms: C3_4  and  O2_5 
REMARK    4  A    between atoms: O2_5  and  C4_6 
REMARK    5  A    between atoms: C4_6  and  C5_7 
REMARK    6  A    between atoms: C5_7  and  O3_8 
REMARK    7  A    between atoms: O3_8  and  C6_9 
REMARK    8  A    between atoms: C6_9  and  C7_10 
REMARK    9  A    between atoms: C7_10  and  S1_11 
REMARK   10  A    between atoms: S1_11  and  C8_12 
REMARK   11  A    between atoms: C11_19  and  N3_20 
REMARK   12  A    between atoms: C12_25  and  N5_26 
REMARK   13  A    between atoms: N5_26  and  C13_28 
REMARK   14  A    between atoms: N6_33  and  N7_34 
ROOT
HETATM    1  C8  UNL     1      60.806  38.510   9.399  1.00  0.00     0.086 A 
HETATM    2  N1  UNL     1      61.241  37.387   8.787  1.00  0.00    -0.357 N 
ATOM      3  H1  UNL     1      60.694  36.837   8.126  1.00  0.00     0.166 HD
HETATM    4  C9  UNL     1      62.485  37.099   9.167  1.00  0.00     0.120 A 
HETATM    5  C10 UNL     1      62.898  38.074  10.072  1.00  0.00     0.081 A 
HETATM    6  N2  UNL     1      64.027  38.286  10.761  1.00  0.00    -0.190 N 
ATOM      7  H2  UNL     1      64.811  37.642  10.665  1.00  0.00     0.184 HD
HETATM    8  C11 UNL     1      64.127  39.355  11.587  1.00  0.00     0.677 A 
HETATM    9  N4  UNL     1      63.110  40.223  11.737  1.00  0.00    -0.176 N 
ATOM     10  H4  UNL     1      63.205  41.021  12.365  1.00  0.00     0.186 HD
HETATM   11  C12 UNL     1      61.967  40.030  11.055  1.00  0.00     0.133 A 
HETATM   12  C18 UNL     1      61.846  38.944  10.207  1.00  0.00     0.070 A 
ENDROOT
BRANCH   1  13
HETATM   13  S1  UNL     1      59.212  39.297   9.217  1.00  0.00    -0.109 SA
BRANCH  13  14
HETATM   14  C7  UNL     1      59.298  40.391   7.767  1.00  0.00     0.107 C 
BRANCH  14  15
HETATM   15  C6  UNL     1      58.836  41.807   8.151  1.00  0.00     0.178 C 
BRANCH  15  16
HETATM   16  O3  UNL     1      57.689  42.035   7.434  1.00  0.00    -0.388 OA
BRANCH  16  17
HETATM   17  C5  UNL     1      57.483  41.127   6.388  1.00  0.00     0.193 C 
BRANCH  17  18
HETATM   18  C4  UNL     1      57.130  41.781   5.093  1.00  0.00     0.193 C 
BRANCH  18  19
HETATM   19  O2  UNL     1      55.824  42.176   5.066  1.00  0.00    -0.387 OA
BRANCH  19  20
HETATM   20  C3  UNL     1      55.145  41.872   3.884  1.00  0.00     0.193 C 
BRANCH  20  21
HETATM   21  C2  UNL     1      55.841  42.640   2.792  1.00  0.00     0.193 C 
BRANCH  21  22
HETATM   22  O1  UNL     1      55.056  43.630   2.297  1.00  0.00    -0.394 OA
HETATM   23  C1  UNL     1      55.588  44.256   1.210  1.00  0.00     0.201 C 
ENDBRANCH  21  22
ENDBRANCH  20  21
ENDBRANCH  19  20
ENDBRANCH  18  19
ENDBRANCH  17  18
ENDBRANCH  16  17
ENDBRANCH  15  16
ENDBRANCH  14  15
ENDBRANCH  13  14
ENDBRANCH   1  13
BRANCH  11  24
HETATM   24  N5  UNL     1      60.952  40.812  11.147  1.00  0.00    -0.357 N 
ATOM     25  H5  UNL     1      60.109  40.531  10.644  1.00  0.00     0.162 HD
BRANCH  24  26
HETATM   26  C13 UNL     1      60.886  42.025  11.878  1.00  0.00     0.177 C 
HETATM   27  C14 UNL     1      59.557  42.686  11.613  1.00  0.00     0.042 C 
HETATM   28  C15 UNL     1      59.639  44.118  12.089  1.00  0.00     0.004 C 
HETATM   29  C16 UNL     1      60.646  44.304  13.178  1.00  0.00     0.016 C 
HETATM   30  C17 UNL     1      60.690  43.061  14.029  1.00  0.00     0.115 C 
HETATM   31  N6  UNL     1      61.032  41.882  13.301  1.00  0.00    -0.215 NA
BRANCH  31  32
HETATM   32  N7  UNL     1      60.324  40.813  13.837  1.00  0.00    -0.361 NA
ATOM     33  H72 UNL     1      60.710  40.598  14.756  1.00  0.00     0.171 HD
ATOM     34  H71 UNL     1      59.313  40.946  13.843  1.00  0.00     0.171 HD
ENDBRANCH  31  32
ENDBRANCH  24  26
ENDBRANCH  11  24
BRANCH   8  35
HETATM   35  N3  UNL     1      65.241  39.510  12.228  1.00  0.00    -0.234 N 
ATOM     36  H32 UNL     1      65.833  38.712  12.460  1.00  0.00     0.174 HD
ATOM     37  H31 UNL     1      65.503  40.460  12.489  1.00  0.00     0.174 HD
ENDBRANCH   8  35
TORSDOF 14
ENDMDL
MODEL 3
REMARK VINA RESULT: -6.325923307      1.088      2.495
REMARK  14 active torsions:
REMARK  status: ('A' for Active; 'I' for Inactive)
REMARK    1  A    between atoms: O1_2  and  C2_3 
REMARK    2  A    between atoms: C2_3  and  C3_4 
REMARK    3  A    between atoms: C3_4  and  O2_5 
REMARK    4  A    between atoms: O2_5  and  C4_6 
REMARK    5  A    between atoms: C4_6  and  C5_7 
REMARK    6  A    between atoms: C5_7  and  O3_8 
REMARK    7  A    between atoms: O3_8  and  C6_9 
REMARK    8  A    between atoms: C6_9  and  C7_10 
REMARK    9  A    between atoms: C7_10  and  S1_11 
REMARK   10  A    between atoms: S1_11  and  C8_12 
REMARK   11  A    between atoms: C11_19  and  N3_20 
REMARK   12  A    between atoms: C12_25  and  N5_26 
REMARK   13  A    between atoms: N5_26  and  C13_28 
REMARK   14  A    between atoms: N6_33  and  N7_34 
ROOT
HETATM    1  C8  UNL     1      57.878  38.002   8.844  1.00  0.00     0.086 A 
HETATM    2  N1  UNL     1      57.046  37.211   8.132  1.00  0.00    -0.357 N 
ATOM      3  H1  UNL     1      56.713  36.296   8.436  1.00  0.00     0.166 HD
HETATM    4  C9  UNL     1      56.722  37.790   6.977  1.00  0.00     0.120 A 
HETATM    5  C10 UNL     1      57.365  39.024   6.916  1.00  0.00     0.081 A 
HETATM    6  N2  UNL     1      57.404  40.010   6.011  1.00  0.00    -0.190 N 
ATOM      7  H2  UNL     1      56.875  39.927   5.143  1.00  0.00     0.184 HD
HETATM    8  C11 UNL     1      58.145  41.120   6.248  1.00  0.00     0.677 A 
HETATM    9  N4  UNL     1      58.853  41.261   7.382  1.00  0.00    -0.176 N 
ATOM     10  H4  UNL     1      59.405  42.104   7.541  1.00  0.00     0.186 HD
HETATM   11  C12 UNL     1      58.830  40.284   8.305  1.00  0.00     0.133 A 
HETATM   12  C18 UNL     1      58.080  39.143   8.082  1.00  0.00     0.070 A 
ENDROOT
BRANCH   1  13
HETATM   13  S1  UNL     1      58.587  37.666  10.449  1.00  0.00    -0.109 SA
BRANCH  13  14
HETATM   14  C7  UNL     1      58.121  35.971  10.916  1.00  0.00     0.107 C 
BRANCH  14  15
HETATM   15  C6  UNL     1      58.940  34.959  10.098  1.00  0.00     0.178 C 
BRANCH  15  16
HETATM   16  O3  UNL     1      58.083  34.461   9.150  1.00  0.00    -0.388 OA
BRANCH  16  17
HETATM   17  C5  UNL     1      58.717  34.048   7.971  1.00  0.00     0.193 C 
BRANCH  17  18
HETATM   18  C4  UNL     1      59.931  34.850   7.636  1.00  0.00     0.193 C 
BRANCH  18  19
HETATM   19  O2  UNL     1      59.644  35.859   6.764  1.00  0.00    -0.387 OA
BRANCH  19  20
HETATM   20  C3  UNL     1      60.625  36.849   6.670  1.00  0.00     0.193 C 
BRANCH  20  21
HETATM   21  C2  UNL     1      61.450  36.741   7.926  1.00  0.00     0.193 C 
BRANCH  21  22
HETATM   22  O1  UNL     1      61.452  37.904   8.625  1.00  0.00    -0.394 OA
HETATM   23  C1  UNL     1      62.331  37.913   9.666  1.00  0.00     0.201 C 
ENDBRANCH  21  22
ENDBRANCH  20  21
ENDBRANCH  19  20
ENDBRANCH  18  19
ENDBRANCH  17  18
ENDBRANCH  16  17
ENDBRANCH  15  16
ENDBRANCH  14  15
ENDBRANCH  13  14
ENDBRANCH   1  13
BRANCH  11  24
HETATM   24  N5  UNL     1      59.481  40.343   9.410  1.00  0.00    -0.357 N 
ATOM     25  H5  UNL     1      60.034  39.523   9.663  1.00  0.00     0.162 HD
BRANCH  24  26
HETATM   26  C13 UNL     1      59.510  41.436  10.314  1.00  0.00     0.177 C 
HETATM   27  C14 UNL     1      60.389  41.080  11.486  1.00  0.00     0.042 C 
HETATM   28  C15 UNL     1      60.128  42.077  12.592  1.00  0.00     0.004 C 
HETATM   29  C16 UNL     1      59.637  43.391  12.076  1.00  0.00     0.016 C 
HETATM   30  C17 UNL     1      60.274  43.667  10.738  1.00  0.00     0.115 C 
HETATM   31  N6  UNL     1      59.996  42.669   9.756  1.00  0.00    -0.215 NA
BRANCH  31  32
HETATM   32  N7  UNL     1      61.118  42.521   8.949  1.00  0.00    -0.361 NA
ATOM     33  H72 UNL     1      61.254  41.527   8.764  1.00  0.00     0.171 HD
ATOM     34  H71 UNL     1      61.100  43.093   8.105  1.00  0.00     0.171 HD
ENDBRANCH  31  32
ENDBRANCH  24  26
ENDBRANCH  11  24
BRANCH   8  35
HETATM   35  N3  UNL     1      58.143  42.041   5.338  1.00  0.00    -0.234 N 
ATOM     36  H32 UNL     1      58.768  41.991   4.533  1.00  0.00     0.174 HD
ATOM     37  H31 UNL     1      57.492  42.817   5.458  1.00  0.00     0.174 HD
ENDBRANCH   8  35
TORSDOF 14
ENDMDL
MODEL 4
REMARK VINA RESULT: -6.183243496      2.367      4.932
REMARK  14 active torsions:
REMARK  status: ('A' for Active; 'I' for Inactive)
REMARK    1  A    between atoms: O1_2  and  C2_3 
REMARK    2  A    between atoms: C2_3  and  C3_4 
REMARK    3  A    between atoms: C3_4  and  O2_5 
REMARK    4  A    between atoms: O2_5  and  C4_6 
REMARK    5  A    between atoms: C4_6  and  C5_7 
REMARK    6  A    between atoms: C5_7  and  O3_8 
REMARK    7  A    between atoms: O3_8  and  C6_9 
REMARK    8  A    between atoms: C6_9  and  C7_10 
REMARK    9  A    between atoms: C7_10  and  S1_11 
REMARK   10  A    between atoms: S1_11  and  C8_12 
REMARK   11  A    between atoms: C11_19  and  N3_20 
REMARK   12  A    between atoms: C12_25  and  N5_26 
REMARK   13  A    between atoms: N5_26  and  C13_28 
REMARK   14  A    between atoms: N6_33  and  N7_34 
ROOT
HETATM    1  C8  UNL     1      58.307  38.264   8.959  1.00  0.00     0.086 A 
HETATM    2  N1  UNL     1      57.479  37.431   8.293  1.00  0.00    -0.357 N 
ATOM      3  H1  UNL     1      57.228  36.492   8.601  1.00  0.00     0.166 HD
HETATM    4  C9  UNL     1      57.035  38.006   7.175  1.00  0.00     0.120 A 
HETATM    5  C10 UNL     1      57.592  39.280   7.094  1.00  0.00     0.081 A 
HETATM    6  N2  UNL     1      57.501  40.282   6.209  1.00  0.00    -0.190 N 
ATOM      7  H2  UNL     1      56.918  40.177   5.380  1.00  0.00     0.184 HD
HETATM    8  C11 UNL     1      58.185  41.433   6.415  1.00  0.00     0.677 A 
HETATM    9  N4  UNL     1      58.963  41.603   7.499  1.00  0.00    -0.176 N 
ATOM     10  H4  UNL     1      59.471  42.477   7.635  1.00  0.00     0.186 HD
HETATM   11  C12 UNL     1      59.070  40.611   8.401  1.00  0.00     0.133 A 
HETATM   12  C18 UNL     1      58.380  39.427   8.208  1.00  0.00     0.070 A 
ENDROOT
BRANCH   1  13
HETATM   13  S1  UNL     1      59.151  37.950  10.502  1.00  0.00    -0.109 SA
BRANCH  13  14
HETATM   14  C7  UNL     1      60.540  36.828  10.155  1.00  0.00     0.107 C 
BRANCH  14  15
HETATM   15  C6  UNL     1      61.465  37.453   9.098  1.00  0.00     0.178 C 
BRANCH  15  16
HETATM   16  O3  UNL     1      62.072  38.520   9.712  1.00  0.00    -0.388 OA
BRANCH  16  17
HETATM   17  C5  UNL     1      63.250  38.189  10.392  1.00  0.00     0.193 C 
BRANCH  17  18
HETATM   18  C4  UNL     1      63.321  38.755  11.771  1.00  0.00     0.193 C 
BRANCH  18  19
HETATM   19  O2  UNL     1      64.113  39.865  11.821  1.00  0.00    -0.387 OA
BRANCH  19  20
HETATM   20  C3  UNL     1      64.641  40.151  13.082  1.00  0.00     0.193 C 
BRANCH  20  21
HETATM   21  C2  UNL     1      63.819  41.286  13.633  1.00  0.00     0.193 C 
BRANCH  21  22
HETATM   22  O1  UNL     1      64.011  42.431  12.930  1.00  0.00    -0.394 OA
HETATM   23  C1  UNL     1      63.639  43.555  13.605  1.00  0.00     0.201 C 
ENDBRANCH  21  22
ENDBRANCH  20  21
ENDBRANCH  19  20
ENDBRANCH  18  19
ENDBRANCH  17  18
ENDBRANCH  16  17
ENDBRANCH  15  16
ENDBRANCH  14  15
ENDBRANCH  13  14
ENDBRANCH   1  13
BRANCH  11  24
HETATM   24  N5  UNL     1      59.795  40.696   9.458  1.00  0.00    -0.357 N 
ATOM     25  H5  UNL     1      60.514  39.983   9.579  1.00  0.00     0.162 HD
BRANCH  24  26
HETATM   26  C13 UNL     1      59.694  41.682  10.472  1.00  0.00     0.177 C 
HETATM   27  C14 UNL     1      60.651  41.340  11.586  1.00  0.00     0.042 C 
HETATM   28  C15 UNL     1      60.284  42.169  12.795  1.00  0.00     0.004 C 
HETATM   29  C16 UNL     1      59.594  43.444  12.429  1.00  0.00     0.016 C 
HETATM   30  C17 UNL     1      60.143  43.945  11.118  1.00  0.00     0.115 C 
HETATM   31  N6  UNL     1      59.981  43.023  10.041  1.00  0.00    -0.215 NA
BRANCH  31  32
HETATM   32  N7  UNL     1      61.086  43.125   9.204  1.00  0.00    -0.361 NA
ATOM     33  H72 UNL     1      61.857  43.527   9.736  1.00  0.00     0.171 HD
ATOM     34  H71 UNL     1      61.329  42.256   8.731  1.00  0.00     0.171 HD
ENDBRANCH  31  32
ENDBRANCH  24  26
ENDBRANCH  11  24
BRANCH   8  35
HETATM   35  N3  UNL     1      58.059  42.366   5.526  1.00  0.00    -0.234 N 
ATOM     36  H32 UNL     1      58.013  42.147   4.531  1.00  0.00     0.174 HD
ATOM     37  H31 UNL     1      58.006  43.328   5.862  1.00  0.00     0.174 HD
ENDBRANCH   8  35
TORSDOF 14
ENDMDL
MODEL 5
REMARK VINA RESULT: -6.175743249      3.823      6.256
REMARK  14 active torsions:
REMARK  status: ('A' for Active; 'I' for Inactive)
REMARK    1  A    between atoms: O1_2  and  C2_3 
REMARK    2  A    between atoms: C2_3  and  C3_4 
REMARK    3  A    between atoms: C3_4  and  O2_5 
REMARK    4  A    between atoms: O2_5  and  C4_6 
REMARK    5  A    between atoms: C4_6  and  C5_7 
REMARK    6  A    between atoms: C5_7  and  O3_8 
REMARK    7  A    between atoms: O3_8  and  C6_9 
REMARK    8  A    between atoms: C6_9  and  C7_10 
REMARK    9  A    between atoms: C7_10  and  S1_11 
REMARK   10  A    between atoms: S1_11  and  C8_12 
REMARK   11  A    between atoms: C11_19  and  N3_20 
REMARK   12  A    between atoms: C12_25  and  N5_26 
REMARK   13  A    between atoms: N5_26  and  C13_28 
REMARK   14  A    between atoms: N6_33  and  N7_34 
ROOT
HETATM    1  C8  UNL     1      59.713  40.534   9.296  1.00  0.00     0.086 A 
HETATM    2  N1  UNL     1      59.543  41.320   8.210  1.00  0.00    -0.357 N 
ATOM      3  H1  UNL     1      59.131  41.012   7.330  1.00  0.00     0.166 HD
HETATM    4  C9  UNL     1      59.989  42.553   8.449  1.00  0.00     0.120 A 
HETATM    5  C10 UNL     1      60.476  42.592   9.752  1.00  0.00     0.081 A 
HETATM    6  N2  UNL     1      61.031  43.546  10.511  1.00  0.00    -0.190 N 
ATOM      7  H2  UNL     1      61.165  44.483  10.133  1.00  0.00     0.184 HD
HETATM    8  C11 UNL     1      61.415  43.267  11.780  1.00  0.00     0.677 A 
HETATM    9  N4  UNL     1      61.252  42.041  12.308  1.00  0.00    -0.176 N 
ATOM     10  H4  UNL     1      61.548  41.850  13.266  1.00  0.00     0.186 HD
HETATM   11  C12 UNL     1      60.697  41.066  11.565  1.00  0.00     0.133 A 
HETATM   12  C18 UNL     1      60.299  41.332  10.267  1.00  0.00     0.070 A 
ENDROOT
BRANCH   1  13
HETATM   13  S1  UNL     1      59.276  38.811   9.469  1.00  0.00    -0.109 SA
BRANCH  13  14
HETATM   14  C7  UNL     1      57.572  38.609   8.865  1.00  0.00     0.107 C 
BRANCH  14  15
HETATM   15  C6  UNL     1      57.549  38.676   7.329  1.00  0.00     0.178 C 
BRANCH  15  16
HETATM   16  O3  UNL     1      57.060  39.918   7.014  1.00  0.00    -0.388 OA
BRANCH  16  17
HETATM   17  C5  UNL     1      57.233  40.273   5.671  1.00  0.00     0.193 C 
BRANCH  17  18
HETATM   18  C4  UNL     1      57.237  41.748   5.440  1.00  0.00     0.193 C 
BRANCH  18  19
HETATM   19  O2  UNL     1      55.980  42.227   5.214  1.00  0.00    -0.387 OA
BRANCH  19  20
HETATM   20  C3  UNL     1      55.364  41.735   4.060  1.00  0.00     0.193 C 
BRANCH  20  21
HETATM   21  C2  UNL     1      55.966  42.495   2.908  1.00  0.00     0.193 C 
BRANCH  21  22
HETATM   22  O1  UNL     1      55.150  43.494   2.487  1.00  0.00    -0.394 OA
HETATM   23  C1  UNL     1      55.503  44.014   1.278  1.00  0.00     0.201 C 
ENDBRANCH  21  22
ENDBRANCH  20  21
ENDBRANCH  19  20
ENDBRANCH  18  19
ENDBRANCH  17  18
ENDBRANCH  16  17
ENDBRANCH  15  16
ENDBRANCH  14  15
ENDBRANCH  13  14
ENDBRANCH   1  13
BRANCH  11  24
HETATM   24  N5  UNL     1      60.512  39.871  11.997  1.00  0.00    -0.357 N 
ATOM     25  H5  UNL     1      60.807  39.111  11.385  1.00  0.00     0.162 HD
BRANCH  24  26
HETATM   26  C13 UNL     1      59.937  39.504  13.241  1.00  0.00     0.177 C 
HETATM   27  C14 UNL     1      59.718  38.012  13.259  1.00  0.00     0.042 C 
HETATM   28  C15 UNL     1      58.792  37.685  14.407  1.00  0.00     0.004 C 
HETATM   29  C16 UNL     1      58.861  38.696  15.506  1.00  0.00     0.016 C 
HETATM   30  C17 UNL     1      60.267  39.232  15.598  1.00  0.00     0.115 C 
HETATM   31  N6  UNL     1      60.723  39.848  14.394  1.00  0.00    -0.215 NA
BRANCH  31  32
HETATM   32  N7  UNL     1      62.081  39.585  14.253  1.00  0.00    -0.361 NA
ATOM     33  H72 UNL     1      62.223  39.088  13.374  1.00  0.00     0.171 HD
ATOM     34  H71 UNL     1      62.675  40.406  14.357  1.00  0.00     0.171 HD
ENDBRANCH  31  32
ENDBRANCH  24  26
ENDBRANCH  11  24
BRANCH   8  35
HETATM   35  N3  UNL     1      61.945  44.229  12.466  1.00  0.00    -0.234 N 
ATOM     36  H32 UNL     1      62.181  45.121  12.032  1.00  0.00     0.174 HD
ATOM     37  H31 UNL     1      62.116  44.057  13.457  1.00  0.00     0.174 HD
ENDBRANCH   8  35
TORSDOF 14
ENDMDL
