MODEL 1
REMARK VINA RESULT: -7.552158501      0.000      0.000
REMARK  5 active torsions:
REMARK  status: ('A' for Active; 'I' for Inactive)
REMARK    1  A    between atoms: C2_2  and  O2_4 
REMARK    2  A    between atoms: O2_4  and  C3_5 
REMARK    3  A    between atoms: C4_6  and  C5_7 
REMARK    4  A    between atoms: C5_7  and  C6_9 
REMARK    5  A    between atoms: C7_10  and  C8_11 
ROOT
HETATM    1  C3  UNL     1      18.956  71.500  18.342  1.00  0.00     0.149 C 
HETATM    2  C4  UNL     1      19.674  70.182  18.653  1.00  0.00     0.097 C 
HETATM    3  C9  UNL     1      21.128  70.218  18.377  1.00  0.00     0.044 C 
HETATM    4  C10 UNL     1      21.747  68.876  18.115  1.00  0.00     0.059 C 
HETATM    5  C11 UNL     1      22.362  68.254  19.349  1.00  0.00     0.046 C 
HETATM    6  C12 UNL     1      20.860  67.885  17.468  1.00  0.00     0.046 C 
HETATM    7  O5  UNL     1      22.830  69.120  17.237  1.00  0.00    -0.380 OA
HETATM    8  C13 UNL     1      22.278  69.992  16.344  1.00  0.00     0.178 C 
HETATM    9  C14 UNL     1      21.535  71.017  17.195  1.00  0.00    -0.011 C 
HETATM   10  C15 UNL     1      22.629  72.014  17.613  1.00  0.00     0.018 C 
HETATM   11  C16 UNL     1      20.542  71.737  16.409  1.00  0.00     0.004 C 
HETATM   12  C17 UNL     1      20.876  73.214  16.174  1.00  0.00     0.007 C 
HETATM   13  C18 UNL     1      19.591  73.677  15.536  1.00  0.00     0.014 C 
HETATM   14  C19 UNL     1      18.465  72.842  16.188  1.00  0.00    -0.016 C 
HETATM   15  C20 UNL     1      17.680  72.338  15.019  1.00  0.00    -0.013 C 
HETATM   16  C21 UNL     1      16.550  72.798  14.570  1.00  0.00     0.047 C 
HETATM   17  C22 UNL     1      15.960  73.933  15.265  1.00  0.00     0.149 C 
HETATM   18  O6  UNL     1      14.750  74.197  15.270  1.00  0.00    -0.293 OA
HETATM   19  C23 UNL     1      16.948  74.774  15.990  1.00  0.00     0.084 C 
HETATM   20  C24 UNL     1      17.651  73.823  16.949  1.00  0.00     0.022 C 
HETATM   21  C25 UNL     1      19.109  71.733  16.890  1.00  0.00     0.033 C 
ENDROOT
BRANCH   2  22
HETATM   22  C5  UNL     1      19.255  69.644  19.946  1.00  0.00     0.156 C 
HETATM   23  O3  UNL     1      18.184  68.934  20.056  1.00  0.00    -0.293 OA
BRANCH  22  24
HETATM   24  C6  UNL     1      19.968  69.837  21.193  1.00  0.00     0.053 C 
HETATM   25  C7  UNL     1      20.142  68.976  22.150  1.00  0.00     0.045 C 
BRANCH  25  26
HETATM   26  C8  UNL     1      20.891  69.319  23.366  1.00  0.00     0.258 C 
HETATM   27  O4  UNL     1      20.503  68.928  24.496  1.00  0.00    -0.302 OA
ENDBRANCH  25  26
ENDBRANCH  22  24
ENDBRANCH   2  22
BRANCH   1  28
HETATM   28  O2  UNL     1      19.198  72.486  19.249  1.00  0.00    -0.315 OA
BRANCH  28  29
HETATM   29  C2  UNL     1      20.273  73.220  19.585  1.00  0.00     0.255 C 
HETATM   30  C1  UNL     1      21.259  72.833  20.627  1.00  0.00     0.126 C 
HETATM   31  O1  UNL     1      20.353  74.258  18.932  1.00  0.00    -0.266 OA
ENDBRANCH  28  29
ENDBRANCH   1  28
TORSDOF 5
ENDMDL
MODEL 2
REMARK VINA RESULT: -7.047899386      2.220      5.323
REMARK  5 active torsions:
REMARK  status: ('A' for Active; 'I' for Inactive)
REMARK    1  A    between atoms: C2_2  and  O2_4 
REMARK    2  A    between atoms: O2_4  and  C3_5 
REMARK    3  A    between atoms: C4_6  and  C5_7 
REMARK    4  A    between atoms: C5_7  and  C6_9 
REMARK    5  A    between atoms: C7_10  and  C8_11 
ROOT
HETATM    1  C3  UNL     1      20.472  72.882  16.696  1.00  0.00     0.149 C 
HETATM    2  C4  UNL     1      21.460  73.309  17.786  1.00  0.00     0.097 C 
HETATM    3  C9  UNL     1      21.489  72.398  18.952  1.00  0.00     0.044 C 
HETATM    4  C10 UNL     1      21.965  73.031  20.227  1.00  0.00     0.059 C 
HETATM    5  C11 UNL     1      23.441  72.819  20.482  1.00  0.00     0.046 C 
HETATM    6  C12 UNL     1      21.653  74.469  20.376  1.00  0.00     0.046 C 
HETATM    7  O5  UNL     1      21.301  72.339  21.268  1.00  0.00    -0.380 OA
HETATM    8  C13 UNL     1      20.028  72.254  20.783  1.00  0.00     0.178 C 
HETATM    9  C14 UNL     1      20.183  71.806  19.334  1.00  0.00    -0.011 C 
HETATM   10  C15 UNL     1      20.331  70.278  19.432  1.00  0.00     0.018 C 
HETATM   11  C16 UNL     1      18.983  72.096  18.560  1.00  0.00     0.004 C 
HETATM   12  C17 UNL     1      18.200  70.852  18.125  1.00  0.00     0.007 C 
HETATM   13  C18 UNL     1      17.185  71.487  17.209  1.00  0.00     0.014 C 
HETATM   14  C19 UNL     1      17.899  72.686  16.545  1.00  0.00    -0.016 C 
HETATM   15  C20 UNL     1      16.937  73.816  16.733  1.00  0.00    -0.013 C 
HETATM   16  C21 UNL     1      16.119  74.312  15.851  1.00  0.00     0.047 C 
HETATM   17  C22 UNL     1      16.120  73.718  14.523  1.00  0.00     0.149 C 
HETATM   18  O6  UNL     1      15.771  74.309  13.493  1.00  0.00    -0.293 OA
HETATM   19  C23 UNL     1      16.585  72.306  14.495  1.00  0.00     0.084 C 
HETATM   20  C24 UNL     1      17.980  72.336  15.105  1.00  0.00     0.022 C 
HETATM   21  C25 UNL     1      19.125  72.925  17.304  1.00  0.00     0.033 C 
ENDROOT
BRANCH   2  22
HETATM   22  C5  UNL     1      22.748  73.694  17.211  1.00  0.00     0.156 C 
HETATM   23  O3  UNL     1      23.739  72.869  17.184  1.00  0.00    -0.293 OA
BRANCH  22  24
HETATM   24  C6  UNL     1      23.039  74.988  16.628  1.00  0.00     0.053 C 
HETATM   25  C7  UNL     1      22.365  76.091  16.762  1.00  0.00     0.045 C 
BRANCH  25  26
HETATM   26  C8  UNL     1      22.785  77.334  16.103  1.00  0.00     0.258 C 
HETATM   27  O4  UNL     1      22.358  77.635  14.959  1.00  0.00    -0.302 OA
ENDBRANCH  25  26
ENDBRANCH  22  24
ENDBRANCH   2  22
BRANCH   1  28
HETATM   28  O2  UNL     1      20.887  71.810  15.965  1.00  0.00    -0.315 OA
BRANCH  28  29
HETATM   29  C2  UNL     1      21.166  70.525  16.245  1.00  0.00     0.255 C 
HETATM   30  C1  UNL     1      22.525  70.011  16.558  1.00  0.00     0.126 C 
HETATM   31  O1  UNL     1      20.166  69.812  16.213  1.00  0.00    -0.266 OA
ENDBRANCH  28  29
ENDBRANCH   1  28
TORSDOF 5
ENDMDL
MODEL 3
REMARK VINA RESULT: -7.021263286      1.925      6.328
REMARK  5 active torsions:
REMARK  status: ('A' for Active; 'I' for Inactive)
REMARK    1  A    between atoms: C2_2  and  O2_4 
REMARK    2  A    between atoms: O2_4  and  C3_5 
REMARK    3  A    between atoms: C4_6  and  C5_7 
REMARK    4  A    between atoms: C5_7  and  C6_9 
REMARK    5  A    between atoms: C7_10  and  C8_11 
ROOT
HETATM    1  C3  UNL     1      20.248  70.789  19.226  1.00  0.00     0.149 C 
HETATM    2  C4  UNL     1      21.190  71.979  19.012  1.00  0.00     0.097 C 
HETATM    3  C9  UNL     1      22.266  71.716  18.030  1.00  0.00     0.044 C 
HETATM    4  C10 UNL     1      23.488  72.570  18.201  1.00  0.00     0.059 C 
HETATM    5  C11 UNL     1      23.481  73.801  17.322  1.00  0.00     0.046 C 
HETATM    6  C12 UNL     1      23.791  72.974  19.591  1.00  0.00     0.046 C 
HETATM    7  O5  UNL     1      24.571  71.785  17.737  1.00  0.00    -0.380 OA
HETATM    8  C13 UNL     1      24.296  70.569  18.296  1.00  0.00     0.178 C 
HETATM    9  C14 UNL     1      22.812  70.337  18.033  1.00  0.00    -0.011 C 
HETATM   10  C15 UNL     1      22.772  69.776  16.602  1.00  0.00     0.018 C 
HETATM   11  C16 UNL     1      22.268  69.326  18.931  1.00  0.00     0.004 C 
HETATM   12  C17 UNL     1      21.878  68.015  18.239  1.00  0.00     0.007 C 
HETATM   13  C18 UNL     1      21.190  67.310  19.380  1.00  0.00     0.014 C 
HETATM   14  C19 UNL     1      20.507  68.416  20.217  1.00  0.00    -0.016 C 
HETATM   15  C20 UNL     1      20.933  68.109  21.617  1.00  0.00    -0.013 C 
HETATM   16  C21 UNL     1      20.236  67.518  22.543  1.00  0.00     0.047 C 
HETATM   17  C22 UNL     1      18.886  67.096  22.203  1.00  0.00     0.149 C 
HETATM   18  O6  UNL     1      17.973  66.944  23.026  1.00  0.00    -0.293 OA
HETATM   19  C23 UNL     1      18.678  66.853  20.751  1.00  0.00     0.084 C 
HETATM   20  C24 UNL     1      19.052  68.164  20.073  1.00  0.00     0.022 C 
HETATM   21  C25 UNL     1      21.071  69.691  19.778  1.00  0.00     0.033 C 
ENDROOT
BRANCH   2  22
HETATM   22  C5  UNL     1      20.441  73.226  18.862  1.00  0.00     0.156 C 
HETATM   23  O3  UNL     1      20.346  74.066  19.836  1.00  0.00    -0.293 OA
BRANCH  22  24
HETATM   24  C6  UNL     1      19.758  73.640  17.654  1.00  0.00     0.053 C 
HETATM   25  C7  UNL     1      18.586  74.191  17.552  1.00  0.00     0.045 C 
BRANCH  25  26
HETATM   26  C8  UNL     1      18.018  74.556  16.248  1.00  0.00     0.258 C 
HETATM   27  O4  UNL     1      17.623  75.728  16.021  1.00  0.00    -0.302 OA
ENDBRANCH  25  26
ENDBRANCH  22  24
ENDBRANCH   2  22
BRANCH   1  28
HETATM   28  O2  UNL     1      19.383  70.580  18.196  1.00  0.00    -0.315 OA
BRANCH  28  29
HETATM   29  C2  UNL     1      18.045  70.504  18.083  1.00  0.00     0.255 C 
HETATM   30  C1  UNL     1      17.335  69.726  17.035  1.00  0.00     0.126 C 
HETATM   31  O1  UNL     1      17.467  71.157  18.949  1.00  0.00    -0.266 OA
ENDBRANCH  28  29
ENDBRANCH   1  28
TORSDOF 5
ENDMDL
MODEL 4
REMARK VINA RESULT: -6.996109076      2.253      4.472
REMARK  5 active torsions:
REMARK  status: ('A' for Active; 'I' for Inactive)
REMARK    1  A    between atoms: C2_2  and  O2_4 
REMARK    2  A    between atoms: O2_4  and  C3_5 
REMARK    3  A    between atoms: C4_6  and  C5_7 
REMARK    4  A    between atoms: C5_7  and  C6_9 
REMARK    5  A    between atoms: C7_10  and  C8_11 
ROOT
HETATM    1  C3  UNL     1      20.755  69.964  18.393  1.00  0.00     0.149 C 
HETATM    2  C4  UNL     1      22.218  69.588  18.654  1.00  0.00     0.097 C 
HETATM    3  C9  UNL     1      22.794  70.240  19.851  1.00  0.00     0.044 C 
HETATM    4  C10 UNL     1      24.289  70.372  19.831  1.00  0.00     0.059 C 
HETATM    5  C11 UNL     1      24.996  69.244  20.548  1.00  0.00     0.046 C 
HETATM    6  C12 UNL     1      24.892  70.542  18.491  1.00  0.00     0.046 C 
HETATM    7  O5  UNL     1      24.580  71.536  20.582  1.00  0.00    -0.380 OA
HETATM    8  C13 UNL     1      23.641  72.412  20.118  1.00  0.00     0.178 C 
HETATM    9  C14 UNL     1      22.334  71.627  20.108  1.00  0.00    -0.011 C 
HETATM   10  C15 UNL     1      21.829  71.730  21.558  1.00  0.00     0.018 C 
HETATM   11  C16 UNL     1      21.347  72.254  19.239  1.00  0.00     0.004 C 
HETATM   12  C17 UNL     1      20.156  72.870  19.982  1.00  0.00     0.007 C 
HETATM   13  C18 UNL     1      19.273  73.226  18.813  1.00  0.00     0.014 C 
HETATM   14  C19 UNL     1      19.523  72.141  17.742  1.00  0.00    -0.016 C 
HETATM   15  C20 UNL     1      19.769  72.930  16.495  1.00  0.00    -0.013 C 
HETATM   16  C21 UNL     1      18.933  73.149  15.522  1.00  0.00     0.047 C 
HETATM   17  C22 UNL     1      17.601  72.574  15.635  1.00  0.00     0.149 C 
HETATM   18  O6  UNL     1      16.873  72.304  14.671  1.00  0.00    -0.293 OA
HETATM   19  C23 UNL     1      17.169  72.327  17.036  1.00  0.00     0.084 C 
HETATM   20  C24 UNL     1      18.235  71.413  17.625  1.00  0.00     0.022 C 
HETATM   21  C25 UNL     1      20.731  71.421  18.139  1.00  0.00     0.033 C 
ENDROOT
BRANCH   2  22
HETATM   22  C5  UNL     1      22.426  68.148  18.515  1.00  0.00     0.156 C 
HETATM   23  O3  UNL     1      22.248  67.350  19.513  1.00  0.00    -0.293 OA
BRANCH  22  24
HETATM   24  C6  UNL     1      22.832  67.485  17.293  1.00  0.00     0.053 C 
HETATM   25  C7  UNL     1      23.931  66.827  17.072  1.00  0.00     0.045 C 
BRANCH  25  26
HETATM   26  C8  UNL     1      24.207  66.207  15.770  1.00  0.00     0.258 C 
HETATM   27  O4  UNL     1      23.301  65.614  15.131  1.00  0.00    -0.302 OA
ENDBRANCH  25  26
ENDBRANCH  22  24
ENDBRANCH   2  22
BRANCH   1  28
HETATM   28  O2  UNL     1      19.874  69.379  19.251  1.00  0.00    -0.315 OA
BRANCH  28  29
HETATM   29  C2  UNL     1      19.075  68.299  19.195  1.00  0.00     0.255 C 
HETATM   30  C1  UNL     1      18.634  67.521  20.382  1.00  0.00     0.126 C 
HETATM   31  O1  UNL     1      18.746  68.020  18.044  1.00  0.00    -0.266 OA
ENDBRANCH  28  29
ENDBRANCH   1  28
TORSDOF 5
ENDMDL
MODEL 5
REMARK VINA RESULT: -6.975705969      2.002      6.594
REMARK  5 active torsions:
REMARK  status: ('A' for Active; 'I' for Inactive)
REMARK    1  A    between atoms: C2_2  and  O2_4 
REMARK    2  A    between atoms: O2_4  and  C3_5 
REMARK    3  A    between atoms: C4_6  and  C5_7 
REMARK    4  A    between atoms: C5_7  and  C6_9 
REMARK    5  A    between atoms: C7_10  and  C8_11 
ROOT
HETATM    1  C3  UNL     1      18.835  70.184  19.491  1.00  0.00     0.149 C 
HETATM    2  C4  UNL     1      19.240  71.652  19.325  1.00  0.00     0.097 C 
HETATM    3  C9  UNL     1      20.457  71.844  18.505  1.00  0.00     0.044 C 
HETATM    4  C10 UNL     1      21.197  73.122  18.775  1.00  0.00     0.059 C 
HETATM    5  C11 UNL     1      20.819  74.240  17.829  1.00  0.00     0.046 C 
HETATM    6  C12 UNL     1      21.114  73.620  20.165  1.00  0.00     0.046 C 
HETATM    7  O5  UNL     1      22.557  72.841  18.501  1.00  0.00    -0.380 OA
HETATM    8  C13 UNL     1      22.717  71.622  19.094  1.00  0.00     0.178 C 
HETATM    9  C14 UNL     1      21.505  70.805  18.661  1.00  0.00    -0.011 C 
HETATM   10  C15 UNL     1      21.894  70.270  17.273  1.00  0.00     0.018 C 
HETATM   11  C16 UNL     1      21.292  69.666  19.543  1.00  0.00     0.004 C 
HETATM   12  C17 UNL     1      21.562  68.305  18.889  1.00  0.00     0.007 C 
HETATM   13  C18 UNL     1      21.062  67.388  19.976  1.00  0.00     0.014 C 
HETATM   14  C19 UNL     1      19.883  68.125  20.650  1.00  0.00    -0.016 C 
HETATM   15  C20 UNL     1      20.195  68.025  22.109  1.00  0.00    -0.013 C 
HETATM   16  C21 UNL     1      19.672  67.206  22.974  1.00  0.00     0.047 C 
HETATM   17  C22 UNL     1      18.667  66.270  22.493  1.00  0.00     0.149 C 
HETATM   18  O6  UNL     1      17.786  65.765  23.202  1.00  0.00    -0.293 OA
HETATM   19  C23 UNL     1      18.780  65.957  21.044  1.00  0.00     0.084 C 
HETATM   20  C24 UNL     1      18.687  67.303  20.339  1.00  0.00     0.022 C 
HETATM   21  C25 UNL     1      19.943  69.517  20.208  1.00  0.00     0.033 C 
ENDROOT
BRANCH   2  22
HETATM   22  C5  UNL     1      18.083  72.487  19.005  1.00  0.00     0.156 C 
HETATM   23  O3  UNL     1      17.084  72.578  19.816  1.00  0.00    -0.293 OA
BRANCH  22  24
HETATM   24  C6  UNL     1      17.939  73.274  17.797  1.00  0.00     0.053 C 
HETATM   25  C7  UNL     1      17.035  73.153  16.872  1.00  0.00     0.045 C 
BRANCH  25  26
HETATM   26  C8  UNL     1      17.018  74.029  15.694  1.00  0.00     0.258 C 
HETATM   27  O4  UNL     1      17.606  75.140  15.706  1.00  0.00    -0.302 OA
ENDBRANCH  25  26
ENDBRANCH  22  24
ENDBRANCH   2  22
BRANCH   1  28
HETATM   28  O2  UNL     1      18.281  69.636  18.374  1.00  0.00    -0.315 OA
BRANCH  28  29
HETATM   29  C2  UNL     1      18.736  69.319  17.149  1.00  0.00     0.255 C 
HETATM   30  C1  UNL     1      19.207  67.966  16.755  1.00  0.00     0.126 C 
HETATM   31  O1  UNL     1      18.723  70.280  16.383  1.00  0.00    -0.266 OA
ENDBRANCH  28  29
ENDBRANCH   1  28
TORSDOF 5
ENDMDL
