MODEL 1
REMARK VINA RESULT: -7.661117869      0.000      0.000
REMARK  6 active torsions:
REMARK  status: ('A' for Active; 'I' for Inactive)
REMARK    1  A    between atoms: N1_2  and  C2_4 
REMARK    2  A    between atoms: C2_4  and  O1_5 
REMARK    3  A    between atoms: C2_4  and  C3_7 
REMARK    4  A    between atoms: C4_9  and  N2_10 
REMARK    5  A    between atoms: N3_13  and  C7_14 
REMARK    6  A    between atoms: N4_17  and  C10_18 
ROOT
HETATM    1  N2  UNL     1      17.662  72.244  15.935  1.00  0.00    -0.352 N 
HETATM    2  C5  UNL     1      17.443  71.274  16.972  1.00  0.00     0.169 C 
HETATM    3  C6  UNL     1      18.568  70.283  16.925  1.00  0.00     0.083 C 
HETATM    4  N3  UNL     1      19.863  70.758  16.747  1.00  0.00    -0.366 N 
HETATM    5  C20 UNL     1      20.038  71.878  15.933  1.00  0.00     0.083 C 
HETATM    6  C21 UNL     1      18.947  72.902  15.904  1.00  0.00     0.169 C 
ENDROOT
BRANCH   4   7
HETATM    7  C7  UNL     1      20.949  70.212  17.446  1.00  0.00     0.091 C 
HETATM    8  C8  UNL     1      22.245  70.807  16.962  1.00  0.00     0.056 C 
HETATM    9  C9  UNL     1      23.461  69.988  17.145  1.00  0.00     0.275 C 
HETATM   10  N4  UNL     1      23.436  68.930  18.070  1.00  0.00     0.093 N 
HETATM   11  C18 UNL     1      22.175  68.377  18.408  1.00  0.00     0.275 C 
HETATM   12  C19 UNL     1      21.118  68.720  17.346  1.00  0.00     0.056 C 
BRANCH  10  13
HETATM   13  C10 UNL     1      24.378  67.886  17.834  1.00  0.00     0.223 C 
HETATM   14  C11 UNL     1      23.841  66.490  17.965  1.00  0.00     0.036 C 
HETATM   15  C12 UNL     1      25.001  65.527  17.776  1.00  0.00     0.011 C 
HETATM   16  C13 UNL     1      25.424  65.635  16.326  1.00  0.00    -0.048 C 
HETATM   17  C14 UNL     1      26.471  64.613  15.980  1.00  0.00     0.015 C 
HETATM   18  C15 UNL     1      24.259  65.419  15.388  1.00  0.00     0.015 C 
HETATM   19  C16 UNL     1      26.027  67.021  16.158  1.00  0.00     0.011 C 
HETATM   20  C17 UNL     1      25.050  68.114  16.496  1.00  0.00     0.036 C 
ENDBRANCH  10  13
ENDBRANCH   4   7
BRANCH   1  21
HETATM   21  C4  UNL     1      16.719  72.629  14.941  1.00  0.00     0.148 A 
HETATM   22  S1  UNL     1      16.187  71.905  13.499  1.00  0.00    -0.048 SA
HETATM   23  C3  UNL     1      15.075  73.140  12.966  1.00  0.00     0.081 A 
HETATM   24  C22 UNL     1      15.213  74.043  13.987  1.00  0.00     0.029 A 
HETATM   25  N5  UNL     1      16.037  73.751  14.947  1.00  0.00    -0.339 N 
HETATM   26  C23 UNL     1      14.434  75.354  14.025  1.00  0.00     0.070 C 
ATOM     27  H5  UNL     1      16.157  74.405  15.720  1.00  0.00     0.168 HD
BRANCH  23  28
HETATM   28  C2  UNL     1      14.260  73.121  11.762  1.00  0.00     0.155 C 
BRANCH  28  29
HETATM   29  N1  UNL     1      12.988  72.652  11.586  1.00  0.00    -0.374 N 
HETATM   30  C1  UNL     1      12.724  71.419  10.833  1.00  0.00     0.148 C 
ATOM     31  H1  UNL     1      12.206  73.169  11.986  1.00  0.00     0.161 HD
ENDBRANCH  28  29
BRANCH  28  32
HETATM   32  O1  UNL     1      14.850  73.630  10.716  1.00  0.00    -0.345 OA
ATOM     33  H1  UNL     1      15.579  73.141  10.353  1.00  0.00     0.219 HD
ENDBRANCH  28  32
ENDBRANCH  23  28
ENDBRANCH   1  21
TORSDOF 6
ENDMDL
MODEL 2
REMARK VINA RESULT: -7.551971696      3.301      4.669
REMARK  6 active torsions:
REMARK  status: ('A' for Active; 'I' for Inactive)
REMARK    1  A    between atoms: N1_2  and  C2_4 
REMARK    2  A    between atoms: C2_4  and  O1_5 
REMARK    3  A    between atoms: C2_4  and  C3_7 
REMARK    4  A    between atoms: C4_9  and  N2_10 
REMARK    5  A    between atoms: N3_13  and  C7_14 
REMARK    6  A    between atoms: N4_17  and  C10_18 
ROOT
HETATM    1  N2  UNL     1      17.622  72.517  16.197  1.00  0.00    -0.352 N 
HETATM    2  C5  UNL     1      17.368  72.611  17.607  1.00  0.00     0.169 C 
HETATM    3  C6  UNL     1      17.720  71.292  18.231  1.00  0.00     0.083 C 
HETATM    4  N3  UNL     1      18.890  70.658  17.825  1.00  0.00    -0.366 N 
HETATM    5  C20 UNL     1      19.272  70.793  16.489  1.00  0.00     0.083 C 
HETATM    6  C21 UNL     1      18.934  72.071  15.788  1.00  0.00     0.169 C 
ENDROOT
BRANCH   4   7
HETATM    7  C7  UNL     1      19.725  70.000  18.739  1.00  0.00     0.091 C 
HETATM    8  C8  UNL     1      20.174  68.673  18.187  1.00  0.00     0.056 C 
HETATM    9  C9  UNL     1      20.551  67.639  19.173  1.00  0.00     0.275 C 
HETATM   10  N4  UNL     1      20.851  68.029  20.489  1.00  0.00     0.093 N 
HETATM   11  C18 UNL     1      20.318  69.259  20.951  1.00  0.00     0.275 C 
HETATM   12  C19 UNL     1      19.127  69.706  20.088  1.00  0.00     0.056 C 
BRANCH  10  13
HETATM   13  C10 UNL     1      20.679  67.021  21.483  1.00  0.00     0.223 C 
HETATM   14  C11 UNL     1      20.182  67.504  22.814  1.00  0.00     0.036 C 
HETATM   15  C12 UNL     1      20.157  66.316  23.760  1.00  0.00     0.011 C 
HETATM   16  C13 UNL     1      19.067  65.388  23.263  1.00  0.00    -0.048 C 
HETATM   17  C14 UNL     1      18.843  64.242  24.210  1.00  0.00     0.015 C 
HETATM   18  C15 UNL     1      17.747  66.109  23.112  1.00  0.00     0.015 C 
HETATM   19  C16 UNL     1      19.553  64.830  21.934  1.00  0.00     0.011 C 
HETATM   20  C17 UNL     1      19.816  65.911  20.922  1.00  0.00     0.036 C 
ENDBRANCH  10  13
ENDBRANCH   4   7
BRANCH   1  21
HETATM   21  C4  UNL     1      16.702  72.841  15.161  1.00  0.00     0.148 A 
HETATM   22  S1  UNL     1      16.247  72.060  13.722  1.00  0.00    -0.048 SA
HETATM   23  C3  UNL     1      15.111  73.239  13.117  1.00  0.00     0.081 A 
HETATM   24  C22 UNL     1      15.181  74.174  14.116  1.00  0.00     0.029 A 
HETATM   25  N5  UNL     1      15.981  73.937  15.112  1.00  0.00    -0.339 N 
HETATM   26  C23 UNL     1      14.355  75.455  14.091  1.00  0.00     0.070 C 
ATOM     27  H5  UNL     1      16.050  74.616  15.870  1.00  0.00     0.168 HD
BRANCH  23  28
HETATM   28  C2  UNL     1      14.341  73.157  11.887  1.00  0.00     0.155 C 
BRANCH  28  29
HETATM   29  N1  UNL     1      13.084  72.660  11.685  1.00  0.00    -0.374 N 
HETATM   30  C1  UNL     1      12.852  71.481  10.841  1.00  0.00     0.148 C 
ATOM     31  H1  UNL     1      12.289  73.118  12.130  1.00  0.00     0.161 HD
ENDBRANCH  28  29
BRANCH  28  32
HETATM   32  O1  UNL     1      14.960  73.635  10.842  1.00  0.00    -0.345 OA
ATOM     33  H1  UNL     1      15.796  74.058  10.996  1.00  0.00     0.219 HD
ENDBRANCH  28  32
ENDBRANCH  23  28
ENDBRANCH   1  21
TORSDOF 6
ENDMDL
MODEL 3
REMARK VINA RESULT: -7.446166877      0.892      1.003
REMARK  6 active torsions:
REMARK  status: ('A' for Active; 'I' for Inactive)
REMARK    1  A    between atoms: N1_2  and  C2_4 
REMARK    2  A    between atoms: C2_4  and  O1_5 
REMARK    3  A    between atoms: C2_4  and  C3_7 
REMARK    4  A    between atoms: C4_9  and  N2_10 
REMARK    5  A    between atoms: N3_13  and  C7_14 
REMARK    6  A    between atoms: N4_17  and  C10_18 
ROOT
HETATM    1  N2  UNL     1      17.664  72.455  15.909  1.00  0.00    -0.352 N 
HETATM    2  C5  UNL     1      17.538  71.405  16.881  1.00  0.00     0.169 C 
HETATM    3  C6  UNL     1      18.782  70.569  16.825  1.00  0.00     0.083 C 
HETATM    4  N3  UNL     1      20.011  71.213  16.725  1.00  0.00    -0.366 N 
HETATM    5  C20 UNL     1      20.067  72.394  15.981  1.00  0.00     0.083 C 
HETATM    6  C21 UNL     1      18.855  73.271  15.966  1.00  0.00     0.169 C 
ENDROOT
BRANCH   4   7
HETATM    7  C7  UNL     1      21.134  70.768  17.436  1.00  0.00     0.091 C 
HETATM    8  C8  UNL     1      22.289  71.716  17.249  1.00  0.00     0.056 C 
HETATM    9  C9  UNL     1      23.644  71.152  17.422  1.00  0.00     0.275 C 
HETATM   10  N4  UNL     1      23.793  69.935  18.108  1.00  0.00     0.093 N 
HETATM   11  C18 UNL     1      22.673  69.068  18.165  1.00  0.00     0.275 C 
HETATM   12  C19 UNL     1      21.654  69.405  17.065  1.00  0.00     0.056 C 
BRANCH  10  13
HETATM   13  C10 UNL     1      24.969  69.192  17.793  1.00  0.00     0.223 C 
HETATM   14  C11 UNL     1      24.944  67.744  18.189  1.00  0.00     0.036 C 
HETATM   15  C12 UNL     1      26.304  67.151  17.864  1.00  0.00     0.011 C 
HETATM   16  C13 UNL     1      26.419  67.128  16.354  1.00  0.00    -0.048 C 
HETATM   17  C14 UNL     1      27.667  66.418  15.907  1.00  0.00     0.015 C 
HETATM   18  C15 UNL     1      25.247  66.419  15.716  1.00  0.00     0.015 C 
HETATM   19  C16 UNL     1      26.502  68.580  15.909  1.00  0.00     0.011 C 
HETATM   20  C17 UNL     1      25.296  69.376  16.326  1.00  0.00     0.036 C 
ENDBRANCH  10  13
ENDBRANCH   4   7
BRANCH   1  21
HETATM   21  C4  UNL     1      16.712  72.777  14.900  1.00  0.00     0.148 A 
HETATM   22  S1  UNL     1      16.262  72.028  13.443  1.00  0.00    -0.048 SA
HETATM   23  C3  UNL     1      15.069  73.180  12.899  1.00  0.00     0.081 A 
HETATM   24  C22 UNL     1      15.120  74.082  13.929  1.00  0.00     0.029 A 
HETATM   25  N5  UNL     1      15.948  73.844  14.903  1.00  0.00    -0.339 N 
HETATM   26  C23 UNL     1      14.244  75.329  13.963  1.00  0.00     0.070 C 
ATOM     27  H5  UNL     1      16.004  74.498  15.683  1.00  0.00     0.168 HD
BRANCH  23  28
HETATM   28  C2  UNL     1      14.280  73.110  11.680  1.00  0.00     0.155 C 
BRANCH  28  29
HETATM   29  N1  UNL     1      13.013  72.632  11.497  1.00  0.00    -0.374 N 
HETATM   30  C1  UNL     1      12.770  71.306  10.916  1.00  0.00     0.148 C 
ATOM     31  H1  UNL     1      12.218  73.210  11.770  1.00  0.00     0.161 HD
ENDBRANCH  28  29
BRANCH  28  32
HETATM   32  O1  UNL     1      14.892  73.577  10.627  1.00  0.00    -0.345 OA
ATOM     33  H1  UNL     1      15.657  74.119  10.780  1.00  0.00     0.219 HD
ENDBRANCH  28  32
ENDBRANCH  23  28
ENDBRANCH   1  21
TORSDOF 6
ENDMDL
MODEL 4
REMARK VINA RESULT: -7.421995906      4.272      4.914
REMARK  6 active torsions:
REMARK  status: ('A' for Active; 'I' for Inactive)
REMARK    1  A    between atoms: N1_2  and  C2_4 
REMARK    2  A    between atoms: C2_4  and  O1_5 
REMARK    3  A    between atoms: C2_4  and  C3_7 
REMARK    4  A    between atoms: C4_9  and  N2_10 
REMARK    5  A    between atoms: N3_13  and  C7_14 
REMARK    6  A    between atoms: N4_17  and  C10_18 
ROOT
HETATM    1  N2  UNL     1      17.740  72.372  15.865  1.00  0.00    -0.352 N 
HETATM    2  C5  UNL     1      19.013  73.012  16.046  1.00  0.00     0.169 C 
HETATM    3  C6  UNL     1      19.133  73.406  17.488  1.00  0.00     0.083 C 
HETATM    4  N3  UNL     1      18.721  72.500  18.460  1.00  0.00    -0.366 N 
HETATM    5  C20 UNL     1      17.624  71.687  18.167  1.00  0.00     0.083 C 
HETATM    6  C21 UNL     1      17.420  71.271  16.744  1.00  0.00     0.169 C 
ENDROOT
BRANCH   4   7
HETATM    7  C7  UNL     1      19.441  72.319  19.650  1.00  0.00     0.091 C 
HETATM    8  C8  UNL     1      20.448  73.423  19.833  1.00  0.00     0.056 C 
HETATM    9  C9  UNL     1      21.629  73.111  20.665  1.00  0.00     0.275 C 
HETATM   10  N4  UNL     1      21.578  72.009  21.534  1.00  0.00     0.093 N 
HETATM   11  C18 UNL     1      20.652  70.977  21.238  1.00  0.00     0.275 C 
HETATM   12  C19 UNL     1      20.212  71.033  19.767  1.00  0.00     0.056 C 
BRANCH  10  13
HETATM   13  C10 UNL     1      22.840  71.445  21.885  1.00  0.00     0.223 C 
HETATM   14  C11 UNL     1      23.917  72.432  22.227  1.00  0.00     0.036 C 
HETATM   15  C12 UNL     1      25.198  71.655  22.474  1.00  0.00     0.011 C 
HETATM   16  C13 UNL     1      24.989  70.866  23.751  1.00  0.00    -0.048 C 
HETATM   17  C14 UNL     1      26.250  70.170  24.182  1.00  0.00     0.015 C 
HETATM   18  C15 UNL     1      24.555  71.757  24.891  1.00  0.00     0.015 C 
HETATM   19  C16 UNL     1      23.938  69.812  23.435  1.00  0.00     0.011 C 
HETATM   20  C17 UNL     1      22.639  70.419  22.980  1.00  0.00     0.036 C 
ENDBRANCH  10  13
ENDBRANCH   4   7
BRANCH   1  21
HETATM   21  C4  UNL     1      16.766  72.715  14.884  1.00  0.00     0.148 A 
HETATM   22  S1  UNL     1      16.245  71.966  13.451  1.00  0.00    -0.048 SA
HETATM   23  C3  UNL     1      15.072  73.151  12.933  1.00  0.00     0.081 A 
HETATM   24  C22 UNL     1      15.186  74.061  13.951  1.00  0.00     0.029 A 
HETATM   25  N5  UNL     1      16.037  73.806  14.900  1.00  0.00    -0.339 N 
HETATM   26  C23 UNL     1      14.352  75.336  14.000  1.00  0.00     0.070 C 
ATOM     27  H5  UNL     1      16.139  74.466  15.670  1.00  0.00     0.168 HD
BRANCH  23  28
HETATM   28  C2  UNL     1      14.241  73.094  11.742  1.00  0.00     0.155 C 
BRANCH  28  29
HETATM   29  N1  UNL     1      12.983  72.583  11.588  1.00  0.00    -0.374 N 
HETATM   30  C1  UNL     1      12.747  71.338  10.847  1.00  0.00     0.148 C 
ATOM     31  H1  UNL     1      12.191  73.077  11.998  1.00  0.00     0.161 HD
ENDBRANCH  28  29
BRANCH  28  32
HETATM   32  O1  UNL     1      14.800  73.613  10.683  1.00  0.00    -0.345 OA
ATOM     33  H1  UNL     1      15.509  74.227  10.830  1.00  0.00     0.219 HD
ENDBRANCH  28  32
ENDBRANCH  23  28
ENDBRANCH   1  21
TORSDOF 6
ENDMDL
MODEL 5
REMARK VINA RESULT: -7.339536860      1.722      2.342
REMARK  6 active torsions:
REMARK  status: ('A' for Active; 'I' for Inactive)
REMARK    1  A    between atoms: N1_2  and  C2_4 
REMARK    2  A    between atoms: C2_4  and  O1_5 
REMARK    3  A    between atoms: C2_4  and  C3_7 
REMARK    4  A    between atoms: C4_9  and  N2_10 
REMARK    5  A    between atoms: N3_13  and  C7_14 
REMARK    6  A    between atoms: N4_17  and  C10_18 
ROOT
HETATM    1  N2  UNL     1      17.670  72.494  15.888  1.00  0.00    -0.352 N 
HETATM    2  C5  UNL     1      17.620  71.356  16.762  1.00  0.00     0.169 C 
HETATM    3  C6  UNL     1      18.931  70.633  16.658  1.00  0.00     0.083 C 
HETATM    4  N3  UNL     1      20.103  71.383  16.639  1.00  0.00    -0.366 N 
HETATM    5  C20 UNL     1      20.069  72.625  16.002  1.00  0.00     0.083 C 
HETATM    6  C21 UNL     1      18.788  73.398  16.039  1.00  0.00     0.169 C 
ENDROOT
BRANCH   4   7
HETATM    7  C7  UNL     1      21.251  70.970  17.330  1.00  0.00     0.091 C 
HETATM    8  C8  UNL     1      22.287  72.063  17.335  1.00  0.00     0.056 C 
HETATM    9  C9  UNL     1      23.695  71.640  17.488  1.00  0.00     0.275 C 
HETATM   10  N4  UNL     1      23.970  70.360  17.999  1.00  0.00     0.093 N 
HETATM   11  C18 UNL     1      22.963  69.370  17.879  1.00  0.00     0.275 C 
HETATM   12  C19 UNL     1      21.942  69.747  16.793  1.00  0.00     0.056 C 
BRANCH  10  13
HETATM   13  C10 UNL     1      25.236  69.813  17.636  1.00  0.00     0.223 C 
HETATM   14  C11 UNL     1      25.333  69.283  16.235  1.00  0.00     0.036 C 
HETATM   15  C12 UNL     1      26.708  68.660  16.068  1.00  0.00     0.011 C 
HETATM   16  C13 UNL     1      27.709  69.796  16.113  1.00  0.00    -0.048 C 
HETATM   17  C14 UNL     1      29.101  69.317  15.806  1.00  0.00     0.015 C 
HETATM   18  C15 UNL     1      27.374  70.874  15.109  1.00  0.00     0.015 C 
HETATM   19  C16 UNL     1      27.685  70.332  17.537  1.00  0.00     0.011 C 
HETATM   20  C17 UNL     1      26.321  70.824  17.939  1.00  0.00     0.036 C 
ENDBRANCH  10  13
ENDBRANCH   4   7
BRANCH   1  21
HETATM   21  C4  UNL     1      16.708  72.825  14.893  1.00  0.00     0.148 A 
HETATM   22  S1  UNL     1      16.244  72.090  13.433  1.00  0.00    -0.048 SA
HETATM   23  C3  UNL     1      15.044  73.246  12.913  1.00  0.00     0.081 A 
HETATM   24  C22 UNL     1      15.104  74.137  13.952  1.00  0.00     0.029 A 
HETATM   25  N5  UNL     1      15.941  73.890  14.914  1.00  0.00    -0.339 N 
HETATM   26  C23 UNL     1      14.225  75.382  14.008  1.00  0.00     0.070 C 
ATOM     27  H5  UNL     1      16.004  74.537  15.700  1.00  0.00     0.168 HD
BRANCH  23  28
HETATM   28  C2  UNL     1      14.242  73.186  11.702  1.00  0.00     0.155 C 
BRANCH  28  29
HETATM   29  N1  UNL     1      12.956  72.753  11.536  1.00  0.00    -0.374 N 
HETATM   30  C1  UNL     1      12.659  71.448  10.932  1.00  0.00     0.148 C 
ATOM     31  H1  UNL     1      12.186  73.349  11.839  1.00  0.00     0.161 HD
ENDBRANCH  28  29
BRANCH  28  32
HETATM   32  O1  UNL     1      14.861  73.615  10.637  1.00  0.00    -0.345 OA
ATOM     33  H1  UNL     1      15.632  73.132  10.365  1.00  0.00     0.219 HD
ENDBRANCH  28  32
ENDBRANCH  23  28
ENDBRANCH   1  21
TORSDOF 6
ENDMDL
