MODEL 1
REMARK VINA RESULT: -7.334443131      0.000      0.000
REMARK  6 active torsions:
REMARK  status: ('A' for Active; 'I' for Inactive)
REMARK    1  A    between atoms: C3_3  and  C4_4 
REMARK    2  A    between atoms: C4_4  and  O1_5 
REMARK    3  A    between atoms: C4_4  and  C5_7 
REMARK    4  A    between atoms: C5_7  and  C7_9 
REMARK    5  A    between atoms: C22_26  and  C24_28 
REMARK    6  A    between atoms: C24_28  and  O5_30 
ROOT
HETATM    1  C7  UNL     1      19.004  71.016  17.454  1.00  0.00     0.016 C 
HETATM    2  C8  UNL     1      20.215  70.890  16.534  1.00  0.00     0.007 C 
HETATM    3  C9  UNL     1      21.039  72.130  16.502  1.00  0.00     0.014 C 
HETATM    4  C10 UNL     1      21.318  72.731  17.888  1.00  0.00     0.033 C 
HETATM    5  C11 UNL     1      22.683  73.265  17.866  1.00  0.00     0.129 C 
HETATM    6  C12 UNL     1      23.700  72.925  18.832  1.00  0.00     0.065 C 
HETATM    7  C13 UNL     1      23.451  74.337  19.298  1.00  0.00     0.131 C 
HETATM    8  C14 UNL     1      22.542  74.444  20.470  1.00  0.00     0.110 C 
HETATM    9  C15 UNL     1      22.043  73.058  20.779  1.00  0.00     0.130 C 
HETATM   10  O2  UNL     1      22.682  72.661  21.745  1.00  0.00    -0.298 OA
HETATM   11  C16 UNL     1      21.087  72.061  20.332  1.00  0.00     0.097 C 
HETATM   12  C17 UNL     1      20.860  71.797  18.907  1.00  0.00     0.051 C 
HETATM   13  C18 UNL     1      21.403  70.445  18.526  1.00  0.00     0.146 C 
HETATM   14  O3  UNL     1      22.088  69.748  19.247  1.00  0.00    -0.296 OA
HETATM   15  C19 UNL     1      21.127  69.838  17.176  1.00  0.00     0.018 C 
HETATM   16  C20 UNL     1      22.457  69.727  16.452  1.00  0.00     0.023 C 
HETATM   17  C21 UNL     1      20.548  68.477  17.214  1.00  0.00     0.023 C 
HETATM   18  C22 UNL     1      19.320  71.613  18.779  1.00  0.00     0.064 C 
HETATM   19  C23 UNL     1      19.046  70.553  19.885  1.00  0.00     0.028 C 
HETATM   20  O6  UNL     1      22.728  74.653  18.177  1.00  0.00    -0.380 OA
ENDROOT
BRANCH   1  21
HETATM   21  C5  UNL     1      17.726  71.269  16.785  1.00  0.00     0.020 C 
HETATM   22  C6  UNL     1      17.122  69.910  16.369  1.00  0.00     0.013 C 
BRANCH  21  23
HETATM   23  C4  UNL     1      17.626  72.118  15.586  1.00  0.00     0.144 C 
BRANCH  23  24
HETATM   24  C3  UNL     1      16.784  73.318  15.979  1.00  0.00     0.000 C 
HETATM   25  C2  UNL     1      15.849  73.706  15.138  1.00  0.00    -0.033 C 
HETATM   26  C1  UNL     1      14.957  74.872  15.412  1.00  0.00     0.036 C 
ENDBRANCH  23  24
BRANCH  23  27
HETATM   27  O1  UNL     1      16.786  71.509  14.606  1.00  0.00    -0.391 OA
ATOM     28  H1  UNL     1      17.435  71.134  14.022  1.00  0.00     0.210 HD
ENDBRANCH  23  27
ENDBRANCH  21  23
ENDBRANCH   1  21
BRANCH  18  29
HETATM   29  C24 UNL     1      18.564  72.770  19.212  1.00  0.00     0.268 C 
HETATM   30  O4  UNL     1      17.700  72.610  20.158  1.00  0.00    -0.264 OA
BRANCH  29  31
HETATM   31  O5  UNL     1      18.556  74.074  18.821  1.00  0.00    -0.326 OA
HETATM   32  C25 UNL     1      19.179  75.165  19.406  1.00  0.00     0.213 C 
ENDBRANCH  29  31
ENDBRANCH  18  29
TORSDOF 6
ENDMDL
MODEL 2
REMARK VINA RESULT: -6.967289127      1.858      5.477
REMARK  6 active torsions:
REMARK  status: ('A' for Active; 'I' for Inactive)
REMARK    1  A    between atoms: C3_3  and  C4_4 
REMARK    2  A    between atoms: C4_4  and  O1_5 
REMARK    3  A    between atoms: C4_4  and  C5_7 
REMARK    4  A    between atoms: C5_7  and  C7_9 
REMARK    5  A    between atoms: C22_26  and  C24_28 
REMARK    6  A    between atoms: C24_28  and  O5_30 
ROOT
HETATM    1  C7  UNL     1      20.276  73.950  17.545  1.00  0.00     0.016 C 
HETATM    2  C8  UNL     1      19.878  73.393  16.181  1.00  0.00     0.007 C 
HETATM    3  C9  UNL     1      20.426  72.029  15.941  1.00  0.00     0.014 C 
HETATM    4  C10 UNL     1      20.252  71.068  17.127  1.00  0.00     0.033 C 
HETATM    5  C11 UNL     1      19.965  69.740  16.574  1.00  0.00     0.129 C 
HETATM    6  C12 UNL     1      18.827  68.936  16.951  1.00  0.00     0.065 C 
HETATM    7  C13 UNL     1      19.886  68.115  17.644  1.00  0.00     0.131 C 
HETATM    8  C14 UNL     1      20.022  68.392  19.098  1.00  0.00     0.110 C 
HETATM    9  C15 UNL     1      19.095  69.531  19.427  1.00  0.00     0.130 C 
HETATM   10  O2  UNL     1      18.110  69.039  19.963  1.00  0.00    -0.298 OA
HETATM   11  C16 UNL     1      18.978  70.975  19.328  1.00  0.00     0.097 C 
HETATM   12  C17 UNL     1      19.400  71.700  18.124  1.00  0.00     0.051 C 
HETATM   13  C18 UNL     1      18.204  72.244  17.387  1.00  0.00     0.146 C 
HETATM   14  O3  UNL     1      17.050  71.972  17.648  1.00  0.00    -0.296 OA
HETATM   15  C19 UNL     1      18.359  73.197  16.231  1.00  0.00     0.018 C 
HETATM   16  C20 UNL     1      17.842  72.488  14.992  1.00  0.00     0.023 C 
HETATM   17  C21 UNL     1      17.589  74.454  16.355  1.00  0.00     0.023 C 
HETATM   18  C22 UNL     1      20.102  72.981  18.660  1.00  0.00     0.064 C 
HETATM   19  C23 UNL     1      19.027  73.532  19.640  1.00  0.00     0.028 C 
HETATM   20  O6  UNL     1      20.908  68.762  16.997  1.00  0.00    -0.380 OA
ENDROOT
BRANCH   1  21
HETATM   21  C5  UNL     1      21.376  74.918  17.537  1.00  0.00     0.020 C 
HETATM   22  C6  UNL     1      20.808  76.296  17.943  1.00  0.00     0.013 C 
BRANCH  21  23
HETATM   23  C4  UNL     1      22.182  75.174  16.332  1.00  0.00     0.144 C 
BRANCH  23  24
HETATM   24  C3  UNL     1      23.633  75.006  16.742  1.00  0.00     0.000 C 
HETATM   25  C2  UNL     1      24.026  73.805  17.111  1.00  0.00    -0.033 C 
HETATM   26  C1  UNL     1      25.427  73.514  17.536  1.00  0.00     0.036 C 
ENDBRANCH  23  24
BRANCH  23  27
HETATM   27  O1  UNL     1      22.157  76.561  15.994  1.00  0.00    -0.391 OA
ATOM     28  H1  UNL     1      21.643  76.541  15.195  1.00  0.00     0.210 HD
ENDBRANCH  23  27
ENDBRANCH  21  23
ENDBRANCH   1  21
BRANCH  18  29
HETATM   29  C24 UNL     1      21.238  72.700  19.514  1.00  0.00     0.268 C 
HETATM   30  O4  UNL     1      21.248  73.215  20.698  1.00  0.00    -0.264 OA
BRANCH  29  31
HETATM   31  O5  UNL     1      22.374  71.970  19.339  1.00  0.00    -0.326 OA
HETATM   32  C25 UNL     1      22.741  70.772  19.930  1.00  0.00     0.213 C 
ENDBRANCH  29  31
ENDBRANCH  18  29
TORSDOF 6
ENDMDL
MODEL 3
REMARK VINA RESULT: -6.962857809      1.556      2.166
REMARK  6 active torsions:
REMARK  status: ('A' for Active; 'I' for Inactive)
REMARK    1  A    between atoms: C3_3  and  C4_4 
REMARK    2  A    between atoms: C4_4  and  O1_5 
REMARK    3  A    between atoms: C4_4  and  C5_7 
REMARK    4  A    between atoms: C5_7  and  C7_9 
REMARK    5  A    between atoms: C22_26  and  C24_28 
REMARK    6  A    between atoms: C24_28  and  O5_30 
ROOT
HETATM    1  C7  UNL     1      18.502  72.579  16.792  1.00  0.00     0.016 C 
HETATM    2  C8  UNL     1      19.301  71.361  16.336  1.00  0.00     0.007 C 
HETATM    3  C9  UNL     1      20.744  71.668  16.135  1.00  0.00     0.014 C 
HETATM    4  C10 UNL     1      21.374  72.486  17.273  1.00  0.00     0.033 C 
HETATM    5  C11 UNL     1      22.742  71.994  17.459  1.00  0.00     0.129 C 
HETATM    6  C12 UNL     1      23.278  71.554  18.726  1.00  0.00     0.065 C 
HETATM    7  C13 UNL     1      24.051  72.846  18.623  1.00  0.00     0.131 C 
HETATM    8  C14 UNL     1      23.466  73.972  19.397  1.00  0.00     0.110 C 
HETATM    9  C15 UNL     1      22.168  73.488  19.985  1.00  0.00     0.130 C 
HETATM   10  O2  UNL     1      22.387  73.242  21.165  1.00  0.00    -0.298 OA
HETATM   11  C16 UNL     1      20.785  73.221  19.637  1.00  0.00     0.097 C 
HETATM   12  C17 UNL     1      20.420  72.578  18.370  1.00  0.00     0.051 C 
HETATM   13  C18 UNL     1      19.906  71.184  18.612  1.00  0.00     0.146 C 
HETATM   14  O3  UNL     1      19.954  70.606  19.679  1.00  0.00    -0.296 OA
HETATM   15  C19 UNL     1      19.275  70.375  17.509  1.00  0.00     0.018 C 
HETATM   16  C20 UNL     1      20.175  69.178  17.258  1.00  0.00     0.023 C 
HETATM   17  C21 UNL     1      17.932  69.840  17.822  1.00  0.00     0.023 C 
HETATM   18  C22 UNL     1      19.155  73.346  17.886  1.00  0.00     0.064 C 
HETATM   19  C23 UNL     1      18.255  73.279  19.153  1.00  0.00     0.028 C 
HETATM   20  O6  UNL     1      23.713  73.023  17.306  1.00  0.00    -0.380 OA
ENDROOT
BRANCH   1  21
HETATM   21  C5  UNL     1      17.718  73.248  15.751  1.00  0.00     0.020 C 
HETATM   22  C6  UNL     1      16.399  73.741  16.383  1.00  0.00     0.013 C 
BRANCH  21  23
HETATM   23  C4  UNL     1      17.318  72.561  14.512  1.00  0.00     0.144 C 
BRANCH  23  24
HETATM   24  C3  UNL     1      16.129  73.326  13.961  1.00  0.00     0.000 C 
HETATM   25  C2  UNL     1      15.418  72.748  13.016  1.00  0.00    -0.033 C 
HETATM   26  C1  UNL     1      14.227  73.401  12.396  1.00  0.00     0.036 C 
ENDBRANCH  23  24
BRANCH  23  27
HETATM   27  O1  UNL     1      16.714  71.301  14.806  1.00  0.00    -0.391 OA
ATOM     28  H1  UNL     1      17.447  70.838  15.195  1.00  0.00     0.210 HD
ENDBRANCH  23  27
ENDBRANCH  21  23
ENDBRANCH   1  21
BRANCH  18  29
HETATM   29  C24 UNL     1      19.382  74.764  17.695  1.00  0.00     0.268 C 
HETATM   30  O4  UNL     1      18.685  75.589  18.404  1.00  0.00    -0.264 OA
BRANCH  29  31
HETATM   31  O5  UNL     1      20.214  75.471  16.884  1.00  0.00    -0.326 OA
HETATM   32  C25 UNL     1      21.335  76.214  17.218  1.00  0.00     0.213 C 
ENDBRANCH  29  31
ENDBRANCH  18  29
TORSDOF 6
ENDMDL
MODEL 4
REMARK VINA RESULT: -6.921005696      1.977      5.016
REMARK  6 active torsions:
REMARK  status: ('A' for Active; 'I' for Inactive)
REMARK    1  A    between atoms: C3_3  and  C4_4 
REMARK    2  A    between atoms: C4_4  and  O1_5 
REMARK    3  A    between atoms: C4_4  and  C5_7 
REMARK    4  A    between atoms: C5_7  and  C7_9 
REMARK    5  A    between atoms: C22_26  and  C24_28 
REMARK    6  A    between atoms: C24_28  and  O5_30 
ROOT
HETATM    1  C7  UNL     1      20.724  74.223  18.429  1.00  0.00     0.016 C 
HETATM    2  C8  UNL     1      20.570  73.715  19.859  1.00  0.00     0.007 C 
HETATM    3  C9  UNL     1      19.431  72.767  20.008  1.00  0.00     0.014 C 
HETATM    4  C10 UNL     1      19.364  71.693  18.911  1.00  0.00     0.033 C 
HETATM    5  C11 UNL     1      18.912  70.450  19.544  1.00  0.00     0.129 C 
HETATM    6  C12 UNL     1      19.610  69.190  19.442  1.00  0.00     0.065 C 
HETATM    7  C13 UNL     1      18.441  68.840  18.556  1.00  0.00     0.131 C 
HETATM    8  C14 UNL     1      18.714  68.973  17.100  1.00  0.00     0.110 C 
HETATM    9  C15 UNL     1      20.099  69.544  16.954  1.00  0.00     0.130 C 
HETATM   10  O2  UNL     1      20.834  68.610  16.657  1.00  0.00    -0.298 OA
HETATM   11  C16 UNL     1      20.837  70.791  17.042  1.00  0.00     0.097 C 
HETATM   12  C17 UNL     1      20.577  71.765  18.108  1.00  0.00     0.051 C 
HETATM   13  C18 UNL     1      21.731  71.814  19.074  1.00  0.00     0.146 C 
HETATM   14  O3  UNL     1      22.663  71.036  19.076  1.00  0.00    -0.296 OA
HETATM   15  C19 UNL     1      21.816  72.869  20.146  1.00  0.00     0.018 C 
HETATM   16  C20 UNL     1      21.719  72.159  21.484  1.00  0.00     0.023 C 
HETATM   17  C21 UNL     1      23.079  73.638  20.161  1.00  0.00     0.023 C 
HETATM   18  C22 UNL     1      20.642  73.150  17.402  1.00  0.00     0.064 C 
HETATM   19  C23 UNL     1      22.009  73.054  16.666  1.00  0.00     0.028 C 
HETATM   20  O6  UNL     1      17.724  69.940  18.950  1.00  0.00    -0.380 OA
ENDROOT
BRANCH   1  21
HETATM   21  C5  UNL     1      20.201  75.568  18.175  1.00  0.00     0.020 C 
HETATM   22  C6  UNL     1      21.105  76.583  18.909  1.00  0.00     0.013 C 
BRANCH  21  23
HETATM   23  C4  UNL     1      18.825  75.950  18.530  1.00  0.00     0.144 C 
BRANCH  23  24
HETATM   24  C3  UNL     1      18.373  76.949  17.481  1.00  0.00     0.000 C 
HETATM   25  C2  UNL     1      17.395  76.587  16.677  1.00  0.00    -0.033 C 
HETATM   26  C1  UNL     1      16.864  77.481  15.607  1.00  0.00     0.036 C 
ENDBRANCH  23  24
BRANCH  23  27
HETATM   27  O1  UNL     1      18.815  76.767  19.701  1.00  0.00    -0.391 OA
ATOM     28  H1  UNL     1      18.112  76.361  20.196  1.00  0.00     0.210 HD
ENDBRANCH  23  27
ENDBRANCH  21  23
ENDBRANCH   1  21
BRANCH  18  29
HETATM   29  C24 UNL     1      19.679  73.295  16.329  1.00  0.00     0.268 C 
HETATM   30  O4  UNL     1      20.121  73.619  15.159  1.00  0.00    -0.264 OA
BRANCH  29  31
HETATM   31  O5  UNL     1      18.326  73.161  16.270  1.00  0.00    -0.326 OA
HETATM   32  C25 UNL     1      17.573  72.191  15.628  1.00  0.00     0.213 C 
ENDBRANCH  29  31
ENDBRANCH  18  29
TORSDOF 6
ENDMDL
MODEL 5
REMARK VINA RESULT: -6.877415561      1.909      4.933
REMARK  6 active torsions:
REMARK  status: ('A' for Active; 'I' for Inactive)
REMARK    1  A    between atoms: C3_3  and  C4_4 
REMARK    2  A    between atoms: C4_4  and  O1_5 
REMARK    3  A    between atoms: C4_4  and  C5_7 
REMARK    4  A    between atoms: C5_7  and  C7_9 
REMARK    5  A    between atoms: C22_26  and  C24_28 
REMARK    6  A    between atoms: C24_28  and  O5_30 
ROOT
HETATM    1  C7  UNL     1      19.199  71.038  17.685  1.00  0.00     0.016 C 
HETATM    2  C8  UNL     1      17.959  71.894  17.930  1.00  0.00     0.007 C 
HETATM    3  C9  UNL     1      18.219  73.016  18.875  1.00  0.00     0.014 C 
HETATM    4  C10 UNL     1      19.514  73.790  18.586  1.00  0.00     0.033 C 
HETATM    5  C11 UNL     1      19.250  75.204  18.871  1.00  0.00     0.129 C 
HETATM    6  C12 UNL     1      19.495  76.277  17.937  1.00  0.00     0.065 C 
HETATM    7  C13 UNL     1      20.627  76.581  18.887  1.00  0.00     0.131 C 
HETATM    8  C14 UNL     1      21.949  76.059  18.451  1.00  0.00     0.110 C 
HETATM    9  C15 UNL     1      21.726  75.261  17.195  1.00  0.00     0.130 C 
HETATM   10  O2  UNL     1      22.082  75.968  16.261  1.00  0.00    -0.298 OA
HETATM   11  C16 UNL     1      21.245  73.973  16.729  1.00  0.00     0.097 C 
HETATM   12  C17 UNL     1      20.058  73.337  17.313  1.00  0.00     0.051 C 
HETATM   13  C18 UNL     1      18.918  73.343  16.330  1.00  0.00     0.146 C 
HETATM   14  O3  UNL     1      18.918  73.944  15.275  1.00  0.00    -0.296 OA
HETATM   15  C19 UNL     1      17.647  72.578  16.595  1.00  0.00     0.018 C 
HETATM   16  C20 UNL     1      16.529  73.597  16.731  1.00  0.00     0.023 C 
HETATM   17  C21 UNL     1      17.246  71.649  15.516  1.00  0.00     0.023 C 
HETATM   18  C22 UNL     1      20.429  71.830  17.421  1.00  0.00     0.064 C 
HETATM   19  C23 UNL     1      20.918  71.531  15.974  1.00  0.00     0.028 C 
HETATM   20  O6  UNL     1      20.138  75.734  19.848  1.00  0.00    -0.380 OA
ENDROOT
BRANCH   1  21
HETATM   21  C5  UNL     1      19.247  69.770  18.418  1.00  0.00     0.020 C 
HETATM   22  C6  UNL     1      18.591  68.681  17.540  1.00  0.00     0.013 C 
BRANCH  21  23
HETATM   23  C4  UNL     1      18.635  69.613  19.747  1.00  0.00     0.144 C 
BRANCH  23  24
HETATM   24  C3  UNL     1      19.762  69.265  20.701  1.00  0.00     0.000 C 
HETATM   25  C2  UNL     1      20.147  70.192  21.553  1.00  0.00    -0.033 C 
HETATM   26  C1  UNL     1      21.245  69.969  22.540  1.00  0.00     0.036 C 
ENDBRANCH  23  24
BRANCH  23  27
HETATM   27  O1  UNL     1      17.855  68.419  19.805  1.00  0.00    -0.391 OA
ATOM     28  H1  UNL     1      18.210  67.937  19.067  1.00  0.00     0.210 HD
ENDBRANCH  23  27
ENDBRANCH  21  23
ENDBRANCH   1  21
BRANCH  18  29
HETATM   29  C24 UNL     1      21.598  71.583  18.240  1.00  0.00     0.268 C 
HETATM   30  O4  UNL     1      22.559  70.886  17.730  1.00  0.00    -0.264 OA
BRANCH  29  31
HETATM   31  O5  UNL     1      21.935  71.939  19.510  1.00  0.00    -0.326 OA
HETATM   32  C25 UNL     1      22.923  72.810  19.939  1.00  0.00     0.213 C 
ENDBRANCH  29  31
ENDBRANCH  18  29
TORSDOF 6
ENDMDL
