MODEL 1
REMARK VINA RESULT: -5.005536214      0.000      0.000
REMARK  4 active torsions:
REMARK  status: ('A' for Active; 'I' for Inactive)
REMARK    1  A    between atoms: O1_1  and  C1_3 
REMARK    2  A    between atoms: C1_3  and  C2_4 
REMARK    3  A    between atoms: C2_4  and  S1_5 
REMARK    4  A    between atoms: S1_5  and  C3_6 
ROOT
HETATM    1  C3  UNL     1    -108.702  43.514  28.361  1.00  0.00     0.078 C 
HETATM    2  C4  UNL     1    -107.452  43.276  29.206  1.00  0.00     0.049 C 
HETATM    3  C5  UNL     1    -106.974  41.985  28.554  1.00  0.00     0.123 C 
HETATM    4  C6  UNL     1    -106.801  42.157  27.071  1.00  0.00     0.034 C 
HETATM    5  C7  UNL     1    -108.222  42.031  26.530  1.00  0.00     0.035 C 
HETATM    6  C8  UNL     1    -108.971  42.123  27.855  1.00  0.00     0.135 C 
HETATM    7  O2  UNL     1    -108.173  41.254  28.620  1.00  0.00    -0.379 OA
ENDROOT
BRANCH   1   8
HETATM    8  S1  UNL     1    -110.051  44.230  29.292  1.00  0.00    -0.160 SA
BRANCH   8   9
HETATM    9  C2  UNL     1    -110.066  46.025  28.968  1.00  0.00     0.100 C 
BRANCH   9  10
HETATM   10  C1  UNL     1    -111.463  46.585  29.099  1.00  0.00     0.174 C 
BRANCH  10  11
HETATM   11  O1  UNL     1    -111.464  47.959  28.904  1.00  0.00    -0.400 OA
ATOM     12  H1  UNL     1    -111.618  48.170  27.991  1.00  0.00     0.209 HD
ENDBRANCH  10  11
ENDBRANCH   9  10
ENDBRANCH   8   9
ENDBRANCH   1   8
TORSDOF 4
ENDMDL
MODEL 2
REMARK VINA RESULT: -4.796026945      1.361      1.975
REMARK  4 active torsions:
REMARK  status: ('A' for Active; 'I' for Inactive)
REMARK    1  A    between atoms: O1_1  and  C1_3 
REMARK    2  A    between atoms: C1_3  and  C2_4 
REMARK    3  A    between atoms: C2_4  and  S1_5 
REMARK    4  A    between atoms: S1_5  and  C3_6 
ROOT
HETATM    1  C3  UNL     1    -108.448  42.569  28.652  1.00  0.00     0.078 C 
HETATM    2  C4  UNL     1    -109.264  42.334  27.383  1.00  0.00     0.049 C 
HETATM    3  C5  UNL     1    -108.249  41.507  26.605  1.00  0.00     0.123 C 
HETATM    4  C6  UNL     1    -107.808  40.305  27.393  1.00  0.00     0.034 C 
HETATM    5  C7  UNL     1    -106.768  40.873  28.355  1.00  0.00     0.035 C 
HETATM    6  C8  UNL     1    -107.051  42.355  28.135  1.00  0.00     0.135 C 
HETATM    7  O2  UNL     1    -107.136  42.358  26.732  1.00  0.00    -0.379 OA
ENDROOT
BRANCH   1   8
HETATM    8  S1  UNL     1    -108.724  44.182  29.374  1.00  0.00    -0.160 SA
BRANCH   8   9
HETATM    9  C2  UNL     1    -110.492  44.589  29.178  1.00  0.00     0.100 C 
BRANCH   9  10
HETATM   10  C1  UNL     1    -110.695  46.084  29.103  1.00  0.00     0.174 C 
BRANCH  10  11
HETATM   11  O1  UNL     1    -112.047  46.399  29.122  1.00  0.00    -0.400 OA
ATOM     12  H1  UNL     1    -112.273  46.961  28.391  1.00  0.00     0.209 HD
ENDBRANCH  10  11
ENDBRANCH   9  10
ENDBRANCH   8   9
ENDBRANCH   1   8
TORSDOF 4
ENDMDL
MODEL 3
REMARK VINA RESULT: -4.715779276      4.252      5.281
REMARK  4 active torsions:
REMARK  status: ('A' for Active; 'I' for Inactive)
REMARK    1  A    between atoms: O1_1  and  C1_3 
REMARK    2  A    between atoms: C1_3  and  C2_4 
REMARK    3  A    between atoms: C2_4  and  S1_5 
REMARK    4  A    between atoms: S1_5  and  C3_6 
ROOT
HETATM    1  C3  UNL     1    -105.177  44.132  27.879  1.00  0.00     0.078 C 
HETATM    2  C4  UNL     1    -104.889  43.010  26.884  1.00  0.00     0.049 C 
HETATM    3  C5  UNL     1    -105.407  41.835  27.703  1.00  0.00     0.123 C 
HETATM    4  C6  UNL     1    -106.832  42.053  28.127  1.00  0.00     0.034 C 
HETATM    5  C7  UNL     1    -106.706  42.979  29.333  1.00  0.00     0.035 C 
HETATM    6  C8  UNL     1    -105.239  43.359  29.168  1.00  0.00     0.135 C 
HETATM    7  O2  UNL     1    -104.710  42.084  28.899  1.00  0.00    -0.379 OA
ENDROOT
BRANCH   1   8
HETATM    8  S1  UNL     1    -103.940  45.423  27.857  1.00  0.00    -0.160 SA
BRANCH   8   9
HETATM    9  C2  UNL     1    -103.105  45.429  29.479  1.00  0.00     0.100 C 
BRANCH   9  10
HETATM   10  C1  UNL     1    -102.561  46.801  29.800  1.00  0.00     0.174 C 
BRANCH  10  11
HETATM   11  O1  UNL     1    -103.477  47.532  30.545  1.00  0.00    -0.400 OA
ATOM     12  H1  UNL     1    -103.576  48.408  30.193  1.00  0.00     0.209 HD
ENDBRANCH  10  11
ENDBRANCH   9  10
ENDBRANCH   8   9
ENDBRANCH   1   8
TORSDOF 4
ENDMDL
MODEL 4
REMARK VINA RESULT: -4.579863042      4.364      5.271
REMARK  4 active torsions:
REMARK  status: ('A' for Active; 'I' for Inactive)
REMARK    1  A    between atoms: O1_1  and  C1_3 
REMARK    2  A    between atoms: C1_3  and  C2_4 
REMARK    3  A    between atoms: C2_4  and  S1_5 
REMARK    4  A    between atoms: S1_5  and  C3_6 
ROOT
HETATM    1  C3  UNL     1    -104.268  43.068  29.044  1.00  0.00     0.078 C 
HETATM    2  C4  UNL     1    -105.191  42.366  30.038  1.00  0.00     0.049 C 
HETATM    3  C5  UNL     1    -106.464  42.352  29.202  1.00  0.00     0.123 C 
HETATM    4  C6  UNL     1    -106.232  41.696  27.870  1.00  0.00     0.034 C 
HETATM    5  C7  UNL     1    -105.573  42.795  27.042  1.00  0.00     0.035 C 
HETATM    6  C8  UNL     1    -105.273  43.773  28.173  1.00  0.00     0.135 C 
HETATM    7  O2  UNL     1    -106.504  43.712  28.849  1.00  0.00    -0.379 OA
ENDROOT
BRANCH   1   8
HETATM    8  S1  UNL     1    -103.089  44.158  29.832  1.00  0.00    -0.160 SA
BRANCH   8   9
HETATM    9  C2  UNL     1    -103.183  45.780  29.003  1.00  0.00     0.100 C 
BRANCH   9  10
HETATM   10  C1  UNL     1    -102.525  46.852  29.841  1.00  0.00     0.174 C 
BRANCH  10  11
HETATM   11  O1  UNL     1    -103.473  47.560  30.567  1.00  0.00    -0.400 OA
ATOM     12  H1  UNL     1    -103.658  47.128  31.392  1.00  0.00     0.209 HD
ENDBRANCH  10  11
ENDBRANCH   9  10
ENDBRANCH   8   9
ENDBRANCH   1   8
TORSDOF 4
ENDMDL
MODEL 5
REMARK VINA RESULT: -4.463353694      3.240      4.141
REMARK  4 active torsions:
REMARK  status: ('A' for Active; 'I' for Inactive)
REMARK    1  A    between atoms: O1_1  and  C1_3 
REMARK    2  A    between atoms: C1_3  and  C2_4 
REMARK    3  A    between atoms: C2_4  and  S1_5 
REMARK    4  A    between atoms: S1_5  and  C3_6 
ROOT
HETATM    1  C3  UNL     1    -106.545  42.621  28.196  1.00  0.00     0.078 C 
HETATM    2  C4  UNL     1    -106.078  41.470  27.310  1.00  0.00     0.049 C 
HETATM    3  C5  UNL     1    -107.430  40.823  27.038  1.00  0.00     0.123 C 
HETATM    4  C6  UNL     1    -108.399  41.814  26.456  1.00  0.00     0.034 C 
HETATM    5  C7  UNL     1    -108.892  42.587  27.676  1.00  0.00     0.035 C 
HETATM    6  C8  UNL     1    -107.864  42.087  28.685  1.00  0.00     0.135 C 
HETATM    7  O2  UNL     1    -107.888  40.719  28.364  1.00  0.00    -0.379 OA
ENDROOT
BRANCH   1   8
HETATM    8  S1  UNL     1    -105.386  43.016  29.500  1.00  0.00    -0.160 SA
BRANCH   8   9
HETATM    9  C2  UNL     1    -104.040  44.010  28.773  1.00  0.00     0.100 C 
BRANCH   9  10
HETATM   10  C1  UNL     1    -104.566  44.913  27.682  1.00  0.00     0.174 C 
BRANCH  10  11
HETATM   11  O1  UNL     1    -104.888  46.164  28.190  1.00  0.00    -0.400 OA
ATOM     12  H1  UNL     1    -105.130  46.760  27.491  1.00  0.00     0.209 HD
ENDBRANCH  10  11
ENDBRANCH   9  10
ENDBRANCH   8   9
ENDBRANCH   1   8
TORSDOF 4
ENDMDL
