MODEL 1
REMARK VINA RESULT: -10.083686442      0.000      0.000
REMARK  10 active torsions:
REMARK  status: ('A' for Active; 'I' for Inactive)
REMARK    1  A    between atoms: O1_2  and  C2_3 
REMARK    2  A    between atoms: C6_15  and  N5_16 
REMARK    3  A    between atoms: N5_16  and  C7_18 
REMARK    4  A    between atoms: C12_23  and  O2_24 
REMARK    5  A    between atoms: O2_24  and  C13_25 
REMARK    6  A    between atoms: C13_25  and  C14_26 
REMARK    7  A    between atoms: C14_26  and  O3_27 
REMARK    8  A    between atoms: O3_27  and  C15_28 
REMARK    9  A    between atoms: C16_31  and  N7_32 
REMARK   10  A    between atoms: C17_37  and  N9_38 
ROOT
HETATM    1  C2  UNL     1      -7.930  27.101 -14.655  1.00  0.00     0.102 A 
HETATM    2  C3  UNL     1      -8.339  25.845 -14.965  1.00  0.00     0.057 A 
HETATM    3  C4  UNL     1      -8.317  25.278 -16.252  1.00  0.00     0.040 A 
HETATM    4  C5  UNL     1      -8.786  23.924 -16.438  1.00  0.00     0.149 A 
HETATM    5  N1  UNL     1      -8.910  23.090 -17.450  1.00  0.00    -0.268 N 
ATOM      6  H1  UNL     1      -8.646  23.333 -18.405  1.00  0.00     0.190 HD
HETATM    7  N2  UNL     1      -9.406  21.916 -17.121  1.00  0.00    -0.227 N 
ATOM      8  H2  UNL     1      -9.587  21.126 -17.739  1.00  0.00     0.210 HD
HETATM    9  N3  UNL     1      -9.618  21.981 -15.821  1.00  0.00    -0.227 N 
ATOM     10  H3  UNL     1     -10.000  21.230 -15.246  1.00  0.00     0.210 HD
HETATM   11  N4  UNL     1      -9.257  23.168 -15.387  1.00  0.00    -0.268 N 
ATOM     12  H4  UNL     1      -9.316  23.482 -14.419  1.00  0.00     0.190 HD
HETATM   13  C6  UNL     1      -7.831  26.100 -17.256  1.00  0.00     0.045 A 
HETATM   14  C11 UNL     1      -7.397  27.405 -16.979  1.00  0.00     0.069 A 
HETATM   15  C12 UNL     1      -7.444  27.903 -15.704  1.00  0.00     0.104 A 
ENDROOT
BRANCH  15  16
HETATM   16  O2  UNL     1      -7.048  29.151 -15.370  1.00  0.00    -0.346 OA
BRANCH  16  17
HETATM   17  C13 UNL     1      -7.764  30.303 -15.189  1.00  0.00     0.202 C 
BRANCH  17  18
HETATM   18  C14 UNL     1      -7.485  31.056 -13.921  1.00  0.00     0.205 C 
BRANCH  18  19
HETATM   19  O3  UNL     1      -8.701  31.348 -13.249  1.00  0.00    -0.319 OA
BRANCH  19  20
HETATM   20  C15 UNL     1      -9.390  32.521 -13.415  1.00  0.00     0.252 A 
HETATM   21  N6  UNL     1      -8.933  33.594 -14.063  1.00  0.00    -0.154 N 
HETATM   22  C16 UNL     1      -9.630  34.733 -14.211  1.00  0.00     0.693 A 
ATOM     23  H6  UNL     1      -7.999  33.547 -14.470  1.00  0.00     0.188 HD
HETATM   24  N8  UNL     1     -10.863  34.753 -13.655  1.00  0.00    -0.022 N 
HETATM   25  C17 UNL     1     -11.379  33.707 -12.990  1.00  0.00     0.698 A 
ATOM     26  H8  UNL     1     -11.426  35.599 -13.744  1.00  0.00     0.203 HD
HETATM   27  N10 UNL     1     -10.626  32.604 -12.882  1.00  0.00    -0.154 N 
ATOM     28  H10 UNL     1     -11.002  31.799 -12.380  1.00  0.00     0.188 HD
BRANCH  22  29
HETATM   29  N7  UNL     1      -9.150  35.740 -14.843  1.00  0.00    -0.234 N 
ATOM     30  H72 UNL     1      -8.312  36.229 -14.529  1.00  0.00     0.174 HD
ATOM     31  H71 UNL     1      -9.586  36.097 -15.693  1.00  0.00     0.174 HD
ENDBRANCH  22  29
BRANCH  25  32
HETATM   32  N9  UNL     1     -12.682  33.798 -12.431  1.00  0.00    -0.214 N 
HETATM   33  C18 UNL     1     -13.354  32.728 -11.715  1.00  0.00     0.144 C 
HETATM   34  C19 UNL     1     -14.382  33.414 -10.834  1.00  0.00     0.059 C 
HETATM   35  C20 UNL     1     -14.541  34.817 -11.377  1.00  0.00     0.190 C 
HETATM   36  F1  UNL     1     -15.817  35.020 -11.854  1.00  0.00    -0.248 F 
HETATM   37  C21 UNL     1     -13.523  34.958 -12.492  1.00  0.00     0.178 C 
ENDBRANCH  25  32
ENDBRANCH  19  20
ENDBRANCH  18  19
ENDBRANCH  17  18
ENDBRANCH  16  17
ENDBRANCH  15  16
BRANCH   1  38
HETATM   38  O1  UNL     1      -7.969  27.622 -13.364  1.00  0.00    -0.353 OA
HETATM   39  C1  UNL     1      -9.244  27.804 -12.777  1.00  0.00     0.210 C 
ENDBRANCH   1  38
BRANCH  13  40
HETATM   40  N5  UNL     1      -7.772  25.620 -18.580  1.00  0.00    -0.381 N 
ATOM     41  H5  UNL     1      -8.646  25.564 -19.103  1.00  0.00     0.160 HD
BRANCH  40  42
HETATM   42  C7  UNL     1      -6.562  25.202 -19.250  1.00  0.00     0.019 C 
HETATM   43  C8  UNL     1      -6.917  24.091 -20.273  1.00  0.00     0.037 C 
HETATM   44  C9  UNL     1      -5.580  24.558 -18.305  1.00  0.00     0.037 C 
HETATM   45  C10 UNL     1      -5.911  26.303 -20.045  1.00  0.00     0.037 C 
ENDBRANCH  40  42
ENDBRANCH  13  40
TORSDOF 10
ENDMDL
MODEL 2
REMARK VINA RESULT: -9.931950163      1.879      2.968
REMARK  10 active torsions:
REMARK  status: ('A' for Active; 'I' for Inactive)
REMARK    1  A    between atoms: O1_2  and  C2_3 
REMARK    2  A    between atoms: C6_15  and  N5_16 
REMARK    3  A    between atoms: N5_16  and  C7_18 
REMARK    4  A    between atoms: C12_23  and  O2_24 
REMARK    5  A    between atoms: O2_24  and  C13_25 
REMARK    6  A    between atoms: C13_25  and  C14_26 
REMARK    7  A    between atoms: C14_26  and  O3_27 
REMARK    8  A    between atoms: O3_27  and  C15_28 
REMARK    9  A    between atoms: C16_31  and  N7_32 
REMARK   10  A    between atoms: C17_37  and  N9_38 
ROOT
HETATM    1  C2  UNL     1      -7.996  26.534 -14.873  1.00  0.00     0.102 A 
HETATM    2  C3  UNL     1      -8.450  25.856 -15.957  1.00  0.00     0.057 A 
HETATM    3  C4  UNL     1      -7.831  25.836 -17.220  1.00  0.00     0.040 A 
HETATM    4  C5  UNL     1      -8.428  25.069 -18.289  1.00  0.00     0.149 A 
HETATM    5  N1  UNL     1      -8.148  24.818 -19.552  1.00  0.00    -0.268 N 
ATOM      6  H1  UNL     1      -7.330  25.201 -20.026  1.00  0.00     0.190 HD
HETATM    7  N2  UNL     1      -9.019  24.032 -20.149  1.00  0.00    -0.227 N 
ATOM      8  H2  UNL     1      -9.001  23.710 -21.116  1.00  0.00     0.210 HD
HETATM    9  N3  UNL     1      -9.919  23.748 -19.229  1.00  0.00    -0.227 N 
ATOM     10  H3  UNL     1     -10.738  23.155 -19.364  1.00  0.00     0.210 HD
HETATM   11  N4  UNL     1      -9.592  24.354 -18.109  1.00  0.00    -0.268 N 
ATOM     12  H4  UNL     1     -10.119  24.303 -17.238  1.00  0.00     0.190 HD
HETATM   13  C6  UNL     1      -6.666  26.578 -17.324  1.00  0.00     0.045 A 
HETATM   14  C11 UNL     1      -6.162  27.294 -16.227  1.00  0.00     0.069 A 
HETATM   15  C12 UNL     1      -6.811  27.277 -15.022  1.00  0.00     0.104 A 
ENDROOT
BRANCH  15  16
HETATM   16  O2  UNL     1      -6.382  27.947 -13.929  1.00  0.00    -0.346 OA
BRANCH  16  17
HETATM   17  C13 UNL     1      -5.361  28.843 -13.768  1.00  0.00     0.202 C 
BRANCH  17  18
HETATM   18  C14 UNL     1      -5.749  30.189 -13.227  1.00  0.00     0.205 C 
BRANCH  18  19
HETATM   19  O3  UNL     1      -6.822  30.727 -13.984  1.00  0.00    -0.319 OA
BRANCH  19  20
HETATM   20  C15 UNL     1      -8.122  30.728 -13.550  1.00  0.00     0.252 A 
HETATM   21  N6  UNL     1      -8.802  29.649 -13.158  1.00  0.00    -0.154 N 
HETATM   22  C16 UNL     1     -10.078  29.679 -12.738  1.00  0.00     0.693 A 
ATOM     23  H6  UNL     1      -8.325  28.748 -13.179  1.00  0.00     0.188 HD
HETATM   24  N8  UNL     1     -10.673  30.894 -12.726  1.00  0.00    -0.022 N 
HETATM   25  C17 UNL     1     -10.044  32.016 -13.109  1.00  0.00     0.698 A 
ATOM     26  H8  UNL     1     -11.641  30.961 -12.414  1.00  0.00     0.203 HD
HETATM   27  N10 UNL     1      -8.772  31.910 -13.517  1.00  0.00    -0.154 N 
ATOM     28  H10 UNL     1      -8.278  32.753 -13.811  1.00  0.00     0.188 HD
BRANCH  22  29
HETATM   29  N7  UNL     1     -10.691  28.614 -12.370  1.00  0.00    -0.234 N 
ATOM     30  H72 UNL     1     -11.079  27.952 -13.041  1.00  0.00     0.174 HD
ATOM     31  H71 UNL     1     -10.817  28.382 -11.385  1.00  0.00     0.174 HD
ENDBRANCH  22  29
BRANCH  25  32
HETATM   32  N9  UNL     1     -10.731  33.260 -13.071  1.00  0.00    -0.214 N 
HETATM   33  C18 UNL     1     -10.152  34.538 -13.443  1.00  0.00     0.144 C 
HETATM   34  C19 UNL     1     -11.329  35.423 -13.811  1.00  0.00     0.059 C 
HETATM   35  C20 UNL     1     -12.562  34.750 -13.249  1.00  0.00     0.190 C 
HETATM   36  F1  UNL     1     -13.153  35.532 -12.281  1.00  0.00    -0.248 F 
HETATM   37  C21 UNL     1     -12.094  33.432 -12.662  1.00  0.00     0.178 C 
ENDBRANCH  25  32
ENDBRANCH  19  20
ENDBRANCH  18  19
ENDBRANCH  17  18
ENDBRANCH  16  17
ENDBRANCH  15  16
BRANCH   1  38
HETATM   38  O1  UNL     1      -8.643  26.526 -13.640  1.00  0.00    -0.353 OA
HETATM   39  C1  UNL     1      -9.266  25.319 -13.242  1.00  0.00     0.210 C 
ENDBRANCH   1  38
BRANCH  13  40
HETATM   40  N5  UNL     1      -5.975  26.620 -18.552  1.00  0.00    -0.381 N 
ATOM     41  H5  UNL     1      -6.359  27.208 -19.292  1.00  0.00     0.160 HD
BRANCH  40  42
HETATM   42  C7  UNL     1      -4.762  25.890 -18.837  1.00  0.00     0.019 C 
HETATM   43  C8  UNL     1      -4.750  25.511 -20.342  1.00  0.00     0.037 C 
HETATM   44  C9  UNL     1      -4.703  24.573 -18.106  1.00  0.00     0.037 C 
HETATM   45  C10 UNL     1      -3.512  26.698 -18.605  1.00  0.00     0.037 C 
ENDBRANCH  40  42
ENDBRANCH  13  40
TORSDOF 10
ENDMDL
MODEL 3
REMARK VINA RESULT: -9.803370256      2.017      2.820
REMARK  10 active torsions:
REMARK  status: ('A' for Active; 'I' for Inactive)
REMARK    1  A    between atoms: O1_2  and  C2_3 
REMARK    2  A    between atoms: C6_15  and  N5_16 
REMARK    3  A    between atoms: N5_16  and  C7_18 
REMARK    4  A    between atoms: C12_23  and  O2_24 
REMARK    5  A    between atoms: O2_24  and  C13_25 
REMARK    6  A    between atoms: C13_25  and  C14_26 
REMARK    7  A    between atoms: C14_26  and  O3_27 
REMARK    8  A    between atoms: O3_27  and  C15_28 
REMARK    9  A    between atoms: C16_31  and  N7_32 
REMARK   10  A    between atoms: C17_37  and  N9_38 
ROOT
HETATM    1  C2  UNL     1      -7.757  27.070 -14.604  1.00  0.00     0.102 A 
HETATM    2  C3  UNL     1      -7.905  25.924 -15.314  1.00  0.00     0.057 A 
HETATM    3  C4  UNL     1      -6.990  25.432 -16.262  1.00  0.00     0.040 A 
HETATM    4  C5  UNL     1      -7.278  24.193 -16.947  1.00  0.00     0.149 A 
HETATM    5  N1  UNL     1      -6.684  23.449 -17.859  1.00  0.00    -0.268 N 
ATOM      6  H1  UNL     1      -5.785  23.692 -18.274  1.00  0.00     0.190 HD
HETATM    7  N2  UNL     1      -7.354  22.364 -18.185  1.00  0.00    -0.227 N 
ATOM      8  H2  UNL     1      -7.085  21.652 -18.864  1.00  0.00     0.210 HD
HETATM    9  N3  UNL     1      -8.447  22.395 -17.449  1.00  0.00    -0.227 N 
ATOM     10  H3  UNL     1      -9.188  21.694 -17.458  1.00  0.00     0.210 HD
HETATM   11  N4  UNL     1      -8.428  23.476 -16.700  1.00  0.00    -0.268 N 
ATOM     12  H4  UNL     1      -9.154  23.743 -16.037  1.00  0.00     0.190 HD
HETATM   13  C6  UNL     1      -5.859  26.208 -16.456  1.00  0.00     0.045 A 
HETATM   14  C11 UNL     1      -5.666  27.400 -15.742  1.00  0.00     0.069 A 
HETATM   15  C12 UNL     1      -6.595  27.829 -14.832  1.00  0.00     0.104 A 
ENDROOT
BRANCH  15  16
HETATM   16  O2  UNL     1      -6.473  28.969 -14.116  1.00  0.00    -0.346 OA
BRANCH  16  17
HETATM   17  C13 UNL     1      -5.599  29.317 -13.122  1.00  0.00     0.202 C 
BRANCH  17  18
HETATM   18  C14 UNL     1      -6.016  30.470 -12.255  1.00  0.00     0.205 C 
BRANCH  18  19
HETATM   19  O3  UNL     1      -6.806  31.382 -13.004  1.00  0.00    -0.319 OA
BRANCH  19  20
HETATM   20  C15 UNL     1      -8.175  31.419 -12.943  1.00  0.00     0.252 A 
HETATM   21  N6  UNL     1      -8.963  30.360 -12.750  1.00  0.00    -0.154 N 
HETATM   22  C16 UNL     1     -10.305  30.425 -12.695  1.00  0.00     0.693 A 
ATOM     23  H6  UNL     1      -8.522  29.447 -12.639  1.00  0.00     0.188 HD
HETATM   24  N8  UNL     1     -10.848  31.655 -12.848  1.00  0.00    -0.022 N 
HETATM   25  C17 UNL     1     -10.109  32.757 -13.045  1.00  0.00     0.698 A 
ATOM     26  H8  UNL     1     -11.863  31.748 -12.811  1.00  0.00     0.203 HD
HETATM   27  N10 UNL     1      -8.777  32.617 -13.089  1.00  0.00    -0.154 N 
ATOM     28  H10 UNL     1      -8.200  33.444 -13.239  1.00  0.00     0.188 HD
BRANCH  22  29
HETATM   29  N7  UNL     1     -11.022  29.379 -12.508  1.00  0.00    -0.234 N 
ATOM     30  H72 UNL     1     -10.773  28.472 -12.901  1.00  0.00     0.174 HD
ATOM     31  H71 UNL     1     -11.878  29.409 -11.953  1.00  0.00     0.174 HD
ENDBRANCH  22  29
BRANCH  25  32
HETATM   32  N9  UNL     1     -10.747  34.018 -13.198  1.00  0.00    -0.214 N 
HETATM   33  C18 UNL     1     -12.182  34.214 -13.298  1.00  0.00     0.144 C 
HETATM   34  C19 UNL     1     -12.426  35.647 -12.860  1.00  0.00     0.059 C 
HETATM   35  C20 UNL     1     -11.084  36.344 -12.914  1.00  0.00     0.190 C 
HETATM   36  F1  UNL     1     -11.089  37.351 -13.855  1.00  0.00    -0.248 F 
HETATM   37  C21 UNL     1     -10.067  35.278 -13.274  1.00  0.00     0.178 C 
ENDBRANCH  25  32
ENDBRANCH  19  20
ENDBRANCH  18  19
ENDBRANCH  17  18
ENDBRANCH  16  17
ENDBRANCH  15  16
BRANCH   1  38
HETATM   38  O1  UNL     1      -8.691  27.520 -13.673  1.00  0.00    -0.353 OA
HETATM   39  C1  UNL     1      -8.929  26.700 -12.545  1.00  0.00     0.210 C 
ENDBRANCH   1  38
BRANCH  13  40
HETATM   40  N5  UNL     1      -4.885  25.797 -17.388  1.00  0.00    -0.381 N 
ATOM     41  H5  UNL     1      -4.237  25.063 -17.103  1.00  0.00     0.160 HD
BRANCH  40  42
HETATM   42  C7  UNL     1      -4.739  26.340 -18.718  1.00  0.00     0.019 C 
HETATM   43  C8  UNL     1      -4.246  25.215 -19.666  1.00  0.00     0.037 C 
HETATM   44  C9  UNL     1      -3.670  27.401 -18.788  1.00  0.00     0.037 C 
HETATM   45  C10 UNL     1      -6.035  26.835 -19.305  1.00  0.00     0.037 C 
ENDBRANCH  40  42
ENDBRANCH  13  40
TORSDOF 10
ENDMDL
MODEL 4
REMARK VINA RESULT: -9.671459817      2.134      2.948
REMARK  10 active torsions:
REMARK  status: ('A' for Active; 'I' for Inactive)
REMARK    1  A    between atoms: O1_2  and  C2_3 
REMARK    2  A    between atoms: C6_15  and  N5_16 
REMARK    3  A    between atoms: N5_16  and  C7_18 
REMARK    4  A    between atoms: C12_23  and  O2_24 
REMARK    5  A    between atoms: O2_24  and  C13_25 
REMARK    6  A    between atoms: C13_25  and  C14_26 
REMARK    7  A    between atoms: C14_26  and  O3_27 
REMARK    8  A    between atoms: O3_27  and  C15_28 
REMARK    9  A    between atoms: C16_31  and  N7_32 
REMARK   10  A    between atoms: C17_37  and  N9_38 
ROOT
HETATM    1  C2  UNL     1      -7.627  27.490 -14.343  1.00  0.00     0.102 A 
HETATM    2  C3  UNL     1      -7.957  26.367 -15.028  1.00  0.00     0.057 A 
HETATM    3  C4  UNL     1      -7.128  25.704 -15.951  1.00  0.00     0.040 A 
HETATM    4  C5  UNL     1      -7.611  24.514 -16.612  1.00  0.00     0.149 A 
HETATM    5  N1  UNL     1      -7.141  23.658 -17.497  1.00  0.00    -0.268 N 
ATOM      6  H1  UNL     1      -6.210  23.737 -17.904  1.00  0.00     0.190 HD
HETATM    7  N2  UNL     1      -7.980  22.694 -17.808  1.00  0.00    -0.227 N 
ATOM      8  H2  UNL     1      -7.827  21.929 -18.466  1.00  0.00     0.210 HD
HETATM    9  N3  UNL     1      -9.061  22.926 -17.089  1.00  0.00    -0.227 N 
ATOM     10  H3  UNL     1      -9.909  22.359 -17.093  1.00  0.00     0.210 HD
HETATM   11  N4  UNL     1      -8.868  24.006 -16.366  1.00  0.00    -0.268 N 
ATOM     12  H4  UNL     1      -9.547  24.409 -15.720  1.00  0.00     0.190 HD
HETATM   13  C6  UNL     1      -5.880  26.274 -16.146  1.00  0.00     0.045 A 
HETATM   14  C11 UNL     1      -5.498  27.435 -15.456  1.00  0.00     0.069 A 
HETATM   15  C12 UNL     1      -6.351  28.037 -14.570  1.00  0.00     0.104 A 
ENDROOT
BRANCH  15  16
HETATM   16  O2  UNL     1      -6.048  29.158 -13.879  1.00  0.00    -0.346 OA
BRANCH  16  17
HETATM   17  C13 UNL     1      -5.071  29.406 -12.953  1.00  0.00     0.202 C 
BRANCH  17  18
HETATM   18  C14 UNL     1      -5.036  30.799 -12.394  1.00  0.00     0.205 C 
BRANCH  18  19
HETATM   19  O3  UNL     1      -6.117  31.559 -12.912  1.00  0.00    -0.319 OA
BRANCH  19  20
HETATM   20  C15 UNL     1      -7.389  31.499 -12.406  1.00  0.00     0.252 A 
HETATM   21  N6  UNL     1      -7.798  30.659 -11.453  1.00  0.00    -0.154 N 
HETATM   22  C16 UNL     1      -9.053  30.622 -10.975  1.00  0.00     0.693 A 
ATOM     23  H6  UNL     1      -7.117  30.006 -11.065  1.00  0.00     0.188 HD
HETATM   24  N8  UNL     1      -9.923  31.504 -11.518  1.00  0.00    -0.022 N 
HETATM   25  C17 UNL     1      -9.575  32.373 -12.478  1.00  0.00     0.698 A 
ATOM     26  H8  UNL     1     -10.887  31.509 -11.182  1.00  0.00     0.203 HD
HETATM   27  N10 UNL     1      -8.305  32.354 -12.907  1.00  0.00    -0.154 N 
ATOM     28  H10 UNL     1      -8.022  33.007 -13.637  1.00  0.00     0.188 HD
BRANCH  22  29
HETATM   29  N7  UNL     1      -9.400  29.796 -10.058  1.00  0.00    -0.234 N 
ATOM     30  H72 UNL     1      -8.925  28.904  -9.922  1.00  0.00     0.174 HD
ATOM     31  H71 UNL     1     -10.170  29.996  -9.420  1.00  0.00     0.174 HD
ENDBRANCH  22  29
BRANCH  25  32
HETATM   32  N9  UNL     1     -10.542  33.273 -13.003  1.00  0.00    -0.214 N 
HETATM   33  C18 UNL     1     -11.975  33.157 -12.805  1.00  0.00     0.144 C 
HETATM   34  C19 UNL     1     -12.525  34.559 -13.002  1.00  0.00     0.059 C 
HETATM   35  C20 UNL     1     -11.442  35.347 -13.705  1.00  0.00     0.190 C 
HETATM   36  F1  UNL     1     -11.855  35.745 -14.957  1.00  0.00    -0.248 F 
HETATM   37  C21 UNL     1     -10.242  34.424 -13.804  1.00  0.00     0.178 C 
ENDBRANCH  25  32
ENDBRANCH  19  20
ENDBRANCH  18  19
ENDBRANCH  17  18
ENDBRANCH  16  17
ENDBRANCH  15  16
BRANCH   1  38
HETATM   38  O1  UNL     1      -8.482  28.113 -13.437  1.00  0.00    -0.353 OA
HETATM   39  C1  UNL     1      -9.315  27.280 -12.653  1.00  0.00     0.210 C 
ENDBRANCH   1  38
BRANCH  13  40
HETATM   40  N5  UNL     1      -4.979  25.682 -17.052  1.00  0.00    -0.381 N 
ATOM     41  H5  UNL     1      -4.469  24.855 -16.742  1.00  0.00     0.160 HD
BRANCH  40  42
HETATM   42  C7  UNL     1      -4.725  26.163 -18.391  1.00  0.00     0.019 C 
HETATM   43  C8  UNL     1      -4.296  24.964 -19.279  1.00  0.00     0.037 C 
HETATM   44  C9  UNL     1      -3.560  27.118 -18.444  1.00  0.00     0.037 C 
HETATM   45  C10 UNL     1      -5.943  26.752 -19.053  1.00  0.00     0.037 C 
ENDBRANCH  40  42
ENDBRANCH  13  40
TORSDOF 10
ENDMDL
MODEL 5
REMARK VINA RESULT: -9.661180123      1.222      1.634
REMARK  10 active torsions:
REMARK  status: ('A' for Active; 'I' for Inactive)
REMARK    1  A    between atoms: O1_2  and  C2_3 
REMARK    2  A    between atoms: C6_15  and  N5_16 
REMARK    3  A    between atoms: N5_16  and  C7_18 
REMARK    4  A    between atoms: C12_23  and  O2_24 
REMARK    5  A    between atoms: O2_24  and  C13_25 
REMARK    6  A    between atoms: C13_25  and  C14_26 
REMARK    7  A    between atoms: C14_26  and  O3_27 
REMARK    8  A    between atoms: O3_27  and  C15_28 
REMARK    9  A    between atoms: C16_31  and  N7_32 
REMARK   10  A    between atoms: C17_37  and  N9_38 
ROOT
HETATM    1  C2  UNL     1      -7.898  27.093 -14.658  1.00  0.00     0.102 A 
HETATM    2  C3  UNL     1      -8.321  25.842 -14.967  1.00  0.00     0.057 A 
HETATM    3  C4  UNL     1      -8.318  25.280 -16.256  1.00  0.00     0.040 A 
HETATM    4  C5  UNL     1      -8.801  23.930 -16.442  1.00  0.00     0.149 A 
HETATM    5  N1  UNL     1      -8.944  23.101 -17.456  1.00  0.00    -0.268 N 
ATOM      6  H1  UNL     1      -8.688  23.345 -18.412  1.00  0.00     0.190 HD
HETATM    7  N2  UNL     1      -9.446  21.931 -17.125  1.00  0.00    -0.227 N 
ATOM      8  H2  UNL     1      -9.640  21.144 -17.744  1.00  0.00     0.210 HD
HETATM    9  N3  UNL     1      -9.643  21.992 -15.823  1.00  0.00    -0.227 N 
ATOM     10  H3  UNL     1     -10.025  21.243 -15.245  1.00  0.00     0.210 HD
HETATM   11  N4  UNL     1      -9.267  23.175 -15.389  1.00  0.00    -0.268 N 
ATOM     12  H4  UNL     1      -9.313  23.486 -14.419  1.00  0.00     0.190 HD
HETATM   13  C6  UNL     1      -7.836  26.101 -17.263  1.00  0.00     0.045 A 
HETATM   14  C11 UNL     1      -7.388  27.401 -16.986  1.00  0.00     0.069 A 
HETATM   15  C12 UNL     1      -7.417  27.895 -15.709  1.00  0.00     0.104 A 
ENDROOT
BRANCH  15  16
HETATM   16  O2  UNL     1      -7.006  29.139 -15.375  1.00  0.00    -0.346 OA
BRANCH  16  17
HETATM   17  C13 UNL     1      -7.698  30.313 -15.260  1.00  0.00     0.202 C 
BRANCH  17  18
HETATM   18  C14 UNL     1      -7.319  31.187 -14.100  1.00  0.00     0.205 C 
BRANCH  18  19
HETATM   19  O3  UNL     1      -7.669  32.536 -14.371  1.00  0.00    -0.319 OA
BRANCH  19  20
HETATM   20  C15 UNL     1      -8.849  33.103 -13.966  1.00  0.00     0.252 A 
HETATM   21  N6  UNL     1      -9.195  34.377 -14.161  1.00  0.00    -0.154 N 
HETATM   22  C16 UNL     1     -10.360  34.908 -13.753  1.00  0.00     0.693 A 
ATOM     23  H6  UNL     1      -8.537  34.983 -14.650  1.00  0.00     0.188 HD
HETATM   24  N8  UNL     1     -11.203  34.069 -13.108  1.00  0.00    -0.022 N 
HETATM   25  C17 UNL     1     -10.913  32.779 -12.880  1.00  0.00     0.698 A 
ATOM     26  H8  UNL     1     -12.099  34.432 -12.782  1.00  0.00     0.203 HD
HETATM   27  N10 UNL     1      -9.733  32.318 -13.316  1.00  0.00    -0.154 N 
ATOM     28  H10 UNL     1      -9.495  31.340 -13.151  1.00  0.00     0.188 HD
BRANCH  22  29
HETATM   29  N7  UNL     1     -10.650  36.139 -13.964  1.00  0.00    -0.234 N 
ATOM     30  H72 UNL     1     -10.928  36.768 -13.211  1.00  0.00     0.174 HD
ATOM     31  H71 UNL     1     -10.614  36.545 -14.899  1.00  0.00     0.174 HD
ENDBRANCH  22  29
BRANCH  25  32
HETATM   32  N9  UNL     1     -11.847  31.954 -12.196  1.00  0.00    -0.214 N 
HETATM   33  C18 UNL     1     -11.604  30.578 -11.800  1.00  0.00     0.144 C 
HETATM   34  C19 UNL     1     -12.558  30.315 -10.649  1.00  0.00     0.059 C 
HETATM   35  C20 UNL     1     -13.594  31.415 -10.692  1.00  0.00     0.190 C 
HETATM   36  F1  UNL     1     -14.847  30.903 -10.951  1.00  0.00    -0.248 F 
HETATM   37  C21 UNL     1     -13.163  32.361 -11.797  1.00  0.00     0.178 C 
ENDBRANCH  25  32
ENDBRANCH  19  20
ENDBRANCH  18  19
ENDBRANCH  17  18
ENDBRANCH  16  17
ENDBRANCH  15  16
BRANCH   1  38
HETATM   38  O1  UNL     1      -7.918  27.610 -13.364  1.00  0.00    -0.353 OA
HETATM   39  C1  UNL     1      -9.182  27.936 -12.816  1.00  0.00     0.210 C 
ENDBRANCH   1  38
BRANCH  13  40
HETATM   40  N5  UNL     1      -7.797  25.625 -18.589  1.00  0.00    -0.381 N 
ATOM     41  H5  UNL     1      -8.667  25.631 -19.121  1.00  0.00     0.160 HD
BRANCH  40  42
HETATM   42  C7  UNL     1      -6.611  25.131 -19.249  1.00  0.00     0.019 C 
HETATM   43  C8  UNL     1      -6.001  26.275 -20.104  1.00  0.00     0.037 C 
HETATM   44  C9  UNL     1      -6.922  24.035 -20.237  1.00  0.00     0.037 C 
HETATM   45  C10 UNL     1      -5.527  24.709 -18.292  1.00  0.00     0.037 C 
ENDBRANCH  40  42
ENDBRANCH  13  40
TORSDOF 10
ENDMDL
