MODEL 1
REMARK VINA RESULT: -7.516756120      0.000      0.000
REMARK  4 active torsions:
REMARK  status: ('A' for Active; 'I' for Inactive)
REMARK    1  A    between atoms: C2_2  and  N2_10 
REMARK    2  A    between atoms: N1_3  and  C3_5 
REMARK       I    between atoms: N2_10  and  C6_12 
REMARK       I    between atoms: C6_12  and  N3_14 
REMARK    3  A    between atoms: N4_17  and  S1_18 
REMARK    4  A    between atoms: S1_18  and  N5_21 
ROOT
HETATM    1  N2  UNL     1     -17.818  -6.615  13.668  1.00  0.00    -0.298 N 
ATOM      2  H2  UNL     1     -18.162  -7.502  14.036  1.00  0.00     0.172 HD
HETATM    3  C6  UNL     1     -16.431  -6.382  13.663  1.00  0.00     0.323 C 
HETATM    4  O1  UNL     1     -16.021  -5.266  13.199  1.00  0.00    -0.247 OA
HETATM    5  N3  UNL     1     -15.493  -7.335  14.152  1.00  0.00    -0.332 N 
HETATM    6  C7  UNL     1     -15.896  -8.603  14.683  1.00  0.00     0.143 C 
HETATM    7  C8  UNL     1     -14.674  -9.519  14.817  1.00  0.00     0.128 C 
HETATM    8  N4  UNL     1     -13.574  -8.914  15.483  1.00  0.00    -0.194 NA
HETATM    9  C13 UNL     1     -13.528  -7.479  15.453  1.00  0.00     0.128 C 
HETATM   10  C14 UNL     1     -14.095  -7.024  14.115  1.00  0.00     0.143 C 
ENDROOT
BRANCH   1  11
HETATM   11  C2  UNL     1     -18.744  -5.685  13.192  1.00  0.00     0.081 C 
HETATM   12  C1  UNL     1     -18.884  -5.324  11.780  1.00  0.00     0.089 C 
HETATM   13  N1  UNL     1     -19.559  -5.073  14.023  1.00  0.00    -0.347 N 
ATOM     14  H1  UNL     1     -19.493  -5.296  15.016  1.00  0.00     0.167 HD
BRANCH  13  15
HETATM   15  C3  UNL     1     -20.519  -4.123  13.614  1.00  0.00     0.057 C 
HETATM   16  C4  UNL     1     -21.628  -4.450  12.672  1.00  0.00     0.072 C 
HETATM   17  C5  UNL     1     -20.414  -2.897  14.098  1.00  0.00     0.208 C 
HETATM   18  F1  UNL     1     -21.304  -1.973  13.732  1.00  0.00    -0.191 F 
HETATM   19 CL1  UNL     1     -19.123  -2.458  15.216  1.00  0.00    -0.050 Cl
ENDBRANCH  13  15
ENDBRANCH   1  11
BRANCH   8  20
HETATM   20  S1  UNL     1     -12.048  -9.522  15.027  1.00  0.00     0.283 S 
HETATM   21  O2  UNL     1     -11.295 -10.041  16.220  1.00  0.00    -0.194 OA
HETATM   22  O3  UNL     1     -12.273 -10.706  14.100  1.00  0.00    -0.194 OA
BRANCH  20  23
HETATM   23  N5  UNL     1     -11.059  -8.329  14.272  1.00  0.00    -0.198 NA
HETATM   24  C9  UNL     1     -10.140  -8.928  13.314  1.00  0.00     0.108 C 
HETATM   25  C10 UNL     1      -9.059  -7.879  13.204  1.00  0.00     0.017 C 
HETATM   26  C11 UNL     1      -9.189  -7.011  14.434  1.00  0.00     0.017 C 
HETATM   27  C12 UNL     1     -10.128  -7.852  15.299  1.00  0.00     0.108 C 
ENDBRANCH  20  23
ENDBRANCH   8  20
TORSDOF 4
ENDMDL
MODEL 2
REMARK VINA RESULT: -7.477267648      1.056      1.410
REMARK  4 active torsions:
REMARK  status: ('A' for Active; 'I' for Inactive)
REMARK    1  A    between atoms: C2_2  and  N2_10 
REMARK    2  A    between atoms: N1_3  and  C3_5 
REMARK       I    between atoms: N2_10  and  C6_12 
REMARK       I    between atoms: C6_12  and  N3_14 
REMARK    3  A    between atoms: N4_17  and  S1_18 
REMARK    4  A    between atoms: S1_18  and  N5_21 
ROOT
HETATM    1  N2  UNL     1     -17.222  -6.808  13.144  1.00  0.00    -0.298 N 
ATOM      2  H2  UNL     1     -17.352  -7.802  12.957  1.00  0.00     0.172 HD
HETATM    3  C6  UNL     1     -16.052  -6.396  13.807  1.00  0.00     0.323 C 
HETATM    4  O1  UNL     1     -15.908  -5.148  14.030  1.00  0.00    -0.247 OA
HETATM    5  N3  UNL     1     -15.047  -7.313  14.226  1.00  0.00    -0.332 N 
HETATM    6  C7  UNL     1     -15.155  -8.723  14.001  1.00  0.00     0.143 C 
HETATM    7  C8  UNL     1     -13.801  -9.393  14.262  1.00  0.00     0.128 C 
HETATM    8  N4  UNL     1     -13.210  -9.029  15.502  1.00  0.00    -0.194 NA
HETATM    9  C13 UNL     1     -13.626  -7.771  16.056  1.00  0.00     0.128 C 
HETATM   10  C14 UNL     1     -13.882  -6.816  14.898  1.00  0.00     0.143 C 
ENDROOT
BRANCH   1  11
HETATM   11  C2  UNL     1     -18.212  -5.916  12.730  1.00  0.00     0.081 C 
HETATM   12  C1  UNL     1     -18.373  -5.460  11.348  1.00  0.00     0.089 C 
HETATM   13  N1  UNL     1     -19.074  -5.430  13.597  1.00  0.00    -0.347 N 
ATOM     14  H1  UNL     1     -18.996  -5.722  14.571  1.00  0.00     0.167 HD
BRANCH  13  15
HETATM   15  C3  UNL     1     -20.101  -4.525  13.250  1.00  0.00     0.057 C 
HETATM   16  C4  UNL     1     -21.122  -4.824  12.206  1.00  0.00     0.072 C 
HETATM   17  C5  UNL     1     -20.141  -3.370  13.892  1.00  0.00     0.208 C 
HETATM   18  F1  UNL     1     -21.098  -2.490  13.590  1.00  0.00    -0.191 F 
HETATM   19 CL1  UNL     1     -18.959  -2.967  15.136  1.00  0.00    -0.050 Cl
ENDBRANCH  13  15
ENDBRANCH   1  11
BRANCH   8  20
HETATM   20  S1  UNL     1     -11.507  -9.101  15.525  1.00  0.00     0.283 S 
HETATM   21  O2  UNL     1     -10.915  -7.768  15.885  1.00  0.00    -0.194 OA
HETATM   22  O3  UNL     1     -11.094 -10.075  16.617  1.00  0.00    -0.194 OA
BRANCH  20  23
HETATM   23  N5  UNL     1     -10.843  -9.567  14.004  1.00  0.00    -0.198 NA
HETATM   24  C9  UNL     1     -10.129 -10.832  14.100  1.00  0.00     0.108 C 
HETATM   25  C10 UNL     1      -9.208 -10.775  12.904  1.00  0.00     0.017 C 
HETATM   26  C11 UNL     1      -9.119  -9.318  12.512  1.00  0.00     0.017 C 
HETATM   27  C12 UNL     1      -9.742  -8.639  13.732  1.00  0.00     0.108 C 
ENDBRANCH  20  23
ENDBRANCH   8  20
TORSDOF 4
ENDMDL
MODEL 3
REMARK VINA RESULT: -7.282830550      2.389      2.902
REMARK  4 active torsions:
REMARK  status: ('A' for Active; 'I' for Inactive)
REMARK    1  A    between atoms: C2_2  and  N2_10 
REMARK    2  A    between atoms: N1_3  and  C3_5 
REMARK       I    between atoms: N2_10  and  C6_12 
REMARK       I    between atoms: C6_12  and  N3_14 
REMARK    3  A    between atoms: N4_17  and  S1_18 
REMARK    4  A    between atoms: S1_18  and  N5_21 
ROOT
HETATM    1  N2  UNL     1     -17.314  -5.475  13.275  1.00  0.00    -0.298 N 
ATOM      2  H2  UNL     1     -16.663  -4.692  13.328  1.00  0.00     0.172 HD
HETATM    3  C6  UNL     1     -16.840  -6.766  13.573  1.00  0.00     0.323 C 
HETATM    4  O1  UNL     1     -17.672  -7.731  13.503  1.00  0.00    -0.247 OA
HETATM    5  N3  UNL     1     -15.489  -7.018  13.943  1.00  0.00    -0.332 N 
HETATM    6  C7  UNL     1     -14.514  -5.973  14.039  1.00  0.00     0.143 C 
HETATM    7  C8  UNL     1     -13.266  -6.497  14.761  1.00  0.00     0.128 C 
HETATM    8  N4  UNL     1     -12.776  -7.726  14.242  1.00  0.00    -0.194 NA
HETATM    9  C13 UNL     1     -13.731  -8.546  13.549  1.00  0.00     0.128 C 
HETATM   10  C14 UNL     1     -15.081  -8.362  14.230  1.00  0.00     0.143 C 
ENDROOT
BRANCH   1  11
HETATM   11  C2  UNL     1     -18.637  -5.219  12.912  1.00  0.00     0.081 C 
HETATM   12  C1  UNL     1     -19.680  -4.818  13.858  1.00  0.00     0.089 C 
HETATM   13  N1  UNL     1     -19.016  -5.332  11.657  1.00  0.00    -0.347 N 
ATOM     14  H1  UNL     1     -18.319  -5.611  10.966  1.00  0.00     0.167 HD
BRANCH  13  15
HETATM   15  C3  UNL     1     -20.335  -5.089  11.217  1.00  0.00     0.057 C 
HETATM   16  C4  UNL     1     -21.212  -4.052  11.830  1.00  0.00     0.072 C 
HETATM   17  C5  UNL     1     -20.792  -5.823  10.217  1.00  0.00     0.208 C 
HETATM   18  F1  UNL     1     -22.035  -5.621   9.775  1.00  0.00    -0.191 F 
HETATM   19 CL1  UNL     1     -19.796  -7.063   9.456  1.00  0.00    -0.050 Cl
ENDBRANCH  13  15
ENDBRANCH   1  11
BRANCH   8  20
HETATM   20  S1  UNL     1     -11.944  -8.692  15.373  1.00  0.00     0.283 S 
HETATM   21  O2  UNL     1     -11.594  -7.903  16.604  1.00  0.00    -0.194 OA
HETATM   22  O3  UNL     1     -12.879  -9.806  15.816  1.00  0.00    -0.194 OA
BRANCH  20  23
HETATM   23  N5  UNL     1     -10.477  -9.337  14.740  1.00  0.00    -0.198 NA
HETATM   24  C9  UNL     1     -10.022  -8.585  13.579  1.00  0.00     0.108 C 
HETATM   25  C10 UNL     1      -9.121  -9.578  12.884  1.00  0.00     0.017 C 
HETATM   26  C11 UNL     1      -9.504 -10.939  13.417  1.00  0.00     0.017 C 
HETATM   27  C12 UNL     1     -10.820 -10.624  14.128  1.00  0.00     0.108 C 
ENDBRANCH  20  23
ENDBRANCH   8  20
TORSDOF 4
ENDMDL
MODEL 4
REMARK VINA RESULT: -7.272269466      3.094      3.839
REMARK  4 active torsions:
REMARK  status: ('A' for Active; 'I' for Inactive)
REMARK    1  A    between atoms: C2_2  and  N2_10 
REMARK    2  A    between atoms: N1_3  and  C3_5 
REMARK       I    between atoms: N2_10  and  C6_12 
REMARK       I    between atoms: C6_12  and  N3_14 
REMARK    3  A    between atoms: N4_17  and  S1_18 
REMARK    4  A    between atoms: S1_18  and  N5_21 
ROOT
HETATM    1  N2  UNL     1     -16.834  -6.092  12.702  1.00  0.00    -0.298 N 
ATOM      2  H2  UNL     1     -16.130  -5.353  12.693  1.00  0.00     0.172 HD
HETATM    3  C6  UNL     1     -16.628  -7.207  13.534  1.00  0.00     0.323 C 
HETATM    4  O1  UNL     1     -17.520  -8.119  13.531  1.00  0.00    -0.247 OA
HETATM    5  N3  UNL     1     -15.478  -7.342  14.361  1.00  0.00    -0.332 N 
HETATM    6  C7  UNL     1     -14.445  -6.350  14.406  1.00  0.00     0.143 C 
HETATM    7  C8  UNL     1     -13.526  -6.614  15.605  1.00  0.00     0.128 C 
HETATM    8  N4  UNL     1     -13.069  -7.957  15.692  1.00  0.00    -0.194 NA
HETATM    9  C13 UNL     1     -13.886  -8.947  15.047  1.00  0.00     0.128 C 
HETATM   10  C14 UNL     1     -15.338  -8.510  15.182  1.00  0.00     0.143 C 
ENDROOT
BRANCH   1  11
HETATM   11  C2  UNL     1     -17.958  -5.952  11.887  1.00  0.00     0.081 C 
HETATM   12  C1  UNL     1     -19.178  -5.253  12.295  1.00  0.00     0.089 C 
HETATM   13  N1  UNL     1     -17.969  -6.462  10.674  1.00  0.00    -0.347 N 
ATOM     14  H1  UNL     1     -17.138  -6.958  10.352  1.00  0.00     0.167 HD
BRANCH  13  15
HETATM   15  C3  UNL     1     -19.069  -6.359   9.796  1.00  0.00     0.057 C 
HETATM   16  C4  UNL     1     -19.578  -5.052   9.289  1.00  0.00     0.072 C 
HETATM   17  C5  UNL     1     -19.659  -7.480   9.419  1.00  0.00     0.208 C 
HETATM   18  F1  UNL     1     -20.702  -7.421   8.589  1.00  0.00    -0.191 F 
HETATM   19 CL1  UNL     1     -19.097  -9.052   9.988  1.00  0.00    -0.050 Cl
ENDBRANCH  13  15
ENDBRANCH   1  11
BRANCH   8  20
HETATM   20  S1  UNL     1     -12.715  -8.485  17.274  1.00  0.00     0.283 S 
HETATM   21  O2  UNL     1     -13.461  -7.671  18.294  1.00  0.00    -0.194 OA
HETATM   22  O3  UNL     1     -13.206  -9.917  17.410  1.00  0.00    -0.194 OA
BRANCH  20  23
HETATM   23  N5  UNL     1     -11.038  -8.371  17.650  1.00  0.00    -0.198 NA
HETATM   24  C9  UNL     1     -10.672  -7.019  18.050  1.00  0.00     0.108 C 
HETATM   25  C10 UNL     1      -9.184  -6.998  17.794  1.00  0.00     0.017 C 
HETATM   26  C11 UNL     1      -8.905  -8.135  16.837  1.00  0.00     0.017 C 
HETATM   27  C12 UNL     1     -10.319  -8.495  16.379  1.00  0.00     0.108 C 
ENDBRANCH  20  23
ENDBRANCH   8  20
TORSDOF 4
ENDMDL
MODEL 5
REMARK VINA RESULT: -7.218311437      3.304      4.028
REMARK  4 active torsions:
REMARK  status: ('A' for Active; 'I' for Inactive)
REMARK    1  A    between atoms: C2_2  and  N2_10 
REMARK    2  A    between atoms: N1_3  and  C3_5 
REMARK       I    between atoms: N2_10  and  C6_12 
REMARK       I    between atoms: C6_12  and  N3_14 
REMARK    3  A    between atoms: N4_17  and  S1_18 
REMARK    4  A    between atoms: S1_18  and  N5_21 
ROOT
HETATM    1  N2  UNL     1     -15.294  -6.820  13.542  1.00  0.00    -0.298 N 
ATOM      2  H2  UNL     1     -14.852  -7.677  13.208  1.00  0.00     0.172 HD
HETATM    3  C6  UNL     1     -14.493  -5.855  14.178  1.00  0.00     0.323 C 
HETATM    4  O1  UNL     1     -15.065  -4.789  14.587  1.00  0.00    -0.247 OA
HETATM    5  N3  UNL     1     -13.095  -6.030  14.375  1.00  0.00    -0.332 N 
HETATM    6  C7  UNL     1     -12.400  -7.204  13.937  1.00  0.00     0.143 C 
HETATM    7  C8  UNL     1     -10.887  -6.960  13.993  1.00  0.00     0.128 C 
HETATM    8  N4  UNL     1     -10.438  -6.427  15.231  1.00  0.00    -0.194 NA
HETATM    9  C13 UNL     1     -11.415  -5.714  16.006  1.00  0.00     0.128 C 
HETATM   10  C14 UNL     1     -12.346  -5.000  15.035  1.00  0.00     0.143 C 
ENDROOT
BRANCH   1  11
HETATM   11  C2  UNL     1     -16.666  -6.657  13.345  1.00  0.00     0.081 C 
HETATM   12  C1  UNL     1     -17.655  -7.707  13.593  1.00  0.00     0.089 C 
HETATM   13  N1  UNL     1     -17.144  -5.511  12.911  1.00  0.00    -0.347 N 
ATOM     14  H1  UNL     1     -16.487  -4.753  12.725  1.00  0.00     0.167 HD
BRANCH  13  15
HETATM   15  C3  UNL     1     -18.518  -5.274  12.690  1.00  0.00     0.057 C 
HETATM   16  C4  UNL     1     -19.467  -4.941  13.790  1.00  0.00     0.072 C 
HETATM   17  C5  UNL     1     -18.961  -5.355  11.447  1.00  0.00     0.208 C 
HETATM   18  F1  UNL     1     -20.254  -5.137  11.201  1.00  0.00    -0.191 F 
HETATM   19 CL1  UNL     1     -17.880  -5.744  10.109  1.00  0.00    -0.050 Cl
ENDBRANCH  13  15
ENDBRANCH   1  11
BRANCH   8  20
HETATM   20  S1  UNL     1      -9.026  -5.477  15.123  1.00  0.00     0.283 S 
HETATM   21  O2  UNL     1      -9.007  -4.415  16.186  1.00  0.00    -0.194 OA
HETATM   22  O3  UNL     1      -7.832  -6.381  15.385  1.00  0.00    -0.194 OA
BRANCH  20  23
HETATM   23  N5  UNL     1      -8.875  -4.686  13.600  1.00  0.00    -0.198 NA
HETATM   24  C9  UNL     1      -7.661  -5.094  12.906  1.00  0.00     0.108 C 
HETATM   25  C10 UNL     1      -7.438  -3.950  11.945  1.00  0.00     0.017 C 
HETATM   26  C11 UNL     1      -8.235  -2.785  12.486  1.00  0.00     0.017 C 
HETATM   27  C12 UNL     1      -8.576  -3.280  13.891  1.00  0.00     0.108 C 
ENDBRANCH  20  23
ENDBRANCH   8  20
TORSDOF 4
ENDMDL
