MODEL 1
REMARK VINA RESULT: -5.584995269      0.000      0.000
REMARK  3 active torsions:
REMARK  status: ('A' for Active; 'I' for Inactive)
REMARK    1  A    between atoms: C2_2  and  N1_3 
REMARK       I    between atoms: N1_3  and  C3_5 
REMARK       I    between atoms: C3_5  and  N2_7 
REMARK    2  A    between atoms: N3_16  and  S1_17 
REMARK    3  A    between atoms: S1_17  and  N4_20 
ROOT
HETATM    1  N1  UNL     1     -17.414  -6.746  13.063  1.00  0.00    -0.343 N 
ATOM      2  H1  UNL     1     -17.738  -7.713  13.099  1.00  0.00     0.164 HD
HETATM    3  C3  UNL     1     -16.204  -6.418  13.676  1.00  0.00     0.318 C 
HETATM    4  O1  UNL     1     -15.849  -5.187  13.596  1.00  0.00    -0.247 OA
HETATM    5  N2  UNL     1     -15.376  -7.336  14.356  1.00  0.00    -0.333 N 
HETATM    6  C4  UNL     1     -15.680  -8.730  14.506  1.00  0.00     0.127 C 
HETATM    7  C5  UNL     1     -14.594  -9.506  13.789  1.00  0.00     0.021 C 
HETATM    8  C6  UNL     1     -13.455  -8.620  13.378  1.00  0.00     0.014 C 
HETATM    9  C7  UNL     1     -12.983  -7.810  14.567  1.00  0.00    -0.004 C 
HETATM   10  C8  UNL     1     -12.596  -8.753  15.668  1.00  0.00     0.055 C 
HETATM   11  C9  UNL     1     -11.514  -9.674  15.178  1.00  0.00     0.210 C 
HETATM   12  F1  UNL     1     -11.063 -10.404  16.281  1.00  0.00    -0.244 F 
HETATM   13  C10 UNL     1     -10.372  -8.920  14.524  1.00  0.00     0.114 C 
HETATM   14  N3  UNL     1     -10.565  -7.542  14.716  1.00  0.00    -0.274 N 
HETATM   15  C15 UNL     1     -11.766  -6.980  14.223  1.00  0.00     0.152 C 
HETATM   16  C16 UNL     1     -14.113  -6.892  14.967  1.00  0.00     0.138 C 
ENDROOT
BRANCH  14  17
HETATM   17  S1  UNL     1      -9.263  -6.560  14.995  1.00  0.00     0.304 S 
HETATM   18  O2  UNL     1      -9.383  -5.290  14.200  1.00  0.00    -0.188 OA
HETATM   19  O3  UNL     1      -7.990  -7.239  14.506  1.00  0.00    -0.188 OA
BRANCH  17  20
HETATM   20  N4  UNL     1      -8.993  -6.132  16.636  1.00  0.00    -0.193 NA
HETATM   21  C11 UNL     1      -7.933  -6.897  17.245  1.00  0.00     0.109 C 
HETATM   22  C12 UNL     1      -8.619  -8.154  17.732  1.00  0.00     0.017 C 
HETATM   23  C13 UNL     1     -10.026  -7.724  18.078  1.00  0.00     0.017 C 
HETATM   24  C14 UNL     1     -10.112  -6.359  17.483  1.00  0.00     0.109 C 
ENDBRANCH  17  20
ENDBRANCH  14  17
BRANCH   1  25
HETATM   25  C2  UNL     1     -18.235  -5.752  12.369  1.00  0.00     0.120 C 
HETATM   26  C1  UNL     1     -17.955  -5.693  10.905  1.00  0.00     0.026 C 
ENDBRANCH   1  25
TORSDOF 3
ENDMDL
MODEL 2
REMARK VINA RESULT: -5.511261030      0.577      1.062
REMARK  3 active torsions:
REMARK  status: ('A' for Active; 'I' for Inactive)
REMARK    1  A    between atoms: C2_2  and  N1_3 
REMARK       I    between atoms: N1_3  and  C3_5 
REMARK       I    between atoms: C3_5  and  N2_7 
REMARK    2  A    between atoms: N3_16  and  S1_17 
REMARK    3  A    between atoms: S1_17  and  N4_20 
ROOT
HETATM    1  N1  UNL     1     -17.415  -6.742  13.069  1.00  0.00    -0.343 N 
ATOM      2  H1  UNL     1     -17.747  -7.705  13.119  1.00  0.00     0.164 HD
HETATM    3  C3  UNL     1     -16.199  -6.417  13.671  1.00  0.00     0.318 C 
HETATM    4  O1  UNL     1     -15.833  -5.190  13.574  1.00  0.00    -0.247 OA
HETATM    5  N2  UNL     1     -15.374  -7.334  14.358  1.00  0.00    -0.333 N 
HETATM    6  C4  UNL     1     -15.690  -8.723  14.527  1.00  0.00     0.127 C 
HETATM    7  C5  UNL     1     -14.614  -9.517  13.814  1.00  0.00     0.021 C 
HETATM    8  C6  UNL     1     -13.470  -8.645  13.386  1.00  0.00     0.014 C 
HETATM    9  C7  UNL     1     -12.985  -7.825  14.562  1.00  0.00    -0.004 C 
HETATM   10  C8  UNL     1     -12.599  -8.757  15.673  1.00  0.00     0.055 C 
HETATM   11  C9  UNL     1     -11.528  -9.694  15.189  1.00  0.00     0.210 C 
HETATM   12  F1  UNL     1     -11.078 -10.414  16.299  1.00  0.00    -0.244 F 
HETATM   13  C10 UNL     1     -10.383  -8.958  14.520  1.00  0.00     0.114 C 
HETATM   14  N3  UNL     1     -10.563  -7.576  14.695  1.00  0.00    -0.274 N 
HETATM   15  C15 UNL     1     -11.763  -7.010  14.202  1.00  0.00     0.152 C 
HETATM   16  C16 UNL     1     -14.105  -6.893  14.957  1.00  0.00     0.138 C 
ENDROOT
BRANCH  14  17
HETATM   17  S1  UNL     1      -9.252  -6.602  14.956  1.00  0.00     0.304 S 
HETATM   18  O2  UNL     1      -9.412  -5.299  14.223  1.00  0.00    -0.188 OA
HETATM   19  O3  UNL     1      -8.002  -7.254  14.378  1.00  0.00    -0.188 OA
BRANCH  17  20
HETATM   20  N4  UNL     1      -8.905  -6.244  16.598  1.00  0.00    -0.193 NA
HETATM   21  C11 UNL     1      -9.803  -6.904  17.514  1.00  0.00     0.109 C 
HETATM   22  C12 UNL     1     -10.989  -5.970  17.606  1.00  0.00     0.017 C 
HETATM   23  C13 UNL     1     -10.414  -4.585  17.410  1.00  0.00     0.017 C 
HETATM   24  C14 UNL     1      -9.031  -4.865  16.927  1.00  0.00     0.109 C 
ENDBRANCH  17  20
ENDBRANCH  14  17
BRANCH   1  25
HETATM   25  C2  UNL     1     -18.230  -5.749  12.366  1.00  0.00     0.120 C 
HETATM   26  C1  UNL     1     -17.949  -5.702  10.903  1.00  0.00     0.026 C 
ENDBRANCH   1  25
TORSDOF 3
ENDMDL
MODEL 3
REMARK VINA RESULT: -5.299097160      1.768      2.299
REMARK  3 active torsions:
REMARK  status: ('A' for Active; 'I' for Inactive)
REMARK    1  A    between atoms: C2_2  and  N1_3 
REMARK       I    between atoms: N1_3  and  C3_5 
REMARK       I    between atoms: C3_5  and  N2_7 
REMARK    2  A    between atoms: N3_16  and  S1_17 
REMARK    3  A    between atoms: S1_17  and  N4_20 
ROOT
HETATM    1  N1  UNL     1     -17.453  -6.725  13.135  1.00  0.00    -0.343 N 
ATOM      2  H1  UNL     1     -17.805  -7.677  13.238  1.00  0.00     0.164 HD
HETATM    3  C3  UNL     1     -16.204  -6.408  13.671  1.00  0.00     0.318 C 
HETATM    4  O1  UNL     1     -15.814  -5.195  13.510  1.00  0.00    -0.247 OA
HETATM    5  N2  UNL     1     -15.372  -7.319  14.357  1.00  0.00    -0.333 N 
HETATM    6  C4  UNL     1     -15.712  -8.692  14.593  1.00  0.00     0.127 C 
HETATM    7  C5  UNL     1     -14.689  -9.540  13.865  1.00  0.00     0.021 C 
HETATM    8  C6  UNL     1     -13.544  -8.715  13.354  1.00  0.00     0.014 C 
HETATM    9  C7  UNL     1     -12.988  -7.863  14.474  1.00  0.00    -0.004 C 
HETATM   10  C8  UNL     1     -12.575  -8.762  15.602  1.00  0.00     0.055 C 
HETATM   11  C9  UNL     1     -11.550  -9.744  15.109  1.00  0.00     0.210 C 
HETATM   12  F1  UNL     1     -11.067 -10.433  16.225  1.00  0.00    -0.244 F 
HETATM   13  C10 UNL     1     -10.419  -9.063  14.362  1.00  0.00     0.114 C 
HETATM   14  N3  UNL     1     -10.558  -7.672  14.491  1.00  0.00    -0.274 N 
HETATM   15  C15 UNL     1     -11.764  -7.094  14.029  1.00  0.00     0.152 C 
HETATM   16  C16 UNL     1     -14.066  -6.888  14.881  1.00  0.00     0.138 C 
ENDROOT
BRANCH  14  17
HETATM   17  S1  UNL     1      -9.213  -6.722  14.656  1.00  0.00     0.304 S 
HETATM   18  O2  UNL     1      -8.590  -6.924  16.009  1.00  0.00    -0.188 OA
HETATM   19  O3  UNL     1      -9.608  -5.253  14.594  1.00  0.00    -0.188 OA
BRANCH  17  20
HETATM   20  N4  UNL     1      -7.990  -6.952  13.473  1.00  0.00    -0.193 NA
HETATM   21  C11 UNL     1      -6.692  -7.196  14.053  1.00  0.00     0.109 C 
HETATM   22  C12 UNL     1      -6.133  -5.812  14.298  1.00  0.00     0.017 C 
HETATM   23  C13 UNL     1      -6.723  -4.951  13.205  1.00  0.00     0.017 C 
HETATM   24  C14 UNL     1      -7.784  -5.826  12.629  1.00  0.00     0.109 C 
ENDBRANCH  17  20
ENDBRANCH  14  17
BRANCH   1  25
HETATM   25  C2  UNL     1     -18.275  -5.739  12.431  1.00  0.00     0.120 C 
HETATM   26  C1  UNL     1     -18.080  -5.773  10.954  1.00  0.00     0.026 C 
ENDBRANCH   1  25
TORSDOF 3
ENDMDL
MODEL 4
REMARK VINA RESULT: -5.198727332      1.006      1.069
REMARK  3 active torsions:
REMARK  status: ('A' for Active; 'I' for Inactive)
REMARK    1  A    between atoms: C2_2  and  N1_3 
REMARK       I    between atoms: N1_3  and  C3_5 
REMARK       I    between atoms: C3_5  and  N2_7 
REMARK    2  A    between atoms: N3_16  and  S1_17 
REMARK    3  A    between atoms: S1_17  and  N4_20 
ROOT
HETATM    1  N1  UNL     1     -16.993  -6.596  13.829  1.00  0.00    -0.343 N 
ATOM      2  H1  UNL     1     -17.415  -7.492  14.073  1.00  0.00     0.164 HD
HETATM    3  C3  UNL     1     -15.649  -6.379  14.135  1.00  0.00     0.318 C 
HETATM    4  O1  UNL     1     -15.175  -5.233  13.803  1.00  0.00    -0.247 OA
HETATM    5  N2  UNL     1     -14.810  -7.320  14.769  1.00  0.00    -0.333 N 
HETATM    6  C4  UNL     1     -15.239  -8.625  15.183  1.00  0.00     0.127 C 
HETATM    7  C5  UNL     1     -14.434  -9.635  14.390  1.00  0.00     0.021 C 
HETATM    8  C6  UNL     1     -13.313  -8.983  13.635  1.00  0.00     0.014 C 
HETATM    9  C7  UNL     1     -12.503  -8.114  14.572  1.00  0.00    -0.004 C 
HETATM   10  C8  UNL     1     -12.002  -8.963  15.704  1.00  0.00     0.055 C 
HETATM   11  C9  UNL     1     -11.170 -10.087  15.154  1.00  0.00     0.210 C 
HETATM   12  F1  UNL     1     -10.583 -10.736  16.244  1.00  0.00    -0.244 F 
HETATM   13  C10 UNL     1     -10.114  -9.596  14.182  1.00  0.00     0.114 C 
HETATM   14  N3  UNL     1     -10.095  -8.192  14.200  1.00  0.00    -0.274 N 
HETATM   15  C15 UNL     1     -11.298  -7.522  13.875  1.00  0.00     0.152 C 
HETATM   16  C16 UNL     1     -13.401  -6.997  15.045  1.00  0.00     0.138 C 
ENDROOT
BRANCH  14  17
HETATM   17  S1  UNL     1      -8.655  -7.387  14.067  1.00  0.00     0.304 S 
HETATM   18  O2  UNL     1      -8.799  -6.203  13.152  1.00  0.00    -0.188 OA
HETATM   19  O3  UNL     1      -7.616  -8.292  13.417  1.00  0.00    -0.188 OA
BRANCH  17  20
HETATM   20  N4  UNL     1      -7.972  -6.835  15.542  1.00  0.00    -0.193 NA
HETATM   21  C11 UNL     1      -6.899  -7.677  16.010  1.00  0.00     0.109 C 
HETATM   22  C12 UNL     1      -7.599  -8.766  16.792  1.00  0.00     0.017 C 
HETATM   23  C13 UNL     1      -8.831  -8.106  17.368  1.00  0.00     0.017 C 
HETATM   24  C14 UNL     1      -8.890  -6.811  16.629  1.00  0.00     0.109 C 
ENDBRANCH  17  20
ENDBRANCH  14  17
BRANCH   1  25
HETATM   25  C2  UNL     1     -17.819  -5.583  13.169  1.00  0.00     0.120 C 
HETATM   26  C1  UNL     1     -18.033  -5.866  11.721  1.00  0.00     0.026 C 
ENDBRANCH   1  25
TORSDOF 3
ENDMDL
MODEL 5
REMARK VINA RESULT: -5.190445479      1.461      1.827
REMARK  3 active torsions:
REMARK  status: ('A' for Active; 'I' for Inactive)
REMARK    1  A    between atoms: C2_2  and  N1_3 
REMARK       I    between atoms: N1_3  and  C3_5 
REMARK       I    between atoms: C3_5  and  N2_7 
REMARK    2  A    between atoms: N3_16  and  S1_17 
REMARK    3  A    between atoms: S1_17  and  N4_20 
ROOT
HETATM    1  N1  UNL     1     -17.431  -6.712  13.150  1.00  0.00    -0.343 N 
ATOM      2  H1  UNL     1     -17.790  -7.659  13.269  1.00  0.00     0.164 HD
HETATM    3  C3  UNL     1     -16.174  -6.397  13.669  1.00  0.00     0.318 C 
HETATM    4  O1  UNL     1     -15.777  -5.190  13.487  1.00  0.00    -0.247 OA
HETATM    5  N2  UNL     1     -15.343  -7.305  14.361  1.00  0.00    -0.333 N 
HETATM    6  C4  UNL     1     -15.692  -8.672  14.621  1.00  0.00     0.127 C 
HETATM    7  C5  UNL     1     -14.682  -9.538  13.895  1.00  0.00     0.021 C 
HETATM    8  C6  UNL     1     -13.536  -8.729  13.362  1.00  0.00     0.014 C 
HETATM    9  C7  UNL     1     -12.963  -7.866  14.465  1.00  0.00    -0.004 C 
HETATM   10  C8  UNL     1     -12.547  -8.752  15.602  1.00  0.00     0.055 C 
HETATM   11  C9  UNL     1     -11.534  -9.749  15.114  1.00  0.00     0.210 C 
HETATM   12  F1  UNL     1     -11.046 -10.425  16.236  1.00  0.00    -0.244 F 
HETATM   13  C10 UNL     1     -10.404  -9.088  14.347  1.00  0.00     0.114 C 
HETATM   14  N3  UNL     1     -10.531  -7.694  14.457  1.00  0.00    -0.274 N 
HETATM   15  C15 UNL     1     -11.737  -7.113  13.997  1.00  0.00     0.152 C 
HETATM   16  C16 UNL     1     -14.030  -6.877  14.868  1.00  0.00     0.138 C 
ENDROOT
BRANCH  14  17
HETATM   17  S1  UNL     1      -9.177  -6.752  14.595  1.00  0.00     0.304 S 
HETATM   18  O2  UNL     1      -8.390  -6.774  13.315  1.00  0.00    -0.188 OA
HETATM   19  O3  UNL     1      -8.255  -7.329  15.661  1.00  0.00    -0.188 OA
BRANCH  17  20
HETATM   20  N4  UNL     1      -9.452  -5.111  15.017  1.00  0.00    -0.193 NA
HETATM   21  C11 UNL     1      -8.826  -4.188  14.103  1.00  0.00     0.109 C 
HETATM   22  C12 UNL     1      -7.417  -4.043  14.635  1.00  0.00     0.017 C 
HETATM   23  C13 UNL     1      -7.541  -4.221  16.131  1.00  0.00     0.017 C 
HETATM   24  C14 UNL     1      -8.927  -4.747  16.289  1.00  0.00     0.109 C 
ENDBRANCH  17  20
ENDBRANCH  14  17
BRANCH   1  25
HETATM   25  C2  UNL     1     -18.252  -5.730  12.439  1.00  0.00     0.120 C 
HETATM   26  C1  UNL     1     -18.068  -5.786  10.960  1.00  0.00     0.026 C 
ENDBRANCH   1  25
TORSDOF 3
ENDMDL
