MODEL 1
REMARK VINA RESULT: -7.803676892      0.000      0.000
REMARK  7 active torsions:
REMARK  status: ('A' for Active; 'I' for Inactive)
REMARK    1  A    between atoms: C2_7  and  C3_8 
REMARK    2  A    between atoms: C3_8  and  C4_9 
REMARK    3  A    between atoms: C4_9  and  C5_10 
REMARK    4  A    between atoms: C5_10  and  C6_11 
REMARK    5  A    between atoms: C6_11  and  N3_12 
REMARK    6  A    between atoms: C7_17  and  C8_18 
REMARK    7  A    between atoms: N7_26  and  C14_27 
ROOT
HETATM    1  C4  UNL     1      10.832 -18.415   5.706  1.00  0.00     0.009 C 
ENDROOT
BRANCH   1   2
HETATM    2  C3  UNL     1      10.868 -18.011   7.154  1.00  0.00     0.078 C 
BRANCH   2   3
HETATM    3  C2  UNL     1       9.613 -17.412   7.628  1.00  0.00     0.105 A 
HETATM    4  N2  UNL     1       8.429 -18.022   7.802  1.00  0.00    -0.286 N 
HETATM    5  N1  UNL     1       7.521 -17.173   8.240  1.00  0.00    -0.274 N 
ATOM      6  H2  UNL     1       8.255 -19.011   7.619  1.00  0.00     0.188 HD
HETATM    7  C1  UNL     1       8.106 -15.972   8.362  1.00  0.00     0.199 A 
ATOM      8  H1  UNL     1       6.546 -17.391   8.449  1.00  0.00     0.189 HD
HETATM    9  S1  UNL     1       7.359 -14.589   8.882  1.00  0.00    -0.039 SA
HETATM   10  N7  UNL     1       9.381 -16.121   7.989  1.00  0.00    -0.275 N 
BRANCH  10  11
HETATM   11  C14 UNL     1      10.363 -15.102   7.963  1.00  0.00     0.043 A 
HETATM   12  C15 UNL     1      10.620 -14.413   6.809  1.00  0.00     0.030 A 
HETATM   13  C16 UNL     1      11.582 -13.427   6.816  1.00  0.00     0.002 A 
HETATM   14  C17 UNL     1      12.303 -13.101   7.947  1.00  0.00     0.000 A 
HETATM   15  C18 UNL     1      12.006 -13.824   9.082  1.00  0.00     0.002 A 
HETATM   16  C19 UNL     1      11.052 -14.814   9.110  1.00  0.00     0.030 A 
ENDBRANCH  10  11
ENDBRANCH   2   3
ENDBRANCH   1   2
BRANCH   1  17
HETATM   17  C5  UNL     1      11.118 -17.335   4.727  1.00  0.00     0.024 C 
BRANCH  17  18
HETATM   18  C6  UNL     1       9.825 -16.794   4.133  1.00  0.00     0.171 C 
BRANCH  18  19
HETATM   19  N3  UNL     1      10.195 -15.842   3.106  1.00  0.00    -0.218 N 
HETATM   20  N4  UNL     1      10.481 -16.046   1.832  1.00  0.00    -0.224 N 
HETATM   21  N5  UNL     1      10.765 -14.899   1.255  1.00  0.00    -0.268 N 
ATOM     22  H4  UNL     1      10.482 -16.955   1.368  1.00  0.00     0.210 HD
HETATM   23  C7  UNL     1      10.657 -13.941   2.181  1.00  0.00     0.147 A 
ATOM     24  H5  UNL     1      11.020 -14.765   0.277  1.00  0.00     0.190 HD
HETATM   25  N6  UNL     1      10.302 -14.542   3.325  1.00  0.00    -0.266 N 
ATOM     26  H6  UNL     1      10.141 -14.074   4.217  1.00  0.00     0.190 HD
BRANCH  23  27
HETATM   27  C8  UNL     1      10.879 -12.513   1.999  1.00  0.00     0.011 A 
HETATM   28  C9  UNL     1      11.145 -11.978   0.774  1.00  0.00     0.015 A 
HETATM   29  C10 UNL     1      11.362 -10.629   0.567  1.00  0.00     0.001 A 
HETATM   30  C11 UNL     1      11.300  -9.804   1.667  1.00  0.00     0.000 A 
HETATM   31  C12 UNL     1      11.033 -10.311   2.921  1.00  0.00     0.001 A 
HETATM   32  C13 UNL     1      10.826 -11.653   3.080  1.00  0.00     0.015 A 
ENDBRANCH  23  27
ENDBRANCH  18  19
ENDBRANCH  17  18
ENDBRANCH   1  17
TORSDOF 7
ENDMDL
MODEL 2
REMARK VINA RESULT: -7.612886547      2.336      3.798
REMARK  7 active torsions:
REMARK  status: ('A' for Active; 'I' for Inactive)
REMARK    1  A    between atoms: C2_7  and  C3_8 
REMARK    2  A    between atoms: C3_8  and  C4_9 
REMARK    3  A    between atoms: C4_9  and  C5_10 
REMARK    4  A    between atoms: C5_10  and  C6_11 
REMARK    5  A    between atoms: C6_11  and  N3_12 
REMARK    6  A    between atoms: C7_17  and  C8_18 
REMARK    7  A    between atoms: N7_26  and  C14_27 
ROOT
HETATM    1  C4  UNL     1       9.944 -15.857   7.284  1.00  0.00     0.009 C 
ENDROOT
BRANCH   1   2
HETATM    2  C3  UNL     1       9.420 -14.475   7.558  1.00  0.00     0.078 C 
BRANCH   2   3
HETATM    3  C2  UNL     1      10.036 -13.835   8.728  1.00  0.00     0.105 A 
HETATM    4  N2  UNL     1      11.252 -13.269   8.807  1.00  0.00    -0.286 N 
HETATM    5  N1  UNL     1      11.473 -12.793  10.015  1.00  0.00    -0.274 N 
ATOM      6  H2  UNL     1      11.916 -13.215   8.034  1.00  0.00     0.188 HD
HETATM    7  C1  UNL     1      10.387 -13.044  10.762  1.00  0.00     0.199 A 
ATOM      8  H1  UNL     1      12.320 -12.318  10.328  1.00  0.00     0.189 HD
HETATM    9  S1  UNL     1      10.199 -12.630  12.354  1.00  0.00    -0.039 SA
HETATM   10  N7  UNL     1       9.512 -13.678   9.974  1.00  0.00    -0.275 N 
BRANCH  10  11
HETATM   11  C14 UNL     1       8.227 -14.132  10.357  1.00  0.00     0.043 A 
HETATM   12  C15 UNL     1       8.053 -15.399  10.843  1.00  0.00     0.030 A 
HETATM   13  C16 UNL     1       6.790 -15.811  11.207  1.00  0.00     0.002 A 
HETATM   14  C17 UNL     1       5.683 -14.993  11.100  1.00  0.00     0.000 A 
HETATM   15  C18 UNL     1       5.912 -13.727  10.605  1.00  0.00     0.002 A 
HETATM   16  C19 UNL     1       7.159 -13.284  10.233  1.00  0.00     0.030 A 
ENDBRANCH  10  11
ENDBRANCH   2   3
ENDBRANCH   1   2
BRANCH   1  17
HETATM   17  C5  UNL     1      10.807 -15.993   6.081  1.00  0.00     0.024 C 
BRANCH  17  18
HETATM   18  C6  UNL     1      10.044 -16.667   4.949  1.00  0.00     0.171 C 
BRANCH  18  19
HETATM   19  N3  UNL     1      10.240 -15.857   3.764  1.00  0.00    -0.218 N 
HETATM   20  N4  UNL     1      10.271 -16.218   2.493  1.00  0.00    -0.224 N 
HETATM   21  N5  UNL     1      10.474 -15.159   1.739  1.00  0.00    -0.268 N 
ATOM     22  H4  UNL     1      10.156 -17.172   2.150  1.00  0.00     0.210 HD
HETATM   23  C7  UNL     1      10.574 -14.099   2.548  1.00  0.00     0.147 A 
ATOM     24  H5  UNL     1      10.542 -15.149   0.722  1.00  0.00     0.190 HD
HETATM   25  N6  UNL     1      10.425 -14.548   3.802  1.00  0.00    -0.266 N 
ATOM     26  H6  UNL     1      10.451 -13.975   4.645  1.00  0.00     0.190 HD
BRANCH  23  27
HETATM   27  C8  UNL     1      10.800 -12.714   2.157  1.00  0.00     0.011 A 
HETATM   28  C9  UNL     1      10.754 -11.696   3.062  1.00  0.00     0.015 A 
HETATM   29  C10 UNL     1      10.962 -10.372   2.725  1.00  0.00     0.001 A 
HETATM   30  C11 UNL     1      11.229 -10.093   1.404  1.00  0.00     0.000 A 
HETATM   31  C12 UNL     1      11.284 -11.097   0.462  1.00  0.00     0.001 A 
HETATM   32  C13 UNL     1      11.070 -12.394   0.840  1.00  0.00     0.015 A 
ENDBRANCH  23  27
ENDBRANCH  18  19
ENDBRANCH  17  18
ENDBRANCH   1  17
TORSDOF 7
ENDMDL
MODEL 3
REMARK VINA RESULT: -7.559626063      3.530      4.889
REMARK  7 active torsions:
REMARK  status: ('A' for Active; 'I' for Inactive)
REMARK    1  A    between atoms: C2_7  and  C3_8 
REMARK    2  A    between atoms: C3_8  and  C4_9 
REMARK    3  A    between atoms: C4_9  and  C5_10 
REMARK    4  A    between atoms: C5_10  and  C6_11 
REMARK    5  A    between atoms: C6_11  and  N3_12 
REMARK    6  A    between atoms: C7_17  and  C8_18 
REMARK    7  A    between atoms: N7_26  and  C14_27 
ROOT
HETATM    1  C4  UNL     1      11.568 -13.014   7.957  1.00  0.00     0.009 C 
ENDROOT
BRANCH   1   2
HETATM    2  C3  UNL     1      12.087 -13.921   9.039  1.00  0.00     0.078 C 
BRANCH   2   3
HETATM    3  C2  UNL     1      12.494 -13.210  10.257  1.00  0.00     0.105 A 
HETATM    4  N2  UNL     1      11.719 -12.486  11.081  1.00  0.00    -0.286 N 
HETATM    5  N1  UNL     1      12.424 -11.989  12.077  1.00  0.00    -0.274 N 
ATOM      6  H2  UNL     1      10.717 -12.339  10.953  1.00  0.00     0.188 HD
HETATM    7  C1  UNL     1      13.696 -12.386  11.919  1.00  0.00     0.199 A 
ATOM      8  H1  UNL     1      12.066 -11.406  12.834  1.00  0.00     0.189 HD
HETATM    9  S1  UNL     1      14.952 -12.008  12.928  1.00  0.00    -0.039 SA
HETATM   10  N7  UNL     1      13.735 -13.131  10.809  1.00  0.00    -0.275 N 
BRANCH  10  11
HETATM   11  C14 UNL     1      14.885 -13.753  10.268  1.00  0.00     0.043 A 
HETATM   12  C15 UNL     1      15.486 -13.249   9.147  1.00  0.00     0.030 A 
HETATM   13  C16 UNL     1      16.604 -13.878   8.644  1.00  0.00     0.002 A 
HETATM   14  C17 UNL     1      17.148 -15.004   9.228  1.00  0.00     0.000 A 
HETATM   15  C18 UNL     1      16.505 -15.472  10.354  1.00  0.00     0.002 A 
HETATM   16  C19 UNL     1      15.388 -14.868  10.882  1.00  0.00     0.030 A 
ENDBRANCH  10  11
ENDBRANCH   2   3
ENDBRANCH   1   2
BRANCH   1  17
HETATM   17  C5  UNL     1      11.967 -13.369   6.570  1.00  0.00     0.024 C 
BRANCH  17  18
HETATM   18  C6  UNL     1      10.809 -14.026   5.832  1.00  0.00     0.171 C 
BRANCH  18  19
HETATM   19  N3  UNL     1      10.752 -13.430   4.514  1.00  0.00    -0.218 N 
HETATM   20  N4  UNL     1      10.308 -13.939   3.378  1.00  0.00    -0.224 N 
HETATM   21  N5  UNL     1      10.441 -13.052   2.415  1.00  0.00    -0.268 N 
ATOM     22  H4  UNL     1       9.921 -14.876   3.265  1.00  0.00     0.210 HD
HETATM   23  C7  UNL     1      10.983 -11.952   2.950  1.00  0.00     0.147 A 
ATOM     24  H5  UNL     1      10.179 -13.180   1.439  1.00  0.00     0.190 HD
HETATM   25  N6  UNL     1      11.170 -12.202   4.253  1.00  0.00    -0.266 N 
ATOM     26  H6  UNL     1      11.568 -11.553   4.931  1.00  0.00     0.190 HD
BRANCH  23  27
HETATM   27  C8  UNL     1      11.314 -10.712   2.261  1.00  0.00     0.011 A 
HETATM   28  C9  UNL     1      11.718  -9.601   2.939  1.00  0.00     0.015 A 
HETATM   29  C10 UNL     1      12.038  -8.409   2.317  1.00  0.00     0.001 A 
HETATM   30  C11 UNL     1      11.936  -8.366   0.945  1.00  0.00     0.000 A 
HETATM   31  C12 UNL     1      11.530  -9.470   0.228  1.00  0.00     0.001 A 
HETATM   32  C13 UNL     1      11.223 -10.630   0.884  1.00  0.00     0.015 A 
ENDBRANCH  23  27
ENDBRANCH  18  19
ENDBRANCH  17  18
ENDBRANCH   1  17
TORSDOF 7
ENDMDL
MODEL 4
REMARK VINA RESULT: -7.544247688      3.128      4.311
REMARK  7 active torsions:
REMARK  status: ('A' for Active; 'I' for Inactive)
REMARK    1  A    between atoms: C2_7  and  C3_8 
REMARK    2  A    between atoms: C3_8  and  C4_9 
REMARK    3  A    between atoms: C4_9  and  C5_10 
REMARK    4  A    between atoms: C5_10  and  C6_11 
REMARK    5  A    between atoms: C6_11  and  N3_12 
REMARK    6  A    between atoms: C7_17  and  C8_18 
REMARK    7  A    between atoms: N7_26  and  C14_27 
ROOT
HETATM    1  C4  UNL     1      10.699 -14.877   8.416  1.00  0.00     0.009 C 
ENDROOT
BRANCH   1   2
HETATM    2  C3  UNL     1      11.884 -13.955   8.505  1.00  0.00     0.078 C 
BRANCH   2   3
HETATM    3  C2  UNL     1      11.974 -13.236   9.782  1.00  0.00     0.105 A 
HETATM    4  N2  UNL     1      11.021 -12.496  10.374  1.00  0.00    -0.286 N 
HETATM    5  N1  UNL     1      11.453 -11.997  11.515  1.00  0.00    -0.274 N 
ATOM      6  H2  UNL     1      10.088 -12.341   9.991  1.00  0.00     0.188 HD
HETATM    7  C1  UNL     1      12.717 -12.408  11.692  1.00  0.00     0.199 A 
ATOM      8  H1  UNL     1      10.919 -11.403  12.150  1.00  0.00     0.189 HD
HETATM    9  S1  UNL     1      13.676 -12.033  12.988  1.00  0.00    -0.039 SA
HETATM   10  N7  UNL     1      13.032 -13.164  10.635  1.00  0.00    -0.275 N 
BRANCH  10  11
HETATM   11  C14 UNL     1      14.274 -13.803  10.411  1.00  0.00     0.043 A 
HETATM   12  C15 UNL     1      15.169 -13.290   9.513  1.00  0.00     0.030 A 
HETATM   13  C16 UNL     1      16.370 -13.935   9.318  1.00  0.00     0.002 A 
HETATM   14  C17 UNL     1      16.712 -15.088   9.996  1.00  0.00     0.000 A 
HETATM   15  C18 UNL     1      15.777 -15.563  10.890  1.00  0.00     0.002 A 
HETATM   16  C19 UNL     1      14.570 -14.944  11.108  1.00  0.00     0.030 A 
ENDBRANCH  10  11
ENDBRANCH   2   3
ENDBRANCH   1   2
BRANCH   1  17
HETATM   17  C5  UNL     1       9.967 -14.865   7.123  1.00  0.00     0.024 C 
BRANCH  17  18
HETATM   18  C6  UNL     1      10.579 -15.867   6.153  1.00  0.00     0.171 C 
BRANCH  18  19
HETATM   19  N3  UNL     1      10.445 -15.307   4.824  1.00  0.00    -0.218 N 
HETATM   20  N4  UNL     1       9.991 -15.866   3.716  1.00  0.00    -0.224 N 
HETATM   21  N5  UNL     1      10.042 -14.998   2.730  1.00  0.00    -0.268 N 
ATOM     22  H4  UNL     1       9.651 -16.825   3.639  1.00  0.00     0.210 HD
HETATM   23  C7  UNL     1      10.542 -13.858   3.220  1.00  0.00     0.147 A 
ATOM     24  H5  UNL     1       9.754 -15.163   1.766  1.00  0.00     0.190 HD
HETATM   25  N6  UNL     1      10.786 -14.066   4.521  1.00  0.00    -0.266 N 
ATOM     26  H6  UNL     1      11.171 -13.380   5.170  1.00  0.00     0.190 HD
BRANCH  23  27
HETATM   27  C8  UNL     1      10.781 -12.619   2.492  1.00  0.00     0.011 A 
HETATM   28  C9  UNL     1      10.808 -11.410   3.122  1.00  0.00     0.015 A 
HETATM   29  C10 UNL     1      11.031 -10.217   2.462  1.00  0.00     0.001 A 
HETATM   30  C11 UNL     1      11.234 -10.277   1.102  1.00  0.00     0.000 A 
HETATM   31  C12 UNL     1      11.213 -11.481   0.433  1.00  0.00     0.001 A 
HETATM   32  C13 UNL     1      10.988 -12.638   1.126  1.00  0.00     0.015 A 
ENDBRANCH  23  27
ENDBRANCH  18  19
ENDBRANCH  17  18
ENDBRANCH   1  17
TORSDOF 7
ENDMDL
MODEL 5
REMARK VINA RESULT: -7.538119007      4.391      6.463
REMARK  7 active torsions:
REMARK  status: ('A' for Active; 'I' for Inactive)
REMARK    1  A    between atoms: C2_7  and  C3_8 
REMARK    2  A    between atoms: C3_8  and  C4_9 
REMARK    3  A    between atoms: C4_9  and  C5_10 
REMARK    4  A    between atoms: C5_10  and  C6_11 
REMARK    5  A    between atoms: C6_11  and  N3_12 
REMARK    6  A    between atoms: C7_17  and  C8_18 
REMARK    7  A    between atoms: N7_26  and  C14_27 
ROOT
HETATM    1  C4  UNL     1       7.791 -17.855   4.344  1.00  0.00     0.009 C 
ENDROOT
BRANCH   1   2
HETATM    2  C3  UNL     1       6.902 -17.754   3.135  1.00  0.00     0.078 C 
BRANCH   2   3
HETATM    3  C2  UNL     1       6.059 -18.938   2.926  1.00  0.00     0.105 A 
HETATM    4  N2  UNL     1       5.094 -19.409   3.733  1.00  0.00    -0.286 N 
HETATM    5  N1  UNL     1       4.544 -20.494   3.227  1.00  0.00    -0.274 N 
ATOM      6  H2  UNL     1       4.822 -18.984   4.620  1.00  0.00     0.188 HD
HETATM    7  C1  UNL     1       5.151 -20.757   2.060  1.00  0.00     0.199 A 
ATOM      8  H1  UNL     1       3.791 -21.039   3.649  1.00  0.00     0.189 HD
HETATM    9  S1  UNL     1       4.797 -22.027   1.058  1.00  0.00    -0.039 SA
HETATM   10  N7  UNL     1       6.073 -19.806   1.879  1.00  0.00    -0.275 N 
BRANCH  10  11
HETATM   11  C14 UNL     1       6.947 -19.699   0.771  1.00  0.00     0.043 A 
HETATM   12  C15 UNL     1       8.178 -20.297   0.796  1.00  0.00     0.030 A 
HETATM   13  C16 UNL     1       9.006 -20.173  -0.298  1.00  0.00     0.002 A 
HETATM   14  C17 UNL     1       8.645 -19.466  -1.426  1.00  0.00     0.000 A 
HETATM   15  C18 UNL     1       7.397 -18.883  -1.401  1.00  0.00     0.002 A 
HETATM   16  C19 UNL     1       6.545 -18.987  -0.327  1.00  0.00     0.030 A 
ENDBRANCH  10  11
ENDBRANCH   2   3
ENDBRANCH   1   2
BRANCH   1  17
HETATM   17  C5  UNL     1       9.181 -18.315   4.087  1.00  0.00     0.024 C 
BRANCH  17  18
HETATM   18  C6  UNL     1       9.720 -17.695   2.805  1.00  0.00     0.171 C 
BRANCH  18  19
HETATM   19  N3  UNL     1      10.251 -16.393   3.154  1.00  0.00    -0.218 N 
HETATM   20  N4  UNL     1      10.898 -16.011   4.241  1.00  0.00    -0.224 N 
HETATM   21  N5  UNL     1      11.202 -14.735   4.147  1.00  0.00    -0.268 N 
ATOM     22  H4  UNL     1      11.126 -16.614   5.032  1.00  0.00     0.210 HD
HETATM   23  C7  UNL     1      10.739 -14.293   2.973  1.00  0.00     0.147 A 
ATOM     24  H5  UNL     1      11.701 -14.182   4.844  1.00  0.00     0.190 HD
HETATM   25  N6  UNL     1      10.152 -15.334   2.368  1.00  0.00    -0.266 N 
ATOM     26  H6  UNL     1       9.703 -15.313   1.452  1.00  0.00     0.190 HD
BRANCH  23  27
HETATM   27  C8  UNL     1      10.844 -12.942   2.439  1.00  0.00     0.011 A 
HETATM   28  C9  UNL     1      11.090 -12.708   1.119  1.00  0.00     0.015 A 
HETATM   29  C10 UNL     1      11.197 -11.440   0.581  1.00  0.00     0.001 A 
HETATM   30  C11 UNL     1      11.041 -10.375   1.440  1.00  0.00     0.000 A 
HETATM   31  C12 UNL     1      10.791 -10.574   2.780  1.00  0.00     0.001 A 
HETATM   32  C13 UNL     1      10.694 -11.847   3.270  1.00  0.00     0.015 A 
ENDBRANCH  23  27
ENDBRANCH  18  19
ENDBRANCH  17  18
ENDBRANCH   1  17
TORSDOF 7
ENDMDL
