MODEL 1
REMARK VINA RESULT: -4.449813735      0.000      0.000
REMARK  0 active torsions:
REMARK  status: ('A' for Active; 'I' for Inactive)
ROOT
HETATM    1  N1  UNL     1      -0.162 -11.357 -16.068  1.00  0.00    -0.195 NA
HETATM    2  C1  UNL     1      -0.972 -12.158 -15.879  1.00  0.00     0.092 C 
HETATM    3  C2  UNL     1      -1.998 -13.199 -15.627  1.00  0.00     0.291 C 
HETATM    4  C3  UNL     1      -2.358 -13.897 -16.890  1.00  0.00     0.048 C 
HETATM    5  C4  UNL     1      -1.816 -15.268 -17.049  1.00  0.00     0.005 C 
HETATM    6  C5  UNL     1      -0.635 -15.618 -16.240  1.00  0.00     0.027 C 
HETATM    7  C6  UNL     1      -0.481 -14.932 -14.938  1.00  0.00     0.234 C 
HETATM    8  N2  UNL     1      -1.549 -14.051 -14.575  1.00  0.00    -0.059 N 
ATOM      9  H21 UNL     1      -2.331 -14.582 -14.190  1.00  0.00     0.278 HD
ATOM     10  H22 UNL     1      -1.292 -13.500 -13.757  1.00  0.00     0.278 HD
ENDROOT
TORSDOF 0
ENDMDL
MODEL 2
REMARK VINA RESULT: -3.844971185      1.800      3.316
REMARK  0 active torsions:
REMARK  status: ('A' for Active; 'I' for Inactive)
ROOT
HETATM    1  N1  UNL     1      -0.987 -16.061 -17.760  1.00  0.00    -0.195 NA
HETATM    2  C1  UNL     1      -1.429 -15.436 -16.895  1.00  0.00     0.092 C 
HETATM    3  C2  UNL     1      -2.000 -14.618 -15.798  1.00  0.00     0.291 C 
HETATM    4  C3  UNL     1      -0.936 -14.207 -14.842  1.00  0.00     0.048 C 
HETATM    5  C4  UNL     1      -0.509 -12.790 -14.920  1.00  0.00     0.005 C 
HETATM    6  C5  UNL     1      -0.781 -12.077 -16.180  1.00  0.00     0.027 C 
HETATM    7  C6  UNL     1      -1.959 -12.515 -16.962  1.00  0.00     0.234 C 
HETATM    8  N2  UNL     1      -2.751 -13.543 -16.360  1.00  0.00    -0.059 N 
ATOM      9  H21 UNL     1      -3.378 -13.145 -15.660  1.00  0.00     0.278 HD
ATOM     10  H22 UNL     1      -3.436 -13.900 -17.026  1.00  0.00     0.278 HD
ENDROOT
TORSDOF 0
ENDMDL
MODEL 3
REMARK VINA RESULT: -3.788071224      1.355      1.534
REMARK  0 active torsions:
REMARK  status: ('A' for Active; 'I' for Inactive)
ROOT
HETATM    1  N1  UNL     1       0.787 -11.864 -13.742  1.00  0.00    -0.195 NA
HETATM    2  C1  UNL     1      -0.244 -12.324 -13.984  1.00  0.00     0.092 C 
HETATM    3  C2  UNL     1      -1.560 -12.934 -14.291  1.00  0.00     0.291 C 
HETATM    4  C3  UNL     1      -1.898 -12.752 -15.729  1.00  0.00     0.048 C 
HETATM    5  C4  UNL     1      -1.771 -13.958 -16.581  1.00  0.00     0.005 C 
HETATM    6  C5  UNL     1      -0.898 -15.037 -16.087  1.00  0.00     0.027 C 
HETATM    7  C6  UNL     1      -0.763 -15.178 -14.620  1.00  0.00     0.234 C 
HETATM    8  N2  UNL     1      -1.565 -14.286 -13.839  1.00  0.00    -0.059 N 
ATOM      9  H21 UNL     1      -2.522 -14.635 -13.773  1.00  0.00     0.278 HD
ATOM     10  H22 UNL     1      -1.293 -14.333 -12.857  1.00  0.00     0.278 HD
ENDROOT
TORSDOF 0
ENDMDL
MODEL 4
REMARK VINA RESULT: -3.676704236      1.312      2.512
REMARK  0 active torsions:
REMARK  status: ('A' for Active; 'I' for Inactive)
ROOT
HETATM    1  N1  UNL     1      -1.905 -13.016 -12.927  1.00  0.00    -0.195 NA
HETATM    2  C1  UNL     1      -1.283 -13.231 -13.876  1.00  0.00     0.092 C 
HETATM    3  C2  UNL     1      -0.498 -13.498 -15.106  1.00  0.00     0.291 C 
HETATM    4  C3  UNL     1      -0.504 -14.951 -15.426  1.00  0.00     0.048 C 
HETATM    5  C4  UNL     1      -1.364 -15.361 -16.561  1.00  0.00     0.005 C 
HETATM    6  C5  UNL     1      -2.459 -14.448 -16.934  1.00  0.00     0.027 C 
HETATM    7  C6  UNL     1      -2.252 -13.006 -16.674  1.00  0.00     0.234 C 
HETATM    8  N2  UNL     1      -0.968 -12.651 -16.152  1.00  0.00    -0.059 N 
ATOM      9  H21 UNL     1      -0.281 -12.602 -16.905  1.00  0.00     0.278 HD
ATOM     10  H22 UNL     1      -0.965 -11.677 -15.849  1.00  0.00     0.278 HD
ENDROOT
TORSDOF 0
ENDMDL
MODEL 5
REMARK VINA RESULT: -3.553162387      2.274      4.084
REMARK  0 active torsions:
REMARK  status: ('A' for Active; 'I' for Inactive)
ROOT
HETATM    1  N1  UNL     1      -2.471 -13.241 -15.561  1.00  0.00    -0.195 NA
HETATM    2  C1  UNL     1      -1.430 -12.762 -15.418  1.00  0.00     0.092 C 
HETATM    3  C2  UNL     1      -0.096 -12.147 -15.215  1.00  0.00     0.291 C 
HETATM    4  C3  UNL     1      -0.073 -10.759 -15.751  1.00  0.00     0.048 C 
HETATM    5  C4  UNL     1      -0.105  -9.675 -14.741  1.00  0.00     0.005 C 
HETATM    6  C5  UNL     1      -0.633 -10.016 -13.409  1.00  0.00     0.027 C 
HETATM    7  C6  UNL     1      -0.464 -11.415 -12.955  1.00  0.00     0.234 C 
HETATM    8  N2  UNL     1       0.268 -12.267 -13.841  1.00  0.00    -0.059 N 
ATOM      9  H21 UNL     1       1.271 -12.120 -13.726  1.00  0.00     0.278 HD
ATOM     10  H22 UNL     1       0.197 -13.238 -13.539  1.00  0.00     0.278 HD
ENDROOT
TORSDOF 0
ENDMDL
