MODEL 1
REMARK VINA RESULT: -8.220037265      0.000      0.000
REMARK  15 active torsions:
REMARK  status: ('A' for Active; 'I' for Inactive)
REMARK    1  A    between atoms: N1_1  and  C1_4 
REMARK    2  A    between atoms: C3_8  and  C4_9 
REMARK    3  A    between atoms: C4_9  and  C5_10 
REMARK    4  A    between atoms: C5_10  and  N3_11 
REMARK    5  A    between atoms: N3_11  and  C6_13 
REMARK    6  A    between atoms: C6_13  and  C7_14 
REMARK       I    between atoms: C7_14  and  N4_16 
REMARK    7  A    between atoms: N4_16  and  C8_18 
REMARK    8  A    between atoms: C8_18  and  C9_19 
REMARK    9  A    between atoms: C9_19  and  C10_20 
REMARK   10  A    between atoms: C10_20  and  C11_21 
REMARK   11  A    between atoms: C11_21  and  C12_22 
REMARK   12  A    between atoms: C12_22  and  C13_23 
REMARK   13  A    between atoms: C13_23  and  C14_24 
REMARK   14  A    between atoms: C14_24  and  N5_25 
REMARK   15  A    between atoms: C22_37  and  N7_38 
ROOT
HETATM    1  C7  UNL     1      10.789  39.012  -5.602  1.00  0.00     0.256 C 
HETATM    2  O1  UNL     1      10.374  38.500  -6.657  1.00  0.00    -0.267 OA
HETATM    3  N4  UNL     1      11.420  40.283  -5.722  1.00  0.00    -0.356 N 
ATOM      4  H4  UNL     1      11.783  40.754  -4.893  1.00  0.00     0.162 HD
ENDROOT
BRANCH   1   5
HETATM    5  C6  UNL     1      10.685  38.426  -4.254  1.00  0.00     0.162 C 
BRANCH   5   6
HETATM    6  N3  UNL     1       9.452  38.236  -3.659  1.00  0.00    -0.374 N 
ATOM      7  H3  UNL     1       9.198  37.284  -3.398  1.00  0.00     0.164 HD
BRANCH   6   8
HETATM    8  C5  UNL     1       8.533  39.240  -3.389  1.00  0.00     0.065 C 
BRANCH   8   9
HETATM    9  C4  UNL     1       8.976  40.370  -2.556  1.00  0.00     0.088 C 
BRANCH   9  10
HETATM   10  C3  UNL     1       8.185  41.623  -2.814  1.00  0.00     0.007 A 
HETATM   11  C2  UNL     1       7.144  41.511  -3.710  1.00  0.00     0.117 A 
HETATM   12  N2  UNL     1       6.362  42.564  -3.995  1.00  0.00    -0.202 N 
HETATM   13  C1  UNL     1       6.583  43.745  -3.410  1.00  0.00     0.677 A 
ATOM     14  H2  UNL     1       5.596  42.462  -4.661  1.00  0.00     0.183 HD
HETATM   15  N8  UNL     1       7.600  43.844  -2.540  1.00  0.00    -0.177 N 
HETATM   16  C22 UNL     1       8.422  42.820  -2.211  1.00  0.00     0.122 A 
ATOM     17  H8  UNL     1       7.763  44.748  -2.098  1.00  0.00     0.185 HD
BRANCH  13  18
HETATM   18  N1  UNL     1       5.832  44.789  -3.673  1.00  0.00    -0.234 N 
ATOM     19  H12 UNL     1       5.667  45.076  -4.638  1.00  0.00     0.174 HD
ATOM     20  H11 UNL     1       5.397  45.332  -2.926  1.00  0.00     0.174 HD
ENDBRANCH  13  18
BRANCH  16  21
HETATM   21  N7  UNL     1       9.390  42.955  -1.391  1.00  0.00    -0.385 N 
ATOM     22  H72 UNL     1       9.875  42.158  -0.980  1.00  0.00     0.157 HD
ATOM     23  H71 UNL     1       9.704  43.882  -1.107  1.00  0.00     0.157 HD
ENDBRANCH  16  21
ENDBRANCH   9  10
ENDBRANCH   8   9
ENDBRANCH   6   8
ENDBRANCH   5   6
ENDBRANCH   1   5
BRANCH   3  24
HETATM   24  C8  UNL     1      11.544  40.902  -7.018  1.00  0.00     0.123 C 
BRANCH  24  25
HETATM   25  C9  UNL     1      12.975  40.849  -7.520  1.00  0.00     0.020 C 
BRANCH  25  26
HETATM   26  C10 UNL     1      13.011  40.260  -8.918  1.00  0.00     0.002 C 
BRANCH  26  27
HETATM   27  C11 UNL     1      12.851  38.759  -8.923  1.00  0.00     0.000 C 
BRANCH  27  28
HETATM   28  C12 UNL     1      14.171  38.035  -8.864  1.00  0.00     0.002 C 
BRANCH  28  29
HETATM   29  C13 UNL     1      14.328  37.033  -9.976  1.00  0.00     0.020 C 
BRANCH  29  30
HETATM   30  C14 UNL     1      13.131  37.002 -10.875  1.00  0.00     0.133 C 
BRANCH  30  31
HETATM   31  N5  UNL     1      13.481  36.921 -12.270  1.00  0.00    -0.303 N 
HETATM   32  C15 UNL     1      13.893  37.991 -12.962  1.00  0.00     0.028 A 
HETATM   33  C16 UNL     1      14.225  37.881 -14.317  1.00  0.00     0.033 A 
HETATM   34  C21 UNL     1      14.081  39.383 -12.529  1.00  0.00     0.058 C 
HETATM   35  C17 UNL     1      14.116  36.649 -14.916  1.00  0.00     0.257 A 
HETATM   36  C19 UNL     1      14.646  39.188 -14.850  1.00  0.00     0.046 C 
HETATM   37  O2  UNL     1      14.423  36.564 -16.155  1.00  0.00    -0.267 OA
HETATM   38  N6  UNL     1      13.706  35.605 -14.211  1.00  0.00    -0.275 N 
HETATM   39  C18 UNL     1      13.393  35.747 -12.901  1.00  0.00     0.329 A 
ATOM     40  H6  UNL     1      13.626  34.691 -14.657  1.00  0.00     0.173 HD
HETATM   41  O3  UNL     1      13.012  34.715 -12.295  1.00  0.00    -0.246 OA
HETATM   42  C20 UNL     1      14.906  40.022 -13.628  1.00  0.00     0.011 C 
ENDBRANCH  30  31
ENDBRANCH  29  30
ENDBRANCH  28  29
ENDBRANCH  27  28
ENDBRANCH  26  27
ENDBRANCH  25  26
ENDBRANCH  24  25
ENDBRANCH   3  24
TORSDOF 15
ENDMDL
MODEL 2
REMARK VINA RESULT: -8.001753171      1.086      1.620
REMARK  15 active torsions:
REMARK  status: ('A' for Active; 'I' for Inactive)
REMARK    1  A    between atoms: N1_1  and  C1_4 
REMARK    2  A    between atoms: C3_8  and  C4_9 
REMARK    3  A    between atoms: C4_9  and  C5_10 
REMARK    4  A    between atoms: C5_10  and  N3_11 
REMARK    5  A    between atoms: N3_11  and  C6_13 
REMARK    6  A    between atoms: C6_13  and  C7_14 
REMARK       I    between atoms: C7_14  and  N4_16 
REMARK    7  A    between atoms: N4_16  and  C8_18 
REMARK    8  A    between atoms: C8_18  and  C9_19 
REMARK    9  A    between atoms: C9_19  and  C10_20 
REMARK   10  A    between atoms: C10_20  and  C11_21 
REMARK   11  A    between atoms: C11_21  and  C12_22 
REMARK   12  A    between atoms: C12_22  and  C13_23 
REMARK   13  A    between atoms: C13_23  and  C14_24 
REMARK   14  A    between atoms: C14_24  and  N5_25 
REMARK   15  A    between atoms: C22_37  and  N7_38 
ROOT
HETATM    1  C7  UNL     1      11.115  40.327  -5.889  1.00  0.00     0.256 C 
HETATM    2  O1  UNL     1      10.379  41.289  -6.167  1.00  0.00    -0.267 OA
HETATM    3  N4  UNL     1      12.457  40.400  -6.362  1.00  0.00    -0.356 N 
ATOM      4  H4  UNL     1      13.111  39.641  -6.168  1.00  0.00     0.162 HD
ENDROOT
BRANCH   1   5
HETATM    5  C6  UNL     1      10.728  39.131  -5.121  1.00  0.00     0.162 C 
BRANCH   5   6
HETATM    6  N3  UNL     1      10.752  39.140  -3.739  1.00  0.00    -0.374 N 
ATOM      7  H3  UNL     1      11.665  39.101  -3.285  1.00  0.00     0.164 HD
BRANCH   6   8
HETATM    8  C5  UNL     1       9.633  39.198  -2.921  1.00  0.00     0.065 C 
BRANCH   8   9
HETATM    9  C4  UNL     1       8.480  39.981  -3.392  1.00  0.00     0.088 C 
BRANCH   9  10
HETATM   10  C3  UNL     1       8.566  41.430  -3.000  1.00  0.00     0.007 A 
HETATM   11  C2  UNL     1       9.062  41.691  -1.740  1.00  0.00     0.117 A 
HETATM   12  N2  UNL     1       9.200  42.951  -1.300  1.00  0.00    -0.202 N 
HETATM   13  C1  UNL     1       8.858  43.980  -2.082  1.00  0.00     0.677 A 
ATOM     14  H2  UNL     1       9.569  43.124  -0.364  1.00  0.00     0.183 HD
HETATM   15  N8  UNL     1       8.376  43.715  -3.306  1.00  0.00    -0.177 N 
HETATM   16  C22 UNL     1       8.213  42.468  -3.807  1.00  0.00     0.122 A 
ATOM     17  H8  UNL     1       8.115  44.505  -3.897  1.00  0.00     0.185 HD
BRANCH  13  18
HETATM   18  N1  UNL     1       8.984  45.220  -1.673  1.00  0.00    -0.234 N 
ATOM     19  H12 UNL     1       9.657  45.457  -0.943  1.00  0.00     0.174 HD
ATOM     20  H11 UNL     1       8.419  45.971  -2.071  1.00  0.00     0.174 HD
ENDBRANCH  13  18
BRANCH  16  21
HETATM   21  N7  UNL     1       7.736  42.254  -4.970  1.00  0.00    -0.385 N 
ATOM     22  H72 UNL     1       8.011  42.803  -5.784  1.00  0.00     0.157 HD
ATOM     23  H71 UNL     1       7.042  41.523  -5.121  1.00  0.00     0.157 HD
ENDBRANCH  16  21
ENDBRANCH   9  10
ENDBRANCH   8   9
ENDBRANCH   6   8
ENDBRANCH   5   6
ENDBRANCH   1   5
BRANCH   3  24
HETATM   24  C8  UNL     1      12.890  41.551  -7.115  1.00  0.00     0.123 C 
BRANCH  24  25
HETATM   25  C9  UNL     1      13.735  41.144  -8.308  1.00  0.00     0.020 C 
BRANCH  25  26
HETATM   26  C10 UNL     1      12.896  40.348  -9.290  1.00  0.00     0.002 C 
BRANCH  26  27
HETATM   27  C11 UNL     1      12.901  38.867  -8.995  1.00  0.00     0.000 C 
BRANCH  27  28
HETATM   28  C12 UNL     1      14.265  38.249  -9.160  1.00  0.00     0.002 C 
BRANCH  28  29
HETATM   29  C13 UNL     1      14.238  37.018 -10.026  1.00  0.00     0.020 C 
BRANCH  29  30
HETATM   30  C14 UNL     1      13.098  37.041 -10.996  1.00  0.00     0.133 C 
BRANCH  30  31
HETATM   31  N5  UNL     1      13.521  36.868 -12.362  1.00  0.00    -0.303 N 
HETATM   32  C15 UNL     1      13.945  37.894 -13.110  1.00  0.00     0.028 A 
HETATM   33  C16 UNL     1      14.348  37.694 -14.435  1.00  0.00     0.033 A 
HETATM   34  C21 UNL     1      14.079  39.319 -12.773  1.00  0.00     0.058 C 
HETATM   35  C17 UNL     1      14.298  36.419 -14.945  1.00  0.00     0.257 A 
HETATM   36  C19 UNL     1      14.766  38.969 -15.042  1.00  0.00     0.046 C 
HETATM   37  O2  UNL     1      14.670  36.252 -16.158  1.00  0.00    -0.267 OA
HETATM   38  N6  UNL     1      13.876  35.419 -14.187  1.00  0.00    -0.275 N 
HETATM   39  C18 UNL     1      13.492  35.648 -12.908  1.00  0.00     0.329 A 
ATOM     40  H6  UNL     1      13.839  34.474 -14.567  1.00  0.00     0.173 HD
HETATM   41  O3  UNL     1      13.103  34.653 -12.246  1.00  0.00    -0.246 OA
HETATM   42  C20 UNL     1      14.944  39.897 -13.874  1.00  0.00     0.011 C 
ENDBRANCH  30  31
ENDBRANCH  29  30
ENDBRANCH  28  29
ENDBRANCH  27  28
ENDBRANCH  26  27
ENDBRANCH  25  26
ENDBRANCH  24  25
ENDBRANCH   3  24
TORSDOF 15
ENDMDL
MODEL 3
REMARK VINA RESULT: -7.897992146      3.860      6.460
REMARK  15 active torsions:
REMARK  status: ('A' for Active; 'I' for Inactive)
REMARK    1  A    between atoms: N1_1  and  C1_4 
REMARK    2  A    between atoms: C3_8  and  C4_9 
REMARK    3  A    between atoms: C4_9  and  C5_10 
REMARK    4  A    between atoms: C5_10  and  N3_11 
REMARK    5  A    between atoms: N3_11  and  C6_13 
REMARK    6  A    between atoms: C6_13  and  C7_14 
REMARK       I    between atoms: C7_14  and  N4_16 
REMARK    7  A    between atoms: N4_16  and  C8_18 
REMARK    8  A    between atoms: C8_18  and  C9_19 
REMARK    9  A    between atoms: C9_19  and  C10_20 
REMARK   10  A    between atoms: C10_20  and  C11_21 
REMARK   11  A    between atoms: C11_21  and  C12_22 
REMARK   12  A    between atoms: C12_22  and  C13_23 
REMARK   13  A    between atoms: C13_23  and  C14_24 
REMARK   14  A    between atoms: C14_24  and  N5_25 
REMARK   15  A    between atoms: C22_37  and  N7_38 
ROOT
HETATM    1  C7  UNL     1       7.315  42.581  -4.296  1.00  0.00     0.256 C 
HETATM    2  O1  UNL     1       6.270  42.550  -4.969  1.00  0.00    -0.267 OA
HETATM    3  N4  UNL     1       8.372  43.388  -4.807  1.00  0.00    -0.356 N 
ATOM      4  H4  UNL     1       9.256  43.454  -4.301  1.00  0.00     0.162 HD
ENDROOT
BRANCH   1   5
HETATM    5  C6  UNL     1       7.553  41.866  -3.030  1.00  0.00     0.162 C 
BRANCH   5   6
HETATM    6  N3  UNL     1       8.831  41.741  -2.519  1.00  0.00    -0.374 N 
ATOM      7  H3  UNL     1       9.601  41.681  -3.186  1.00  0.00     0.164 HD
BRANCH   6   8
HETATM    8  C5  UNL     1       9.150  41.691  -1.170  1.00  0.00     0.065 C 
BRANCH   8   9
HETATM    9  C4  UNL     1      10.321  40.893  -0.771  1.00  0.00     0.088 C 
BRANCH   9  10
HETATM   10  C3  UNL     1      10.072  39.413  -0.871  1.00  0.00     0.007 A 
HETATM   11  C2  UNL     1       9.263  38.865   0.102  1.00  0.00     0.117 A 
HETATM   12  N2  UNL     1       8.961  37.558   0.093  1.00  0.00    -0.202 N 
HETATM   13  C1  UNL     1       9.442  36.761  -0.867  1.00  0.00     0.677 A 
ATOM     14  H2  UNL     1       8.361  37.170   0.821  1.00  0.00     0.183 HD
HETATM   15  N8  UNL     1      10.229  37.304  -1.809  1.00  0.00    -0.177 N 
HETATM   16  C22 UNL     1      10.570  38.613  -1.854  1.00  0.00     0.122 A 
ATOM     17  H8  UNL     1      10.593  36.690  -2.537  1.00  0.00     0.185 HD
BRANCH  13  18
HETATM   18  N1  UNL     1       9.160  35.480  -0.896  1.00  0.00    -0.234 N 
ATOM     19  H12 UNL     1       8.580  35.096  -1.643  1.00  0.00     0.174 HD
ATOM     20  H11 UNL     1       9.510  34.843  -0.181  1.00  0.00     0.174 HD
ENDBRANCH  13  18
BRANCH  16  21
HETATM   21  N7  UNL     1      11.334  39.091  -2.756  1.00  0.00    -0.385 N 
ATOM     22  H72 UNL     1      12.131  38.575  -3.129  1.00  0.00     0.157 HD
ATOM     23  H71 UNL     1      11.175  40.026  -3.130  1.00  0.00     0.157 HD
ENDBRANCH  16  21
ENDBRANCH   9  10
ENDBRANCH   8   9
ENDBRANCH   6   8
ENDBRANCH   5   6
ENDBRANCH   1   5
BRANCH   3  24
HETATM   24  C8  UNL     1       8.190  44.112  -6.040  1.00  0.00     0.123 C 
BRANCH  24  25
HETATM   25  C9  UNL     1       9.179  45.256  -6.160  1.00  0.00     0.020 C 
BRANCH  25  26
HETATM   26  C10 UNL     1       9.612  45.416  -7.606  1.00  0.00     0.002 C 
BRANCH  26  27
HETATM   27  C11 UNL     1       9.228  44.235  -8.464  1.00  0.00     0.000 C 
BRANCH  27  28
HETATM   28  C12 UNL     1      10.223  43.969  -9.564  1.00  0.00     0.002 C 
BRANCH  28  29
HETATM   29  C13 UNL     1      10.789  42.576  -9.503  1.00  0.00     0.020 C 
BRANCH  29  30
HETATM   30  C14 UNL     1      11.797  42.428  -8.406  1.00  0.00     0.133 C 
BRANCH  30  31
HETATM   31  N5  UNL     1      11.822  41.103  -7.842  1.00  0.00    -0.303 N 
HETATM   32  C15 UNL     1      12.541  40.113  -8.385  1.00  0.00     0.028 A 
HETATM   33  C16 UNL     1      12.543  38.836  -7.814  1.00  0.00     0.033 A 
HETATM   34  C21 UNL     1      13.405  40.113  -9.574  1.00  0.00     0.058 C 
HETATM   35  C17 UNL     1      11.791  38.626  -6.684  1.00  0.00     0.257 A 
HETATM   36  C19 UNL     1      13.404  37.927  -8.592  1.00  0.00     0.046 C 
HETATM   37  O2  UNL     1      11.803  37.453  -6.173  1.00  0.00    -0.267 OA
HETATM   38  N6  UNL     1      11.088  39.621  -6.164  1.00  0.00    -0.275 N 
HETATM   39  C18 UNL     1      11.108  40.846  -6.742  1.00  0.00     0.329 A 
ATOM     40  H6  UNL     1      10.530  39.464  -5.324  1.00  0.00     0.173 HD
HETATM   41  O3  UNL     1      10.419  41.742  -6.195  1.00  0.00    -0.246 OA
HETATM   42  C20 UNL     1      14.220  38.841  -9.461  1.00  0.00     0.011 C 
ENDBRANCH  30  31
ENDBRANCH  29  30
ENDBRANCH  28  29
ENDBRANCH  27  28
ENDBRANCH  26  27
ENDBRANCH  25  26
ENDBRANCH  24  25
ENDBRANCH   3  24
TORSDOF 15
ENDMDL
MODEL 4
REMARK VINA RESULT: -7.830135635      4.214      9.111
REMARK  15 active torsions:
REMARK  status: ('A' for Active; 'I' for Inactive)
REMARK    1  A    between atoms: N1_1  and  C1_4 
REMARK    2  A    between atoms: C3_8  and  C4_9 
REMARK    3  A    between atoms: C4_9  and  C5_10 
REMARK    4  A    between atoms: C5_10  and  N3_11 
REMARK    5  A    between atoms: N3_11  and  C6_13 
REMARK    6  A    between atoms: C6_13  and  C7_14 
REMARK       I    between atoms: C7_14  and  N4_16 
REMARK    7  A    between atoms: N4_16  and  C8_18 
REMARK    8  A    between atoms: C8_18  and  C9_19 
REMARK    9  A    between atoms: C9_19  and  C10_20 
REMARK   10  A    between atoms: C10_20  and  C11_21 
REMARK   11  A    between atoms: C11_21  and  C12_22 
REMARK   12  A    between atoms: C12_22  and  C13_23 
REMARK   13  A    between atoms: C13_23  and  C14_24 
REMARK   14  A    between atoms: C14_24  and  N5_25 
REMARK   15  A    between atoms: C22_37  and  N7_38 
ROOT
HETATM    1  C7  UNL     1      12.452  38.548  -7.573  1.00  0.00     0.256 C 
HETATM    2  O1  UNL     1      11.285  38.234  -7.867  1.00  0.00    -0.267 OA
HETATM    3  N4  UNL     1      12.632  39.832  -6.982  1.00  0.00    -0.356 N 
ATOM      4  H4  UNL     1      13.566  40.148  -6.720  1.00  0.00     0.162 HD
ENDROOT
BRANCH   1   5
HETATM    5  C6  UNL     1      13.651  37.718  -7.779  1.00  0.00     0.162 C 
BRANCH   5   6
HETATM    6  N3  UNL     1      14.385  37.814  -8.946  1.00  0.00    -0.374 N 
ATOM      7  H3  UNL     1      15.031  38.599  -9.033  1.00  0.00     0.164 HD
BRANCH   6   8
HETATM    8  C5  UNL     1      14.312  36.926 -10.010  1.00  0.00     0.065 C 
BRANCH   8   9
HETATM    9  C4  UNL     1      13.237  37.124 -10.996  1.00  0.00     0.088 C 
BRANCH   9  10
HETATM   10  C3  UNL     1      13.716  36.962 -12.412  1.00  0.00     0.007 A 
HETATM   11  C2  UNL     1      13.969  38.126 -13.106  1.00  0.00     0.117 A 
HETATM   12  N2  UNL     1      14.420  38.094 -14.369  1.00  0.00    -0.202 N 
HETATM   13  C1  UNL     1      14.632  36.923 -14.979  1.00  0.00     0.677 A 
ATOM     14  H2  UNL     1      14.602  38.966 -14.866  1.00  0.00     0.183 HD
HETATM   15  N8  UNL     1      14.382  35.796 -14.296  1.00  0.00    -0.177 N 
HETATM   16  C22 UNL     1      13.927  35.763 -13.022  1.00  0.00     0.122 A 
ATOM     17  H8  UNL     1      14.545  34.906 -14.768  1.00  0.00     0.185 HD
BRANCH  13  18
HETATM   18  N1  UNL     1      15.073  36.867 -16.214  1.00  0.00    -0.234 N 
ATOM     19  H12 UNL     1      14.430  36.988 -16.997  1.00  0.00     0.174 HD
ATOM     20  H11 UNL     1      16.059  36.702 -16.419  1.00  0.00     0.174 HD
ENDBRANCH  13  18
BRANCH  16  21
HETATM   21  N7  UNL     1      13.684  34.671 -12.409  1.00  0.00    -0.385 N 
ATOM     22  H72 UNL     1      12.736  34.359 -12.201  1.00  0.00     0.157 HD
ATOM     23  H71 UNL     1      14.446  34.073 -12.091  1.00  0.00     0.157 HD
ENDBRANCH  16  21
ENDBRANCH   9  10
ENDBRANCH   8   9
ENDBRANCH   6   8
ENDBRANCH   5   6
ENDBRANCH   1   5
BRANCH   3  24
HETATM   24  C8  UNL     1      11.490  40.683  -6.755  1.00  0.00     0.123 C 
BRANCH  24  25
HETATM   25  C9  UNL     1      11.627  42.000  -7.497  1.00  0.00     0.020 C 
BRANCH  25  26
HETATM   26  C10 UNL     1      11.364  41.790  -8.977  1.00  0.00     0.002 C 
BRANCH  26  27
HETATM   27  C11 UNL     1      12.565  42.106  -9.834  1.00  0.00     0.000 C 
BRANCH  27  28
HETATM   28  C12 UNL     1      13.204  40.870 -10.415  1.00  0.00     0.002 C 
BRANCH  28  29
HETATM   29  C13 UNL     1      14.529  41.160 -11.066  1.00  0.00     0.020 C 
BRANCH  29  30
HETATM   30  C14 UNL     1      15.681  40.734 -10.210  1.00  0.00     0.133 C 
BRANCH  30  31
HETATM   31  N5  UNL     1      16.796  41.642 -10.278  1.00  0.00    -0.303 N 
HETATM   32  C15 UNL     1      16.835  42.774  -9.563  1.00  0.00     0.028 A 
HETATM   33  C16 UNL     1      17.933  43.636  -9.650  1.00  0.00     0.033 A 
HETATM   34  C21 UNL     1      15.856  43.331  -8.618  1.00  0.00     0.058 C 
HETATM   35  C17 UNL     1      18.967  43.292 -10.487  1.00  0.00     0.257 A 
HETATM   36  C19 UNL     1      17.739  44.805  -8.775  1.00  0.00     0.046 C 
HETATM   37  O2  UNL     1      19.964  44.090 -10.557  1.00  0.00    -0.267 OA
HETATM   38  N6  UNL     1      18.907  42.167 -11.184  1.00  0.00    -0.275 N 
HETATM   39  C18 UNL     1      17.828  41.354 -11.076  1.00  0.00     0.329 A 
ATOM     40  H6  UNL     1      19.675  41.913 -11.805  1.00  0.00     0.173 HD
HETATM   41  O3  UNL     1      17.839  40.305 -11.765  1.00  0.00    -0.246 OA
HETATM   42  C20 UNL     1      16.613  44.405  -7.864  1.00  0.00     0.011 C 
ENDBRANCH  30  31
ENDBRANCH  29  30
ENDBRANCH  28  29
ENDBRANCH  27  28
ENDBRANCH  26  27
ENDBRANCH  25  26
ENDBRANCH  24  25
ENDBRANCH   3  24
TORSDOF 15
ENDMDL
MODEL 5
REMARK VINA RESULT: -7.782617340      1.746      2.771
REMARK  15 active torsions:
REMARK  status: ('A' for Active; 'I' for Inactive)
REMARK    1  A    between atoms: N1_1  and  C1_4 
REMARK    2  A    between atoms: C3_8  and  C4_9 
REMARK    3  A    between atoms: C4_9  and  C5_10 
REMARK    4  A    between atoms: C5_10  and  N3_11 
REMARK    5  A    between atoms: N3_11  and  C6_13 
REMARK    6  A    between atoms: C6_13  and  C7_14 
REMARK       I    between atoms: C7_14  and  N4_16 
REMARK    7  A    between atoms: N4_16  and  C8_18 
REMARK    8  A    between atoms: C8_18  and  C9_19 
REMARK    9  A    between atoms: C9_19  and  C10_20 
REMARK   10  A    between atoms: C10_20  and  C11_21 
REMARK   11  A    between atoms: C11_21  and  C12_22 
REMARK   12  A    between atoms: C12_22  and  C13_23 
REMARK   13  A    between atoms: C13_23  and  C14_24 
REMARK   14  A    between atoms: C14_24  and  N5_25 
REMARK   15  A    between atoms: C22_37  and  N7_38 
ROOT
HETATM    1  C7  UNL     1      11.041  38.614  -5.304  1.00  0.00     0.256 C 
HETATM    2  O1  UNL     1      11.394  37.689  -6.055  1.00  0.00    -0.267 OA
HETATM    3  N4  UNL     1      11.404  39.931  -5.709  1.00  0.00    -0.356 N 
ATOM      4  H4  UNL     1      11.144  40.733  -5.133  1.00  0.00     0.162 HD
ENDROOT
BRANCH   1   5
HETATM    5  C6  UNL     1      10.288  38.471  -4.046  1.00  0.00     0.162 C 
BRANCH   5   6
HETATM    6  N3  UNL     1       9.692  39.566  -3.450  1.00  0.00    -0.374 N 
ATOM      7  H3  UNL     1      10.270  40.140  -2.836  1.00  0.00     0.164 HD
BRANCH   6   8
HETATM    8  C5  UNL     1       8.369  39.947  -3.621  1.00  0.00     0.065 C 
BRANCH   8   9
HETATM    9  C4  UNL     1       7.964  41.268  -3.113  1.00  0.00     0.088 C 
BRANCH   9  10
HETATM   10  C3  UNL     1       7.564  42.212  -4.214  1.00  0.00     0.007 A 
HETATM   11  C2  UNL     1       8.583  42.676  -5.018  1.00  0.00     0.117 A 
HETATM   12  N2  UNL     1       8.331  43.506  -6.042  1.00  0.00    -0.202 N 
HETATM   13  C1  UNL     1       7.079  43.898  -6.300  1.00  0.00     0.677 A 
ATOM     14  H2  UNL     1       9.098  43.839  -6.626  1.00  0.00     0.183 HD
HETATM   15  N8  UNL     1       6.094  43.441  -5.510  1.00  0.00    -0.177 N 
HETATM   16  C22 UNL     1       6.284  42.603  -4.464  1.00  0.00     0.122 A 
ATOM     17  H8  UNL     1       5.142  43.745  -5.712  1.00  0.00     0.185 HD
BRANCH  13  18
HETATM   18  N1  UNL     1       6.809  44.709  -7.295  1.00  0.00    -0.234 N 
ATOM     19  H12 UNL     1       5.879  44.717  -7.716  1.00  0.00     0.174 HD
ATOM     20  H11 UNL     1       7.513  45.346  -7.667  1.00  0.00     0.174 HD
ENDBRANCH  13  18
BRANCH  16  21
HETATM   21  N7  UNL     1       5.325  42.202  -3.725  1.00  0.00    -0.385 N 
ATOM     22  H72 UNL     1       4.352  42.226  -4.030  1.00  0.00     0.157 HD
ATOM     23  H71 UNL     1       5.505  41.853  -2.785  1.00  0.00     0.157 HD
ENDBRANCH  16  21
ENDBRANCH   9  10
ENDBRANCH   8   9
ENDBRANCH   6   8
ENDBRANCH   5   6
ENDBRANCH   1   5
BRANCH   3  24
HETATM   24  C8  UNL     1      12.138  40.128  -6.933  1.00  0.00     0.123 C 
BRANCH  24  25
HETATM   25  C9  UNL     1      11.955  41.536  -7.467  1.00  0.00     0.020 C 
BRANCH  25  26
HETATM   26  C10 UNL     1      13.308  42.179  -7.706  1.00  0.00     0.002 C 
BRANCH  26  27
HETATM   27  C11 UNL     1      13.960  41.711  -8.984  1.00  0.00     0.000 C 
BRANCH  27  28
HETATM   28  C12 UNL     1      13.003  41.689 -10.149  1.00  0.00     0.002 C 
BRANCH  28  29
HETATM   29  C13 UNL     1      13.656  41.218 -11.420  1.00  0.00     0.020 C 
BRANCH  29  30
HETATM   30  C14 UNL     1      14.670  40.146 -11.167  1.00  0.00     0.133 C 
BRANCH  30  31
HETATM   31  N5  UNL     1      14.196  38.832 -11.518  1.00  0.00    -0.303 N 
HETATM   32  C15 UNL     1      14.185  38.395 -12.783  1.00  0.00     0.028 A 
HETATM   33  C16 UNL     1      13.717  37.114 -13.093  1.00  0.00     0.033 A 
HETATM   34  C21 UNL     1      14.609  39.068 -14.020  1.00  0.00     0.058 C 
HETATM   35  C17 UNL     1      13.271  36.318 -12.065  1.00  0.00     0.257 A 
HETATM   36  C19 UNL     1      13.805  36.871 -14.544  1.00  0.00     0.046 C 
HETATM   37  O2  UNL     1      12.846  35.148 -12.364  1.00  0.00    -0.267 OA
HETATM   38  N6  UNL     1      13.292  36.771 -10.821  1.00  0.00    -0.275 N 
HETATM   39  C18 UNL     1      13.751  38.017 -10.556  1.00  0.00     0.329 A 
ATOM     40  H6  UNL     1      12.960  36.178 -10.060  1.00  0.00     0.173 HD
HETATM   41  O3  UNL     1      13.742  38.381  -9.354  1.00  0.00    -0.246 OA
HETATM   42  C20 UNL     1      14.710  37.959 -15.048  1.00  0.00     0.011 C 
ENDBRANCH  30  31
ENDBRANCH  29  30
ENDBRANCH  28  29
ENDBRANCH  27  28
ENDBRANCH  26  27
ENDBRANCH  25  26
ENDBRANCH  24  25
ENDBRANCH   3  24
TORSDOF 15
ENDMDL
