MODEL 1
REMARK VINA RESULT: -7.765818038      0.000      0.000
REMARK  18 active torsions:
REMARK  status: ('A' for Active; 'I' for Inactive)
REMARK    1  A    between atoms: C3_3  and  C4_4 
REMARK    2  A    between atoms: C4_4  and  C5_5 
REMARK    3  A    between atoms: C4_4  and  N6_26 
REMARK    4  A    between atoms: C5_5  and  C6_6 
REMARK    5  A    between atoms: C6_6  and  C7_7 
REMARK    6  A    between atoms: C7_7  and  C8_8 
REMARK    7  A    between atoms: C8_8  and  N1_9 
REMARK    8  A    between atoms: N1_9  and  C10_11 
REMARK    9  A    between atoms: C10_11  and  C11_12 
REMARK   10  A    between atoms: C13_16  and  N3_17 
REMARK   11  A    between atoms: C14_22  and  N5_23 
REMARK       I    between atoms: N6_26  and  C15_28 
REMARK   12  A    between atoms: C15_28  and  C16_30 
REMARK   13  A    between atoms: C16_30  and  N7_31 
REMARK   14  A    between atoms: N7_31  and  C17_33 
REMARK   15  A    between atoms: N9_39  and  C21_40 
REMARK   16  A    between atoms: C21_40  and  C22_41 
REMARK   17  A    between atoms: C22_41  and  C23_42 
REMARK   18  A    between atoms: C23_42  and  N10_43 
ROOT
HETATM    1  C1  UNL     1      14.497  43.378  -7.182  1.00  0.00     0.112 C 
HETATM    2  C2  UNL     1      13.655  42.214  -7.504  1.00  0.00    -0.109 C 
HETATM    3  C3  UNL     1      12.980  41.259  -7.787  1.00  0.00    -0.082 C 
ENDROOT
BRANCH   3   4
HETATM    4  C4  UNL     1      12.168  40.063  -8.135  1.00  0.00     0.164 C 
BRANCH   4   5
HETATM    5  C5  UNL     1      12.907  39.375  -9.240  1.00  0.00     0.038 C 
BRANCH   5   6
HETATM    6  C6  UNL     1      13.629  38.184  -8.704  1.00  0.00     0.005 C 
BRANCH   6   7
HETATM    7  C7  UNL     1      14.086  37.198  -9.722  1.00  0.00     0.030 C 
BRANCH   7   8
HETATM    8  C8  UNL     1      13.338  37.251 -11.028  1.00  0.00     0.272 C 
BRANCH   8   9
HETATM    9  N1  UNL     1      14.063  36.454 -11.994  1.00  0.00     0.088 N 
HETATM   10  C9  UNL     1      15.203  35.822 -11.329  1.00  0.00     0.310 C 
BRANCH   9  11
HETATM   11  C10 UNL     1      14.456  37.151 -13.172  1.00  0.00     0.315 C 
BRANCH  11  12
HETATM   12  C11 UNL     1      14.285  36.381 -14.387  1.00  0.00     0.030 A 
HETATM   13  C12 UNL     1      13.119  35.778 -14.747  1.00  0.00     0.118 A 
HETATM   14  N2  UNL     1      13.011  35.025 -15.887  1.00  0.00    -0.201 N 
HETATM   15  C13 UNL     1      14.065  34.860 -16.692  1.00  0.00     0.677 A 
ATOM     16  H2  UNL     1      12.120  34.589 -16.123  1.00  0.00     0.183 HD
HETATM   17  N4  UNL     1      15.216  35.440 -16.362  1.00  0.00    -0.177 N 
HETATM   18  C14 UNL     1      15.369  36.183 -15.259  1.00  0.00     0.124 A 
ATOM     19  H4  UNL     1      16.019  35.313 -16.978  1.00  0.00     0.185 HD
BRANCH  15  20
HETATM   20  N3  UNL     1      13.934  34.140 -17.768  1.00  0.00    -0.234 N 
ATOM     21  H32 UNL     1      14.535  33.339 -17.963  1.00  0.00     0.174 HD
ATOM     22  H31 UNL     1      13.208  34.380 -18.443  1.00  0.00     0.174 HD
ENDBRANCH  15  20
BRANCH  18  23
HETATM   23  N5  UNL     1      16.480  36.742 -14.942  1.00  0.00    -0.385 N 
ATOM     24  H52 UNL     1      16.709  37.018 -13.987  1.00  0.00     0.157 HD
ATOM     25  H51 UNL     1      17.147  36.906 -15.696  1.00  0.00     0.157 HD
ENDBRANCH  18  23
ENDBRANCH  11  12
ENDBRANCH   9  11
ENDBRANCH   8   9
ENDBRANCH   7   8
ENDBRANCH   6   7
ENDBRANCH   5   6
ENDBRANCH   4   5
BRANCH   4  26
HETATM   26  N6  UNL     1      12.002  39.229  -6.971  1.00  0.00    -0.345 N 
HETATM   27  C15 UNL     1      11.105  39.446  -5.910  1.00  0.00     0.236 C 
HETATM   28  O1  UNL     1      10.346  40.445  -5.895  1.00  0.00    -0.272 OA
ATOM     29  H6  UNL     1      12.594  38.400  -6.911  1.00  0.00     0.163 HD
BRANCH  27  30
HETATM   30  C16 UNL     1      11.040  38.489  -4.791  1.00  0.00     0.240 C 
BRANCH  30  31
HETATM   31  N7  UNL     1      11.015  39.177  -3.536  1.00  0.00    -0.218 N 
ATOM     32  H7  UNL     1      11.412  40.113  -3.464  1.00  0.00     0.178 HD
BRANCH  31  33
HETATM   33  C17 UNL     1      10.431  38.554  -2.369  1.00  0.00     0.672 C 
HETATM   34  N8  UNL     1      10.103  37.323  -2.325  1.00  0.00    -0.224 N 
HETATM   35  C18 UNL     1       9.545  36.959  -1.050  1.00  0.00     0.163 C 
ATOM     36  H8  UNL     1      10.222  36.672  -3.102  1.00  0.00     0.177 HD
HETATM   37  C19 UNL     1       9.970  38.100  -0.152  1.00  0.00     0.116 C 
HETATM   38  C20 UNL     1       8.923  38.307   0.880  1.00  0.00     0.034 C 
HETATM   39  N9  UNL     1      10.142  39.167  -1.114  1.00  0.00    -0.212 N 
BRANCH  39  40
HETATM   40  C21 UNL     1      10.058  40.576  -0.900  1.00  0.00     0.143 C 
BRANCH  40  41
HETATM   41  C22 UNL     1       8.780  41.262  -1.181  1.00  0.00     0.048 C 
BRANCH  41  42
HETATM   42  C23 UNL     1       8.809  42.298  -2.270  1.00  0.00     0.231 C 
BRANCH  42  43
HETATM   43  N10 UNL     1       8.782  41.814  -3.599  1.00  0.00    -0.079 N 
ATOM     44 3H10 UNL     1       8.950  40.808  -3.602  1.00  0.00     0.274 HD
ATOM     45 2H10 UNL     1       7.828  41.843  -3.956  1.00  0.00     0.274 HD
ATOM     46 1H10 UNL     1       9.411  42.269  -4.260  1.00  0.00     0.274 HD
ENDBRANCH  42  43
ENDBRANCH  41  42
ENDBRANCH  40  41
ENDBRANCH  39  40
ENDBRANCH  31  33
ENDBRANCH  30  31
ENDBRANCH  27  30
ENDBRANCH   4  26
ENDBRANCH   3   4
TORSDOF 18
ENDMDL
MODEL 2
REMARK VINA RESULT: -7.662625902      2.884     10.938
REMARK  18 active torsions:
REMARK  status: ('A' for Active; 'I' for Inactive)
REMARK    1  A    between atoms: C3_3  and  C4_4 
REMARK    2  A    between atoms: C4_4  and  C5_5 
REMARK    3  A    between atoms: C4_4  and  N6_26 
REMARK    4  A    between atoms: C5_5  and  C6_6 
REMARK    5  A    between atoms: C6_6  and  C7_7 
REMARK    6  A    between atoms: C7_7  and  C8_8 
REMARK    7  A    between atoms: C8_8  and  N1_9 
REMARK    8  A    between atoms: N1_9  and  C10_11 
REMARK    9  A    between atoms: C10_11  and  C11_12 
REMARK   10  A    between atoms: C13_16  and  N3_17 
REMARK   11  A    between atoms: C14_22  and  N5_23 
REMARK       I    between atoms: N6_26  and  C15_28 
REMARK   12  A    between atoms: C15_28  and  C16_30 
REMARK   13  A    between atoms: C16_30  and  N7_31 
REMARK   14  A    between atoms: N7_31  and  C17_33 
REMARK   15  A    between atoms: N9_39  and  C21_40 
REMARK   16  A    between atoms: C21_40  and  C22_41 
REMARK   17  A    between atoms: C22_41  and  C23_42 
REMARK   18  A    between atoms: C23_42  and  N10_43 
ROOT
HETATM    1  C1  UNL     1       8.884  35.390  -0.804  1.00  0.00     0.112 C 
HETATM    2  C2  UNL     1       9.311  36.655  -1.424  1.00  0.00    -0.109 C 
HETATM    3  C3  UNL     1       9.646  37.702  -1.916  1.00  0.00    -0.082 C 
ENDROOT
BRANCH   3   4
HETATM    4  C4  UNL     1      10.068  39.003  -2.499  1.00  0.00     0.164 C 
BRANCH   4   5
HETATM    5  C5  UNL     1      10.635  39.795  -1.363  1.00  0.00     0.038 C 
BRANCH   5   6
HETATM    6  C6  UNL     1       9.613  40.753  -0.851  1.00  0.00     0.005 C 
BRANCH   6   7
HETATM    7  C7  UNL     1       8.882  41.529  -1.890  1.00  0.00     0.030 C 
BRANCH   7   8
HETATM    8  C8  UNL     1       8.131  42.725  -1.368  1.00  0.00     0.272 C 
BRANCH   8   9
HETATM    9  N1  UNL     1       7.621  43.466  -2.502  1.00  0.00     0.088 N 
HETATM   10  C9  UNL     1       6.605  44.410  -2.035  1.00  0.00     0.310 C 
BRANCH   9  11
HETATM   11  C10 UNL     1       7.144  42.663  -3.577  1.00  0.00     0.315 C 
BRANCH  11  12
HETATM   12  C11 UNL     1       7.379  43.243  -4.884  1.00  0.00     0.030 A 
HETATM   13  C12 UNL     1       8.616  43.499  -5.391  1.00  0.00     0.118 A 
HETATM   14  N2  UNL     1       8.792  44.085  -6.617  1.00  0.00    -0.201 N 
HETATM   15  C13 UNL     1       7.738  44.428  -7.362  1.00  0.00     0.677 A 
ATOM     16  H2  UNL     1       9.736  44.262  -6.963  1.00  0.00     0.183 HD
HETATM   17  N4  UNL     1       6.517  44.188  -6.888  1.00  0.00    -0.177 N 
HETATM   18  C14 UNL     1       6.296  43.618  -5.697  1.00  0.00     0.124 A 
ATOM     19  H4  UNL     1       5.713  44.450  -7.459  1.00  0.00     0.185 HD
BRANCH  15  20
HETATM   20  N3  UNL     1       7.934  44.984  -8.522  1.00  0.00    -0.234 N 
ATOM     21  H32 UNL     1       8.828  45.399  -8.783  1.00  0.00     0.174 HD
ATOM     22  H31 UNL     1       7.170  45.008  -9.198  1.00  0.00     0.174 HD
ENDBRANCH  15  20
BRANCH  18  23
HETATM   23  N5  UNL     1       5.119  43.387  -5.241  1.00  0.00    -0.385 N 
ATOM     24  H52 UNL     1       4.942  42.769  -4.449  1.00  0.00     0.157 HD
ATOM     25  H51 UNL     1       4.342  43.855  -5.708  1.00  0.00     0.157 HD
ENDBRANCH  18  23
ENDBRANCH  11  12
ENDBRANCH   9  11
ENDBRANCH   8   9
ENDBRANCH   7   8
ENDBRANCH   6   7
ENDBRANCH   5   6
ENDBRANCH   4   5
BRANCH   4  26
HETATM   26  N6  UNL     1      11.024  38.778  -3.555  1.00  0.00    -0.345 N 
HETATM   27  C15 UNL     1      10.732  38.436  -4.887  1.00  0.00     0.236 C 
HETATM   28  O1  UNL     1       9.548  38.282  -5.273  1.00  0.00    -0.272 OA
ATOM     29  H6  UNL     1      12.010  38.877  -3.311  1.00  0.00     0.163 HD
BRANCH  27  30
HETATM   30  C16 UNL     1      11.824  38.254  -5.859  1.00  0.00     0.240 C 
BRANCH  30  31
HETATM   31  N7  UNL     1      11.354  38.459  -7.195  1.00  0.00    -0.218 N 
ATOM     32  H7  UNL     1      10.595  37.884  -7.559  1.00  0.00     0.178 HD
BRANCH  31  33
HETATM   33  C17 UNL     1      11.948  39.476  -8.034  1.00  0.00     0.672 C 
HETATM   34  N8  UNL     1      11.484  40.660  -8.132  1.00  0.00    -0.224 N 
HETATM   35  C18 UNL     1      12.260  41.470  -9.032  1.00  0.00     0.163 C 
ATOM     36  H8  UNL     1      10.661  40.994  -7.630  1.00  0.00     0.177 HD
HETATM   37  C19 UNL     1      13.552  40.694  -9.164  1.00  0.00     0.116 C 
HETATM   38  C20 UNL     1      14.096  40.909 -10.529  1.00  0.00     0.034 C 
HETATM   39  N9  UNL     1      13.108  39.352  -8.855  1.00  0.00    -0.212 N 
BRANCH  39  40
HETATM   40  C21 UNL     1      13.687  38.111  -9.260  1.00  0.00     0.143 C 
BRANCH  40  41
HETATM   41  C22 UNL     1      13.068  37.370 -10.378  1.00  0.00     0.048 C 
BRANCH  41  42
HETATM   42  C23 UNL     1      14.015  36.690 -11.327  1.00  0.00     0.231 C 
BRANCH  42  43
HETATM   43  N10 UNL     1      15.256  36.276 -10.788  1.00  0.00    -0.079 N 
ATOM     44 3H10 UNL     1      15.193  36.235  -9.771  1.00  0.00     0.274 HD
ATOM     45 2H10 UNL     1      15.413  35.292 -11.003  1.00  0.00     0.274 HD
ATOM     46 1H10 UNL     1      16.073  36.823 -11.060  1.00  0.00     0.274 HD
ENDBRANCH  42  43
ENDBRANCH  41  42
ENDBRANCH  40  41
ENDBRANCH  39  40
ENDBRANCH  31  33
ENDBRANCH  30  31
ENDBRANCH  27  30
ENDBRANCH   4  26
ENDBRANCH   3   4
TORSDOF 18
ENDMDL
MODEL 3
REMARK VINA RESULT: -7.623686570      1.605      2.166
REMARK  18 active torsions:
REMARK  status: ('A' for Active; 'I' for Inactive)
REMARK    1  A    between atoms: C3_3  and  C4_4 
REMARK    2  A    between atoms: C4_4  and  C5_5 
REMARK    3  A    between atoms: C4_4  and  N6_26 
REMARK    4  A    between atoms: C5_5  and  C6_6 
REMARK    5  A    between atoms: C6_6  and  C7_7 
REMARK    6  A    between atoms: C7_7  and  C8_8 
REMARK    7  A    between atoms: C8_8  and  N1_9 
REMARK    8  A    between atoms: N1_9  and  C10_11 
REMARK    9  A    between atoms: C10_11  and  C11_12 
REMARK   10  A    between atoms: C13_16  and  N3_17 
REMARK   11  A    between atoms: C14_22  and  N5_23 
REMARK       I    between atoms: N6_26  and  C15_28 
REMARK   12  A    between atoms: C15_28  and  C16_30 
REMARK   13  A    between atoms: C16_30  and  N7_31 
REMARK   14  A    between atoms: N7_31  and  C17_33 
REMARK   15  A    between atoms: N9_39  and  C21_40 
REMARK   16  A    between atoms: C21_40  and  C22_41 
REMARK   17  A    between atoms: C22_41  and  C23_42 
REMARK   18  A    between atoms: C23_42  and  N10_43 
ROOT
HETATM    1  C1  UNL     1       9.249  44.220  -7.492  1.00  0.00     0.112 C 
HETATM    2  C2  UNL     1      10.239  43.131  -7.540  1.00  0.00    -0.109 C 
HETATM    3  C3  UNL     1      11.034  42.227  -7.565  1.00  0.00    -0.082 C 
ENDROOT
BRANCH   3   4
HETATM    4  C4  UNL     1      11.997  41.095  -7.606  1.00  0.00     0.164 C 
BRANCH   4   5
HETATM    5  C5  UNL     1      13.346  41.714  -7.792  1.00  0.00     0.038 C 
BRANCH   5   6
HETATM    6  C6  UNL     1      13.923  41.292  -9.101  1.00  0.00     0.005 C 
BRANCH   6   7
HETATM    7  C7  UNL     1      13.496  39.952  -9.590  1.00  0.00     0.030 C 
BRANCH   7   8
HETATM    8  C8  UNL     1      13.888  39.648 -11.011  1.00  0.00     0.272 C 
BRANCH   8   9
HETATM    9  N1  UNL     1      13.572  38.261 -11.279  1.00  0.00     0.088 N 
HETATM   10  C9  UNL     1      13.110  37.632 -10.041  1.00  0.00     0.310 C 
BRANCH   9  11
HETATM   11  C10 UNL     1      14.619  37.516 -11.893  1.00  0.00     0.315 C 
BRANCH  11  12
HETATM   12  C11 UNL     1      14.298  37.054 -13.228  1.00  0.00     0.030 A 
HETATM   13  C12 UNL     1      14.355  37.840 -14.338  1.00  0.00     0.118 A 
HETATM   14  N2  UNL     1      14.005  37.374 -15.578  1.00  0.00    -0.201 N 
HETATM   15  C13 UNL     1      13.589  36.114 -15.736  1.00  0.00     0.677 A 
ATOM     16  H2  UNL     1      14.061  37.993 -16.387  1.00  0.00     0.183 HD
HETATM   17  N4  UNL     1      13.523  35.326 -14.665  1.00  0.00    -0.177 N 
HETATM   18  C14 UNL     1      13.855  35.737 -13.435  1.00  0.00     0.124 A 
ATOM     19  H4  UNL     1      13.206  34.364 -14.787  1.00  0.00     0.185 HD
BRANCH  15  20
HETATM   20  N3  UNL     1      13.261  35.697 -16.924  1.00  0.00    -0.234 N 
ATOM     21  H32 UNL     1      13.725  36.036 -17.767  1.00  0.00     0.174 HD
ATOM     22  H31 UNL     1      12.515  35.008 -17.022  1.00  0.00     0.174 HD
ENDBRANCH  15  20
BRANCH  18  23
HETATM   23  N5  UNL     1      13.792  34.976 -12.404  1.00  0.00    -0.385 N 
ATOM     24  H52 UNL     1      12.925  34.538 -12.090  1.00  0.00     0.157 HD
ATOM     25  H51 UNL     1      14.660  34.817 -11.892  1.00  0.00     0.157 HD
ENDBRANCH  18  23
ENDBRANCH  11  12
ENDBRANCH   9  11
ENDBRANCH   8   9
ENDBRANCH   7   8
ENDBRANCH   6   7
ENDBRANCH   5   6
ENDBRANCH   4   5
BRANCH   4  26
HETATM   26  N6  UNL     1      11.898  40.325  -6.392  1.00  0.00    -0.345 N 
HETATM   27  C15 UNL     1      11.236  39.094  -6.235  1.00  0.00     0.236 C 
HETATM   28  O1  UNL     1      10.639  38.551  -7.196  1.00  0.00    -0.272 OA
ATOM     29  H6  UNL     1      12.354  40.710  -5.564  1.00  0.00     0.163 HD
BRANCH  27  30
HETATM   30  C16 UNL     1      11.237  38.417  -4.927  1.00  0.00     0.240 C 
BRANCH  30  31
HETATM   31  N7  UNL     1      10.475  39.160  -3.970  1.00  0.00    -0.218 N 
ATOM     32  H7  UNL     1      10.154  40.100  -4.198  1.00  0.00     0.178 HD
BRANCH  31  33
HETATM   33  C17 UNL     1      10.157  38.587  -2.681  1.00  0.00     0.672 C 
HETATM   34  N8  UNL     1      10.000  37.336  -2.491  1.00  0.00    -0.224 N 
HETATM   35  C18 UNL     1       9.690  37.033  -1.120  1.00  0.00     0.163 C 
ATOM     36  H8  UNL     1      10.085  36.632  -3.225  1.00  0.00     0.177 HD
HETATM   37  C19 UNL     1      10.094  38.295  -0.390  1.00  0.00     0.116 C 
HETATM   38  C20 UNL     1       9.194  38.477   0.777  1.00  0.00     0.034 C 
HETATM   39  N9  UNL     1       9.981  39.279  -1.446  1.00  0.00    -0.212 N 
BRANCH  39  40
HETATM   40  C21 UNL     1       9.749  40.683  -1.328  1.00  0.00     0.143 C 
BRANCH  40  41
HETATM   41  C22 UNL     1       8.584  41.271  -2.022  1.00  0.00     0.048 C 
BRANCH  41  42
HETATM   42  C23 UNL     1       8.293  42.715  -1.722  1.00  0.00     0.231 C 
BRANCH  42  43
HETATM   43  N10 UNL     1       9.370  43.618  -1.879  1.00  0.00    -0.079 N 
ATOM     44 3H10 UNL     1      10.199  43.115  -2.195  1.00  0.00     0.274 HD
ATOM     45 2H10 UNL     1       9.200  44.219  -2.686  1.00  0.00     0.274 HD
ATOM     46 1H10 UNL     1       9.604  44.191  -1.068  1.00  0.00     0.274 HD
ENDBRANCH  42  43
ENDBRANCH  41  42
ENDBRANCH  40  41
ENDBRANCH  39  40
ENDBRANCH  31  33
ENDBRANCH  30  31
ENDBRANCH  27  30
ENDBRANCH   4  26
ENDBRANCH   3   4
TORSDOF 18
ENDMDL
MODEL 4
REMARK VINA RESULT: -7.568667668      3.035     11.548
REMARK  18 active torsions:
REMARK  status: ('A' for Active; 'I' for Inactive)
REMARK    1  A    between atoms: C3_3  and  C4_4 
REMARK    2  A    between atoms: C4_4  and  C5_5 
REMARK    3  A    between atoms: C4_4  and  N6_26 
REMARK    4  A    between atoms: C5_5  and  C6_6 
REMARK    5  A    between atoms: C6_6  and  C7_7 
REMARK    6  A    between atoms: C7_7  and  C8_8 
REMARK    7  A    between atoms: C8_8  and  N1_9 
REMARK    8  A    between atoms: N1_9  and  C10_11 
REMARK    9  A    between atoms: C10_11  and  C11_12 
REMARK   10  A    between atoms: C13_16  and  N3_17 
REMARK   11  A    between atoms: C14_22  and  N5_23 
REMARK       I    between atoms: N6_26  and  C15_28 
REMARK   12  A    between atoms: C15_28  and  C16_30 
REMARK   13  A    between atoms: C16_30  and  N7_31 
REMARK   14  A    between atoms: N7_31  and  C17_33 
REMARK   15  A    between atoms: N9_39  and  C21_40 
REMARK   16  A    between atoms: C21_40  and  C22_41 
REMARK   17  A    between atoms: C22_41  and  C23_42 
REMARK   18  A    between atoms: C23_42  and  N10_43 
ROOT
HETATM    1  C1  UNL     1       8.904  35.393  -0.799  1.00  0.00     0.112 C 
HETATM    2  C2  UNL     1       9.245  36.675  -1.439  1.00  0.00    -0.109 C 
HETATM    3  C3  UNL     1       9.506  37.734  -1.949  1.00  0.00    -0.082 C 
ENDROOT
BRANCH   3   4
HETATM    4  C4  UNL     1       9.833  39.052  -2.555  1.00  0.00     0.164 C 
BRANCH   4   5
HETATM    5  C5  UNL     1      10.298  39.916  -1.425  1.00  0.00     0.038 C 
BRANCH   5   6
HETATM    6  C6  UNL     1       9.311  41.006  -1.179  1.00  0.00     0.005 C 
BRANCH   6   7
HETATM    7  C7  UNL     1       8.555  41.472  -2.375  1.00  0.00     0.030 C 
BRANCH   7   8
HETATM    8  C8  UNL     1       8.659  42.949  -2.648  1.00  0.00     0.272 C 
BRANCH   8   9
HETATM    9  N1  UNL     1       7.343  43.435  -3.001  1.00  0.00     0.088 N 
HETATM   10  C9  UNL     1       6.758  44.109  -1.841  1.00  0.00     0.310 C 
BRANCH   9  11
HETATM   11  C10 UNL     1       6.465  42.451  -3.540  1.00  0.00     0.315 C 
BRANCH  11  12
HETATM   12  C11 UNL     1       5.542  42.974  -4.527  1.00  0.00     0.030 A 
HETATM   13  C12 UNL     1       5.928  43.620  -5.661  1.00  0.00     0.118 A 
HETATM   14  N2  UNL     1       5.021  44.134  -6.550  1.00  0.00    -0.201 N 
HETATM   15  C13 UNL     1       3.709  44.014  -6.325  1.00  0.00     0.677 A 
ATOM     16  H2  UNL     1       5.348  44.612  -7.390  1.00  0.00     0.183 HD
HETATM   17  N4  UNL     1       3.307  43.386  -5.222  1.00  0.00    -0.177 N 
HETATM   18  C14 UNL     1       4.156  42.869  -4.326  1.00  0.00     0.124 A 
ATOM     19  H4  UNL     1       2.305  43.295  -5.052  1.00  0.00     0.185 HD
BRANCH  15  20
HETATM   20  N3  UNL     1       2.869  44.512  -7.185  1.00  0.00    -0.234 N 
ATOM     21  H32 UNL     1       2.754  44.124  -8.121  1.00  0.00     0.174 HD
ATOM     22  H31 UNL     1       2.303  45.318  -6.918  1.00  0.00     0.174 HD
ENDBRANCH  15  20
BRANCH  18  23
HETATM   23  N5  UNL     1       3.767  42.264  -3.263  1.00  0.00    -0.385 N 
ATOM     24  H52 UNL     1       3.422  42.757  -2.439  1.00  0.00     0.157 HD
ATOM     25  H51 UNL     1       3.812  41.245  -3.267  1.00  0.00     0.157 HD
ENDBRANCH  18  23
ENDBRANCH  11  12
ENDBRANCH   9  11
ENDBRANCH   8   9
ENDBRANCH   7   8
ENDBRANCH   6   7
ENDBRANCH   5   6
ENDBRANCH   4   5
BRANCH   4  26
HETATM   26  N6  UNL     1      10.834  38.885  -3.579  1.00  0.00    -0.345 N 
HETATM   27  C15 UNL     1      10.616  38.437  -4.894  1.00  0.00     0.236 C 
HETATM   28  O1  UNL     1       9.468  38.124  -5.292  1.00  0.00    -0.272 OA
ATOM     29  H6  UNL     1      11.795  39.113  -3.324  1.00  0.00     0.163 HD
BRANCH  27  30
HETATM   30  C16 UNL     1      11.745  38.333  -5.835  1.00  0.00     0.240 C 
BRANCH  30  31
HETATM   31  N7  UNL     1      11.310  38.569  -7.178  1.00  0.00    -0.218 N 
ATOM     32  H7  UNL     1      10.527  38.038  -7.557  1.00  0.00     0.178 HD
BRANCH  31  33
HETATM   33  C17 UNL     1      11.974  39.553  -8.003  1.00  0.00     0.672 C 
HETATM   34  N8  UNL     1      11.552  40.749  -8.140  1.00  0.00    -0.224 N 
HETATM   35  C18 UNL     1      12.394  41.521  -9.014  1.00  0.00     0.163 C 
ATOM     36  H8  UNL     1      10.717  41.115  -7.684  1.00  0.00     0.177 HD
HETATM   37  C19 UNL     1      13.667  40.704  -9.073  1.00  0.00     0.116 C 
HETATM   38  C20 UNL     1      14.281  40.880 -10.413  1.00  0.00     0.034 C 
HETATM   39  N9  UNL     1      13.167  39.381  -8.765  1.00  0.00    -0.212 N 
BRANCH  39  40
HETATM   40  C21 UNL     1      13.726  38.117  -9.123  1.00  0.00     0.143 C 
BRANCH  40  41
HETATM   41  C22 UNL     1      13.144  37.381 -10.265  1.00  0.00     0.048 C 
BRANCH  41  42
HETATM   42  C23 UNL     1      14.102  36.977 -11.351  1.00  0.00     0.231 C 
BRANCH  42  43
HETATM   43  N10 UNL     1      15.276  36.306 -10.935  1.00  0.00    -0.079 N 
ATOM     44 3H10 UNL     1      15.940  36.979 -10.552  1.00  0.00     0.274 HD
ATOM     45 2H10 UNL     1      15.078  35.749 -10.104  1.00  0.00     0.274 HD
ATOM     46 1H10 UNL     1      15.740  35.727 -11.635  1.00  0.00     0.274 HD
ENDBRANCH  42  43
ENDBRANCH  41  42
ENDBRANCH  40  41
ENDBRANCH  39  40
ENDBRANCH  31  33
ENDBRANCH  30  31
ENDBRANCH  27  30
ENDBRANCH   4  26
ENDBRANCH   3   4
TORSDOF 18
ENDMDL
MODEL 5
REMARK VINA RESULT: -7.479885940      1.919      3.447
REMARK  18 active torsions:
REMARK  status: ('A' for Active; 'I' for Inactive)
REMARK    1  A    between atoms: C3_3  and  C4_4 
REMARK    2  A    between atoms: C4_4  and  C5_5 
REMARK    3  A    between atoms: C4_4  and  N6_26 
REMARK    4  A    between atoms: C5_5  and  C6_6 
REMARK    5  A    between atoms: C6_6  and  C7_7 
REMARK    6  A    between atoms: C7_7  and  C8_8 
REMARK    7  A    between atoms: C8_8  and  N1_9 
REMARK    8  A    between atoms: N1_9  and  C10_11 
REMARK    9  A    between atoms: C10_11  and  C11_12 
REMARK   10  A    between atoms: C13_16  and  N3_17 
REMARK   11  A    between atoms: C14_22  and  N5_23 
REMARK       I    between atoms: N6_26  and  C15_28 
REMARK   12  A    between atoms: C15_28  and  C16_30 
REMARK   13  A    between atoms: C16_30  and  N7_31 
REMARK   14  A    between atoms: N7_31  and  C17_33 
REMARK   15  A    between atoms: N9_39  and  C21_40 
REMARK   16  A    between atoms: C21_40  and  C22_41 
REMARK   17  A    between atoms: C22_41  and  C23_42 
REMARK   18  A    between atoms: C23_42  and  N10_43 
ROOT
HETATM    1  C1  UNL     1       9.967  42.933 -10.015  1.00  0.00     0.112 C 
HETATM    2  C2  UNL     1      10.819  42.214  -9.054  1.00  0.00    -0.109 C 
HETATM    3  C3  UNL     1      11.497  41.613  -8.261  1.00  0.00    -0.082 C 
ENDROOT
BRANCH   3   4
HETATM    4  C4  UNL     1      12.330  40.847  -7.297  1.00  0.00     0.164 C 
BRANCH   4   5
HETATM    5  C5  UNL     1      13.390  41.794  -6.831  1.00  0.00     0.038 C 
BRANCH   5   6
HETATM    6  C6  UNL     1      14.030  42.459  -8.003  1.00  0.00     0.005 C 
BRANCH   6   7
HETATM    7  C7  UNL     1      14.826  41.568  -8.891  1.00  0.00     0.030 C 
BRANCH   7   8
HETATM    8  C8  UNL     1      15.007  42.081 -10.295  1.00  0.00     0.272 C 
BRANCH   8   9
HETATM    9  N1  UNL     1      14.236  41.238 -11.184  1.00  0.00     0.088 N 
HETATM   10  C9  UNL     1      13.263  42.066 -11.898  1.00  0.00     0.310 C 
BRANCH   9  11
HETATM   11  C10 UNL     1      13.622  40.115 -10.562  1.00  0.00     0.315 C 
BRANCH  11  12
HETATM   12  C11 UNL     1      13.718  38.895 -11.339  1.00  0.00     0.030 A 
HETATM   13  C12 UNL     1      14.132  38.851 -12.635  1.00  0.00     0.118 A 
HETATM   14  N2  UNL     1      14.171  37.680 -13.347  1.00  0.00    -0.201 N 
HETATM   15  C13 UNL     1      13.797  36.530 -12.779  1.00  0.00     0.677 A 
ATOM     16  H2  UNL     1      14.487  37.687 -14.317  1.00  0.00     0.183 HD
HETATM   17  N4  UNL     1      13.389  36.547 -11.512  1.00  0.00    -0.177 N 
HETATM   18  C14 UNL     1      13.334  37.666 -10.779  1.00  0.00     0.124 A 
ATOM     19  H4  UNL     1      13.104  35.668 -11.081  1.00  0.00     0.185 HD
BRANCH  15  20
HETATM   20  N3  UNL     1      13.843  35.433 -13.478  1.00  0.00    -0.234 N 
ATOM     21  H32 UNL     1      13.003  34.915 -13.733  1.00  0.00     0.174 HD
ATOM     22  H31 UNL     1      14.749  35.074 -13.782  1.00  0.00     0.174 HD
ENDBRANCH  15  20
BRANCH  18  23
HETATM   23  N5  UNL     1      12.939  37.681  -9.558  1.00  0.00    -0.385 N 
ATOM     24  H52 UNL     1      12.223  38.321  -9.214  1.00  0.00     0.157 HD
ATOM     25  H51 UNL     1      13.376  37.014  -8.922  1.00  0.00     0.157 HD
ENDBRANCH  18  23
ENDBRANCH  11  12
ENDBRANCH   9  11
ENDBRANCH   8   9
ENDBRANCH   7   8
ENDBRANCH   6   7
ENDBRANCH   5   6
ENDBRANCH   4   5
BRANCH   4  26
HETATM   26  N6  UNL     1      11.506  40.356  -6.221  1.00  0.00    -0.345 N 
HETATM   27  C15 UNL     1      11.123  39.020  -6.004  1.00  0.00     0.236 C 
HETATM   28  O1  UNL     1      11.484  38.106  -6.785  1.00  0.00    -0.272 OA
ATOM     29  H6  UNL     1      11.168  41.046  -5.550  1.00  0.00     0.163 HD
BRANCH  27  30
HETATM   30  C16 UNL     1      10.287  38.672  -4.843  1.00  0.00     0.240 C 
BRANCH  30  31
HETATM   31  N7  UNL     1      10.984  38.928  -3.619  1.00  0.00    -0.218 N 
ATOM     32  H7  UNL     1      11.844  39.475  -3.632  1.00  0.00     0.178 HD
BRANCH  31  33
HETATM   33  C17 UNL     1      10.477  38.418  -2.365  1.00  0.00     0.672 C 
HETATM   34  N8  UNL     1      10.365  37.173  -2.111  1.00  0.00    -0.224 N 
HETATM   35  C18 UNL     1       9.835  36.937  -0.795  1.00  0.00     0.163 C 
ATOM     36  H8  UNL     1      10.622  36.432  -2.764  1.00  0.00     0.177 HD
HETATM   37  C19 UNL     1      10.026  38.270  -0.104  1.00  0.00     0.116 C 
HETATM   38  C20 UNL     1       8.924  38.460   0.872  1.00  0.00     0.034 C 
HETATM   39  N9  UNL     1      10.044  39.173  -1.235  1.00  0.00    -0.212 N 
BRANCH  39  40
HETATM   40  C21 UNL     1       9.710  40.561  -1.266  1.00  0.00     0.143 C 
BRANCH  40  41
HETATM   41  C22 UNL     1       8.666  41.019  -2.207  1.00  0.00     0.048 C 
BRANCH  41  42
HETATM   42  C23 UNL     1       8.467  42.506  -2.302  1.00  0.00     0.231 C 
BRANCH  42  43
HETATM   43  N10 UNL     1       9.347  43.308  -1.537  1.00  0.00    -0.079 N 
ATOM     44 3H10 UNL     1       9.265  43.065  -0.550  1.00  0.00     0.274 HD
ATOM     45 2H10 UNL     1      10.311  43.029  -1.717  1.00  0.00     0.274 HD
ATOM     46 1H10 UNL     1       9.254  44.318  -1.651  1.00  0.00     0.274 HD
ENDBRANCH  42  43
ENDBRANCH  41  42
ENDBRANCH  40  41
ENDBRANCH  39  40
ENDBRANCH  31  33
ENDBRANCH  30  31
ENDBRANCH  27  30
ENDBRANCH   4  26
ENDBRANCH   3   4
TORSDOF 18
ENDMDL
