MODEL 1
REMARK VINA RESULT: -8.521060606      0.000      0.000
REMARK  11 active torsions:
REMARK  status: ('A' for Active; 'I' for Inactive)
REMARK    1  A    between atoms: C2_2  and  C3_3 
REMARK    2  A    between atoms: C3_3  and  C4_4 
REMARK    3  A    between atoms: C6_7  and  C7_8 
REMARK    4  A    between atoms: C9_15  and  C10_16 
REMARK    5  A    between atoms: C10_16  and  C11_17 
REMARK    6  A    between atoms: C11_17  and  C12_18 
REMARK    7  A    between atoms: C12_18  and  N3_19 
REMARK       I    between atoms: N3_19  and  C13_21 
REMARK       I    between atoms: N5_23  and  C14_25 
REMARK    8  A    between atoms: N7_27  and  C15_29 
REMARK    9  A    between atoms: C15_29  and  C16_30 
REMARK   10  A    between atoms: C16_30  and  C17_31 
REMARK   11  A    between atoms: C19_33  and  C20_34 
ROOT
HETATM    1  C7  UNL     1       4.854 133.314 355.483  1.00  0.00     0.064 A 
HETATM    2  N1  UNL     1       4.091 132.484 354.704  1.00  0.00    -0.336 N 
ATOM      3  H1  UNL     1       3.352 132.793 354.072  1.00  0.00     0.168 HD
HETATM    4  C8  UNL     1       4.454 131.213 354.893  1.00  0.00     0.154 A 
HETATM    5 BR1  UNL     1       3.719 129.668 354.061  1.00  0.00    -0.010 Br
HETATM    6  N2  UNL     1       5.450 131.217 355.792  1.00  0.00    -0.338 N 
ATOM      7  H2  UNL     1       5.938 130.392 356.141  1.00  0.00     0.168 HD
HETATM    8  C9  UNL     1       5.709 132.521 356.170  1.00  0.00     0.036 A 
ENDROOT
BRANCH   8   9
HETATM    9  C10 UNL     1       6.712 132.825 357.160  1.00  0.00     0.061 C 
BRANCH   9  10
HETATM   10  C11 UNL     1       7.276 131.686 357.932  1.00  0.00     0.026 C 
BRANCH  10  11
HETATM   11  C12 UNL     1       8.529 131.059 357.480  1.00  0.00     0.122 C 
BRANCH  11  12
HETATM   12  N3  UNL     1       9.335 130.537 358.576  1.00  0.00    -0.364 N 
HETATM   13  C13 UNL     1       9.511 129.136 358.732  1.00  0.00     0.190 C 
HETATM   14  N4  UNL     1       9.939 128.385 357.573  1.00  0.00    -0.063 NA
HETATM   15  N5  UNL     1       9.314 128.521 359.843  1.00  0.00    -0.305 N 
HETATM   16  C14 UNL     1       8.902 129.229 360.979  1.00  0.00     0.190 C 
ATOM     17  H5  UNL     1       9.457 127.513 359.899  1.00  0.00     0.171 HD
HETATM   18  N6  UNL     1       7.628 129.001 361.526  1.00  0.00    -0.063 NA
HETATM   19  N7  UNL     1       9.681 130.083 361.529  1.00  0.00    -0.364 N 
ATOM     20  H7  UNL     1      10.604 130.238 361.125  1.00  0.00     0.162 HD
ATOM     21  H3  UNL     1       9.774 131.181 359.234  1.00  0.00     0.162 HD
BRANCH  19  22
HETATM   22  C15 UNL     1       9.297 130.842 362.712  1.00  0.00     0.122 C 
BRANCH  22  23
HETATM   23  C16 UNL     1      10.532 130.841 363.618  1.00  0.00     0.019 C 
BRANCH  23  24
HETATM   24  C17 UNL     1      10.310 131.801 364.761  1.00  0.00    -0.003 C 
HETATM   25  C18 UNL     1      11.569 132.647 364.960  1.00  0.00     0.005 C 
ENDBRANCH  23  24
ENDBRANCH  22  23
ENDBRANCH  19  22
ENDBRANCH  11  12
ENDBRANCH  10  11
ENDBRANCH   9  10
ENDBRANCH   8   9
BRANCH   1  26
HETATM   26  C6  UNL     1       4.685 134.762 355.477  1.00  0.00     0.181 C 
HETATM   27  O1  UNL     1       3.480 135.170 356.054  1.00  0.00    -0.379 OA
HETATM   28  C5  UNL     1       3.154 136.407 355.575  1.00  0.00     0.174 C 
HETATM   29  C4  UNL     1       4.116 136.713 354.406  1.00  0.00     0.023 C 
HETATM   30  C19 UNL     1       4.496 135.319 354.061  1.00  0.00     0.049 C 
BRANCH  29  31
HETATM   31  C3  UNL     1       5.125 137.642 354.935  1.00  0.00     0.033 C 
BRANCH  31  32
HETATM   32  C2  UNL     1       5.136 138.918 354.168  1.00  0.00    -0.036 C 
HETATM   33  C1  UNL     1       5.114 139.028 352.877  1.00  0.00     0.007 C 
ENDBRANCH  31  32
ENDBRANCH  29  31
BRANCH  30  34
HETATM   34  C20 UNL     1       5.553 135.079 353.122  1.00  0.00    -0.029 C 
HETATM   35  C21 UNL     1       5.647 134.354 352.048  1.00  0.00     0.007 C 
ENDBRANCH  30  34
ENDBRANCH   1  26
TORSDOF 11
ENDMDL
MODEL 2
REMARK VINA RESULT: -8.143243215      6.318      9.410
REMARK  11 active torsions:
REMARK  status: ('A' for Active; 'I' for Inactive)
REMARK    1  A    between atoms: C2_2  and  C3_3 
REMARK    2  A    between atoms: C3_3  and  C4_4 
REMARK    3  A    between atoms: C6_7  and  C7_8 
REMARK    4  A    between atoms: C9_15  and  C10_16 
REMARK    5  A    between atoms: C10_16  and  C11_17 
REMARK    6  A    between atoms: C11_17  and  C12_18 
REMARK    7  A    between atoms: C12_18  and  N3_19 
REMARK       I    between atoms: N3_19  and  C13_21 
REMARK       I    between atoms: N5_23  and  C14_25 
REMARK    8  A    between atoms: N7_27  and  C15_29 
REMARK    9  A    between atoms: C15_29  and  C16_30 
REMARK   10  A    between atoms: C16_30  and  C17_31 
REMARK   11  A    between atoms: C19_33  and  C20_34 
ROOT
HETATM    1  C7  UNL     1      10.557 130.157 360.754  1.00  0.00     0.064 A 
HETATM    2  N1  UNL     1      10.602 130.579 362.057  1.00  0.00    -0.336 N 
ATOM      3  H1  UNL     1       9.788 130.701 362.660  1.00  0.00     0.168 HD
HETATM    4  C8  UNL     1      11.867 130.807 362.423  1.00  0.00     0.154 A 
HETATM    5 BR1  UNL     1      12.485 131.406 364.120  1.00  0.00    -0.010 Br
HETATM    6  N2  UNL     1      12.640 130.534 361.361  1.00  0.00    -0.338 N 
ATOM      7  H2  UNL     1      13.656 130.612 361.331  1.00  0.00     0.168 HD
HETATM    8  C9  UNL     1      11.836 130.129 360.312  1.00  0.00     0.036 A 
ENDROOT
BRANCH   8   9
HETATM    9  C10 UNL     1      12.397 129.805 359.025  1.00  0.00     0.061 C 
BRANCH   9  10
HETATM   10  C11 UNL     1      12.699 128.375 358.752  1.00  0.00     0.026 C 
BRANCH  10  11
HETATM   11  C12 UNL     1      14.079 127.886 358.904  1.00  0.00     0.122 C 
BRANCH  11  12
HETATM   12  N3  UNL     1      15.077 128.938 358.768  1.00  0.00    -0.364 N 
HETATM   13  C13 UNL     1      15.695 129.183 357.513  1.00  0.00     0.190 C 
HETATM   14  N4  UNL     1      14.831 129.347 356.366  1.00  0.00    -0.063 NA
HETATM   15  N5  UNL     1      16.969 129.266 357.360  1.00  0.00    -0.305 N 
HETATM   16  C14 UNL     1      17.824 129.113 358.458  1.00  0.00     0.190 C 
ATOM     17  H5  UNL     1      17.358 129.445 356.434  1.00  0.00     0.171 HD
HETATM   18  N6  UNL     1      18.690 128.009 358.526  1.00  0.00    -0.063 NA
HETATM   19  N7  UNL     1      17.828 129.976 359.403  1.00  0.00    -0.364 N 
ATOM     20  H7  UNL     1      17.198 130.775 359.341  1.00  0.00     0.162 HD
ATOM     21  H3  UNL     1      15.332 129.502 359.579  1.00  0.00     0.162 HD
BRANCH  19  22
HETATM   22  C15 UNL     1      18.701 129.860 360.563  1.00  0.00     0.122 C 
BRANCH  22  23
HETATM   23  C16 UNL     1      19.680 131.033 360.458  1.00  0.00     0.019 C 
BRANCH  23  24
HETATM   24  C17 UNL     1      19.813 131.442 359.012  1.00  0.00    -0.003 C 
HETATM   25  C18 UNL     1      19.701 132.964 358.906  1.00  0.00     0.005 C 
ENDBRANCH  23  24
ENDBRANCH  22  23
ENDBRANCH  19  22
ENDBRANCH  11  12
ENDBRANCH  10  11
ENDBRANCH   9  10
ENDBRANCH   8   9
BRANCH   1  26
HETATM   26  C6  UNL     1       9.304 129.823 360.086  1.00  0.00     0.181 C 
HETATM   27  O1  UNL     1       9.044 130.639 358.983  1.00  0.00    -0.379 OA
HETATM   28  C5  UNL     1       7.702 130.635 358.734  1.00  0.00     0.174 C 
HETATM   29  C4  UNL     1       7.016 129.945 359.933  1.00  0.00     0.023 C 
HETATM   30  C19 UNL     1       8.080 130.155 360.948  1.00  0.00     0.049 C 
BRANCH  29  31
HETATM   31  C3  UNL     1       6.680 128.584 359.489  1.00  0.00     0.033 C 
BRANCH  31  32
HETATM   32  C2  UNL     1       5.243 128.279 359.730  1.00  0.00    -0.036 C 
HETATM   33  C1  UNL     1       4.520 128.745 360.699  1.00  0.00     0.007 C 
ENDBRANCH  31  32
ENDBRANCH  29  31
BRANCH  30  34
HETATM   34  C20 UNL     1       7.988 129.505 362.224  1.00  0.00    -0.029 C 
HETATM   35  C21 UNL     1       7.411 129.816 363.345  1.00  0.00     0.007 C 
ENDBRANCH  30  34
ENDBRANCH   1  26
TORSDOF 11
ENDMDL
MODEL 3
REMARK VINA RESULT: -8.039584252      2.797      9.121
REMARK  11 active torsions:
REMARK  status: ('A' for Active; 'I' for Inactive)
REMARK    1  A    between atoms: C2_2  and  C3_3 
REMARK    2  A    between atoms: C3_3  and  C4_4 
REMARK    3  A    between atoms: C6_7  and  C7_8 
REMARK    4  A    between atoms: C9_15  and  C10_16 
REMARK    5  A    between atoms: C10_16  and  C11_17 
REMARK    6  A    between atoms: C11_17  and  C12_18 
REMARK    7  A    between atoms: C12_18  and  N3_19 
REMARK       I    between atoms: N3_19  and  C13_21 
REMARK       I    between atoms: N5_23  and  C14_25 
REMARK    8  A    between atoms: N7_27  and  C15_29 
REMARK    9  A    between atoms: C15_29  and  C16_30 
REMARK   10  A    between atoms: C16_30  and  C17_31 
REMARK   11  A    between atoms: C19_33  and  C20_34 
ROOT
HETATM    1  C7  UNL     1       6.988 129.318 358.370  1.00  0.00     0.064 A 
HETATM    2  N1  UNL     1       6.414 128.135 357.984  1.00  0.00    -0.336 N 
ATOM      3  H1  UNL     1       6.913 127.252 357.874  1.00  0.00     0.168 HD
HETATM    4  C8  UNL     1       5.106 128.305 357.772  1.00  0.00     0.154 A 
HETATM    5 BR1  UNL     1       3.846 126.989 357.223  1.00  0.00    -0.010 Br
HETATM    6  N2  UNL     1       4.832 129.596 358.019  1.00  0.00    -0.338 N 
ATOM      7  H2  UNL     1       3.912 130.031 357.945  1.00  0.00     0.168 HD
HETATM    8  C9  UNL     1       5.996 130.239 358.392  1.00  0.00     0.036 A 
ENDROOT
BRANCH   8   9
HETATM    9  C10 UNL     1       6.007 131.651 358.683  1.00  0.00     0.061 C 
BRANCH   9  10
HETATM   10  C11 UNL     1       6.999 132.489 357.959  1.00  0.00     0.026 C 
BRANCH  10  11
HETATM   11  C12 UNL     1       7.045 132.446 356.488  1.00  0.00     0.122 C 
BRANCH  11  12
HETATM   12  N3  UNL     1       5.850 132.996 355.862  1.00  0.00    -0.364 N 
HETATM   13  C13 UNL     1       5.184 132.278 354.833  1.00  0.00     0.190 C 
HETATM   14  N4  UNL     1       4.858 130.893 355.090  1.00  0.00    -0.063 NA
HETATM   15  N5  UNL     1       4.861 132.802 353.705  1.00  0.00    -0.305 N 
HETATM   16  C14 UNL     1       5.164 134.143 353.436  1.00  0.00     0.190 C 
ATOM     17  H5  UNL     1       4.382 132.239 353.001  1.00  0.00     0.171 HD
HETATM   18  N6  UNL     1       6.094 134.466 352.434  1.00  0.00    -0.063 NA
HETATM   19  N7  UNL     1       4.595 135.082 354.094  1.00  0.00    -0.364 N 
ATOM     20  H7  UNL     1       3.920 134.835 354.817  1.00  0.00     0.162 HD
ATOM     21  H3  UNL     1       5.489 133.901 356.166  1.00  0.00     0.162 HD
BRANCH  19  22
HETATM   22  C15 UNL     1       4.877 136.489 353.849  1.00  0.00     0.122 C 
BRANCH  22  23
HETATM   23  C16 UNL     1       4.102 137.256 354.923  1.00  0.00     0.019 C 
BRANCH  23  24
HETATM   24  C17 UNL     1       4.116 138.728 354.591  1.00  0.00    -0.003 C 
HETATM   25  C18 UNL     1       5.393 139.058 353.815  1.00  0.00     0.005 C 
ENDBRANCH  23  24
ENDBRANCH  22  23
ENDBRANCH  19  22
ENDBRANCH  11  12
ENDBRANCH  10  11
ENDBRANCH   9  10
ENDBRANCH   8   9
BRANCH   1  26
HETATM   26  C6  UNL     1       8.408 129.431 358.679  1.00  0.00     0.181 C 
HETATM   27  O1  UNL     1       9.184 128.475 358.021  1.00  0.00    -0.379 OA
HETATM   28  C5  UNL     1      10.350 128.297 358.709  1.00  0.00     0.174 C 
HETATM   29  C4  UNL     1      10.200 129.033 360.059  1.00  0.00     0.023 C 
HETATM   30  C19 UNL     1       8.717 129.059 360.134  1.00  0.00     0.049 C 
BRANCH  29  31
HETATM   31  C3  UNL     1      10.953 130.289 359.929  1.00  0.00     0.033 C 
BRANCH  31  32
HETATM   32  C2  UNL     1      11.838 130.509 361.107  1.00  0.00    -0.036 C 
HETATM   33  C1  UNL     1      11.449 130.841 362.297  1.00  0.00     0.007 C 
ENDBRANCH  31  32
ENDBRANCH  29  31
BRANCH  30  34
HETATM   34  C20 UNL     1       8.067 129.830 361.155  1.00  0.00    -0.029 C 
HETATM   35  C21 UNL     1       7.789 129.606 362.403  1.00  0.00     0.007 C 
ENDBRANCH  30  34
ENDBRANCH   1  26
TORSDOF 11
ENDMDL
MODEL 4
REMARK VINA RESULT: -7.963518006      2.563      3.702
REMARK  11 active torsions:
REMARK  status: ('A' for Active; 'I' for Inactive)
REMARK    1  A    between atoms: C2_2  and  C3_3 
REMARK    2  A    between atoms: C3_3  and  C4_4 
REMARK    3  A    between atoms: C6_7  and  C7_8 
REMARK    4  A    between atoms: C9_15  and  C10_16 
REMARK    5  A    between atoms: C10_16  and  C11_17 
REMARK    6  A    between atoms: C11_17  and  C12_18 
REMARK    7  A    between atoms: C12_18  and  N3_19 
REMARK       I    between atoms: N3_19  and  C13_21 
REMARK       I    between atoms: N5_23  and  C14_25 
REMARK    8  A    between atoms: N7_27  and  C15_29 
REMARK    9  A    between atoms: C15_29  and  C16_30 
REMARK   10  A    between atoms: C16_30  and  C17_31 
REMARK   11  A    between atoms: C19_33  and  C20_34 
ROOT
HETATM    1  C7  UNL     1       4.767 133.308 355.326  1.00  0.00     0.064 A 
HETATM    2  N1  UNL     1       3.921 132.517 354.594  1.00  0.00    -0.336 N 
ATOM      3  H1  UNL     1       3.127 132.857 354.052  1.00  0.00     0.168 HD
HETATM    4  C8  UNL     1       4.287 131.236 354.694  1.00  0.00     0.154 A 
HETATM    5 BR1  UNL     1       3.454 129.733 353.877  1.00  0.00    -0.010 Br
HETATM    6  N2  UNL     1       5.367 131.196 355.488  1.00  0.00    -0.338 N 
ATOM      7  H2  UNL     1       5.878 130.353 355.752  1.00  0.00     0.168 HD
HETATM    8  C9  UNL     1       5.677 132.481 355.891  1.00  0.00     0.036 A 
ENDROOT
BRANCH   8   9
HETATM    9  C10 UNL     1       6.777 132.736 356.788  1.00  0.00     0.061 C 
BRANCH   9  10
HETATM   10  C11 UNL     1       6.628 132.284 358.197  1.00  0.00     0.026 C 
BRANCH  10  11
HETATM   11  C12 UNL     1       7.717 131.522 358.830  1.00  0.00     0.122 C 
BRANCH  11  12
HETATM   12  N3  UNL     1       7.421 130.102 358.961  1.00  0.00    -0.364 N 
HETATM   13  C13 UNL     1       7.698 129.209 357.891  1.00  0.00     0.190 C 
HETATM   14  N4  UNL     1       9.022 129.255 357.311  1.00  0.00    -0.063 NA
HETATM   15  N5  UNL     1       6.836 128.375 357.428  1.00  0.00    -0.305 N 
HETATM   16  C14 UNL     1       5.549 128.312 357.977  1.00  0.00     0.190 C 
ATOM     17  H5  UNL     1       7.091 127.756 356.658  1.00  0.00     0.171 HD
HETATM   18  N6  UNL     1       4.437 128.689 357.206  1.00  0.00    -0.063 NA
HETATM   19  N7  UNL     1       5.375 127.907 359.179  1.00  0.00    -0.364 N 
ATOM     20  H7  UNL     1       6.189 127.633 359.728  1.00  0.00     0.162 HD
ATOM     21  H3  UNL     1       7.012 129.747 359.825  1.00  0.00     0.162 HD
BRANCH  19  22
HETATM   22  C15 UNL     1       4.056 127.823 359.790  1.00  0.00     0.122 C 
BRANCH  22  23
HETATM   23  C16 UNL     1       4.132 128.693 361.049  1.00  0.00     0.019 C 
BRANCH  23  24
HETATM   24  C17 UNL     1       2.829 128.591 361.802  1.00  0.00    -0.003 C 
HETATM   25  C18 UNL     1       1.719 128.168 360.837  1.00  0.00     0.005 C 
ENDBRANCH  23  24
ENDBRANCH  22  23
ENDBRANCH  19  22
ENDBRANCH  11  12
ENDBRANCH  10  11
ENDBRANCH   9  10
ENDBRANCH   8   9
BRANCH   1  26
HETATM   26  C6  UNL     1       4.616 134.757 355.396  1.00  0.00     0.181 C 
HETATM   27  O1  UNL     1       3.411 135.148 355.984  1.00  0.00    -0.379 OA
HETATM   28  C5  UNL     1       3.103 136.412 355.569  1.00  0.00     0.174 C 
HETATM   29  C4  UNL     1       4.078 136.768 354.426  1.00  0.00     0.023 C 
HETATM   30  C19 UNL     1       4.445 135.390 354.010  1.00  0.00     0.049 C 
BRANCH  29  31
HETATM   31  C3  UNL     1       5.094 137.655 355.012  1.00  0.00     0.033 C 
BRANCH  31  32
HETATM   32  C2  UNL     1       5.238 138.906 354.217  1.00  0.00    -0.036 C 
HETATM   33  C1  UNL     1       5.158 139.000 352.928  1.00  0.00     0.007 C 
ENDBRANCH  31  32
ENDBRANCH  29  31
BRANCH  30  34
HETATM   34  C20 UNL     1       5.508 135.188 353.068  1.00  0.00    -0.029 C 
HETATM   35  C21 UNL     1       5.614 134.492 351.976  1.00  0.00     0.007 C 
ENDBRANCH  30  34
ENDBRANCH   1  26
TORSDOF 11
ENDMDL
MODEL 5
REMARK VINA RESULT: -7.786456779      4.457      6.736
REMARK  11 active torsions:
REMARK  status: ('A' for Active; 'I' for Inactive)
REMARK    1  A    between atoms: C2_2  and  C3_3 
REMARK    2  A    between atoms: C3_3  and  C4_4 
REMARK    3  A    between atoms: C6_7  and  C7_8 
REMARK    4  A    between atoms: C9_15  and  C10_16 
REMARK    5  A    between atoms: C10_16  and  C11_17 
REMARK    6  A    between atoms: C11_17  and  C12_18 
REMARK    7  A    between atoms: C12_18  and  N3_19 
REMARK       I    between atoms: N3_19  and  C13_21 
REMARK       I    between atoms: N5_23  and  C14_25 
REMARK    8  A    between atoms: N7_27  and  C15_29 
REMARK    9  A    between atoms: C15_29  and  C16_30 
REMARK   10  A    between atoms: C16_30  and  C17_31 
REMARK   11  A    between atoms: C19_33  and  C20_34 
ROOT
HETATM    1  C7  UNL     1       5.594 129.968 358.847  1.00  0.00     0.064 A 
HETATM    2  N1  UNL     1       5.475 130.557 357.616  1.00  0.00    -0.336 N 
ATOM      3  H1  UNL     1       4.595 130.697 357.118  1.00  0.00     0.168 HD
HETATM    4  C8  UNL     1       6.677 130.921 357.161  1.00  0.00     0.154 A 
HETATM    5 BR1  UNL     1       7.073 131.777 355.508  1.00  0.00    -0.010 Br
HETATM    6  N2  UNL     1       7.574 130.569 358.095  1.00  0.00    -0.338 N 
ATOM      7  H2  UNL     1       8.581 130.718 358.035  1.00  0.00     0.168 HD
HETATM    8  C9  UNL     1       6.913 129.972 359.151  1.00  0.00     0.036 A 
ENDROOT
BRANCH   8   9
HETATM    9  C10 UNL     1       7.636 129.458 360.287  1.00  0.00     0.061 C 
BRANCH   9  10
HETATM   10  C11 UNL     1       8.445 128.228 360.081  1.00  0.00     0.026 C 
BRANCH  10  11
HETATM   11  C12 UNL     1       9.903 128.343 359.911  1.00  0.00     0.122 C 
BRANCH  11  12
HETATM   12  N3  UNL     1      10.420 129.654 360.281  1.00  0.00    -0.364 N 
HETATM   13  C13 UNL     1      11.111 130.449 359.328  1.00  0.00     0.190 C 
HETATM   14  N4  UNL     1      10.473 130.655 358.047  1.00  0.00    -0.063 NA
HETATM   15  N5  UNL     1      12.256 130.985 359.556  1.00  0.00    -0.305 N 
HETATM   16  C14 UNL     1      12.890 130.800 360.790  1.00  0.00     0.190 C 
ATOM     17  H5  UNL     1      12.707 131.548 358.833  1.00  0.00     0.171 HD
HETATM   18  N6  UNL     1      14.089 130.072 360.864  1.00  0.00    -0.063 NA
HETATM   19  N7  UNL     1      12.387 131.295 361.859  1.00  0.00    -0.364 N 
ATOM     20  H7  UNL     1      11.518 131.824 361.793  1.00  0.00     0.162 HD
ATOM     21  H3  UNL     1      10.285 130.002 361.231  1.00  0.00     0.162 HD
BRANCH  19  22
HETATM   22  C15 UNL     1      13.011 131.130 363.164  1.00  0.00     0.122 C 
BRANCH  22  23
HETATM   23  C16 UNL     1      11.919 130.552 364.070  1.00  0.00     0.019 C 
BRANCH  23  24
HETATM   24  C17 UNL     1      10.787 131.544 364.178  1.00  0.00    -0.003 C 
HETATM   25  C18 UNL     1      11.181 132.656 365.153  1.00  0.00     0.005 C 
ENDBRANCH  23  24
ENDBRANCH  22  23
ENDBRANCH  19  22
ENDBRANCH  11  12
ENDBRANCH  10  11
ENDBRANCH   9  10
ENDBRANCH   8   9
BRANCH   1  26
HETATM   26  C6  UNL     1       4.440 129.478 359.592  1.00  0.00     0.181 C 
HETATM   27  O1  UNL     1       4.584 129.626 360.973  1.00  0.00    -0.379 OA
HETATM   28  C5  UNL     1       3.769 128.730 361.604  1.00  0.00     0.174 C 
HETATM   29  C4  UNL     1       3.235 127.761 360.527  1.00  0.00     0.023 C 
HETATM   30  C19 UNL     1       4.299 127.954 359.508  1.00  0.00     0.049 C 
BRANCH  29  31
HETATM   31  C3  UNL     1       1.856 128.183 360.241  1.00  0.00     0.033 C 
BRANCH  31  32
HETATM   32  C2  UNL     1       1.085 127.089 359.587  1.00  0.00    -0.036 C 
HETATM   33  C1  UNL     1       0.377 127.199 358.508  1.00  0.00     0.007 C 
ENDBRANCH  31  32
ENDBRANCH  29  31
BRANCH  30  34
HETATM   34  C20 UNL     1       4.145 127.386 358.199  1.00  0.00    -0.029 C 
HETATM   35  C21 UNL     1       4.037 126.169 357.760  1.00  0.00     0.007 C 
ENDBRANCH  30  34
ENDBRANCH   1  26
TORSDOF 11
ENDMDL
