MODEL 1
REMARK VINA RESULT: -6.122461865      0.000      0.000
REMARK  3 active torsions:
REMARK  status: ('A' for Active; 'I' for Inactive)
REMARK    1  A    between atoms: C1_2  and  C2_4 
REMARK    2  A    between atoms: C3_5  and  C4_6 
REMARK    3  A    between atoms: C5_8  and  C6_9 
ROOT
HETATM    1  C2  UNL     1       4.424 136.361 350.926  1.00  0.00     0.086 A 
HETATM    2  C3  UNL     1       4.206 136.575 352.402  1.00  0.00     0.032 A 
HETATM    3  C5  UNL     1       4.602 137.699 351.460  1.00  0.00     0.010 A 
ENDROOT
BRANCH   3   4
HETATM    4  C6  UNL     1       3.794 138.909 351.360  1.00  0.00    -0.009 C 
HETATM    5  C7  UNL     1       4.108 140.022 352.325  1.00  0.00     0.005 C 
HETATM    6  C8  UNL     1       2.795 140.777 352.530  1.00  0.00     0.000 C 
HETATM    7  C9  UNL     1       2.257 141.279 351.254  1.00  0.00     0.000 C 
HETATM    8  C10 UNL     1       2.327 140.384 350.066  1.00  0.00     0.000 C 
HETATM    9  C11 UNL     1       3.570 139.524 350.009  1.00  0.00     0.005 C 
ENDBRANCH   3   4
BRANCH   1  10
HETATM   10  C1  UNL     1       3.361 135.834 350.093  1.00  0.00     0.236 C 
HETATM   11  N1  UNL     1       2.659 134.656 350.463  1.00  0.00    -0.062 NA
HETATM   12  O1  UNL     1       3.015 136.372 349.032  1.00  0.00    -0.276 OA
ENDBRANCH   1  10
BRANCH   2  13
HETATM   13  C4  UNL     1       5.200 136.064 353.411  1.00  0.00     0.228 C 
HETATM   14  F1  UNL     1       5.179 136.892 354.501  1.00  0.00    -0.255 F 
ENDBRANCH   2  13
TORSDOF 3
ENDMDL
MODEL 2
REMARK VINA RESULT: -6.010719666      5.357      7.114
REMARK  3 active torsions:
REMARK  status: ('A' for Active; 'I' for Inactive)
REMARK    1  A    between atoms: C1_2  and  C2_4 
REMARK    2  A    between atoms: C3_5  and  C4_6 
REMARK    3  A    between atoms: C5_8  and  C6_9 
ROOT
HETATM    1  C2  UNL     1       3.319 144.932 352.781  1.00  0.00     0.086 A 
HETATM    2  C3  UNL     1       4.583 144.831 351.966  1.00  0.00     0.032 A 
HETATM    3  C5  UNL     1       4.135 143.741 352.925  1.00  0.00     0.010 A 
ENDROOT
BRANCH   3   4
HETATM    4  C6  UNL     1       3.957 142.369 352.462  1.00  0.00    -0.009 C 
HETATM    5  C7  UNL     1       4.861 141.323 353.060  1.00  0.00     0.005 C 
HETATM    6  C8  UNL     1       5.006 140.240 351.991  1.00  0.00     0.000 C 
HETATM    7  C9  UNL     1       3.696 139.689 351.601  1.00  0.00     0.000 C 
HETATM    8  C10 UNL     1       2.562 140.639 351.431  1.00  0.00     0.000 C 
HETATM    9  C11 UNL     1       2.570 141.797 352.404  1.00  0.00     0.005 C 
ENDBRANCH   3   4
BRANCH   1  10
HETATM   10  C1  UNL     1       2.034 145.097 352.130  1.00  0.00     0.236 C 
HETATM   11  N1  UNL     1       1.876 144.822 350.746  1.00  0.00    -0.062 NA
HETATM   12  O1  UNL     1       1.024 145.481 352.735  1.00  0.00    -0.276 OA
ENDBRANCH   1  10
BRANCH   2  13
HETATM   13  C4  UNL     1       5.787 145.671 352.304  1.00  0.00     0.228 C 
HETATM   14  F1  UNL     1       6.542 145.824 351.172  1.00  0.00    -0.255 F 
ENDBRANCH   2  13
TORSDOF 3
ENDMDL
MODEL 3
REMARK VINA RESULT: -6.003243690      5.591      7.390
REMARK  3 active torsions:
REMARK  status: ('A' for Active; 'I' for Inactive)
REMARK    1  A    between atoms: C1_2  and  C2_4 
REMARK    2  A    between atoms: C3_5  and  C4_6 
REMARK    3  A    between atoms: C5_8  and  C6_9 
ROOT
HETATM    1  C2  UNL     1       3.614 144.592 352.088  1.00  0.00     0.086 A 
HETATM    2  C3  UNL     1       2.460 144.106 352.926  1.00  0.00     0.032 A 
HETATM    3  C5  UNL     1       3.276 143.181 352.039  1.00  0.00     0.010 A 
ENDROOT
BRANCH   3   4
HETATM    4  C6  UNL     1       3.925 141.998 352.592  1.00  0.00    -0.009 C 
HETATM    5  C7  UNL     1       3.415 140.659 352.130  1.00  0.00     0.005 C 
HETATM    6  C8  UNL     1       3.680 139.692 353.283  1.00  0.00     0.000 C 
HETATM    7  C9  UNL     1       5.110 139.653 353.637  1.00  0.00     0.000 C 
HETATM    8  C10 UNL     1       5.856 140.941 353.668  1.00  0.00     0.000 C 
HETATM    9  C11 UNL     1       5.425 141.935 352.612  1.00  0.00     0.005 C 
ENDBRANCH   3   4
BRANCH   1  10
HETATM   10  C1  UNL     1       4.749 145.248 352.706  1.00  0.00     0.236 C 
HETATM   11  N1  UNL     1       5.923 145.535 351.960  1.00  0.00    -0.062 NA
HETATM   12  O1  UNL     1       4.757 145.586 353.898  1.00  0.00    -0.276 OA
ENDBRANCH   1  10
BRANCH   2  13
HETATM   13  C4  UNL     1       1.039 144.438 352.549  1.00  0.00     0.228 C 
HETATM   14  F1  UNL     1       0.890 145.799 352.573  1.00  0.00    -0.255 F 
ENDBRANCH   2  13
TORSDOF 3
ENDMDL
MODEL 4
REMARK VINA RESULT: -5.884005575      1.098      1.098
REMARK  3 active torsions:
REMARK  status: ('A' for Active; 'I' for Inactive)
REMARK    1  A    between atoms: C1_2  and  C2_4 
REMARK    2  A    between atoms: C3_5  and  C4_6 
REMARK    3  A    between atoms: C5_8  and  C6_9 
ROOT
HETATM    1  C2  UNL     1       4.416 136.345 350.943  1.00  0.00     0.086 A 
HETATM    2  C3  UNL     1       4.144 136.554 352.411  1.00  0.00     0.032 A 
HETATM    3  C5  UNL     1       4.583 137.679 351.490  1.00  0.00     0.010 A 
ENDROOT
BRANCH   3   4
HETATM    4  C6  UNL     1       3.788 138.896 351.367  1.00  0.00    -0.009 C 
HETATM    5  C7  UNL     1       4.116 140.025 352.308  1.00  0.00     0.005 C 
HETATM    6  C8  UNL     1       2.812 140.798 352.499  1.00  0.00     0.000 C 
HETATM    7  C9  UNL     1       2.277 141.280 351.213  1.00  0.00     0.000 C 
HETATM    8  C10 UNL     1       2.335 140.360 350.045  1.00  0.00     0.000 C 
HETATM    9  C11 UNL     1       3.568 139.485 350.003  1.00  0.00     0.005 C 
ENDBRANCH   3   4
BRANCH   1  10
HETATM   10  C1  UNL     1       3.381 135.830 350.068  1.00  0.00     0.236 C 
HETATM   11  N1  UNL     1       3.155 136.402 348.788  1.00  0.00    -0.062 NA
HETATM   12  O1  UNL     1       2.652 134.880 350.384  1.00  0.00    -0.276 OA
ENDBRANCH   1  10
BRANCH   2  13
HETATM   13  C4  UNL     1       5.096 136.030 353.454  1.00  0.00     0.228 C 
HETATM   14  F1  UNL     1       5.412 134.734 353.143  1.00  0.00    -0.255 F 
ENDBRANCH   2  13
TORSDOF 3
ENDMDL
MODEL 5
REMARK VINA RESULT: -5.714155487      3.983      5.785
REMARK  3 active torsions:
REMARK  status: ('A' for Active; 'I' for Inactive)
REMARK    1  A    between atoms: C1_2  and  C2_4 
REMARK    2  A    between atoms: C3_5  and  C4_6 
REMARK    3  A    between atoms: C5_8  and  C6_9 
ROOT
HETATM    1  C2  UNL     1       3.754 141.972 352.141  1.00  0.00     0.086 A 
HETATM    2  C3  UNL     1       2.526 141.663 352.960  1.00  0.00     0.032 A 
HETATM    3  C5  UNL     1       3.118 140.678 351.967  1.00  0.00     0.010 A 
ENDROOT
BRANCH   3   4
HETATM    4  C6  UNL     1       3.500 139.334 352.386  1.00  0.00    -0.009 C 
HETATM    5  C7  UNL     1       4.467 138.591 351.502  1.00  0.00     0.005 C 
HETATM    6  C8  UNL     1       4.153 137.108 351.697  1.00  0.00     0.000 C 
HETATM    7  C9  UNL     1       4.272 136.713 353.111  1.00  0.00     0.000 C 
HETATM    8  C10 UNL     1       3.738 137.644 354.143  1.00  0.00     0.000 C 
HETATM    9  C11 UNL     1       3.916 139.109 353.811  1.00  0.00     0.005 C 
ENDBRANCH   3   4
BRANCH   1  10
HETATM   10  C1  UNL     1       5.007 142.304 352.789  1.00  0.00     0.236 C 
HETATM   11  N1  UNL     1       5.132 143.477 353.580  1.00  0.00    -0.062 NA
HETATM   12  O1  UNL     1       6.018 141.596 352.689  1.00  0.00    -0.276 OA
ENDBRANCH   1  10
BRANCH   2  13
HETATM   13  C4  UNL     1       1.209 142.327 352.656  1.00  0.00     0.228 C 
HETATM   14  F1  UNL     1       0.590 142.628 353.840  1.00  0.00    -0.255 F 
ENDBRANCH   2  13
TORSDOF 3
ENDMDL
