MODEL 1
REMARK VINA RESULT: -5.877102343      0.000      0.000
REMARK  5 active torsions:
REMARK  status: ('A' for Active; 'I' for Inactive)
REMARK    1  A    between atoms: C2_2  and  N1_4 
REMARK    2  A    between atoms: N1_4  and  C4_6 
REMARK    3  A    between atoms: C4_6  and  C6_8 
REMARK    4  A    between atoms: C6_8  and  N2_9 
REMARK    5  A    between atoms: C7_10  and  C8_11 
ROOT
HETATM    1  N2  UNL     1     -11.837 -12.862   0.407  1.00  0.00    -0.305 N 
HETATM    2  C7  UNL     1     -12.153 -12.128  -0.677  1.00  0.00     0.122 A 
HETATM    3  N4  UNL     1     -11.418 -11.026  -0.700  1.00  0.00    -0.341 N 
ATOM      4  H4  UNL     1     -11.460 -10.299  -1.415  1.00  0.00     0.167 HD
HETATM    5  C13 UNL     1     -10.592 -11.021   0.392  1.00  0.00     0.068 A 
HETATM    6  C14 UNL     1      -9.635 -10.179   0.902  1.00  0.00     0.081 A 
HETATM    7  S1  UNL     1      -9.129 -10.995   2.310  1.00  0.00    -0.109 SA
HETATM    8  C15 UNL     1     -10.139 -12.367   2.211  1.00  0.00     0.082 A 
HETATM    9  C16 UNL     1     -10.854 -12.144   1.059  1.00  0.00     0.074 A 
ENDROOT
BRANCH   1  10
HETATM   10  C6  UNL     1     -12.444 -14.078   0.706  1.00  0.00     0.123 C 
BRANCH  10  11
HETATM   11  C4  UNL     1     -11.847 -15.383   0.380  1.00  0.00     0.017 C 
HETATM   12  C5  UNL     1     -12.898 -16.447   0.039  1.00  0.00     0.069 C 
BRANCH  11  13
HETATM   13  N1  UNL     1     -10.769 -15.829   1.158  1.00  0.00    -0.388 N 
ATOM     14  H1  UNL     1     -10.461 -15.251   1.940  1.00  0.00     0.159 HD
BRANCH  13  15
HETATM   15  C2  UNL     1     -10.101 -17.022   0.913  1.00  0.00     0.073 C 
HETATM   16  C1  UNL     1      -8.658 -16.941   0.476  1.00  0.00     0.031 C 
HETATM   17  C3  UNL     1     -10.197 -18.071   1.994  1.00  0.00     0.031 C 
ENDBRANCH  13  15
ENDBRANCH  11  13
ENDBRANCH  10  11
ENDBRANCH   1  10
BRANCH   2  18
HETATM   18  C8  UNL     1     -13.154 -12.400  -1.766  1.00  0.00     0.290 C 
HETATM   19  C9  UNL     1     -12.329 -12.761  -3.002  1.00  0.00     0.045 C 
HETATM   20  C10 UNL     1     -13.180 -12.260  -4.124  1.00  0.00     0.033 C 
HETATM   21  C11 UNL     1     -13.792 -11.026  -3.548  1.00  0.00     0.273 C 
HETATM   22  N3  UNL     1     -13.710 -11.109  -2.120  1.00  0.00     0.096 N 
HETATM   23  C12 UNL     1     -14.988 -10.874  -1.489  1.00  0.00     0.310 C 
ENDBRANCH   2  18
TORSDOF 5
ENDMDL
MODEL 2
REMARK VINA RESULT: -5.757804566      2.235      5.268
REMARK  5 active torsions:
REMARK  status: ('A' for Active; 'I' for Inactive)
REMARK    1  A    between atoms: C2_2  and  N1_4 
REMARK    2  A    between atoms: N1_4  and  C4_6 
REMARK    3  A    between atoms: C4_6  and  C6_8 
REMARK    4  A    between atoms: C6_8  and  N2_9 
REMARK    5  A    between atoms: C7_10  and  C8_11 
ROOT
HETATM    1  N2  UNL     1     -11.847 -14.945   0.697  1.00  0.00    -0.305 N 
HETATM    2  C7  UNL     1     -10.907 -14.008   0.924  1.00  0.00     0.122 A 
HETATM    3  N4  UNL     1      -9.718 -14.583   1.032  1.00  0.00    -0.341 N 
ATOM      4  H4  UNL     1      -8.838 -14.099   1.205  1.00  0.00     0.167 HD
HETATM    5  C13 UNL     1      -9.866 -15.935   0.873  1.00  0.00     0.068 A 
HETATM    6  C14 UNL     1      -9.032 -17.027   0.879  1.00  0.00     0.081 A 
HETATM    7  S1  UNL     1     -10.104 -18.320   0.596  1.00  0.00    -0.109 SA
HETATM    8  C15 UNL     1     -11.565 -17.446   0.479  1.00  0.00     0.082 A 
HETATM    9  C16 UNL     1     -11.165 -16.145   0.669  1.00  0.00     0.074 A 
ENDROOT
BRANCH   1  10
HETATM   10  C6  UNL     1     -13.198 -14.646   0.540  1.00  0.00     0.123 C 
BRANCH  10  11
HETATM   11  C4  UNL     1     -13.862 -14.563  -0.771  1.00  0.00     0.017 C 
HETATM   12  C5  UNL     1     -14.661 -15.828  -1.110  1.00  0.00     0.069 C 
BRANCH  11  13
HETATM   13  N1  UNL     1     -13.149 -13.996  -1.837  1.00  0.00    -0.388 N 
ATOM     14  H1  UNL     1     -12.242 -14.393  -2.083  1.00  0.00     0.159 HD
BRANCH  13  15
HETATM   15  C2  UNL     1     -13.623 -12.917  -2.574  1.00  0.00     0.073 C 
HETATM   16  C1  UNL     1     -14.090 -11.700  -1.812  1.00  0.00     0.031 C 
HETATM   17  C3  UNL     1     -12.737 -12.445  -3.702  1.00  0.00     0.031 C 
ENDBRANCH  13  15
ENDBRANCH  11  13
ENDBRANCH  10  11
ENDBRANCH   1  10
BRANCH   2  18
HETATM   18  C8  UNL     1     -11.046 -12.516   1.054  1.00  0.00     0.290 C 
HETATM   19  C9  UNL     1     -10.715 -11.950  -0.327  1.00  0.00     0.045 C 
HETATM   20  C10 UNL     1     -10.108 -10.623  -0.003  1.00  0.00     0.033 C 
HETATM   21  C11 UNL     1      -9.369 -10.899   1.264  1.00  0.00     0.273 C 
HETATM   22  N3  UNL     1      -9.917 -12.084   1.854  1.00  0.00     0.096 N 
HETATM   23  C12 UNL     1     -10.275 -11.884   3.240  1.00  0.00     0.310 C 
ENDBRANCH   2  18
TORSDOF 5
ENDMDL
MODEL 3
REMARK VINA RESULT: -5.609414374      1.353      5.384
REMARK  5 active torsions:
REMARK  status: ('A' for Active; 'I' for Inactive)
REMARK    1  A    between atoms: C2_2  and  N1_4 
REMARK    2  A    between atoms: N1_4  and  C4_6 
REMARK    3  A    between atoms: C4_6  and  C6_8 
REMARK    4  A    between atoms: C6_8  and  N2_9 
REMARK    5  A    between atoms: C7_10  and  C8_11 
ROOT
HETATM    1  N2  UNL     1     -11.356 -12.611  -0.410  1.00  0.00    -0.305 N 
HETATM    2  C7  UNL     1     -11.710 -13.704   0.293  1.00  0.00     0.122 A 
HETATM    3  N4  UNL     1     -11.210 -13.628   1.518  1.00  0.00    -0.341 N 
ATOM      4  H4  UNL     1     -11.330 -14.325   2.253  1.00  0.00     0.167 HD
HETATM    5  C13 UNL     1     -10.505 -12.460   1.637  1.00  0.00     0.068 A 
HETATM    6  C14 UNL     1      -9.783 -11.839   2.626  1.00  0.00     0.081 A 
HETATM    7  S1  UNL     1      -9.258 -10.407   1.866  1.00  0.00    -0.109 SA
HETATM    8  C15 UNL     1      -9.964 -10.637   0.329  1.00  0.00     0.082 A 
HETATM    9  C16 UNL     1     -10.601 -11.848   0.458  1.00  0.00     0.074 A 
ENDROOT
BRANCH   1  10
HETATM   10  C6  UNL     1     -11.731 -12.405  -1.735  1.00  0.00     0.123 C 
BRANCH  10  11
HETATM   11  C4  UNL     1     -12.859 -11.546  -2.132  1.00  0.00     0.017 C 
HETATM   12  C5  UNL     1     -12.430 -10.391  -3.045  1.00  0.00     0.069 C 
BRANCH  11  13
HETATM   13  N1  UNL     1     -13.816 -11.222  -1.160  1.00  0.00    -0.388 N 
ATOM     14  H1  UNL     1     -13.521 -11.164  -0.185  1.00  0.00     0.159 HD
BRANCH  13  15
HETATM   15  C2  UNL     1     -15.150 -10.978  -1.464  1.00  0.00     0.073 C 
HETATM   16  C1  UNL     1     -16.112 -12.138  -1.379  1.00  0.00     0.031 C 
HETATM   17  C3  UNL     1     -15.784  -9.799  -0.765  1.00  0.00     0.031 C 
ENDBRANCH  13  15
ENDBRANCH  11  13
ENDBRANCH  10  11
ENDBRANCH   1  10
BRANCH   2  18
HETATM   18  C8  UNL     1     -12.539 -14.889  -0.119  1.00  0.00     0.290 C 
HETATM   19  C9  UNL     1     -13.974 -14.547   0.282  1.00  0.00     0.045 C 
HETATM   20  C10 UNL     1     -14.555 -15.887   0.601  1.00  0.00     0.033 C 
HETATM   21  C11 UNL     1     -13.399 -16.611   1.209  1.00  0.00     0.273 C 
HETATM   22  N3  UNL     1     -12.194 -15.951   0.805  1.00  0.00     0.096 N 
HETATM   23  C12 UNL     1     -11.233 -16.872   0.242  1.00  0.00     0.310 C 
ENDBRANCH   2  18
TORSDOF 5
ENDMDL
MODEL 4
REMARK VINA RESULT: -5.535699231      1.194      5.511
REMARK  5 active torsions:
REMARK  status: ('A' for Active; 'I' for Inactive)
REMARK    1  A    between atoms: C2_2  and  N1_4 
REMARK    2  A    between atoms: N1_4  and  C4_6 
REMARK    3  A    between atoms: C4_6  and  C6_8 
REMARK    4  A    between atoms: C6_8  and  N2_9 
REMARK    5  A    between atoms: C7_10  and  C8_11 
ROOT
HETATM    1  N2  UNL     1     -10.921 -12.442  -0.135  1.00  0.00    -0.305 N 
HETATM    2  C7  UNL     1     -11.371 -13.545   0.492  1.00  0.00     0.122 A 
HETATM    3  N4  UNL     1     -11.006 -13.516   1.766  1.00  0.00    -0.341 N 
ATOM      4  H4  UNL     1     -11.219 -14.232   2.461  1.00  0.00     0.167 HD
HETATM    5  C13 UNL     1     -10.296 -12.368   1.996  1.00  0.00     0.068 A 
HETATM    6  C14 UNL     1      -9.675 -11.793   3.077  1.00  0.00     0.081 A 
HETATM    7  S1  UNL     1      -9.042 -10.351   2.423  1.00  0.00    -0.109 SA
HETATM    8  C15 UNL     1      -9.580 -10.521   0.812  1.00  0.00     0.082 A 
HETATM    9  C16 UNL     1     -10.250 -11.721   0.833  1.00  0.00     0.074 A 
ENDROOT
BRANCH   1  10
HETATM   10  C6  UNL     1     -11.145 -12.189  -1.486  1.00  0.00     0.123 C 
BRANCH  10  11
HETATM   11  C4  UNL     1     -12.476 -11.902  -2.045  1.00  0.00     0.017 C 
HETATM   12  C5  UNL     1     -12.851 -12.845  -3.195  1.00  0.00     0.069 C 
BRANCH  11  13
HETATM   13  N1  UNL     1     -12.842 -10.560  -2.222  1.00  0.00    -0.388 N 
ATOM     14  H1  UNL     1     -12.314  -9.841  -1.727  1.00  0.00     0.159 HD
BRANCH  13  15
HETATM   15  C2  UNL     1     -13.892 -10.165  -3.042  1.00  0.00     0.073 C 
HETATM   16  C1  UNL     1     -15.200  -9.801  -2.381  1.00  0.00     0.031 C 
HETATM   17  C3  UNL     1     -13.574  -9.093  -4.057  1.00  0.00     0.031 C 
ENDBRANCH  13  15
ENDBRANCH  11  13
ENDBRANCH  10  11
ENDBRANCH   1  10
BRANCH   2  18
HETATM   18  C8  UNL     1     -12.172 -14.699  -0.045  1.00  0.00     0.290 C 
HETATM   19  C9  UNL     1     -13.632 -14.369   0.270  1.00  0.00     0.045 C 
HETATM   20  C10 UNL     1     -14.239 -15.719   0.471  1.00  0.00     0.033 C 
HETATM   21  C11 UNL     1     -13.134 -16.485   1.120  1.00  0.00     0.273 C 
HETATM   22  N3  UNL     1     -11.900 -15.813   0.841  1.00  0.00     0.096 N 
HETATM   23  C12 UNL     1     -10.904 -16.710   0.300  1.00  0.00     0.310 C 
ENDBRANCH   2  18
TORSDOF 5
ENDMDL
MODEL 5
REMARK VINA RESULT: -5.520323791      2.549      5.107
REMARK  5 active torsions:
REMARK  status: ('A' for Active; 'I' for Inactive)
REMARK    1  A    between atoms: C2_2  and  N1_4 
REMARK    2  A    between atoms: N1_4  and  C4_6 
REMARK    3  A    between atoms: C4_6  and  C6_8 
REMARK    4  A    between atoms: C6_8  and  N2_9 
REMARK    5  A    between atoms: C7_10  and  C8_11 
ROOT
HETATM    1  N2  UNL     1     -10.692 -15.056   0.715  1.00  0.00    -0.305 N 
HETATM    2  C7  UNL     1     -11.978 -15.433   0.581  1.00  0.00     0.122 A 
HETATM    3  N4  UNL     1     -12.071 -16.751   0.687  1.00  0.00    -0.341 N 
ATOM      4  H4  UNL     1     -12.933 -17.292   0.623  1.00  0.00     0.167 HD
HETATM    5  C13 UNL     1     -10.820 -17.267   0.895  1.00  0.00     0.068 A 
HETATM    6  C14 UNL     1     -10.287 -18.520   1.075  1.00  0.00     0.081 A 
HETATM    7  S1  UNL     1      -8.624 -18.196   1.262  1.00  0.00    -0.109 SA
HETATM    8  C15 UNL     1      -8.655 -16.497   1.108  1.00  0.00     0.082 A 
HETATM    9  C16 UNL     1      -9.988 -16.227   0.911  1.00  0.00     0.074 A 
ENDROOT
BRANCH   1  10
HETATM   10  C6  UNL     1     -10.277 -13.729   0.648  1.00  0.00     0.123 C 
BRANCH  10  11
HETATM   11  C4  UNL     1     -10.866 -12.655   1.465  1.00  0.00     0.017 C 
HETATM   12  C5  UNL     1     -11.286 -11.439   0.631  1.00  0.00     0.069 C 
BRANCH  11  13
HETATM   13  N1  UNL     1     -10.268 -12.362   2.700  1.00  0.00    -0.388 N 
ATOM     14  H1  UNL     1     -10.799 -12.539   3.552  1.00  0.00     0.159 HD
BRANCH  13  15
HETATM   15  C2  UNL     1      -8.985 -11.840   2.814  1.00  0.00     0.073 C 
HETATM   16  C1  UNL     1      -8.831 -10.339   2.754  1.00  0.00     0.031 C 
HETATM   17  C3  UNL     1      -8.166 -12.342   3.978  1.00  0.00     0.031 C 
ENDBRANCH  13  15
ENDBRANCH  11  13
ENDBRANCH  10  11
ENDBRANCH   1  10
BRANCH   2  18
HETATM   18  C8  UNL     1     -13.207 -14.599   0.351  1.00  0.00     0.290 C 
HETATM   19  C9  UNL     1     -14.356 -15.370   1.003  1.00  0.00     0.045 C 
HETATM   20  C10 UNL     1     -15.525 -15.007   0.144  1.00  0.00     0.033 C 
HETATM   21  C11 UNL     1     -14.917 -14.907  -1.216  1.00  0.00     0.273 C 
HETATM   22  N3  UNL     1     -13.505 -14.719  -1.062  1.00  0.00     0.096 N 
HETATM   23  C12 UNL     1     -13.024 -13.585  -1.819  1.00  0.00     0.310 C 
ENDBRANCH   2  18
TORSDOF 5
ENDMDL
