MODEL 1
REMARK VINA RESULT: -6.245969706      0.000      0.000
REMARK  5 active torsions:
REMARK  status: ('A' for Active; 'I' for Inactive)
REMARK    1  A    between atoms: C1_2  and  C2_3 
REMARK       I    between atoms: C1_2  and  N3_15 
REMARK    2  A    between atoms: C2_3  and  S1_4 
REMARK    3  A    between atoms: S1_4  and  C3_5 
REMARK    4  A    between atoms: C4_8  and  C5_9 
REMARK    5  A    between atoms: N3_15  and  C8_17 
ROOT
HETATM    1  C2  UNL     1     -11.497 -16.085   1.113  1.00  0.00     0.184 C 
ENDROOT
BRANCH   1   2
HETATM    2  C1  UNL     1     -10.162 -16.492   0.640  1.00  0.00     0.227 C 
HETATM    3  O1  UNL     1      -9.190 -15.732   0.822  1.00  0.00    -0.273 OA
HETATM    4  N3  UNL     1     -10.001 -17.733  -0.012  1.00  0.00    -0.356 N 
ATOM      5  H3  UNL     1     -10.803 -18.347  -0.156  1.00  0.00     0.162 HD
BRANCH   4   6
HETATM    6  C8  UNL     1      -8.686 -18.124  -0.474  1.00  0.00     0.084 C 
HETATM    7  C9  UNL     1      -8.059 -18.984   0.586  1.00  0.00     0.025 C 
HETATM    8  C10 UNL     1      -8.286 -20.438   0.171  1.00  0.00     0.002 C 
HETATM    9  C11 UNL     1      -7.368 -20.689  -1.008  1.00  0.00     0.000 C 
HETATM   10  C12 UNL     1      -7.733 -19.749  -2.132  1.00  0.00     0.002 C 
HETATM   11  C13 UNL     1      -8.877 -18.849  -1.787  1.00  0.00     0.025 C 
ENDBRANCH   4   6
ENDBRANCH   1   2
BRANCH   1  12
HETATM   12  S1  UNL     1     -12.078 -14.702   0.107  1.00  0.00    -0.094 SA
BRANCH  12  13
HETATM   13  C3  UNL     1     -11.182 -13.232   0.673  1.00  0.00     0.130 A 
HETATM   14  N1  UNL     1     -10.691 -12.986   1.872  1.00  0.00    -0.333 N 
HETATM   15  C4  UNL     1     -10.069 -11.854   2.086  1.00  0.00     0.092 A 
ATOM     16  H1  UNL     1     -10.793 -13.669   2.623  1.00  0.00     0.168 HD
HETATM   17  N2  UNL     1      -9.973 -11.009   1.060  1.00  0.00    -0.314 N 
HETATM   18  S2  UNL     1     -10.758 -11.822  -0.187  1.00  0.00     0.012 SA
ATOM     19  H2  UNL     1      -9.530 -10.089   1.036  1.00  0.00     0.175 HD
BRANCH  15  20
HETATM   20  C5  UNL     1      -9.496 -11.541   3.442  1.00  0.00     0.054 A 
HETATM   21  C6  UNL     1      -8.211 -10.808   3.533  1.00  0.00     0.013 A 
HETATM   22  C7  UNL     1      -8.189 -12.258   3.737  1.00  0.00     0.013 A 
ENDBRANCH  15  20
ENDBRANCH  12  13
ENDBRANCH   1  12
TORSDOF 5
ENDMDL
MODEL 2
REMARK VINA RESULT: -6.161518106      1.761      7.354
REMARK  5 active torsions:
REMARK  status: ('A' for Active; 'I' for Inactive)
REMARK    1  A    between atoms: C1_2  and  C2_3 
REMARK       I    between atoms: C1_2  and  N3_15 
REMARK    2  A    between atoms: C2_3  and  S1_4 
REMARK    3  A    between atoms: S1_4  and  C3_5 
REMARK    4  A    between atoms: C4_8  and  C5_9 
REMARK    5  A    between atoms: N3_15  and  C8_17 
ROOT
HETATM    1  C2  UNL     1     -11.896 -14.203  -0.343  1.00  0.00     0.184 C 
ENDROOT
BRANCH   1   2
HETATM    2  C1  UNL     1     -11.620 -12.925   0.338  1.00  0.00     0.227 C 
HETATM    3  O1  UNL     1     -12.233 -11.898  -0.017  1.00  0.00    -0.273 OA
HETATM    4  N3  UNL     1     -10.669 -12.880   1.378  1.00  0.00    -0.356 N 
ATOM      5  H3  UNL     1     -10.174 -13.727   1.661  1.00  0.00     0.162 HD
BRANCH   4   6
HETATM    6  C8  UNL     1     -10.403 -11.621   2.041  1.00  0.00     0.084 C 
HETATM    7  C9  UNL     1     -10.039 -11.914   3.468  1.00  0.00     0.025 C 
HETATM    8  C10 UNL     1      -8.513 -11.912   3.548  1.00  0.00     0.002 C 
HETATM    9  C11 UNL     1      -8.087 -10.464   3.416  1.00  0.00     0.000 C 
HETATM   10  C12 UNL     1      -8.554  -9.926   2.085  1.00  0.00     0.002 C 
HETATM   11  C13 UNL     1      -9.290 -10.944   1.274  1.00  0.00     0.025 C 
ENDBRANCH   4   6
ENDBRANCH   1   2
BRANCH   1  12
HETATM   12  S1  UNL     1     -11.848 -15.537   0.873  1.00  0.00    -0.094 SA
BRANCH  12  13
HETATM   13  C3  UNL     1     -10.391 -16.544   0.487  1.00  0.00     0.130 A 
HETATM   14  N1  UNL     1     -10.323 -17.631  -0.255  1.00  0.00    -0.333 N 
HETATM   15  C4  UNL     1      -9.167 -18.222  -0.417  1.00  0.00     0.092 A 
ATOM     16  H1  UNL     1     -11.162 -18.008  -0.699  1.00  0.00     0.168 HD
HETATM   17  N2  UNL     1      -8.114 -17.676   0.192  1.00  0.00    -0.314 N 
HETATM   18  S2  UNL     1      -8.771 -16.342   0.979  1.00  0.00     0.012 SA
ATOM     19  H2  UNL     1      -7.143 -17.991   0.182  1.00  0.00     0.175 HD
BRANCH  15  20
HETATM   20  C5  UNL     1      -9.053 -19.465  -1.257  1.00  0.00     0.054 A 
HETATM   21  C6  UNL     1      -7.738 -19.833  -1.834  1.00  0.00     0.013 A 
HETATM   22  C7  UNL     1      -8.717 -19.193  -2.715  1.00  0.00     0.013 A 
ENDBRANCH  15  20
ENDBRANCH  12  13
ENDBRANCH   1  12
TORSDOF 5
ENDMDL
MODEL 3
REMARK VINA RESULT: -6.098585552      1.688      2.286
REMARK  5 active torsions:
REMARK  status: ('A' for Active; 'I' for Inactive)
REMARK    1  A    between atoms: C1_2  and  C2_3 
REMARK       I    between atoms: C1_2  and  N3_15 
REMARK    2  A    between atoms: C2_3  and  S1_4 
REMARK    3  A    between atoms: S1_4  and  C3_5 
REMARK    4  A    between atoms: C4_8  and  C5_9 
REMARK    5  A    between atoms: N3_15  and  C8_17 
ROOT
HETATM    1  C2  UNL     1     -12.738 -14.448   0.776  1.00  0.00     0.184 C 
ENDROOT
BRANCH   1   2
HETATM    2  C1  UNL     1     -12.328 -15.852   0.588  1.00  0.00     0.227 C 
HETATM    3  O1  UNL     1     -13.089 -16.636  -0.014  1.00  0.00    -0.273 OA
HETATM    4  N3  UNL     1     -11.084 -16.288   1.090  1.00  0.00    -0.356 N 
ATOM      5  H3  UNL     1     -10.470 -15.638   1.581  1.00  0.00     0.162 HD
BRANCH   4   6
HETATM    6  C8  UNL     1     -10.690 -17.668   0.901  1.00  0.00     0.084 C 
HETATM    7  C9  UNL     1      -9.801 -17.736  -0.308  1.00  0.00     0.025 C 
HETATM    8  C10 UNL     1      -8.360 -17.728   0.199  1.00  0.00     0.002 C 
HETATM    9  C11 UNL     1      -8.125 -19.087   0.826  1.00  0.00     0.000 C 
HETATM   10  C12 UNL     1      -9.093 -19.282   1.969  1.00  0.00     0.002 C 
HETATM   11  C13 UNL     1      -9.996 -18.107   2.170  1.00  0.00     0.025 C 
ENDBRANCH   4   6
ENDBRANCH   1   2
BRANCH   1  12
HETATM   12  S1  UNL     1     -12.009 -13.443  -0.535  1.00  0.00    -0.094 SA
BRANCH  12  13
HETATM   13  C3  UNL     1     -10.908 -12.251   0.272  1.00  0.00     0.130 A 
HETATM   14  N1  UNL     1     -10.575 -12.179   1.545  1.00  0.00    -0.333 N 
HETATM   15  C4  UNL     1      -9.757 -11.236   1.938  1.00  0.00     0.092 A 
ATOM     16  H1  UNL     1     -10.950 -12.849   2.217  1.00  0.00     0.168 HD
HETATM   17  N2  UNL     1      -9.306 -10.394   1.007  1.00  0.00    -0.314 N 
HETATM   18  S2  UNL     1     -10.042 -10.946  -0.402  1.00  0.00     0.012 SA
ATOM     19  H2  UNL     1      -8.669  -9.605   1.122  1.00  0.00     0.175 HD
BRANCH  15  20
HETATM   20  C5  UNL     1      -9.356 -11.123   3.384  1.00  0.00     0.054 A 
HETATM   21  C6  UNL     1      -8.000 -10.632   3.724  1.00  0.00     0.013 A 
HETATM   22  C7  UNL     1      -8.242 -12.074   3.789  1.00  0.00     0.013 A 
ENDBRANCH  15  20
ENDBRANCH  12  13
ENDBRANCH   1  12
TORSDOF 5
ENDMDL
MODEL 4
REMARK VINA RESULT: -6.084371318      2.524      6.856
REMARK  5 active torsions:
REMARK  status: ('A' for Active; 'I' for Inactive)
REMARK    1  A    between atoms: C1_2  and  C2_3 
REMARK       I    between atoms: C1_2  and  N3_15 
REMARK    2  A    between atoms: C2_3  and  S1_4 
REMARK    3  A    between atoms: S1_4  and  C3_5 
REMARK    4  A    between atoms: C4_8  and  C5_9 
REMARK    5  A    between atoms: N3_15  and  C8_17 
ROOT
HETATM    1  C2  UNL     1     -10.640 -11.780  -0.952  1.00  0.00     0.184 C 
ENDROOT
BRANCH   1   2
HETATM    2  C1  UNL     1     -10.172 -10.995   0.205  1.00  0.00     0.227 C 
HETATM    3  O1  UNL     1      -9.891  -9.789   0.053  1.00  0.00    -0.273 OA
HETATM    4  N3  UNL     1     -10.047 -11.617   1.465  1.00  0.00    -0.356 N 
ATOM      5  H3  UNL     1     -10.280 -12.604   1.578  1.00  0.00     0.162 HD
BRANCH   4   6
HETATM    6  C8  UNL     1      -9.586 -10.839   2.595  1.00  0.00     0.084 C 
HETATM    7  C9  UNL     1      -9.512 -11.750   3.787  1.00  0.00     0.025 C 
HETATM    8  C10 UNL     1      -8.058 -12.201   3.912  1.00  0.00     0.002 C 
HETATM    9  C11 UNL     1      -7.283 -10.994   4.402  1.00  0.00     0.000 C 
HETATM   10  C12 UNL     1      -7.411  -9.877   3.395  1.00  0.00     0.002 C 
HETATM   11  C13 UNL     1      -8.245 -10.256   2.212  1.00  0.00     0.025 C 
ENDBRANCH   4   6
ENDBRANCH   1   2
BRANCH   1  12
HETATM   12  S1  UNL     1     -12.385 -12.182  -0.720  1.00  0.00    -0.094 SA
BRANCH  12  13
HETATM   13  C3  UNL     1     -12.450 -13.880  -0.087  1.00  0.00     0.130 A 
HETATM   14  N1  UNL     1     -11.448 -14.649   0.290  1.00  0.00    -0.333 N 
HETATM   15  C4  UNL     1     -11.701 -15.858   0.723  1.00  0.00     0.092 A 
ATOM     16  H1  UNL     1     -10.488 -14.307   0.245  1.00  0.00     0.168 HD
HETATM   17  N2  UNL     1     -12.978 -16.239   0.754  1.00  0.00    -0.314 N 
HETATM   18  S2  UNL     1     -13.798 -14.889   0.174  1.00  0.00     0.012 SA
ATOM     19  H2  UNL     1     -13.365 -17.134   1.056  1.00  0.00     0.175 HD
BRANCH  15  20
HETATM   20  C5  UNL     1     -10.581 -16.764   1.161  1.00  0.00     0.054 A 
HETATM   21  C6  UNL     1      -9.205 -16.502   0.677  1.00  0.00     0.013 A 
HETATM   22  C7  UNL     1      -9.966 -17.572   0.030  1.00  0.00     0.013 A 
ENDBRANCH  15  20
ENDBRANCH  12  13
ENDBRANCH   1  12
TORSDOF 5
ENDMDL
MODEL 5
REMARK VINA RESULT: -6.077001026      5.422      8.767
REMARK  5 active torsions:
REMARK  status: ('A' for Active; 'I' for Inactive)
REMARK    1  A    between atoms: C1_2  and  C2_3 
REMARK       I    between atoms: C1_2  and  N3_15 
REMARK    2  A    between atoms: C2_3  and  S1_4 
REMARK    3  A    between atoms: S1_4  and  C3_5 
REMARK    4  A    between atoms: C4_8  and  C5_9 
REMARK    5  A    between atoms: N3_15  and  C8_17 
ROOT
HETATM    1  C2  UNL     1     -13.678 -11.710  -1.474  1.00  0.00     0.184 C 
ENDROOT
BRANCH   1   2
HETATM    2  C1  UNL     1     -14.289 -10.834  -2.490  1.00  0.00     0.227 C 
HETATM    3  O1  UNL     1     -15.149 -11.301  -3.263  1.00  0.00    -0.273 OA
HETATM    4  N3  UNL     1     -13.894  -9.482  -2.574  1.00  0.00    -0.356 N 
ATOM      5  H3  UNL     1     -13.190  -9.110  -1.936  1.00  0.00     0.162 HD
BRANCH   4   6
HETATM    6  C8  UNL     1     -14.498  -8.630  -3.576  1.00  0.00     0.084 C 
HETATM    7  C9  UNL     1     -14.836  -7.318  -2.927  1.00  0.00     0.025 C 
HETATM    8  C10 UNL     1     -13.696  -6.354  -3.254  1.00  0.00     0.002 C 
HETATM    9  C11 UNL     1     -13.841  -6.013  -4.723  1.00  0.00     0.000 C 
HETATM   10  C12 UNL     1     -13.724  -7.276  -5.542  1.00  0.00     0.002 C 
HETATM   11  C13 UNL     1     -13.498  -8.492  -4.701  1.00  0.00     0.025 C 
ENDBRANCH   4   6
ENDBRANCH   1   2
BRANCH   1  12
HETATM   12  S1  UNL     1     -11.883 -11.672  -1.670  1.00  0.00    -0.094 SA
BRANCH  12  13
HETATM   13  C3  UNL     1     -11.172 -12.075  -0.053  1.00  0.00     0.130 A 
HETATM   14  N1  UNL     1     -10.641 -11.256   0.834  1.00  0.00    -0.333 N 
HETATM   15  C4  UNL     1     -10.176 -11.744   1.955  1.00  0.00     0.092 A 
ATOM     16  H1  UNL     1     -10.594 -10.254   0.648  1.00  0.00     0.168 HD
HETATM   17  N2  UNL     1     -10.271 -13.063   2.131  1.00  0.00    -0.314 N 
HETATM   18  S2  UNL     1     -11.012 -13.589   0.715  1.00  0.00     0.012 SA
ATOM     19  H2  UNL     1      -9.967 -13.618   2.931  1.00  0.00     0.175 HD
BRANCH  15  20
HETATM   20  C5  UNL     1      -9.564 -10.838   2.989  1.00  0.00     0.054 A 
HETATM   21  C6  UNL     1      -8.313 -10.112   2.666  1.00  0.00     0.013 A 
HETATM   22  C7  UNL     1      -8.213 -11.312   3.498  1.00  0.00     0.013 A 
ENDBRANCH  15  20
ENDBRANCH  12  13
ENDBRANCH   1  12
TORSDOF 5
ENDMDL
