MODEL 1
REMARK VINA RESULT: -4.088902657      0.000      0.000
REMARK  2 active torsions:
REMARK  status: ('A' for Active; 'I' for Inactive)
REMARK    1  A    between atoms: C2_2  and  C3_3 
REMARK    2  A    between atoms: C4_4  and  N1_5 
ROOT
HETATM    1  C3  UNL     1       3.328  24.393  75.163  1.00  0.00     0.148 C 
HETATM    2  C4  UNL     1       3.910  23.020  74.793  1.00  0.00     0.323 C 
HETATM    3  N2  UNL     1       2.740  22.571  75.574  1.00  0.00    -0.090 NA
HETATM    4  O1  UNL     1       1.670  22.649  74.799  1.00  0.00    -0.281 OA
HETATM    5  C5  UNL     1       0.487  22.920  75.422  1.00  0.00     0.145 C 
HETATM    6  C6  UNL     1      -0.112  21.665  76.002  1.00  0.00     0.041 C 
HETATM    7  C7  UNL     1       0.553  24.053  76.413  1.00  0.00     0.059 C 
HETATM    8  C8  UNL     1       1.869  24.149  77.111  1.00  0.00     0.026 C 
HETATM    9  C9  UNL     1       2.115  25.614  77.506  1.00  0.00     0.033 C 
HETATM   10  C10 UNL     1       1.853  23.392  78.439  1.00  0.00     0.033 C 
HETATM   11  N3  UNL     1       2.973  23.700  76.359  1.00  0.00    -0.204 NA
ENDROOT
BRANCH   2  12
HETATM   12  N1  UNL     1       5.141  22.784  75.492  1.00  0.00    -0.057 N 
ATOM     13  H13 UNL     1       5.660  22.003  75.091  1.00  0.00     0.276 HD
ATOM     14  H12 UNL     1       5.821  23.525  75.319  1.00  0.00     0.276 HD
ATOM     15  H11 UNL     1       4.971  22.653  76.489  1.00  0.00     0.276 HD
ENDBRANCH   2  12
BRANCH   1  16
HETATM   16  C2  UNL     1       4.349  25.457  75.284  1.00  0.00    -0.013 C 
HETATM   17  C1  UNL     1       4.177  26.564  74.588  1.00  0.00     0.008 C 
ENDBRANCH   1  16
TORSDOF 2
ENDMDL
MODEL 2
REMARK VINA RESULT: -4.057332848      1.996      3.417
REMARK  2 active torsions:
REMARK  status: ('A' for Active; 'I' for Inactive)
REMARK    1  A    between atoms: C2_2  and  C3_3 
REMARK    2  A    between atoms: C4_4  and  N1_5 
ROOT
HETATM    1  C3  UNL     1       3.866  24.024  76.290  1.00  0.00     0.148 C 
HETATM    2  C4  UNL     1       4.323  25.488  76.212  1.00  0.00     0.323 C 
HETATM    3  N2  UNL     1       3.195  25.648  77.153  1.00  0.00    -0.090 NA
HETATM    4  O1  UNL     1       3.605  25.282  78.357  1.00  0.00    -0.281 OA
HETATM    5  C5  UNL     1       2.662  24.738  79.180  1.00  0.00     0.145 C 
HETATM    6  C6  UNL     1       1.859  25.816  79.859  1.00  0.00     0.041 C 
HETATM    7  C7  UNL     1       1.804  23.686  78.529  1.00  0.00     0.059 C 
HETATM    8  C8  UNL     1       1.552  23.943  77.080  1.00  0.00     0.026 C 
HETATM    9  C9  UNL     1       1.332  22.599  76.369  1.00  0.00     0.033 C 
HETATM   10  C10 UNL     1       0.245  24.708  76.868  1.00  0.00     0.033 C 
HETATM   11  N3  UNL     1       2.582  24.636  76.414  1.00  0.00    -0.204 NA
ENDROOT
BRANCH   2  12
HETATM   12  N1  UNL     1       4.026  26.045  74.923  1.00  0.00    -0.057 N 
ATOM     13  H13 UNL     1       4.868  26.373  74.451  1.00  0.00     0.276 HD
ATOM     14  H12 UNL     1       3.746  25.326  74.257  1.00  0.00     0.276 HD
ATOM     15  H11 UNL     1       3.324  26.782  75.001  1.00  0.00     0.276 HD
ENDBRANCH   2  12
BRANCH   1  16
HETATM   16  C2  UNL     1       4.124  23.255  75.053  1.00  0.00    -0.013 C 
HETATM   17  C1  UNL     1       5.223  22.528  74.990  1.00  0.00     0.008 C 
ENDBRANCH   1  16
TORSDOF 2
ENDMDL
MODEL 3
REMARK VINA RESULT: -3.922172187      1.784      3.797
REMARK  2 active torsions:
REMARK  status: ('A' for Active; 'I' for Inactive)
REMARK    1  A    between atoms: C2_2  and  C3_3 
REMARK    2  A    between atoms: C4_4  and  N1_5 
ROOT
HETATM    1  C3  UNL     1       1.286  24.742  77.152  1.00  0.00     0.148 C 
HETATM    2  C4  UNL     1       2.331  24.748  78.278  1.00  0.00     0.323 C 
HETATM    3  N2  UNL     1       2.972  23.770  77.374  1.00  0.00    -0.090 NA
HETATM    4  O1  UNL     1       3.584  24.437  76.409  1.00  0.00    -0.281 OA
HETATM    5  C5  UNL     1       3.658  23.818  75.195  1.00  0.00     0.145 C 
HETATM    6  C6  UNL     1       4.812  22.849  75.160  1.00  0.00     0.041 C 
HETATM    7  C7  UNL     1       2.363  23.208  74.730  1.00  0.00     0.059 C 
HETATM    8  C8  UNL     1       1.521  22.686  75.847  1.00  0.00     0.026 C 
HETATM    9  C9  UNL     1       0.044  22.756  75.429  1.00  0.00     0.033 C 
HETATM   10  C10 UNL     1       1.781  21.200  76.093  1.00  0.00     0.033 C 
HETATM   11  N3  UNL     1       1.670  23.370  77.070  1.00  0.00    -0.204 NA
ENDROOT
BRANCH   2  12
HETATM   12  N1  UNL     1       1.810  24.121  79.459  1.00  0.00    -0.057 N 
ATOM     13  H13 UNL     1       1.832  24.751  80.261  1.00  0.00     0.276 HD
ATOM     14  H12 UNL     1       0.802  23.984  79.399  1.00  0.00     0.276 HD
ATOM     15  H11 UNL     1       2.300  23.247  79.651  1.00  0.00     0.276 HD
ENDBRANCH   2  12
BRANCH   1  16
HETATM   16  C2  UNL     1      -0.089  25.025  77.618  1.00  0.00    -0.013 C 
HETATM   17  C1  UNL     1      -0.657  26.150  77.230  1.00  0.00     0.008 C 
ENDBRANCH   1  16
TORSDOF 2
ENDMDL
MODEL 4
REMARK VINA RESULT: -3.837775826      2.193      3.596
REMARK  2 active torsions:
REMARK  status: ('A' for Active; 'I' for Inactive)
REMARK    1  A    between atoms: C2_2  and  C3_3 
REMARK    2  A    between atoms: C4_4  and  N1_5 
ROOT
HETATM    1  C3  UNL     1       1.523  23.549  77.321  1.00  0.00     0.148 C 
HETATM    2  C4  UNL     1       0.175  24.269  77.174  1.00  0.00     0.323 C 
HETATM    3  N2  UNL     1       0.030  23.284  76.082  1.00  0.00    -0.090 NA
HETATM    4  O1  UNL     1      -0.319  22.124  76.615  1.00  0.00    -0.281 OA
HETATM    5  C5  UNL     1       0.111  21.003  75.967  1.00  0.00     0.145 C 
HETATM    6  C6  UNL     1      -0.801  20.669  74.816  1.00  0.00     0.041 C 
HETATM    7  C7  UNL     1       1.565  21.033  75.576  1.00  0.00     0.059 C 
HETATM    8  C8  UNL     1       2.055  22.399  75.229  1.00  0.00     0.026 C 
HETATM    9  C9  UNL     1       3.557  22.481  75.539  1.00  0.00     0.033 C 
HETATM   10  C10 UNL     1       1.959  22.661  73.725  1.00  0.00     0.033 C 
HETATM   11  N3  UNL     1       1.404  23.451  75.903  1.00  0.00    -0.204 NA
ENDROOT
BRANCH   2  12
HETATM   12  N1  UNL     1       0.361  25.600  76.670  1.00  0.00    -0.057 N 
ATOM     13  H13 UNL     1       1.317  25.927  76.811  1.00  0.00     0.276 HD
ATOM     14  H12 UNL     1       0.340  25.624  75.651  1.00  0.00     0.276 HD
ATOM     15  H11 UNL     1      -0.321  26.240  77.078  1.00  0.00     0.276 HD
ENDBRANCH   2  12
BRANCH   1  16
HETATM   16  C2  UNL     1       2.604  24.414  77.844  1.00  0.00    -0.013 C 
HETATM   17  C1  UNL     1       2.716  24.546  79.151  1.00  0.00     0.008 C 
ENDBRANCH   1  16
TORSDOF 2
ENDMDL
MODEL 5
REMARK VINA RESULT: -3.810565142      3.298      5.808
REMARK  2 active torsions:
REMARK  status: ('A' for Active; 'I' for Inactive)
REMARK    1  A    between atoms: C2_2  and  C3_3 
REMARK    2  A    between atoms: C4_4  and  N1_5 
ROOT
HETATM    1  C3  UNL     1       4.849  24.985  75.015  1.00  0.00     0.148 C 
HETATM    2  C4  UNL     1       4.589  26.407  75.532  1.00  0.00     0.323 C 
HETATM    3  N2  UNL     1       5.985  26.578  75.082  1.00  0.00    -0.090 NA
HETATM    4  O1  UNL     1       5.980  26.742  73.769  1.00  0.00    -0.281 OA
HETATM    5  C5  UNL     1       7.072  26.279  73.094  1.00  0.00     0.145 C 
HETATM    6  C6  UNL     1       8.195  27.282  73.144  1.00  0.00     0.041 C 
HETATM    7  C7  UNL     1       7.503  24.892  73.490  1.00  0.00     0.059 C 
HETATM    8  C8  UNL     1       7.261  24.588  74.931  1.00  0.00     0.026 C 
HETATM    9  C9  UNL     1       7.041  23.075  75.088  1.00  0.00     0.033 C 
HETATM   10  C10 UNL     1       8.498  24.885  75.778  1.00  0.00     0.033 C 
HETATM   11  N3  UNL     1       6.162  25.259  75.502  1.00  0.00    -0.204 NA
ENDROOT
BRANCH   2  12
HETATM   12  N1  UNL     1       4.484  26.417  76.963  1.00  0.00    -0.057 N 
ATOM     13  H13 UNL     1       4.200  27.332  77.315  1.00  0.00     0.276 HD
ATOM     14  H12 UNL     1       3.685  25.873  77.287  1.00  0.00     0.276 HD
ATOM     15  H11 UNL     1       5.355  26.102  77.392  1.00  0.00     0.276 HD
ENDBRANCH   2  12
BRANCH   1  16
HETATM   16  C2  UNL     1       4.075  23.944  75.728  1.00  0.00    -0.013 C 
HETATM   17  C1  UNL     1       3.118  23.321  75.069  1.00  0.00     0.008 C 
ENDBRANCH   1  16
TORSDOF 2
ENDMDL
