MODEL 1
REMARK VINA RESULT: -6.652287770      0.000      0.000
REMARK  2 active torsions:
REMARK  status: ('A' for Active; 'I' for Inactive)
REMARK    1  A    between atoms: N1_5  and  C5_6 
REMARK    2  A    between atoms: C5_6  and  C6_10 
ROOT
HETATM    1  C5  UNL     1     -21.112 -23.689 -12.495  1.00  0.00     0.169 C 
HETATM    2  N2  UNL     1     -20.285 -22.854 -11.981  1.00  0.00    -0.205 N 
ATOM      3  H2  UNL     1     -19.346 -23.163 -11.727  1.00  0.00     0.201 HD
HETATM    4  F1  UNL     1     -20.644 -21.584 -11.776  1.00  0.00    -0.100 F 
ENDROOT
BRANCH   1   5
HETATM    5  N1  UNL     1     -20.733 -25.060 -12.720  1.00  0.00    -0.363 N 
HETATM    6  C4  UNL     1     -19.521 -25.526 -12.096  1.00  0.00     0.125 C 
HETATM    7  C3  UNL     1     -18.755 -26.498 -12.967  1.00  0.00     0.024 C 
HETATM    8  C2  UNL     1     -19.756 -27.594 -13.358  1.00  0.00    -0.015 C 
HETATM    9  C1  UNL     1     -19.066 -28.792 -13.946  1.00  0.00     0.010 C 
HETATM   10  C8  UNL     1     -20.722 -26.938 -14.311  1.00  0.00     0.024 C 
HETATM   11  C7  UNL     1     -21.541 -25.923 -13.541  1.00  0.00     0.125 C 
ENDBRANCH   1   5
BRANCH   1  12
HETATM   12  C6  UNL     1     -22.444 -23.219 -12.846  1.00  0.00     0.156 C 
HETATM   13  N3  UNL     1     -23.397 -23.385 -11.992  1.00  0.00    -0.385 N 
ATOM     14  H32 UNL     1     -23.153 -23.841 -11.113  1.00  0.00     0.157 HD
ATOM     15  H31 UNL     1     -24.330 -23.056 -12.238  1.00  0.00     0.157 HD
HETATM   16  N4  UNL     1     -22.782 -22.587 -14.064  1.00  0.00    -0.079 NA
ENDBRANCH   1  12
TORSDOF 2
ENDMDL
MODEL 2
REMARK VINA RESULT: -5.947225220      1.191      1.868
REMARK  2 active torsions:
REMARK  status: ('A' for Active; 'I' for Inactive)
REMARK    1  A    between atoms: N1_5  and  C5_6 
REMARK    2  A    between atoms: C5_6  and  C6_10 
ROOT
HETATM    1  C5  UNL     1     -21.978 -23.780 -12.742  1.00  0.00     0.169 C 
HETATM    2  N2  UNL     1     -23.207 -23.715 -12.381  1.00  0.00    -0.205 N 
ATOM      3  H2  UNL     1     -23.717 -24.571 -12.165  1.00  0.00     0.201 HD
HETATM    4  F1  UNL     1     -23.823 -22.534 -12.287  1.00  0.00    -0.100 F 
ENDROOT
BRANCH   1   5
HETATM    5  N1  UNL     1     -21.306 -25.050 -12.845  1.00  0.00    -0.363 N 
HETATM    6  C4  UNL     1     -20.126 -25.246 -12.041  1.00  0.00     0.125 C 
HETATM    7  C3  UNL     1     -19.067 -26.062 -12.752  1.00  0.00     0.024 C 
HETATM    8  C2  UNL     1     -19.767 -27.346 -13.217  1.00  0.00    -0.015 C 
HETATM    9  C1  UNL     1     -18.776 -28.392 -13.646  1.00  0.00     0.010 C 
HETATM   10  C8  UNL     1     -20.699 -26.922 -14.322  1.00  0.00     0.024 C 
HETATM   11  C7  UNL     1     -21.802 -26.078 -13.721  1.00  0.00     0.125 C 
ENDBRANCH   1   5
BRANCH   1  12
HETATM   12  C6  UNL     1     -21.277 -22.542 -13.045  1.00  0.00     0.156 C 
HETATM   13  N3  UNL     1     -21.492 -21.979 -14.187  1.00  0.00    -0.385 N 
ATOM     14  H32 UNL     1     -22.150 -22.445 -14.812  1.00  0.00     0.157 HD
ATOM     15  H31 UNL     1     -21.000 -21.111 -14.399  1.00  0.00     0.157 HD
HETATM   16  N4  UNL     1     -20.366 -21.897 -12.179  1.00  0.00    -0.079 NA
ENDBRANCH   1  12
TORSDOF 2
ENDMDL
MODEL 3
REMARK VINA RESULT: -5.396431332      3.173      5.367
REMARK  2 active torsions:
REMARK  status: ('A' for Active; 'I' for Inactive)
REMARK    1  A    between atoms: N1_5  and  C5_6 
REMARK    2  A    between atoms: C5_6  and  C6_10 
ROOT
HETATM    1  C5  UNL     1     -19.304 -27.275 -13.254  1.00  0.00     0.169 C 
HETATM    2  N2  UNL     1     -19.671 -28.459 -13.584  1.00  0.00    -0.205 N 
ATOM      3  H2  UNL     1     -20.661 -28.705 -13.569  1.00  0.00     0.201 HD
HETATM    4  F1  UNL     1     -18.766 -29.372 -13.945  1.00  0.00    -0.100 F 
ENDROOT
BRANCH   1   5
HETATM    5  N1  UNL     1     -20.274 -26.284 -12.864  1.00  0.00    -0.363 N 
HETATM    6  C4  UNL     1     -21.616 -26.433 -13.368  1.00  0.00     0.125 C 
HETATM    7  C3  UNL     1     -22.266 -25.104 -13.691  1.00  0.00     0.024 C 
HETATM    8  C2  UNL     1     -22.130 -24.249 -12.424  1.00  0.00    -0.015 C 
HETATM    9  C1  UNL     1     -23.009 -23.031 -12.480  1.00  0.00     0.010 C 
HETATM   10  C8  UNL     1     -20.664 -23.917 -12.315  1.00  0.00     0.024 C 
HETATM   11  C7  UNL     1     -19.906 -25.190 -12.004  1.00  0.00     0.125 C 
ENDBRANCH   1   5
BRANCH   1  12
HETATM   12  C6  UNL     1     -17.886 -26.955 -13.283  1.00  0.00     0.156 C 
HETATM   13  N3  UNL     1     -17.393 -26.449 -14.363  1.00  0.00    -0.385 N 
ATOM     14  H32 UNL     1     -18.039 -26.303 -15.139  1.00  0.00     0.157 HD
ATOM     15  H31 UNL     1     -16.398 -26.224 -14.383  1.00  0.00     0.157 HD
HETATM   16  N4  UNL     1     -16.991 -27.157 -12.208  1.00  0.00    -0.079 NA
ENDBRANCH   1  12
TORSDOF 2
ENDMDL
MODEL 4
REMARK VINA RESULT: -5.344445267      3.503      5.489
REMARK  2 active torsions:
REMARK  status: ('A' for Active; 'I' for Inactive)
REMARK    1  A    between atoms: N1_5  and  C5_6 
REMARK    2  A    between atoms: C5_6  and  C6_10 
ROOT
HETATM    1  C5  UNL     1     -18.897 -27.838 -13.476  1.00  0.00     0.169 C 
HETATM    2  N2  UNL     1     -19.357 -29.032 -13.562  1.00  0.00    -0.205 N 
ATOM      3  H2  UNL     1     -20.365 -29.187 -13.579  1.00  0.00     0.201 HD
HETATM    4  F1  UNL     1     -18.525 -30.075 -13.630  1.00  0.00    -0.100 F 
ENDROOT
BRANCH   1   5
HETATM    5  N1  UNL     1     -19.788 -26.708 -13.403  1.00  0.00    -0.363 N 
HETATM    6  C4  UNL     1     -19.420 -25.626 -12.525  1.00  0.00     0.125 C 
HETATM    7  C3  UNL     1     -20.617 -25.002 -11.839  1.00  0.00     0.024 C 
HETATM    8  C2  UNL     1     -21.600 -24.635 -12.958  1.00  0.00    -0.015 C 
HETATM    9  C1  UNL     1     -22.683 -23.717 -12.465  1.00  0.00     0.010 C 
HETATM   10  C8  UNL     1     -22.127 -25.947 -13.480  1.00  0.00     0.024 C 
HETATM   11  C7  UNL     1     -20.998 -26.672 -14.182  1.00  0.00     0.125 C 
ENDBRANCH   1   5
BRANCH   1  12
HETATM   12  C6  UNL     1     -17.455 -27.650 -13.453  1.00  0.00     0.156 C 
HETATM   13  N3  UNL     1     -16.853 -27.385 -14.563  1.00  0.00    -0.385 N 
ATOM     14  H32 UNL     1     -17.436 -27.323 -15.398  1.00  0.00     0.157 HD
ATOM     15  H31 UNL     1     -15.842 -27.253 -14.547  1.00  0.00     0.157 HD
HETATM   16  N4  UNL     1     -16.649 -27.736 -12.296  1.00  0.00    -0.079 NA
ENDBRANCH   1  12
TORSDOF 2
ENDMDL
MODEL 5
REMARK VINA RESULT: -5.237893097      2.804      4.970
REMARK  2 active torsions:
REMARK  status: ('A' for Active; 'I' for Inactive)
REMARK    1  A    between atoms: N1_5  and  C5_6 
REMARK    2  A    between atoms: C5_6  and  C6_10 
ROOT
HETATM    1  C5  UNL     1     -19.152 -26.765 -12.983  1.00  0.00     0.169 C 
HETATM    2  N2  UNL     1     -18.083 -26.735 -12.274  1.00  0.00    -0.205 N 
ATOM      3  H2  UNL     1     -18.005 -26.072 -11.503  1.00  0.00     0.201 HD
HETATM    4  F1  UNL     1     -17.072 -27.566 -12.539  1.00  0.00    -0.100 F 
ENDROOT
BRANCH   1   5
HETATM    5  N1  UNL     1     -20.247 -25.873 -12.702  1.00  0.00    -0.363 N 
HETATM    6  C4  UNL     1     -21.555 -26.257 -13.170  1.00  0.00     0.125 C 
HETATM    7  C3  UNL     1     -22.375 -25.075 -13.642  1.00  0.00     0.024 C 
HETATM    8  C2  UNL     1     -22.360 -24.065 -12.487  1.00  0.00    -0.015 C 
HETATM    9  C1  UNL     1     -23.394 -22.991 -12.677  1.00  0.00     0.010 C 
HETATM   10  C8  UNL     1     -20.952 -23.531 -12.434  1.00  0.00     0.024 C 
HETATM   11  C7  UNL     1     -20.033 -24.645 -11.982  1.00  0.00     0.125 C 
ENDBRANCH   1   5
BRANCH   1  12
HETATM   12  C6  UNL     1     -19.233 -27.721 -14.076  1.00  0.00     0.156 C 
HETATM   13  N3  UNL     1     -19.483 -28.955 -13.795  1.00  0.00    -0.385 N 
ATOM     14  H32 UNL     1     -19.611 -29.185 -12.810  1.00  0.00     0.157 HD
ATOM     15  H31 UNL     1     -19.540 -29.624 -14.563  1.00  0.00     0.157 HD
HETATM   16  N4  UNL     1     -19.056 -27.401 -15.442  1.00  0.00    -0.079 NA
ENDBRANCH   1  12
TORSDOF 2
ENDMDL
