MODEL 1
REMARK VINA RESULT: -8.359230538      0.000      0.000
REMARK  15 active torsions:
REMARK  status: ('A' for Active; 'I' for Inactive)
REMARK    1  A    between atoms: C2_2  and  C3_3 
REMARK    2  A    between atoms: C3_3  and  C4_4 
REMARK    3  A    between atoms: C7_9  and  O3_10 
REMARK    4  A    between atoms: C10_14  and  O4_15 
REMARK    5  A    between atoms: O4_15  and  C11_16 
REMARK    6  A    between atoms: C11_16  and  C12_17 
REMARK    7  A    between atoms: C13_18  and  C14_19 
REMARK    8  A    between atoms: C14_19  and  C15_20 
REMARK    9  A    between atoms: C15_20  and  C16_21 
REMARK   10  A    between atoms: C16_21  and  C17_22 
REMARK   11  A    between atoms: C17_22  and  C18_23 
REMARK   12  A    between atoms: C19_24  and  C20_25 
REMARK   13  A    between atoms: C20_25  and  O5_26 
REMARK   14  A    between atoms: C22_28  and  O6_29 
REMARK   15  A    between atoms: C34_43  and  O8_44 
ROOT
HETATM    1  C4  UNL     1       5.984 -19.169 -14.807  1.00  0.00     0.161 C 
HETATM    2  O1  UNL     1       6.080 -17.853 -14.315  1.00  0.00    -0.313 OA
HETATM    3  C5  UNL     1       5.620 -16.679 -14.776  1.00  0.00     0.261 C 
HETATM    4  O2  UNL     1       6.487 -15.767 -15.001  1.00  0.00    -0.265 OA
HETATM    5  C6  UNL     1       4.212 -16.292 -15.062  1.00  0.00     0.143 C 
HETATM    6  C7  UNL     1       3.892 -15.008 -14.319  1.00  0.00     0.133 C 
HETATM    7  C8  UNL     1       2.623 -14.344 -14.760  1.00  0.00     0.042 C 
HETATM    8  C9  UNL     1       2.380 -14.667 -16.201  1.00  0.00     0.015 C 
HETATM    9  C10 UNL     1       1.482 -14.443 -13.816  1.00  0.00     0.161 C 
HETATM   10  C22 UNL     1       0.217 -15.033 -14.223  1.00  0.00     0.176 C 
HETATM   11  C23 UNL     1      -0.147 -16.398 -13.605  1.00  0.00    -0.053 C 
HETATM   12  C24 UNL     1      -0.050 -16.434 -12.143  1.00  0.00     0.046 C 
HETATM   13  C25 UNL     1       0.313 -17.516 -14.411  1.00  0.00     0.007 C 
HETATM   14  C26 UNL     1       0.947 -18.638 -14.146  1.00  0.00    -0.080 C 
HETATM   15  C27 UNL     1       1.239 -19.549 -15.327  1.00  0.00     0.043 C 
HETATM   16  C28 UNL     1       1.398 -19.088 -12.833  1.00  0.00     0.071 C 
HETATM   17  C29 UNL     1       1.902 -20.466 -12.659  1.00  0.00    -0.034 C 
HETATM   18  C30 UNL     1       0.937 -21.529 -13.180  1.00  0.00     0.048 C 
HETATM   19  C31 UNL     1       3.288 -20.764 -12.993  1.00  0.00     0.158 C 
HETATM   20  O7  UNL     1       3.563 -21.894 -13.354  1.00  0.00    -0.293 OA
HETATM   21  C32 UNL     1       4.410 -19.801 -12.933  1.00  0.00     0.087 C 
HETATM   22  C33 UNL     1       4.853 -19.821 -11.461  1.00  0.00     0.021 C 
HETATM   23  C34 UNL     1       5.586 -20.161 -13.766  1.00  0.00     0.159 C 
ENDROOT
BRANCH   9  24
HETATM   24  O4  UNL     1       1.240 -13.158 -13.266  1.00  0.00    -0.371 OA
BRANCH  24  25
HETATM   25  C11 UNL     1      -0.050 -12.857 -13.008  1.00  0.00     0.261 C 
BRANCH  25  26
HETATM   26  C12 UNL     1      -0.505 -11.918 -14.071  1.00  0.00    -0.081 C 
HETATM   27  C13 UNL     1      -0.876 -11.175 -14.943  1.00  0.00    -0.104 C 
BRANCH  27  28
HETATM   28  C14 UNL     1      -1.331 -10.292 -16.023  1.00  0.00     0.094 C 
BRANCH  28  29
HETATM   29  C15 UNL     1      -0.512 -10.506 -17.272  1.00  0.00     0.013 C 
BRANCH  29  30
HETATM   30  C16 UNL     1      -1.181  -9.843 -18.457  1.00  0.00     0.013 C 
BRANCH  30  31
HETATM   31  C17 UNL     1      -0.408 -10.253 -19.693  1.00  0.00     0.094 C 
BRANCH  31  32
HETATM   32  C18 UNL     1      -0.030 -11.668 -19.619  1.00  0.00    -0.104 C 
HETATM   33  C19 UNL     1       0.283 -12.825 -19.581  1.00  0.00    -0.081 C 
BRANCH  33  34
HETATM   34  C20 UNL     1       0.679 -14.238 -19.554  1.00  0.00     0.260 C 
BRANCH  34  35
HETATM   35  O5  UNL     1       1.682 -14.497 -20.497  1.00  0.00    -0.384 OA
HETATM   36  C21 UNL     1       2.921 -14.351 -19.871  1.00  0.00     0.202 C 
ENDBRANCH  34  35
ENDBRANCH  33  34
ENDBRANCH  31  32
ENDBRANCH  30  31
ENDBRANCH  29  30
ENDBRANCH  28  29
ENDBRANCH  27  28
ENDBRANCH  25  26
ENDBRANCH  24  25
ENDBRANCH   9  24
BRANCH  10  37
HETATM   37  O6  UNL     1      -0.041 -15.198 -15.574  1.00  0.00    -0.389 OA
ATOM     38  H6  UNL     1      -0.117 -14.428 -16.124  1.00  0.00     0.210 HD
ENDBRANCH  10  37
BRANCH   6  39
HETATM   39  O3  UNL     1       3.868 -15.387 -12.960  1.00  0.00    -0.395 OA
ATOM     40  H3  UNL     1       4.591 -14.910 -12.570  1.00  0.00     0.210 HD
ENDBRANCH   6  39
BRANCH   1  41
HETATM   41  C3  UNL     1       5.329 -19.269 -16.135  1.00  0.00     0.035 C 
BRANCH  41  42
HETATM   42  C2  UNL     1       5.124 -20.687 -16.570  1.00  0.00    -0.002 C 
HETATM   43  C1  UNL     1       6.275 -21.184 -17.434  1.00  0.00     0.005 C 
ENDBRANCH  41  42
ENDBRANCH   1  41
BRANCH  23  44
HETATM   44  O8  UNL     1       6.706 -20.299 -12.906  1.00  0.00    -0.392 OA
ATOM     45  H8  UNL     1       6.768 -21.225 -12.702  1.00  0.00     0.210 HD
ENDBRANCH  23  44
TORSDOF 15
ENDMDL
MODEL 2
REMARK VINA RESULT: -8.213029050      2.304      4.229
REMARK  15 active torsions:
REMARK  status: ('A' for Active; 'I' for Inactive)
REMARK    1  A    between atoms: C2_2  and  C3_3 
REMARK    2  A    between atoms: C3_3  and  C4_4 
REMARK    3  A    between atoms: C7_9  and  O3_10 
REMARK    4  A    between atoms: C10_14  and  O4_15 
REMARK    5  A    between atoms: O4_15  and  C11_16 
REMARK    6  A    between atoms: C11_16  and  C12_17 
REMARK    7  A    between atoms: C13_18  and  C14_19 
REMARK    8  A    between atoms: C14_19  and  C15_20 
REMARK    9  A    between atoms: C15_20  and  C16_21 
REMARK   10  A    between atoms: C16_21  and  C17_22 
REMARK   11  A    between atoms: C17_22  and  C18_23 
REMARK   12  A    between atoms: C19_24  and  C20_25 
REMARK   13  A    between atoms: C20_25  and  O5_26 
REMARK   14  A    between atoms: C22_28  and  O6_29 
REMARK   15  A    between atoms: C34_43  and  O8_44 
ROOT
HETATM    1  C4  UNL     1       5.531 -21.548 -11.305  1.00  0.00     0.161 C 
HETATM    2  O1  UNL     1       5.979 -20.457 -12.075  1.00  0.00    -0.313 OA
HETATM    3  C5  UNL     1       5.589 -19.965 -13.262  1.00  0.00     0.261 C 
HETATM    4  O2  UNL     1       6.476 -19.902 -14.180  1.00  0.00    -0.265 OA
HETATM    5  C6  UNL     1       4.241 -19.475 -13.656  1.00  0.00     0.143 C 
HETATM    6  C7  UNL     1       4.371 -18.074 -14.224  1.00  0.00     0.133 C 
HETATM    7  C8  UNL     1       3.148 -17.588 -14.941  1.00  0.00     0.042 C 
HETATM    8  C9  UNL     1       2.425 -18.761 -15.523  1.00  0.00     0.015 C 
HETATM    9  C10 UNL     1       2.353 -16.555 -14.230  1.00  0.00     0.161 C 
HETATM   10  C22 UNL     1       0.948 -16.767 -13.922  1.00  0.00     0.176 C 
HETATM   11  C23 UNL     1       0.583 -16.970 -12.437  1.00  0.00    -0.053 C 
HETATM   12  C24 UNL     1       1.119 -15.938 -11.546  1.00  0.00     0.046 C 
HETATM   13  C25 UNL     1       0.591 -18.371 -12.048  1.00  0.00     0.007 C 
HETATM   14  C26 UNL     1       1.092 -19.036 -11.029  1.00  0.00    -0.080 C 
HETATM   15  C27 UNL     1       0.859 -20.538 -11.018  1.00  0.00     0.043 C 
HETATM   16  C28 UNL     1       1.850 -18.473  -9.916  1.00  0.00     0.071 C 
HETATM   17  C29 UNL     1       2.160 -19.309  -8.738  1.00  0.00    -0.034 C 
HETATM   18  C30 UNL     1       0.927 -19.981  -8.136  1.00  0.00     0.048 C 
HETATM   19  C31 UNL     1       3.311 -20.201  -8.783  1.00  0.00     0.158 C 
HETATM   20  O7  UNL     1       3.281 -21.215  -8.108  1.00  0.00    -0.293 OA
HETATM   21  C32 UNL     1       4.534 -19.984  -9.588  1.00  0.00     0.087 C 
HETATM   22  C33 UNL     1       5.400 -19.052  -8.725  1.00  0.00     0.021 C 
HETATM   23  C34 UNL     1       5.324 -21.210  -9.867  1.00  0.00     0.159 C 
ENDROOT
BRANCH   9  24
HETATM   24  O4  UNL     1       2.497 -15.323 -14.919  1.00  0.00    -0.371 OA
BRANCH  24  25
HETATM   25  C11 UNL     1       1.458 -14.954 -15.697  1.00  0.00     0.261 C 
BRANCH  25  26
HETATM   26  C12 UNL     1       1.939 -14.954 -17.107  1.00  0.00    -0.081 C 
HETATM   27  C13 UNL     1       2.330 -14.933 -18.246  1.00  0.00    -0.104 C 
BRANCH  27  28
HETATM   28  C14 UNL     1       2.809 -14.880 -19.632  1.00  0.00     0.094 C 
BRANCH  28  29
HETATM   29  C15 UNL     1       2.282 -13.652 -20.334  1.00  0.00     0.013 C 
BRANCH  29  30
HETATM   30  C16 UNL     1       0.768 -13.680 -20.369  1.00  0.00     0.013 C 
BRANCH  30  31
HETATM   31  C17 UNL     1       0.291 -12.258 -20.161  1.00  0.00     0.094 C 
BRANCH  31  32
HETATM   32  C18 UNL     1       0.406 -11.876 -18.749  1.00  0.00    -0.104 C 
HETATM   33  C19 UNL     1       0.504 -11.586 -17.590  1.00  0.00    -0.081 C 
BRANCH  33  34
HETATM   34  C20 UNL     1       0.639 -11.250 -16.168  1.00  0.00     0.260 C 
BRANCH  34  35
HETATM   35  O5  UNL     1      -0.389 -10.393 -15.753  1.00  0.00    -0.384 OA
HETATM   36  C21 UNL     1      -1.552 -11.149 -15.595  1.00  0.00     0.202 C 
ENDBRANCH  34  35
ENDBRANCH  33  34
ENDBRANCH  31  32
ENDBRANCH  30  31
ENDBRANCH  29  30
ENDBRANCH  28  29
ENDBRANCH  27  28
ENDBRANCH  25  26
ENDBRANCH  24  25
ENDBRANCH   9  24
BRANCH  10  37
HETATM   37  O6  UNL     1       0.263 -17.778 -14.576  1.00  0.00    -0.389 OA
ATOM     38  H6  UNL     1      -0.453 -17.547 -15.155  1.00  0.00     0.210 HD
ENDBRANCH  10  37
BRANCH   6  39
HETATM   39  O3  UNL     1       4.708 -17.275 -13.112  1.00  0.00    -0.395 OA
ATOM     40  H3  UNL     1       4.670 -16.385 -13.441  1.00  0.00     0.210 HD
ENDBRANCH   6  39
BRANCH   1  41
HETATM   41  C3  UNL     1       4.491 -22.369 -11.974  1.00  0.00     0.035 C 
BRANCH  41  42
HETATM   42  C2  UNL     1       3.904 -23.404 -11.065  1.00  0.00    -0.002 C 
HETATM   43  C1  UNL     1       2.491 -23.787 -11.485  1.00  0.00     0.005 C 
ENDBRANCH  41  42
ENDBRANCH   1  41
BRANCH  23  44
HETATM   44  O8  UNL     1       6.618 -21.033  -9.314  1.00  0.00    -0.392 OA
ATOM     45  H8  UNL     1       7.105 -20.517  -9.946  1.00  0.00     0.210 HD
ENDBRANCH  23  44
TORSDOF 15
ENDMDL
MODEL 3
REMARK VINA RESULT: -8.039150669      2.099      4.102
REMARK  15 active torsions:
REMARK  status: ('A' for Active; 'I' for Inactive)
REMARK    1  A    between atoms: C2_2  and  C3_3 
REMARK    2  A    between atoms: C3_3  and  C4_4 
REMARK    3  A    between atoms: C7_9  and  O3_10 
REMARK    4  A    between atoms: C10_14  and  O4_15 
REMARK    5  A    between atoms: O4_15  and  C11_16 
REMARK    6  A    between atoms: C11_16  and  C12_17 
REMARK    7  A    between atoms: C13_18  and  C14_19 
REMARK    8  A    between atoms: C14_19  and  C15_20 
REMARK    9  A    between atoms: C15_20  and  C16_21 
REMARK   10  A    between atoms: C16_21  and  C17_22 
REMARK   11  A    between atoms: C17_22  and  C18_23 
REMARK   12  A    between atoms: C19_24  and  C20_25 
REMARK   13  A    between atoms: C20_25  and  O5_26 
REMARK   14  A    between atoms: C22_28  and  O6_29 
REMARK   15  A    between atoms: C34_43  and  O8_44 
ROOT
HETATM    1  C4  UNL     1       5.333 -21.267 -11.792  1.00  0.00     0.161 C 
HETATM    2  O1  UNL     1       5.817 -20.209 -12.587  1.00  0.00    -0.313 OA
HETATM    3  C5  UNL     1       5.550 -19.828 -13.846  1.00  0.00     0.261 C 
HETATM    4  O2  UNL     1       6.538 -19.779 -14.656  1.00  0.00    -0.265 OA
HETATM    5  C6  UNL     1       4.237 -19.448 -14.433  1.00  0.00     0.143 C 
HETATM    6  C7  UNL     1       4.365 -18.086 -15.091  1.00  0.00     0.133 C 
HETATM    7  C8  UNL     1       3.216 -17.725 -15.982  1.00  0.00     0.042 C 
HETATM    8  C9  UNL     1       2.629 -18.977 -16.552  1.00  0.00     0.015 C 
HETATM    9  C10 UNL     1       2.290 -16.692 -15.452  1.00  0.00     0.161 C 
HETATM   10  C22 UNL     1       0.871 -16.963 -15.296  1.00  0.00     0.176 C 
HETATM   11  C23 UNL     1       0.338 -17.080 -13.853  1.00  0.00    -0.053 C 
HETATM   12  C24 UNL     1       0.710 -15.957 -12.989  1.00  0.00     0.046 C 
HETATM   13  C25 UNL     1       0.369 -18.447 -13.357  1.00  0.00     0.007 C 
HETATM   14  C26 UNL     1       0.774 -19.007 -12.238  1.00  0.00    -0.080 C 
HETATM   15  C27 UNL     1       0.617 -20.515 -12.137  1.00  0.00     0.043 C 
HETATM   16  C28 UNL     1       1.362 -18.322 -11.090  1.00  0.00     0.071 C 
HETATM   17  C29 UNL     1       1.568 -19.052  -9.823  1.00  0.00    -0.034 C 
HETATM   18  C30 UNL     1       0.306 -19.750  -9.319  1.00  0.00     0.048 C 
HETATM   19  C31 UNL     1       2.758 -19.876  -9.662  1.00  0.00     0.158 C 
HETATM   20  O7  UNL     1       2.696 -20.838  -8.918  1.00  0.00    -0.293 OA
HETATM   21  C32 UNL     1       4.058 -19.645 -10.332  1.00  0.00     0.087 C 
HETATM   22  C33 UNL     1       4.765 -18.605  -9.449  1.00  0.00     0.021 C 
HETATM   23  C34 UNL     1       4.936 -20.840 -10.419  1.00  0.00     0.159 C 
ENDROOT
BRANCH   9  24
HETATM   24  O4  UNL     1       2.456 -15.506 -16.214  1.00  0.00    -0.371 OA
BRANCH  24  25
HETATM   25  C11 UNL     1       2.831 -15.675 -17.499  1.00  0.00     0.261 C 
BRANCH  25  26
HETATM   26  C12 UNL     1       1.798 -15.023 -18.351  1.00  0.00    -0.081 C 
HETATM   27  C13 UNL     1       0.959 -14.515 -19.049  1.00  0.00    -0.104 C 
BRANCH  27  28
HETATM   28  C14 UNL     1      -0.067 -13.919 -19.913  1.00  0.00     0.094 C 
BRANCH  28  29
HETATM   29  C15 UNL     1       0.463 -12.686 -20.603  1.00  0.00     0.013 C 
BRANCH  29  30
HETATM   30  C16 UNL     1      -0.140 -11.442 -19.986  1.00  0.00     0.013 C 
BRANCH  30  31
HETATM   31  C17 UNL     1       0.739 -11.052 -18.817  1.00  0.00     0.094 C 
BRANCH  31  32
HETATM   32  C18 UNL     1       0.017 -11.216 -17.551  1.00  0.00    -0.104 C 
HETATM   33  C19 UNL     1      -0.562 -11.367 -16.512  1.00  0.00    -0.081 C 
BRANCH  33  34
HETATM   34  C20 UNL     1      -1.250 -11.565 -15.230  1.00  0.00     0.260 C 
BRANCH  34  35
HETATM   35  O5  UNL     1      -2.467 -10.872 -15.201  1.00  0.00    -0.384 OA
HETATM   36  C21 UNL     1      -2.290  -9.706 -14.454  1.00  0.00     0.202 C 
ENDBRANCH  34  35
ENDBRANCH  33  34
ENDBRANCH  31  32
ENDBRANCH  30  31
ENDBRANCH  29  30
ENDBRANCH  28  29
ENDBRANCH  27  28
ENDBRANCH  25  26
ENDBRANCH  24  25
ENDBRANCH   9  24
BRANCH  10  37
HETATM   37  O6  UNL     1       0.322 -18.057 -15.945  1.00  0.00    -0.389 OA
ATOM     38  H6  UNL     1       0.084 -18.822 -15.435  1.00  0.00     0.210 HD
ENDBRANCH  10  37
BRANCH   6  39
HETATM   39  O3  UNL     1       4.525 -17.190 -14.012  1.00  0.00    -0.395 OA
ATOM     40  H3  UNL     1       4.071 -16.403 -14.290  1.00  0.00     0.210 HD
ENDBRANCH   6  39
BRANCH   1  41
HETATM   41  C3  UNL     1       4.424 -22.194 -12.513  1.00  0.00     0.035 C 
BRANCH  41  42
HETATM   42  C2  UNL     1       3.711 -23.132 -11.589  1.00  0.00    -0.002 C 
HETATM   43  C1  UNL     1       2.633 -23.926 -12.315  1.00  0.00     0.005 C 
ENDBRANCH  41  42
ENDBRANCH   1  41
BRANCH  23  44
HETATM   44  O8  UNL     1       6.143 -20.547  -9.734  1.00  0.00    -0.392 OA
ATOM     45  H8  UNL     1       6.121 -21.059  -8.934  1.00  0.00     0.210 HD
ENDBRANCH  23  44
TORSDOF 15
ENDMDL
MODEL 4
REMARK VINA RESULT: -7.994668334      1.289      2.261
REMARK  15 active torsions:
REMARK  status: ('A' for Active; 'I' for Inactive)
REMARK    1  A    between atoms: C2_2  and  C3_3 
REMARK    2  A    between atoms: C3_3  and  C4_4 
REMARK    3  A    between atoms: C7_9  and  O3_10 
REMARK    4  A    between atoms: C10_14  and  O4_15 
REMARK    5  A    between atoms: O4_15  and  C11_16 
REMARK    6  A    between atoms: C11_16  and  C12_17 
REMARK    7  A    between atoms: C13_18  and  C14_19 
REMARK    8  A    between atoms: C14_19  and  C15_20 
REMARK    9  A    between atoms: C15_20  and  C16_21 
REMARK   10  A    between atoms: C16_21  and  C17_22 
REMARK   11  A    between atoms: C17_22  and  C18_23 
REMARK   12  A    between atoms: C19_24  and  C20_25 
REMARK   13  A    between atoms: C20_25  and  O5_26 
REMARK   14  A    between atoms: C22_28  and  O6_29 
REMARK   15  A    between atoms: C34_43  and  O8_44 
ROOT
HETATM    1  C4  UNL     1       5.945 -19.202 -14.650  1.00  0.00     0.161 C 
HETATM    2  O1  UNL     1       6.057 -17.891 -14.147  1.00  0.00    -0.313 OA
HETATM    3  C5  UNL     1       5.654 -16.702 -14.621  1.00  0.00     0.261 C 
HETATM    4  O2  UNL     1       6.557 -15.815 -14.801  1.00  0.00    -0.265 OA
HETATM    5  C6  UNL     1       4.273 -16.271 -14.969  1.00  0.00     0.143 C 
HETATM    6  C7  UNL     1       3.957 -14.981 -14.234  1.00  0.00     0.133 C 
HETATM    7  C8  UNL     1       2.730 -14.278 -14.729  1.00  0.00     0.042 C 
HETATM    8  C9  UNL     1       2.543 -14.587 -16.181  1.00  0.00     0.015 C 
HETATM    9  C10 UNL     1       1.544 -14.347 -13.838  1.00  0.00     0.161 C 
HETATM   10  C22 UNL     1       0.282 -14.897 -14.306  1.00  0.00     0.176 C 
HETATM   11  C23 UNL     1      -0.150 -16.253 -13.713  1.00  0.00    -0.053 C 
HETATM   12  C24 UNL     1      -0.122 -16.298 -12.248  1.00  0.00     0.046 C 
HETATM   13  C25 UNL     1       0.313 -17.381 -14.504  1.00  0.00     0.007 C 
HETATM   14  C26 UNL     1       0.901 -18.523 -14.216  1.00  0.00    -0.080 C 
HETATM   15  C27 UNL     1       1.219 -19.437 -15.388  1.00  0.00     0.043 C 
HETATM   16  C28 UNL     1       1.277 -18.992 -12.886  1.00  0.00     0.071 C 
HETATM   17  C29 UNL     1       1.731 -20.385 -12.697  1.00  0.00    -0.034 C 
HETATM   18  C30 UNL     1       0.760 -21.416 -13.269  1.00  0.00     0.048 C 
HETATM   19  C31 UNL     1       3.122 -20.723 -12.970  1.00  0.00     0.158 C 
HETATM   20  O7  UNL     1       3.379 -21.859 -13.325  1.00  0.00    -0.293 OA
HETATM   21  C32 UNL     1       4.269 -19.794 -12.853  1.00  0.00     0.087 C 
HETATM   22  C33 UNL     1       4.643 -19.833 -11.363  1.00  0.00     0.021 C 
HETATM   23  C34 UNL     1       5.470 -20.186 -13.634  1.00  0.00     0.159 C 
ENDROOT
BRANCH   9  24
HETATM   24  O4  UNL     1       1.316 -13.058 -13.292  1.00  0.00    -0.371 OA
BRANCH  24  25
HETATM   25  C11 UNL     1       0.992 -13.018 -11.983  1.00  0.00     0.261 C 
BRANCH  25  26
HETATM   26  C12 UNL     1       0.048 -11.880 -11.796  1.00  0.00    -0.081 C 
HETATM   27  C13 UNL     1      -0.731 -10.975 -11.645  1.00  0.00    -0.104 C 
BRANCH  27  28
HETATM   28  C14 UNL     1      -1.702  -9.889 -11.461  1.00  0.00     0.094 C 
BRANCH  28  29
HETATM   29  C15 UNL     1      -2.284  -9.461 -12.786  1.00  0.00     0.013 C 
BRANCH  29  30
HETATM   30  C16 UNL     1      -1.434  -8.372 -13.404  1.00  0.00     0.013 C 
BRANCH  30  31
HETATM   31  C17 UNL     1      -1.604  -8.470 -14.905  1.00  0.00     0.094 C 
BRANCH  31  32
HETATM   32  C18 UNL     1      -0.797  -9.569 -15.446  1.00  0.00    -0.104 C 
HETATM   33  C19 UNL     1      -0.155 -10.476 -15.896  1.00  0.00    -0.081 C 
BRANCH  33  34
HETATM   34  C20 UNL     1       0.614 -11.588 -16.467  1.00  0.00     0.260 C 
BRANCH  34  35
HETATM   35  O5  UNL     1      -0.224 -12.489 -17.137  1.00  0.00    -0.384 OA
HETATM   36  C21 UNL     1       0.249 -12.643 -18.441  1.00  0.00     0.202 C 
ENDBRANCH  34  35
ENDBRANCH  33  34
ENDBRANCH  31  32
ENDBRANCH  30  31
ENDBRANCH  29  30
ENDBRANCH  28  29
ENDBRANCH  27  28
ENDBRANCH  25  26
ENDBRANCH  24  25
ENDBRANCH   9  24
BRANCH  10  37
HETATM   37  O6  UNL     1       0.082 -15.049 -15.668  1.00  0.00    -0.389 OA
ATOM     38  H6  UNL     1       0.074 -14.276 -16.220  1.00  0.00     0.210 HD
ENDBRANCH  10  37
BRANCH   6  39
HETATM   39  O3  UNL     1       3.860 -15.365 -12.880  1.00  0.00    -0.395 OA
ATOM     40  H3  UNL     1       4.664 -15.049 -12.487  1.00  0.00     0.210 HD
ENDBRANCH   6  39
BRANCH   1  41
HETATM   41  C3  UNL     1       5.348 -19.276 -16.007  1.00  0.00     0.035 C 
BRANCH  41  42
HETATM   42  C2  UNL     1       5.438 -20.648 -16.600  1.00  0.00    -0.002 C 
HETATM   43  C1  UNL     1       4.060 -21.236 -16.873  1.00  0.00     0.005 C 
ENDBRANCH  41  42
ENDBRANCH   1  41
BRANCH  23  44
HETATM   44  O8  UNL     1       6.545 -20.361 -12.725  1.00  0.00    -0.392 OA
ATOM     45  H8  UNL     1       6.173 -20.771 -11.953  1.00  0.00     0.210 HD
ENDBRANCH  23  44
TORSDOF 15
ENDMDL
MODEL 5
REMARK VINA RESULT: -7.922430187      2.669      3.955
REMARK  15 active torsions:
REMARK  status: ('A' for Active; 'I' for Inactive)
REMARK    1  A    between atoms: C2_2  and  C3_3 
REMARK    2  A    between atoms: C3_3  and  C4_4 
REMARK    3  A    between atoms: C7_9  and  O3_10 
REMARK    4  A    between atoms: C10_14  and  O4_15 
REMARK    5  A    between atoms: O4_15  and  C11_16 
REMARK    6  A    between atoms: C11_16  and  C12_17 
REMARK    7  A    between atoms: C13_18  and  C14_19 
REMARK    8  A    between atoms: C14_19  and  C15_20 
REMARK    9  A    between atoms: C15_20  and  C16_21 
REMARK   10  A    between atoms: C16_21  and  C17_22 
REMARK   11  A    between atoms: C17_22  and  C18_23 
REMARK   12  A    between atoms: C19_24  and  C20_25 
REMARK   13  A    between atoms: C20_25  and  O5_26 
REMARK   14  A    between atoms: C22_28  and  O6_29 
REMARK   15  A    between atoms: C34_43  and  O8_44 
ROOT
HETATM    1  C4  UNL     1       5.895 -19.174 -14.753  1.00  0.00     0.161 C 
HETATM    2  O1  UNL     1       6.021 -17.851 -14.288  1.00  0.00    -0.313 OA
HETATM    3  C5  UNL     1       5.571 -16.679 -14.763  1.00  0.00     0.261 C 
HETATM    4  O2  UNL     1       6.448 -15.785 -15.020  1.00  0.00    -0.265 OA
HETATM    5  C6  UNL     1       4.165 -16.274 -15.031  1.00  0.00     0.143 C 
HETATM    6  C7  UNL     1       3.878 -14.971 -14.307  1.00  0.00     0.133 C 
HETATM    7  C8  UNL     1       2.613 -14.295 -14.739  1.00  0.00     0.042 C 
HETATM    8  C9  UNL     1       2.339 -14.641 -16.168  1.00  0.00     0.015 C 
HETATM    9  C10 UNL     1       1.487 -14.358 -13.772  1.00  0.00     0.161 C 
HETATM   10  C22 UNL     1       0.206 -14.935 -14.146  1.00  0.00     0.176 C 
HETATM   11  C23 UNL     1      -0.169 -16.281 -13.496  1.00  0.00    -0.053 C 
HETATM   12  C24 UNL     1      -0.047 -16.291 -12.036  1.00  0.00     0.046 C 
HETATM   13  C25 UNL     1       0.259 -17.422 -14.289  1.00  0.00     0.007 C 
HETATM   14  C26 UNL     1       0.880 -18.549 -14.013  1.00  0.00    -0.080 C 
HETATM   15  C27 UNL     1       1.136 -19.487 -15.182  1.00  0.00     0.043 C 
HETATM   16  C28 UNL     1       1.347 -18.982 -12.700  1.00  0.00     0.071 C 
HETATM   17  C29 UNL     1       1.831 -20.364 -12.508  1.00  0.00    -0.034 C 
HETATM   18  C30 UNL     1       0.840 -21.421 -12.993  1.00  0.00     0.048 C 
HETATM   19  C31 UNL     1       3.206 -20.691 -12.862  1.00  0.00     0.158 C 
HETATM   20  O7  UNL     1       3.457 -21.832 -13.206  1.00  0.00    -0.293 OA
HETATM   21  C32 UNL     1       4.345 -19.745 -12.839  1.00  0.00     0.087 C 
HETATM   22  C33 UNL     1       4.814 -19.744 -11.375  1.00  0.00     0.021 C 
HETATM   23  C34 UNL     1       5.500 -20.140 -13.686  1.00  0.00     0.159 C 
ENDROOT
BRANCH   9  24
HETATM   24  O4  UNL     1       1.276 -13.059 -13.243  1.00  0.00    -0.371 OA
BRANCH  24  25
HETATM   25  C11 UNL     1      -0.008 -12.648 -13.176  1.00  0.00     0.261 C 
BRANCH  25  26
HETATM   26  C12 UNL     1      -0.292 -11.881 -14.420  1.00  0.00    -0.081 C 
HETATM   27  C13 UNL     1      -0.510 -11.275 -15.438  1.00  0.00    -0.104 C 
BRANCH  27  28
HETATM   28  C14 UNL     1      -0.763 -10.555 -16.692  1.00  0.00     0.094 C 
BRANCH  28  29
HETATM   29  C15 UNL     1      -2.135  -9.928 -16.683  1.00  0.00     0.013 C 
BRANCH  29  30
HETATM   30  C16 UNL     1      -2.109  -8.624 -15.914  1.00  0.00     0.013 C 
BRANCH  30  31
HETATM   31  C17 UNL     1      -1.361  -7.619 -16.766  1.00  0.00     0.094 C 
BRANCH  31  32
HETATM   32  C18 UNL     1      -1.560  -6.259 -16.254  1.00  0.00    -0.104 C 
HETATM   33  C19 UNL     1      -1.738  -5.145 -15.850  1.00  0.00    -0.081 C 
BRANCH  33  34
HETATM   34  C20 UNL     1      -1.980  -3.781 -15.363  1.00  0.00     0.260 C 
BRANCH  34  35
HETATM   35  O5  UNL     1      -1.643  -2.832 -16.336  1.00  0.00    -0.384 OA
HETATM   36  C21 UNL     1      -2.475  -1.722 -16.173  1.00  0.00     0.202 C 
ENDBRANCH  34  35
ENDBRANCH  33  34
ENDBRANCH  31  32
ENDBRANCH  30  31
ENDBRANCH  29  30
ENDBRANCH  28  29
ENDBRANCH  27  28
ENDBRANCH  25  26
ENDBRANCH  24  25
ENDBRANCH   9  24
BRANCH  10  37
HETATM   37  O6  UNL     1      -0.079 -15.121 -15.489  1.00  0.00    -0.389 OA
ATOM     38  H6  UNL     1       0.112 -15.961 -15.887  1.00  0.00     0.210 HD
ENDBRANCH  10  37
BRANCH   6  39
HETATM   39  O3  UNL     1       3.873 -15.324 -12.941  1.00  0.00    -0.395 OA
ATOM     40  H3  UNL     1       4.503 -16.031 -12.878  1.00  0.00     0.210 HD
ENDBRANCH   6  39
BRANCH   1  41
HETATM   41  C3  UNL     1       5.214 -19.288 -16.067  1.00  0.00     0.035 C 
BRANCH  41  42
HETATM   42  C2  UNL     1       5.309 -20.666 -16.646  1.00  0.00    -0.002 C 
HETATM   43  C1  UNL     1       3.947 -21.343 -16.716  1.00  0.00     0.005 C 
ENDBRANCH  41  42
ENDBRANCH   1  41
BRANCH  23  44
HETATM   44  O8  UNL     1       6.633 -20.280 -12.844  1.00  0.00    -0.392 OA
ATOM     45  H8  UNL     1       6.394 -19.884 -12.014  1.00  0.00     0.210 HD
ENDBRANCH  23  44
TORSDOF 15
ENDMDL
