MODEL 1
REMARK VINA RESULT: -6.617088108      0.000      0.000
REMARK  2 active torsions:
REMARK  status: ('A' for Active; 'I' for Inactive)
REMARK    1  A    between atoms: N1_2  and  C1_4 
REMARK    2  A    between atoms: C2_5  and  N2_6 
ROOT
HETATM    1  C1  UNL     1       4.584  22.811 -18.432  1.00  0.00     0.172 A 
HETATM    2  C2  UNL     1       3.719  23.468 -19.258  1.00  0.00     0.145 A 
HETATM    3  N3  UNL     1       2.822  22.733 -19.902  1.00  0.00    -0.309 N 
ATOM      4  H3  UNL     1       2.106  23.057 -20.553  1.00  0.00     0.176 HD
HETATM    5  S1  UNL     1       3.117  21.159 -19.416  1.00  0.00    -0.003 SA
HETATM    6  C7  UNL     1       4.419  21.450 -18.365  1.00  0.00     0.105 A 
HETATM    7 BR1  UNL     1       5.454  20.204 -17.307  1.00  0.00    -0.039 Br
ENDROOT
BRANCH   2   8
HETATM    8  N2  UNL     1       3.726  24.914 -19.471  1.00  0.00    -0.365 N 
HETATM    9  C3  UNL     1       3.649  25.490 -20.787  1.00  0.00     0.124 C 
HETATM   10  C4  UNL     1       3.891  26.971 -20.578  1.00  0.00     0.021 C 
HETATM   11  C5  UNL     1       3.330  27.208 -19.189  1.00  0.00     0.021 C 
HETATM   12  C6  UNL     1       3.807  25.957 -18.472  1.00  0.00     0.124 C 
ENDBRANCH   2   8
BRANCH   1  13
HETATM   13  N1  UNL     1       5.627  23.473 -17.657  1.00  0.00    -0.110 N 
HETATM   14  O1  UNL     1       5.352  23.800 -16.506  1.00  0.00    -0.532 OA
HETATM   15  O2  UNL     1       6.865  23.729 -18.169  1.00  0.00    -0.532 OA
ENDBRANCH   1  13
TORSDOF 2
ENDMDL
MODEL 2
REMARK VINA RESULT: -6.382147315      0.167      1.367
REMARK  2 active torsions:
REMARK  status: ('A' for Active; 'I' for Inactive)
REMARK    1  A    between atoms: N1_2  and  C1_4 
REMARK    2  A    between atoms: C2_5  and  N2_6 
ROOT
HETATM    1  C1  UNL     1       4.565  22.732 -18.508  1.00  0.00     0.172 A 
HETATM    2  C2  UNL     1       3.690  23.345 -19.358  1.00  0.00     0.145 A 
HETATM    3  N3  UNL     1       2.843  22.566 -20.017  1.00  0.00    -0.309 N 
ATOM      4  H3  UNL     1       2.128  22.853 -20.686  1.00  0.00     0.176 HD
HETATM    5  S1  UNL     1       3.197  21.010 -19.513  1.00  0.00    -0.003 SA
HETATM    6  C7  UNL     1       4.461  21.366 -18.435  1.00  0.00     0.105 A 
HETATM    7 BR1  UNL     1       5.527  20.176 -17.345  1.00  0.00    -0.039 Br
ENDROOT
BRANCH   2   8
HETATM    8  N2  UNL     1       3.637  24.788 -19.581  1.00  0.00    -0.365 N 
HETATM    9  C3  UNL     1       3.612  25.726 -18.490  1.00  0.00     0.124 C 
HETATM   10  C4  UNL     1       3.352  27.071 -19.140  1.00  0.00     0.021 C 
HETATM   11  C5  UNL     1       4.001  26.914 -20.501  1.00  0.00     0.021 C 
HETATM   12  C6  UNL     1       3.601  25.490 -20.846  1.00  0.00     0.124 C 
ENDBRANCH   2   8
BRANCH   1  13
HETATM   13  N1  UNL     1       5.559  23.447 -17.715  1.00  0.00    -0.110 N 
HETATM   14  O1  UNL     1       6.647  23.667 -18.240  1.00  0.00    -0.532 OA
HETATM   15  O2  UNL     1       5.313  23.862 -16.439  1.00  0.00    -0.532 OA
ENDBRANCH   1  13
TORSDOF 2
ENDMDL
MODEL 3
REMARK VINA RESULT: -6.116853624      2.178      2.719
REMARK  2 active torsions:
REMARK  status: ('A' for Active; 'I' for Inactive)
REMARK    1  A    between atoms: N1_2  and  C1_4 
REMARK    2  A    between atoms: C2_5  and  N2_6 
ROOT
HETATM    1  C1  UNL     1       4.485  22.646 -18.204  1.00  0.00     0.172 A 
HETATM    2  C2  UNL     1       4.898  23.929 -18.419  1.00  0.00     0.145 A 
HETATM    3  N3  UNL     1       6.110  24.253 -17.989  1.00  0.00    -0.309 N 
ATOM      4  H3  UNL     1       6.574  25.159 -18.066  1.00  0.00     0.176 HD
HETATM    5  S1  UNL     1       6.716  22.857 -17.295  1.00  0.00    -0.003 SA
HETATM    6  C7  UNL     1       5.386  21.834 -17.561  1.00  0.00     0.105 A 
HETATM    7 BR1  UNL     1       5.145  19.973 -17.091  1.00  0.00    -0.039 Br
ENDROOT
BRANCH   2   8
HETATM    8  N2  UNL     1       4.092  24.950 -19.085  1.00  0.00    -0.365 N 
HETATM    9  C3  UNL     1       3.872  26.247 -18.502  1.00  0.00     0.124 C 
HETATM   10  C4  UNL     1       2.839  26.904 -19.394  1.00  0.00     0.021 C 
HETATM   11  C5  UNL     1       3.133  26.293 -20.751  1.00  0.00     0.021 C 
HETATM   12  C6  UNL     1       3.414  24.853 -20.360  1.00  0.00     0.124 C 
ENDBRANCH   2   8
BRANCH   1  13
HETATM   13  N1  UNL     1       3.182  22.134 -18.613  1.00  0.00    -0.110 N 
HETATM   14  O1  UNL     1       2.227  22.372 -17.878  1.00  0.00    -0.532 OA
HETATM   15  O2  UNL     1       3.007  21.418 -19.760  1.00  0.00    -0.532 OA
ENDBRANCH   1  13
TORSDOF 2
ENDMDL
MODEL 4
REMARK VINA RESULT: -5.839146589      3.195      5.170
REMARK  2 active torsions:
REMARK  status: ('A' for Active; 'I' for Inactive)
REMARK    1  A    between atoms: N1_2  and  C1_4 
REMARK    2  A    between atoms: C2_5  and  N2_6 
ROOT
HETATM    1  C1  UNL     1       4.122  23.889 -18.663  1.00  0.00     0.172 A 
HETATM    2  C2  UNL     1       5.016  23.237 -17.864  1.00  0.00     0.145 A 
HETATM    3  N3  UNL     1       5.784  23.985 -17.083  1.00  0.00    -0.309 N 
ATOM      4  H3  UNL     1       6.500  23.666 -16.428  1.00  0.00     0.176 HD
HETATM    5  S1  UNL     1       5.326  25.563 -17.400  1.00  0.00    -0.003 SA
HETATM    6  C7  UNL     1       4.124  25.257 -18.561  1.00  0.00     0.105 A 
HETATM    7 BR1  UNL     1       3.003  26.498 -19.533  1.00  0.00    -0.039 Br
ENDROOT
BRANCH   2   8
HETATM    8  N2  UNL     1       5.173  21.785 -17.822  1.00  0.00    -0.365 N 
HETATM    9  C3  UNL     1       5.906  21.069 -18.833  1.00  0.00     0.124 C 
HETATM   10  C4  UNL     1       5.653  19.605 -18.532  1.00  0.00     0.021 C 
HETATM   11  C5  UNL     1       5.476  19.600 -17.026  1.00  0.00     0.021 C 
HETATM   12  C6  UNL     1       4.659  20.865 -16.830  1.00  0.00     0.124 C 
ENDBRANCH   2   8
BRANCH   1  13
HETATM   13  N1  UNL     1       3.210  23.213 -19.579  1.00  0.00    -0.110 N 
HETATM   14  O1  UNL     1       3.324  23.464 -20.776  1.00  0.00    -0.532 OA
HETATM   15  O2  UNL     1       2.261  22.333 -19.147  1.00  0.00    -0.532 OA
ENDBRANCH   1  13
TORSDOF 2
ENDMDL
MODEL 5
REMARK VINA RESULT: -5.783070528      2.178      2.526
REMARK  2 active torsions:
REMARK  status: ('A' for Active; 'I' for Inactive)
REMARK    1  A    between atoms: N1_2  and  C1_4 
REMARK    2  A    between atoms: C2_5  and  N2_6 
ROOT
HETATM    1  C1  UNL     1       4.462  22.764 -18.193  1.00  0.00     0.172 A 
HETATM    2  C2  UNL     1       4.921  24.031 -18.408  1.00  0.00     0.145 A 
HETATM    3  N3  UNL     1       6.143  24.311 -17.977  1.00  0.00    -0.309 N 
ATOM      4  H3  UNL     1       6.639  25.200 -18.053  1.00  0.00     0.176 HD
HETATM    5  S1  UNL     1       6.697  22.894 -17.280  1.00  0.00    -0.003 SA
HETATM    6  C7  UNL     1       5.331  21.920 -17.548  1.00  0.00     0.105 A 
HETATM    7 BR1  UNL     1       5.023  20.070 -17.078  1.00  0.00    -0.039 Br
ENDROOT
BRANCH   2   8
HETATM    8  N2  UNL     1       4.153  25.079 -19.077  1.00  0.00    -0.365 N 
HETATM    9  C3  UNL     1       3.568  24.884 -20.376  1.00  0.00     0.124 C 
HETATM   10  C4  UNL     1       3.053  26.250 -20.781  1.00  0.00     0.021 C 
HETATM   11  C5  UNL     1       2.698  26.880 -19.448  1.00  0.00     0.021 C 
HETATM   12  C6  UNL     1       3.861  26.411 -18.591  1.00  0.00     0.124 C 
ENDBRANCH   2   8
BRANCH   1  13
HETATM   13  N1  UNL     1       3.142  22.299 -18.605  1.00  0.00    -0.110 N 
HETATM   14  O1  UNL     1       2.203  22.525 -17.846  1.00  0.00    -0.532 OA
HETATM   15  O2  UNL     1       2.934  21.638 -19.780  1.00  0.00    -0.532 OA
ENDBRANCH   1  13
TORSDOF 2
ENDMDL
