MODEL 1
REMARK VINA RESULT: -5.162049531      0.000      0.000
REMARK  2 active torsions:
REMARK  status: ('A' for Active; 'I' for Inactive)
REMARK    1  A    between atoms: C7_9  and  C8_10 
REMARK    2  A    between atoms: C11_14  and  N2_15 
ROOT
HETATM    1  C8  UNL     1       4.810  22.575 -18.919  1.00  0.00     0.030 A 
HETATM    2  C9  UNL     1       3.859  21.708 -19.475  1.00  0.00     0.073 A 
HETATM    3  C10 UNL     1       4.210  20.410 -19.202  1.00  0.00     0.168 A 
HETATM    4  F1  UNL     1       3.556  19.280 -19.563  1.00  0.00    -0.202 F 
HETATM    5  C11 UNL     1       5.381  20.487 -18.476  1.00  0.00     0.214 A 
HETATM    6  N3  UNL     1       5.709  21.802 -18.327  1.00  0.00    -0.333 N 
HETATM    7  C12 UNL     1       6.892  22.245 -17.608  1.00  0.00     0.158 C 
ENDROOT
BRANCH   1   8
HETATM    8  C7  UNL     1       4.781  24.063 -19.001  1.00  0.00     0.103 C 
HETATM    9  C4  UNL     1       3.485  24.607 -19.562  1.00  0.00     0.022 C 
HETATM   10  C3  UNL     1       3.602  25.280 -20.905  1.00  0.00     0.037 C 
HETATM   11  C5  UNL     1       3.227  25.697 -18.537  1.00  0.00     0.081 C 
HETATM   12  C2  UNL     1       2.447  26.289 -20.976  1.00  0.00     0.272 C 
HETATM   13  N1  UNL     1       2.879  27.437 -20.196  1.00  0.00     0.085 N 
HETATM   14  C1  UNL     1       3.653  28.279 -21.089  1.00  0.00     0.309 C 
HETATM   15  C6  UNL     1       3.662  27.042 -19.041  1.00  0.00     0.287 C 
HETATM   16  S1  UNL     1       4.353  24.867 -17.425  1.00  0.00    -0.151 SA
ENDBRANCH   1   8
BRANCH   5  17
HETATM   17  N2  UNL     1       6.138  19.404 -17.960  1.00  0.00    -0.094 N 
HETATM   18  O1  UNL     1       5.949  19.016 -16.789  1.00  0.00    -0.530 OA
HETATM   19  O2  UNL     1       7.088  18.739 -18.688  1.00  0.00    -0.530 OA
ENDBRANCH   5  17
TORSDOF 2
ENDMDL
MODEL 2
REMARK VINA RESULT: -4.703694415      3.932      6.658
REMARK  2 active torsions:
REMARK  status: ('A' for Active; 'I' for Inactive)
REMARK    1  A    between atoms: C7_9  and  C8_10 
REMARK    2  A    between atoms: C11_14  and  N2_15 
ROOT
HETATM    1  C8  UNL     1       4.412  23.913 -18.335  1.00  0.00     0.030 A 
HETATM    2  C9  UNL     1       4.991  25.039 -17.733  1.00  0.00     0.073 A 
HETATM    3  C10 UNL     1       4.631  26.164 -18.433  1.00  0.00     0.168 A 
HETATM    4  F1  UNL     1       4.983  27.447 -18.177  1.00  0.00    -0.202 F 
HETATM    5  C11 UNL     1       3.831  25.720 -19.465  1.00  0.00     0.214 A 
HETATM    6  N3  UNL     1       3.723  24.363 -19.372  1.00  0.00    -0.333 N 
HETATM    7  C12 UNL     1       2.945  23.567 -20.307  1.00  0.00     0.158 C 
ENDROOT
BRANCH   1   8
HETATM    8  C7  UNL     1       4.567  22.505 -17.869  1.00  0.00     0.103 C 
HETATM    9  C4  UNL     1       5.457  21.672 -18.766  1.00  0.00     0.022 C 
HETATM   10  C3  UNL     1       4.757  20.563 -19.509  1.00  0.00     0.037 C 
HETATM   11  C5  UNL     1       6.319  21.021 -17.700  1.00  0.00     0.081 C 
HETATM   12  C2  UNL     1       5.826  19.495 -19.782  1.00  0.00     0.272 C 
HETATM   13  N1  UNL     1       5.982  18.766 -18.534  1.00  0.00     0.085 N 
HETATM   14  C1  UNL     1       4.966  17.729 -18.530  1.00  0.00     0.309 C 
HETATM   15  C6  UNL     1       5.848  19.633 -17.380  1.00  0.00     0.287 C 
HETATM   16  S1  UNL     1       5.820  22.307 -16.563  1.00  0.00    -0.151 SA
ENDBRANCH   1   8
BRANCH   5  17
HETATM   17  N2  UNL     1       3.212  26.511 -20.466  1.00  0.00    -0.094 N 
HETATM   18  O1  UNL     1       2.112  27.054 -20.238  1.00  0.00    -0.530 OA
HETATM   19  O2  UNL     1       3.763  26.722 -21.703  1.00  0.00    -0.530 OA
ENDBRANCH   5  17
TORSDOF 2
ENDMDL
MODEL 3
REMARK VINA RESULT: -4.502007842      0.937      1.081
REMARK  2 active torsions:
REMARK  status: ('A' for Active; 'I' for Inactive)
REMARK    1  A    between atoms: C7_9  and  C8_10 
REMARK    2  A    between atoms: C11_14  and  N2_15 
ROOT
HETATM    1  C8  UNL     1       4.683  21.902 -19.079  1.00  0.00     0.030 A 
HETATM    2  C9  UNL     1       3.638  21.140 -19.620  1.00  0.00     0.073 A 
HETATM    3  C10 UNL     1       4.017  19.823 -19.679  1.00  0.00     0.168 A 
HETATM    4  F1  UNL     1       3.296  18.772 -20.138  1.00  0.00    -0.202 F 
HETATM    5  C11 UNL     1       5.300  19.782 -19.173  1.00  0.00     0.214 A 
HETATM    6  N3  UNL     1       5.665  21.050 -18.824  1.00  0.00    -0.333 N 
HETATM    7  C12 UNL     1       6.963  21.369 -18.252  1.00  0.00     0.158 C 
ENDROOT
BRANCH   1   8
HETATM    8  C7  UNL     1       4.657  23.375 -18.854  1.00  0.00     0.103 C 
HETATM    9  C4  UNL     1       3.495  24.065 -19.535  1.00  0.00     0.022 C 
HETATM   10  C3  UNL     1       3.873  24.995 -20.659  1.00  0.00     0.037 C 
HETATM   11  C5  UNL     1       3.026  24.929 -18.379  1.00  0.00     0.081 C 
HETATM   12  C2  UNL     1       2.746  26.035 -20.746  1.00  0.00     0.272 C 
HETATM   13  N1  UNL     1       3.001  26.983 -19.674  1.00  0.00     0.085 N 
HETATM   14  C1  UNL     1       3.932  27.965 -20.201  1.00  0.00     0.309 C 
HETATM   15  C6  UNL     1       3.541  26.334 -18.495  1.00  0.00     0.287 C 
HETATM   16  S1  UNL     1       3.914  23.852 -17.262  1.00  0.00    -0.151 SA
ENDBRANCH   1   8
BRANCH   5  17
HETATM   17  N2  UNL     1       6.125  18.637 -19.027  1.00  0.00    -0.094 N 
HETATM   18  O1  UNL     1       5.782  17.555 -19.544  1.00  0.00    -0.530 OA
HETATM   19  O2  UNL     1       7.307  18.648 -18.335  1.00  0.00    -0.530 OA
ENDBRANCH   5  17
TORSDOF 2
ENDMDL
MODEL 4
REMARK VINA RESULT: -4.087519483      1.331      1.386
REMARK  2 active torsions:
REMARK  status: ('A' for Active; 'I' for Inactive)
REMARK    1  A    between atoms: C7_9  and  C8_10 
REMARK    2  A    between atoms: C11_14  and  N2_15 
ROOT
HETATM    1  C8  UNL     1       4.873  23.064 -18.119  1.00  0.00     0.030 A 
HETATM    2  C9  UNL     1       3.756  22.633 -17.388  1.00  0.00     0.073 A 
HETATM    3  C10 UNL     1       3.958  21.343 -16.966  1.00  0.00     0.168 A 
HETATM    4  F1  UNL     1       3.120  20.568 -16.236  1.00  0.00    -0.202 F 
HETATM    5  C11 UNL     1       5.203  20.986 -17.443  1.00  0.00     0.214 A 
HETATM    6  N3  UNL     1       5.720  22.045 -18.130  1.00  0.00    -0.333 N 
HETATM    7  C12 UNL     1       7.026  22.012 -18.766  1.00  0.00     0.158 C 
ENDROOT
BRANCH   1   8
HETATM    8  C7  UNL     1       5.035  24.406 -18.744  1.00  0.00     0.103 C 
HETATM    9  C4  UNL     1       3.725  25.135 -18.947  1.00  0.00     0.022 C 
HETATM   10  C3  UNL     1       3.322  25.339 -20.385  1.00  0.00     0.037 C 
HETATM   11  C5  UNL     1       4.124  26.493 -18.399  1.00  0.00     0.081 C 
HETATM   12  C2  UNL     1       2.426  26.586 -20.403  1.00  0.00     0.272 C 
HETATM   13  N1  UNL     1       3.332  27.722 -20.338  1.00  0.00     0.085 N 
HETATM   14  C1  UNL     1       3.737  28.008 -21.703  1.00  0.00     0.309 C 
HETATM   15  C6  UNL     1       4.483  27.449 -19.499  1.00  0.00     0.287 C 
HETATM   16  S1  UNL     1       5.493  25.709 -17.557  1.00  0.00    -0.151 SA
ENDBRANCH   1   8
BRANCH   5  17
HETATM   17  N2  UNL     1       5.860  19.741 -17.267  1.00  0.00    -0.094 N 
HETATM   18  O1  UNL     1       5.754  19.130 -16.185  1.00  0.00    -0.530 OA
HETATM   19  O2  UNL     1       6.624  19.153 -18.240  1.00  0.00    -0.530 OA
ENDBRANCH   5  17
TORSDOF 2
ENDMDL
MODEL 5
REMARK VINA RESULT: -3.932675419      1.783      2.202
REMARK  2 active torsions:
REMARK  status: ('A' for Active; 'I' for Inactive)
REMARK    1  A    between atoms: C7_9  and  C8_10 
REMARK    2  A    between atoms: C11_14  and  N2_15 
ROOT
HETATM    1  C8  UNL     1       5.481  22.121 -18.600  1.00  0.00     0.030 A 
HETATM    2  C9  UNL     1       6.535  21.338 -18.108  1.00  0.00     0.073 A 
HETATM    3  C10 UNL     1       6.281  20.016 -18.373  1.00  0.00     0.168 A 
HETATM    4  F1  UNL     1       7.051  18.945 -18.061  1.00  0.00    -0.202 F 
HETATM    5  C11 UNL     1       5.067  19.993 -19.028  1.00  0.00     0.214 A 
HETATM    6  N3  UNL     1       4.618  21.276 -19.145  1.00  0.00    -0.333 N 
HETATM    7  C12 UNL     1       3.361  21.617 -19.790  1.00  0.00     0.158 C 
ENDROOT
BRANCH   1   8
HETATM    8  C7  UNL     1       5.386  23.605 -18.506  1.00  0.00     0.103 C 
HETATM    9  C4  UNL     1       4.033  24.146 -18.914  1.00  0.00     0.022 C 
HETATM   10  C3  UNL     1       4.029  24.972 -20.175  1.00  0.00     0.037 C 
HETATM   11  C5  UNL     1       3.803  25.100 -17.756  1.00  0.00     0.081 C 
HETATM   12  C2  UNL     1       2.832  25.926 -20.054  1.00  0.00     0.272 C 
HETATM   13  N1  UNL     1       3.270  26.997 -19.175  1.00  0.00     0.085 N 
HETATM   14  C1  UNL     1       3.946  27.972 -20.012  1.00  0.00     0.309 C 
HETATM   15  C6  UNL     1       4.148  26.513 -18.127  1.00  0.00     0.287 C 
HETATM   16  S1  UNL     1       5.038  24.205 -16.822  1.00  0.00    -0.151 SA
ENDBRANCH   1   8
BRANCH   5  17
HETATM   17  N2  UNL     1       4.378  18.851 -19.509  1.00  0.00    -0.094 N 
HETATM   18  O1  UNL     1       4.750  17.711 -19.169  1.00  0.00    -0.530 OA
HETATM   19  O2  UNL     1       3.297  18.926 -20.348  1.00  0.00    -0.530 OA
ENDBRANCH   5  17
TORSDOF 2
ENDMDL
