MODEL 1
REMARK VINA RESULT: -6.331863227      0.000      0.000
REMARK  5 active torsions:
REMARK  status: ('A' for Active; 'I' for Inactive)
REMARK       I    between atoms: N1_2  and  C2_4 
REMARK    1  A    between atoms: C2_4  and  C3_6 
REMARK    2  A    between atoms: C5_9  and  C6_10 
REMARK    3  A    between atoms: C7_17  and  C8_18 
REMARK    4  A    between atoms: C8_18  and  N4_20 
REMARK    5  A    between atoms: C10_25  and  N5_26 
ROOT
HETATM    1  C3  UNL     1      25.128   7.938  13.669  1.00  0.00     0.345 C 
HETATM    2  N2  UNL     1      25.960   7.337  14.669  1.00  0.00     0.109 N 
HETATM    3  C4  UNL     1      25.654   6.079  15.156  1.00  0.00     0.316 C 
HETATM    4  C5  UNL     1      24.987   5.103  14.283  1.00  0.00     0.321 C 
HETATM    5  N3  UNL     1      24.731   5.580  12.936  1.00  0.00    -0.049 N 
ATOM      6  H31 UNL     1      24.006   6.297  12.905  1.00  0.00     0.278 HD
ATOM      7  H32 UNL     1      24.262   4.884  12.356  1.00  0.00     0.278 HD
HETATM    8  C7  UNL     1      25.998   6.034  12.357  1.00  0.00     0.286 C 
HETATM    9  C10 UNL     1      26.134   7.511  12.601  1.00  0.00     0.127 C 
HETATM   10  C13 UNL     1      27.068   7.573  13.843  1.00  0.00     0.309 C 
ENDROOT
BRANCH   8  11
HETATM   11  C8  UNL     1      26.186   5.523  10.967  1.00  0.00     0.290 C 
HETATM   12  C9  UNL     1      27.614   5.487  10.498  1.00  0.00     0.086 C 
HETATM   13  F4  UNL     1      25.428   6.114   9.999  1.00  0.00    -0.210 F 
BRANCH  11  14
HETATM   14  N4  UNL     1      25.736   4.113  10.926  1.00  0.00    -0.040 N 
ATOM     15  H43 UNL     1      26.466   3.459  11.207  1.00  0.00     0.278 HD
ATOM     16  H42 UNL     1      25.064   3.893  11.661  1.00  0.00     0.278 HD
ATOM     17  H41 UNL     1      25.373   3.922   9.991  1.00  0.00     0.278 HD
ENDBRANCH  11  14
ENDBRANCH   8  11
BRANCH   9  18
HETATM   18  N5  UNL     1      26.471   8.384  11.584  1.00  0.00    -0.406 N 
HETATM   19  C11 UNL     1      25.536   9.164  10.885  1.00  0.00     0.143 C 
HETATM   20  C12 UNL     1      27.737   9.049  11.610  1.00  0.00     0.143 C 
ENDBRANCH   9  18
BRANCH   4  21
HETATM   21  C6  UNL     1      23.700   4.517  14.808  1.00  0.00     0.417 C 
HETATM   22  F1  UNL     1      23.079   3.723  13.859  1.00  0.00    -0.169 F 
HETATM   23  F2  UNL     1      23.912   3.716  15.915  1.00  0.00    -0.169 F 
HETATM   24  F3  UNL     1      22.804   5.486  15.204  1.00  0.00    -0.169 F 
ENDBRANCH   4  21
BRANCH   1  25
HETATM   25  C2  UNL     1      25.022   9.377  13.952  1.00  0.00     0.253 C 
HETATM   26  N1  UNL     1      23.920  10.185  13.554  1.00  0.00    -0.363 N 
HETATM   27  C1  UNL     1      23.825  11.599  13.832  1.00  0.00     0.149 C 
ATOM     28  H1  UNL     1      23.156   9.740  13.045  1.00  0.00     0.161 HD
HETATM   29  O1  UNL     1      25.938  10.004  14.592  1.00  0.00    -0.271 OA
ENDBRANCH   1  25
TORSDOF 5
ENDMDL
MODEL 2
REMARK VINA RESULT: -6.129393462      0.808      1.056
REMARK  5 active torsions:
REMARK  status: ('A' for Active; 'I' for Inactive)
REMARK       I    between atoms: N1_2  and  C2_4 
REMARK    1  A    between atoms: C2_4  and  C3_6 
REMARK    2  A    between atoms: C5_9  and  C6_10 
REMARK    3  A    between atoms: C7_17  and  C8_18 
REMARK    4  A    between atoms: C8_18  and  N4_20 
REMARK    5  A    between atoms: C10_25  and  N5_26 
ROOT
HETATM    1  C3  UNL     1      24.892   7.639  14.396  1.00  0.00     0.345 C 
HETATM    2  N2  UNL     1      25.711   6.807  15.226  1.00  0.00     0.109 N 
HETATM    3  C4  UNL     1      25.337   5.498  15.474  1.00  0.00     0.316 C 
HETATM    4  C5  UNL     1      24.581   4.753  14.459  1.00  0.00     0.321 C 
HETATM    5  N3  UNL     1      24.317   5.497  13.240  1.00  0.00    -0.049 N 
ATOM      6  H31 UNL     1      23.641   6.248  13.378  1.00  0.00     0.278 HD
ATOM      7  H32 UNL     1      23.786   4.956  12.558  1.00  0.00     0.278 HD
HETATM    8  C7  UNL     1      25.594   5.978  12.707  1.00  0.00     0.286 C 
HETATM    9  C10 UNL     1      25.835   7.369  13.224  1.00  0.00     0.127 C 
HETATM   10  C13 UNL     1      26.808   7.133  14.416  1.00  0.00     0.309 C 
ENDROOT
BRANCH   8  11
HETATM   11  C8  UNL     1      25.707   5.738  11.238  1.00  0.00     0.290 C 
HETATM   12  C9  UNL     1      27.076   5.331  10.771  1.00  0.00     0.086 C 
HETATM   13  F4  UNL     1      25.251   6.735  10.427  1.00  0.00    -0.210 F 
BRANCH  11  14
HETATM   14  N4  UNL     1      24.830   4.598  10.886  1.00  0.00    -0.040 N 
ATOM     15  H43 UNL     1      25.344   3.817  10.479  1.00  0.00     0.278 HD
ATOM     16  H42 UNL     1      24.468   4.111  11.707  1.00  0.00     0.278 HD
ATOM     17  H41 UNL     1      24.089   4.943  10.275  1.00  0.00     0.278 HD
ENDBRANCH  11  14
ENDBRANCH   8  11
BRANCH   9  18
HETATM   18  N5  UNL     1      26.200   8.401  12.381  1.00  0.00    -0.406 N 
HETATM   19  C11 UNL     1      27.503   8.581  11.889  1.00  0.00     0.143 C 
HETATM   20  C12 UNL     1      25.252   8.925  11.447  1.00  0.00     0.143 C 
ENDBRANCH   9  18
BRANCH   4  21
HETATM   21  C6  UNL     1      23.273   4.153  14.915  1.00  0.00     0.417 C 
HETATM   22  F1  UNL     1      22.652   3.454  13.894  1.00  0.00    -0.169 F 
HETATM   23  F2  UNL     1      23.450   3.260  15.954  1.00  0.00    -0.169 F 
HETATM   24  F3  UNL     1      22.391   5.106  15.377  1.00  0.00    -0.169 F 
ENDBRANCH   4  21
BRANCH   1  25
HETATM   25  C2  UNL     1      24.890   9.000  14.954  1.00  0.00     0.253 C 
HETATM   26  N1  UNL     1      24.095  10.065  14.446  1.00  0.00    -0.363 N 
HETATM   27  C1  UNL     1      24.102  11.399  14.997  1.00  0.00     0.149 C 
ATOM     28  H1  UNL     1      23.487   9.875  13.649  1.00  0.00     0.161 HD
HETATM   29  O1  UNL     1      25.622   9.313  15.958  1.00  0.00    -0.271 OA
ENDBRANCH   1  25
TORSDOF 5
ENDMDL
MODEL 3
REMARK VINA RESULT: -6.048634186      2.914      3.894
REMARK  5 active torsions:
REMARK  status: ('A' for Active; 'I' for Inactive)
REMARK       I    between atoms: N1_2  and  C2_4 
REMARK    1  A    between atoms: C2_4  and  C3_6 
REMARK    2  A    between atoms: C5_9  and  C6_10 
REMARK    3  A    between atoms: C7_17  and  C8_18 
REMARK    4  A    between atoms: C8_18  and  N4_20 
REMARK    5  A    between atoms: C10_25  and  N5_26 
ROOT
HETATM    1  C3  UNL     1      25.722   7.074  11.827  1.00  0.00     0.345 C 
HETATM    2  N2  UNL     1      26.358   5.912  12.374  1.00  0.00     0.109 N 
HETATM    3  C4  UNL     1      26.530   4.786  11.588  1.00  0.00     0.316 C 
HETATM    4  C5  UNL     1      26.718   4.932  10.138  1.00  0.00     0.321 C 
HETATM    5  N3  UNL     1      26.727   6.306   9.669  1.00  0.00    -0.049 N 
ATOM      6  H31 UNL     1      25.808   6.745   9.725  1.00  0.00     0.278 HD
ATOM      7  H32 UNL     1      26.853   6.375   8.659  1.00  0.00     0.278 HD
HETATM    8  C7  UNL     1      27.749   7.043  10.416  1.00  0.00     0.286 C 
HETATM    9  C10 UNL     1      27.097   7.699  11.600  1.00  0.00     0.127 C 
HETATM   10  C13 UNL     1      27.432   6.724  12.766  1.00  0.00     0.309 C 
ENDROOT
BRANCH   8  11
HETATM   11  C8  UNL     1      28.596   7.881   9.516  1.00  0.00     0.290 C 
HETATM   12  C9  UNL     1      29.873   8.375  10.135  1.00  0.00     0.086 C 
HETATM   13  F4  UNL     1      27.974   8.932   8.909  1.00  0.00    -0.210 F 
BRANCH  11  14
HETATM   14  N4  UNL     1      29.026   7.044   8.372  1.00  0.00    -0.040 N 
ATOM     15  H43 UNL     1      29.450   6.165   8.666  1.00  0.00     0.278 HD
ATOM     16  H42 UNL     1      28.239   6.651   7.855  1.00  0.00     0.278 HD
ATOM     17  H41 UNL     1      29.644   7.603   7.783  1.00  0.00     0.278 HD
ENDBRANCH  11  14
ENDBRANCH   8  11
BRANCH   9  18
HETATM   18  N5  UNL     1      27.304   9.035  11.892  1.00  0.00    -0.406 N 
HETATM   19  C11 UNL     1      26.501  10.073  11.393  1.00  0.00     0.143 C 
HETATM   20  C12 UNL     1      27.852   9.409  13.158  1.00  0.00     0.143 C 
ENDBRANCH   9  18
BRANCH   4  21
HETATM   21  C6  UNL     1      25.757   4.161   9.266  1.00  0.00     0.417 C 
HETATM   22  F1  UNL     1      26.091   4.268   7.926  1.00  0.00    -0.169 F 
HETATM   23  F2  UNL     1      25.756   2.812   9.567  1.00  0.00    -0.169 F 
HETATM   24  F3  UNL     1      24.455   4.587   9.415  1.00  0.00    -0.169 F 
ENDBRANCH   4  21
BRANCH   1  25
HETATM   25  C2  UNL     1      24.875   7.677  12.868  1.00  0.00     0.253 C 
HETATM   26  N1  UNL     1      25.035   7.433  14.260  1.00  0.00    -0.363 N 
HETATM   27  C1  UNL     1      24.197   8.025  15.276  1.00  0.00     0.149 C 
ATOM     28  H1  UNL     1      25.783   6.805  14.556  1.00  0.00     0.161 HD
HETATM   29  O1  UNL     1      23.921   8.479  12.574  1.00  0.00    -0.271 OA
ENDBRANCH   1  25
TORSDOF 5
ENDMDL
MODEL 4
REMARK VINA RESULT: -5.998038697      0.763      1.115
REMARK  5 active torsions:
REMARK  status: ('A' for Active; 'I' for Inactive)
REMARK       I    between atoms: N1_2  and  C2_4 
REMARK    1  A    between atoms: C2_4  and  C3_6 
REMARK    2  A    between atoms: C5_9  and  C6_10 
REMARK    3  A    between atoms: C7_17  and  C8_18 
REMARK    4  A    between atoms: C8_18  and  N4_20 
REMARK    5  A    between atoms: C10_25  and  N5_26 
ROOT
HETATM    1  C3  UNL     1      25.474   8.348  13.459  1.00  0.00     0.345 C 
HETATM    2  N2  UNL     1      26.161   7.811  14.596  1.00  0.00     0.109 N 
HETATM    3  C4  UNL     1      25.860   6.539  15.047  1.00  0.00     0.316 C 
HETATM    4  C5  UNL     1      25.416   5.514  14.091  1.00  0.00     0.321 C 
HETATM    5  N3  UNL     1      25.361   5.963  12.712  1.00  0.00    -0.049 N 
ATOM      6  H31 UNL     1      24.608   6.630  12.546  1.00  0.00     0.278 HD
ATOM      7  H32 UNL     1      25.044   5.234  12.074  1.00  0.00     0.278 HD
HETATM    8  C7  UNL     1      26.676   6.498  12.347  1.00  0.00     0.286 C 
HETATM    9  C10 UNL     1      26.672   7.982  12.584  1.00  0.00     0.127 C 
HETATM   10  C13 UNL     1      27.376   8.116  13.965  1.00  0.00     0.309 C 
ENDROOT
BRANCH   8  11
HETATM   11  C8  UNL     1      27.131   5.992  11.019  1.00  0.00     0.290 C 
HETATM   12  C9  UNL     1      28.622   5.943  10.841  1.00  0.00     0.086 C 
HETATM   13  F4  UNL     1      26.584   6.595   9.924  1.00  0.00    -0.210 F 
BRANCH  11  14
HETATM   14  N4  UNL     1      26.684   4.587  10.880  1.00  0.00    -0.040 N 
ATOM     15  H43 UNL     1      25.979   4.329  11.570  1.00  0.00     0.278 HD
ATOM     16  H42 UNL     1      26.120   4.434  10.044  1.00  0.00     0.278 HD
ATOM     17  H41 UNL     1      27.508   3.986  10.915  1.00  0.00     0.278 HD
ENDBRANCH  11  14
ENDBRANCH   8  11
BRANCH   9  18
HETATM   18  N5  UNL     1      27.120   8.869  11.623  1.00  0.00    -0.406 N 
HETATM   19  C11 UNL     1      26.271   9.546  10.732  1.00  0.00     0.143 C 
HETATM   20  C12 UNL     1      28.289   9.654  11.870  1.00  0.00     0.143 C 
ENDBRANCH   9  18
BRANCH   4  21
HETATM   21  C6  UNL     1      24.099   4.846  14.402  1.00  0.00     0.417 C 
HETATM   22  F1  UNL     1      23.126   5.772  14.737  1.00  0.00    -0.169 F 
HETATM   23  F2  UNL     1      23.613   4.136  13.320  1.00  0.00    -0.169 F 
HETATM   24  F3  UNL     1      24.201   3.942  15.438  1.00  0.00    -0.169 F 
ENDBRANCH   4  21
BRANCH   1  25
HETATM   25  C2  UNL     1      25.227   9.779  13.694  1.00  0.00     0.253 C 
HETATM   26  N1  UNL     1      24.110  10.487  13.171  1.00  0.00    -0.363 N 
HETATM   27  C1  UNL     1      23.877  11.894  13.402  1.00  0.00     0.149 C 
ATOM     28  H1  UNL     1      23.437   9.974  12.602  1.00  0.00     0.161 HD
HETATM   29  O1  UNL     1      26.024  10.489  14.403  1.00  0.00    -0.271 OA
ENDBRANCH   1  25
TORSDOF 5
ENDMDL
MODEL 5
REMARK VINA RESULT: -5.924178367      3.148      5.321
REMARK  5 active torsions:
REMARK  status: ('A' for Active; 'I' for Inactive)
REMARK       I    between atoms: N1_2  and  C2_4 
REMARK    1  A    between atoms: C2_4  and  C3_6 
REMARK    2  A    between atoms: C5_9  and  C6_10 
REMARK    3  A    between atoms: C7_17  and  C8_18 
REMARK    4  A    between atoms: C8_18  and  N4_20 
REMARK    5  A    between atoms: C10_25  and  N5_26 
ROOT
HETATM    1  C3  UNL     1      26.394   6.951  12.371  1.00  0.00     0.345 C 
HETATM    2  N2  UNL     1      27.813   6.859  12.557  1.00  0.00     0.109 N 
HETATM    3  C4  UNL     1      28.651   6.839  11.457  1.00  0.00     0.316 C 
HETATM    4  C5  UNL     1      28.263   7.553  10.233  1.00  0.00     0.321 C 
HETATM    5  N3  UNL     1      26.994   8.253  10.322  1.00  0.00    -0.049 N 
ATOM      6  H31 UNL     1      26.198   7.617  10.359  1.00  0.00     0.278 HD
ATOM      7  H32 UNL     1      26.749   8.733   9.456  1.00  0.00     0.278 HD
HETATM    8  C7  UNL     1      27.046   9.158  11.473  1.00  0.00     0.286 C 
HETATM    9  C10 UNL     1      26.470   8.448  12.666  1.00  0.00     0.127 C 
HETATM   10  C13 UNL     1      27.738   7.958  13.424  1.00  0.00     0.309 C 
ENDROOT
BRANCH   8  11
HETATM   11  C8  UNL     1      26.524  10.515  11.134  1.00  0.00     0.290 C 
HETATM   12  C9  UNL     1      27.058  11.627  11.993  1.00  0.00     0.086 C 
HETATM   13  F4  UNL     1      25.168  10.638  11.060  1.00  0.00    -0.210 F 
BRANCH  11  14
HETATM   14  N4  UNL     1      26.963  10.850   9.760  1.00  0.00    -0.040 N 
ATOM     15  H43 UNL     1      26.413  10.374   9.045  1.00  0.00     0.278 HD
ATOM     16  H42 UNL     1      26.732  11.808   9.496  1.00  0.00     0.278 HD
ATOM     17  H41 UNL     1      27.961  10.652   9.687  1.00  0.00     0.278 HD
ENDBRANCH  11  14
ENDBRANCH   8  11
BRANCH   9  18
HETATM   18  N5  UNL     1      25.515   9.042  13.470  1.00  0.00    -0.406 N 
HETATM   19  C11 UNL     1      24.138   8.787  13.360  1.00  0.00     0.143 C 
HETATM   20  C12 UNL     1      25.838   9.392  14.818  1.00  0.00     0.143 C 
ENDBRANCH   9  18
BRANCH   4  21
HETATM   21  C6  UNL     1      28.239   6.731   8.967  1.00  0.00     0.417 C 
HETATM   22  F1  UNL     1      27.558   5.540   9.148  1.00  0.00    -0.169 F 
HETATM   23  F2  UNL     1      27.606   7.395   7.933  1.00  0.00    -0.169 F 
HETATM   24  F3  UNL     1      29.504   6.433   8.511  1.00  0.00    -0.169 F 
ENDBRANCH   4  21
BRANCH   1  25
HETATM   25  C2  UNL     1      25.736   6.102  13.377  1.00  0.00     0.253 C 
HETATM   26  N1  UNL     1      24.515   5.408  13.151  1.00  0.00    -0.363 N 
HETATM   27  C1  UNL     1      23.872   4.580  14.144  1.00  0.00     0.149 C 
ATOM     28  H1  UNL     1      24.070   5.499  12.238  1.00  0.00     0.161 HD
HETATM   29  O1  UNL     1      26.237   5.933  14.543  1.00  0.00    -0.271 OA
ENDBRANCH   1  25
TORSDOF 5
ENDMDL
