MODEL 1
REMARK VINA RESULT: -5.876334351      0.000      0.000
REMARK  5 active torsions:
REMARK  status: ('A' for Active; 'I' for Inactive)
REMARK    1  A    between atoms: C2_2  and  C3_3 
REMARK    2  A    between atoms: C7_7  and  N1_8 
REMARK    3  A    between atoms: N1_8  and  C8_10 
REMARK    4  A    between atoms: C8_10  and  O1_11 
REMARK    5  A    between atoms: N2_13  and  O2_15 
ROOT
HETATM    1  N1  UNL     1      -9.955 -41.684  10.761  1.00  0.00    -0.350 N 
ATOM      2  H1  UNL     1      -9.178 -41.279  10.239  1.00  0.00     0.163 HD
ENDROOT
BRANCH   1   3
HETATM    3  C7  UNL     1      -9.843 -43.013  11.291  1.00  0.00     0.092 C 
HETATM    4  C3  UNL     1      -8.608 -43.239  12.096  1.00  0.00     0.030 C 
HETATM    5  C4  UNL     1      -7.721 -44.139  11.305  1.00  0.00     0.010 C 
HETATM    6  C5  UNL     1      -8.750 -45.016  10.581  1.00  0.00     0.003 C 
HETATM    7  C6  UNL     1      -9.745 -43.974  10.131  1.00  0.00     0.026 C 
BRANCH   4   8
HETATM    8  C2  UNL     1      -7.964 -41.974  12.509  1.00  0.00    -0.030 C 
HETATM    9  C1  UNL     1      -7.252 -41.791  13.579  1.00  0.00     0.007 C 
ENDBRANCH   4   8
ENDBRANCH   1   3
BRANCH   1  10
HETATM   10  C8  UNL     1     -11.133 -40.938  10.957  1.00  0.00     0.237 C 
HETATM   11  N2  UNL     1     -11.092 -39.723  11.367  1.00  0.00    -0.233 N 
ATOM     12  H2  UNL     1     -11.952 -39.193  11.505  1.00  0.00     0.198 HD
BRANCH  10  13
HETATM   13  O1  UNL     1     -12.364 -41.504  10.710  1.00  0.00    -0.331 OA
ATOM     14  H1  UNL     1     -13.085 -40.968  10.401  1.00  0.00     0.221 HD
ENDBRANCH  10  13
BRANCH  11  15
HETATM   15  O2  UNL     1      -9.871 -39.146  11.617  1.00  0.00    -0.287 OA
ATOM     16  H2  UNL     1      -9.727 -38.714  12.451  1.00  0.00     0.244 HD
ENDBRANCH  11  15
ENDBRANCH   1  10
TORSDOF 5
ENDMDL
MODEL 2
REMARK VINA RESULT: -5.795891100      3.272      4.246
REMARK  5 active torsions:
REMARK  status: ('A' for Active; 'I' for Inactive)
REMARK    1  A    between atoms: C2_2  and  C3_3 
REMARK    2  A    between atoms: C7_7  and  N1_8 
REMARK    3  A    between atoms: N1_8  and  C8_10 
REMARK    4  A    between atoms: C8_10  and  O1_11 
REMARK    5  A    between atoms: N2_13  and  O2_15 
ROOT
HETATM    1  N1  UNL     1      -9.436 -43.204   8.073  1.00  0.00    -0.350 N 
ATOM      2  H1  UNL     1      -9.227 -42.209   8.158  1.00  0.00     0.163 HD
ENDROOT
BRANCH   1   3
HETATM    3  C7  UNL     1      -9.340 -44.055   9.224  1.00  0.00     0.092 C 
HETATM    4  C3  UNL     1      -9.928 -43.465  10.461  1.00  0.00     0.030 C 
HETATM    5  C4  UNL     1      -8.798 -43.131  11.374  1.00  0.00     0.010 C 
HETATM    6  C5  UNL     1      -7.802 -44.250  11.043  1.00  0.00     0.003 C 
HETATM    7  C6  UNL     1      -7.877 -44.259   9.536  1.00  0.00     0.026 C 
BRANCH   4   8
HETATM    8  C2  UNL     1     -10.823 -42.323  10.172  1.00  0.00    -0.030 C 
HETATM    9  C1  UNL     1     -11.108 -41.350  10.982  1.00  0.00     0.007 C 
ENDBRANCH   4   8
ENDBRANCH   1   3
BRANCH   1  10
HETATM   10  C8  UNL     1      -9.817 -43.736   6.826  1.00  0.00     0.237 C 
HETATM   11  N2  UNL     1      -9.113 -43.535   5.772  1.00  0.00    -0.233 N 
ATOM     12  H2  UNL     1      -9.400 -43.926   4.875  1.00  0.00     0.198 HD
BRANCH  10  13
HETATM   13  O1  UNL     1     -10.964 -44.490   6.713  1.00  0.00    -0.331 OA
ATOM     14  H1  UNL     1     -10.975 -45.269   6.170  1.00  0.00     0.221 HD
ENDBRANCH  10  13
BRANCH  11  15
HETATM   15  O2  UNL     1      -7.967 -42.786   5.871  1.00  0.00    -0.287 OA
ATOM     16  H2  UNL     1      -7.300 -42.874   5.199  1.00  0.00     0.244 HD
ENDBRANCH  11  15
ENDBRANCH   1  10
TORSDOF 5
ENDMDL
MODEL 3
REMARK VINA RESULT: -5.726104891      1.553      2.319
REMARK  5 active torsions:
REMARK  status: ('A' for Active; 'I' for Inactive)
REMARK    1  A    between atoms: C2_2  and  C3_3 
REMARK    2  A    between atoms: C7_7  and  N1_8 
REMARK    3  A    between atoms: N1_8  and  C8_10 
REMARK    4  A    between atoms: C8_10  and  O1_11 
REMARK    5  A    between atoms: N2_13  and  O2_15 
ROOT
HETATM    1  N1  UNL     1     -10.312 -42.063  10.604  1.00  0.00    -0.350 N 
ATOM      2  H1  UNL     1      -9.378 -42.038  11.013  1.00  0.00     0.163 HD
ENDROOT
BRANCH   1   3
HETATM    3  C7  UNL     1     -10.644 -43.076   9.643  1.00  0.00     0.092 C 
HETATM    4  C3  UNL     1      -9.717 -44.245   9.654  1.00  0.00     0.030 C 
HETATM    5  C4  UNL     1      -8.911 -44.184   8.401  1.00  0.00     0.010 C 
HETATM    6  C5  UNL     1      -9.923 -43.580   7.420  1.00  0.00     0.003 C 
HETATM    7  C6  UNL     1     -10.511 -42.475   8.264  1.00  0.00     0.026 C 
BRANCH   4   8
HETATM    8  C2  UNL     1      -8.904 -44.309  10.888  1.00  0.00    -0.030 C 
HETATM    9  C1  UNL     1      -7.608 -44.312  10.951  1.00  0.00     0.007 C 
ENDBRANCH   4   8
ENDBRANCH   1   3
BRANCH   1  10
HETATM   10  C8  UNL     1     -11.269 -41.103  10.984  1.00  0.00     0.237 C 
HETATM   11  N2  UNL     1     -10.923 -39.997  11.533  1.00  0.00    -0.233 N 
ATOM     12  H2  UNL     1     -11.627 -39.309  11.803  1.00  0.00     0.198 HD
BRANCH  10  13
HETATM   13  O1  UNL     1     -12.610 -41.337  10.771  1.00  0.00    -0.331 OA
ATOM     14  H1  UNL     1     -13.187 -41.519  11.504  1.00  0.00     0.221 HD
ENDBRANCH  10  13
BRANCH  11  15
HETATM   15  O2  UNL     1      -9.590 -39.751  11.749  1.00  0.00    -0.287 OA
ATOM     16  H2  UNL     1      -9.081 -39.336  11.062  1.00  0.00     0.244 HD
ENDBRANCH  11  15
ENDBRANCH   1  10
TORSDOF 5
ENDMDL
MODEL 4
REMARK VINA RESULT: -5.709577711      3.736      4.567
REMARK  5 active torsions:
REMARK  status: ('A' for Active; 'I' for Inactive)
REMARK    1  A    between atoms: C2_2  and  C3_3 
REMARK    2  A    between atoms: C7_7  and  N1_8 
REMARK    3  A    between atoms: N1_8  and  C8_10 
REMARK    4  A    between atoms: C8_10  and  O1_11 
REMARK    5  A    between atoms: N2_13  and  O2_15 
ROOT
HETATM    1  N1  UNL     1      -7.205 -44.208  12.167  1.00  0.00    -0.350 N 
ATOM      2  H1  UNL     1      -7.910 -44.700  12.716  1.00  0.00     0.163 HD
ENDROOT
BRANCH   1   3
HETATM    3  C7  UNL     1      -7.491 -43.826  10.814  1.00  0.00     0.092 C 
HETATM    4  C3  UNL     1      -8.588 -42.823  10.689  1.00  0.00     0.030 C 
HETATM    5  C4  UNL     1      -9.762 -43.522  10.094  1.00  0.00     0.010 C 
HETATM    6  C5  UNL     1      -9.075 -44.535   9.170  1.00  0.00     0.003 C 
HETATM    7  C6  UNL     1      -7.983 -45.049  10.076  1.00  0.00     0.026 C 
BRANCH   4   8
HETATM    8  C2  UNL     1      -8.879 -42.143  11.969  1.00  0.00    -0.030 C 
HETATM    9  C1  UNL     1      -8.452 -40.971  12.327  1.00  0.00     0.007 C 
ENDBRANCH   4   8
ENDBRANCH   1   3
BRANCH   1  10
HETATM   10  C8  UNL     1      -5.954 -43.908  12.741  1.00  0.00     0.237 C 
HETATM   11  N2  UNL     1      -5.662 -44.278  13.934  1.00  0.00    -0.233 N 
ATOM     12  H2  UNL     1      -4.753 -44.054  14.338  1.00  0.00     0.198 HD
BRANCH  10  13
HETATM   13  O1  UNL     1      -5.012 -43.204  12.024  1.00  0.00    -0.331 OA
ATOM     14  H1  UNL     1      -5.044 -43.190  11.075  1.00  0.00     0.221 HD
ENDBRANCH  10  13
BRANCH  11  15
HETATM   15  O2  UNL     1      -6.592 -44.981  14.659  1.00  0.00    -0.287 OA
ATOM     16  H2  UNL     1      -7.085 -44.530  15.335  1.00  0.00     0.244 HD
ENDBRANCH  11  15
ENDBRANCH   1  10
TORSDOF 5
ENDMDL
MODEL 5
REMARK VINA RESULT: -5.681617667      0.995      3.115
REMARK  5 active torsions:
REMARK  status: ('A' for Active; 'I' for Inactive)
REMARK    1  A    between atoms: C2_2  and  C3_3 
REMARK    2  A    between atoms: C7_7  and  N1_8 
REMARK    3  A    between atoms: N1_8  and  C8_10 
REMARK    4  A    between atoms: C8_10  and  O1_11 
REMARK    5  A    between atoms: N2_13  and  O2_15 
ROOT
HETATM    1  N1  UNL     1     -10.472 -42.142  11.242  1.00  0.00    -0.350 N 
ATOM      2  H1  UNL     1     -11.150 -42.839  11.552  1.00  0.00     0.163 HD
ENDROOT
BRANCH   1   3
HETATM    3  C7  UNL     1      -9.206 -42.563  10.714  1.00  0.00     0.092 C 
HETATM    4  C3  UNL     1      -9.292 -43.746   9.810  1.00  0.00     0.030 C 
HETATM    5  C4  UNL     1      -8.685 -44.901  10.530  1.00  0.00     0.010 C 
HETATM    6  C5  UNL     1      -7.588 -44.206  11.346  1.00  0.00     0.003 C 
HETATM    7  C6  UNL     1      -8.341 -43.007  11.870  1.00  0.00     0.026 C 
BRANCH   4   8
HETATM    8  C2  UNL     1     -10.670 -43.993   9.333  1.00  0.00    -0.030 C 
HETATM    9  C1  UNL     1     -11.007 -44.428   8.158  1.00  0.00     0.007 C 
ENDBRANCH   4   8
ENDBRANCH   1   3
BRANCH   1  10
HETATM   10  C8  UNL     1     -10.784 -40.772  11.334  1.00  0.00     0.237 C 
HETATM   11  N2  UNL     1     -11.970 -40.341  11.103  1.00  0.00    -0.233 N 
ATOM     12  H2  UNL     1     -12.182 -39.346  11.173  1.00  0.00     0.198 HD
BRANCH  10  13
HETATM   13  O1  UNL     1      -9.810 -39.860  11.677  1.00  0.00    -0.331 OA
ATOM     14  H1  UNL     1     -10.042 -38.956  11.855  1.00  0.00     0.221 HD
ENDBRANCH  10  13
BRANCH  11  15
HETATM   15  O2  UNL     1     -12.949 -41.240  10.761  1.00  0.00    -0.287 OA
ATOM     16  H2  UNL     1     -12.774 -41.871  10.071  1.00  0.00     0.244 HD
ENDBRANCH  11  15
ENDBRANCH   1  10
TORSDOF 5
ENDMDL
