MODEL 1
REMARK VINA RESULT: -6.951537121      0.000      0.000
REMARK  9 active torsions:
REMARK  status: ('A' for Active; 'I' for Inactive)
REMARK    1  A    between atoms: C2_2  and  O1_3 
REMARK    2  A    between atoms: C2_2  and  N1_5 
REMARK    3  A    between atoms: N1_5  and  N2_6 
REMARK    4  A    between atoms: N1_5  and  C10_20 
REMARK    5  A    between atoms: N2_6  and  C3_8 
REMARK    6  A    between atoms: N3_10  and  C4_12 
REMARK    7  A    between atoms: C4_12  and  C5_13 
REMARK    8  A    between atoms: C5_13  and  O3_15 
REMARK    9  A    between atoms: O3_15  and  C6_16 
ROOT
HETATM    1  N2  UNL     1       7.297  17.297  15.794  1.00  0.00    -0.266 N 
ATOM      2  H2  UNL     1       6.399  17.073  16.224  1.00  0.00     0.190 HD
ENDROOT
BRANCH   1   3
HETATM    3  N1  UNL     1       7.954  16.266  15.191  1.00  0.00    -0.213 N 
BRANCH   3   4
HETATM    4  C2  UNL     1       7.782  15.675  13.941  1.00  0.00     0.135 C 
HETATM    5  C1  UNL     1       8.106  16.191  12.617  1.00  0.00     0.099 C 
BRANCH   4   6
HETATM    6  O1  UNL     1       7.229  14.491  13.947  1.00  0.00    -0.348 OA
ATOM      7  H1  UNL     1       7.634  13.864  14.535  1.00  0.00     0.219 HD
ENDBRANCH   4   6
ENDBRANCH   3   4
BRANCH   3   8
HETATM    8  C10 UNL     1       9.110  15.750  15.946  1.00  0.00     0.173 A 
HETATM    9  N4  UNL     1       9.957  16.464  16.681  1.00  0.00    -0.343 N 
HETATM   10  C11 UNL     1      10.913  15.891  17.278  1.00  0.00     0.117 A 
ATOM     11  H4  UNL     1       9.837  17.474  16.763  1.00  0.00     0.167 HD
HETATM   12  C12 UNL     1      11.030  14.510  17.135  1.00  0.00     0.070 A 
HETATM   13 BR1  UNL     1      12.353  13.358  17.881  1.00  0.00    -0.042 Br
HETATM   14  S2  UNL     1       9.700  14.182  16.111  1.00  0.00    -0.043 SA
ENDBRANCH   3   8
ENDBRANCH   1   3
BRANCH   1  15
HETATM   15  C3  UNL     1       7.723  18.650  15.890  1.00  0.00     0.187 C 
HETATM   16  S1  UNL     1       8.473  19.240  14.509  1.00  0.00    -0.040 SA
HETATM   17  N3  UNL     1       7.520  19.534  16.906  1.00  0.00    -0.357 N 
ATOM     18  H3  UNL     1       7.984  20.437  16.799  1.00  0.00     0.162 HD
BRANCH  17  19
HETATM   19  C4  UNL     1       6.758  19.380  18.088  1.00  0.00     0.233 C 
BRANCH  19  20
HETATM   20  C5  UNL     1       7.441  18.574  19.155  1.00  0.00     0.277 C 
HETATM   21  O2  UNL     1       7.754  17.388  18.810  1.00  0.00    -0.263 OA
BRANCH  20  22
HETATM   22  O3  UNL     1       7.721  18.990  20.387  1.00  0.00    -0.310 OA
BRANCH  22  23
HETATM   23  C6  UNL     1       8.910  19.197  21.057  1.00  0.00     0.060 C 
HETATM   24  C7  UNL     1      10.022  19.604  20.095  1.00  0.00     0.045 C 
HETATM   25  C8  UNL     1       8.907  20.373  22.074  1.00  0.00     0.045 C 
HETATM   26  C9  UNL     1       9.325  17.977  21.808  1.00  0.00     0.045 C 
ENDBRANCH  22  23
ENDBRANCH  20  22
ENDBRANCH  19  20
ENDBRANCH  17  19
ENDBRANCH   1  15
TORSDOF 9
ENDMDL
MODEL 2
REMARK VINA RESULT: -6.942368011      2.961      4.470
REMARK  9 active torsions:
REMARK  status: ('A' for Active; 'I' for Inactive)
REMARK    1  A    between atoms: C2_2  and  O1_3 
REMARK    2  A    between atoms: C2_2  and  N1_5 
REMARK    3  A    between atoms: N1_5  and  N2_6 
REMARK    4  A    between atoms: N1_5  and  C10_20 
REMARK    5  A    between atoms: N2_6  and  C3_8 
REMARK    6  A    between atoms: N3_10  and  C4_12 
REMARK    7  A    between atoms: C4_12  and  C5_13 
REMARK    8  A    between atoms: C5_13  and  O3_15 
REMARK    9  A    between atoms: O3_15  and  C6_16 
ROOT
HETATM    1  N2  UNL     1       9.491  17.737  17.985  1.00  0.00    -0.266 N 
ATOM      2  H2  UNL     1      10.347  18.271  18.136  1.00  0.00     0.190 HD
ENDROOT
BRANCH   1   3
HETATM    3  N1  UNL     1       8.453  18.407  17.408  1.00  0.00    -0.213 N 
BRANCH   3   4
HETATM    4  C2  UNL     1       7.555  19.334  17.934  1.00  0.00     0.135 C 
HETATM    5  C1  UNL     1       6.442  19.131  18.852  1.00  0.00     0.099 C 
BRANCH   4   6
HETATM    6  O1  UNL     1       7.715  20.566  17.529  1.00  0.00    -0.348 OA
ATOM      7  H1  UNL     1       7.425  20.735  16.641  1.00  0.00     0.219 HD
ENDBRANCH   4   6
ENDBRANCH   3   4
BRANCH   3   8
HETATM    8  C10 UNL     1       8.317  18.194  15.956  1.00  0.00     0.173 A 
HETATM    9  N4  UNL     1       8.414  19.121  15.008  1.00  0.00    -0.343 N 
HETATM   10  C11 UNL     1       8.272  18.798  13.794  1.00  0.00     0.117 A 
ATOM     11  H4  UNL     1       8.601  20.091  15.260  1.00  0.00     0.167 HD
HETATM   12  C12 UNL     1       8.020  17.459  13.505  1.00  0.00     0.070 A 
HETATM   13 BR1  UNL     1       7.744  16.655  11.799  1.00  0.00    -0.042 Br
HETATM   14  S2  UNL     1       8.009  16.790  15.079  1.00  0.00    -0.043 SA
ENDBRANCH   3   8
ENDBRANCH   1   3
BRANCH   1  15
HETATM   15  C3  UNL     1       9.514  16.377  18.398  1.00  0.00     0.187 C 
HETATM   16  S1  UNL     1      10.489  15.383  17.459  1.00  0.00    -0.040 SA
HETATM   17  N3  UNL     1       8.931  15.811  19.492  1.00  0.00    -0.357 N 
ATOM     18  H3  UNL     1       9.011  14.796  19.554  1.00  0.00     0.162 HD
BRANCH  17  19
HETATM   19  C4  UNL     1       8.231  16.431  20.553  1.00  0.00     0.233 C 
BRANCH  19  20
HETATM   20  C5  UNL     1       9.086  17.310  21.419  1.00  0.00     0.277 C 
HETATM   21  O2  UNL     1       9.141  16.962  22.643  1.00  0.00    -0.263 OA
BRANCH  20  22
HETATM   22  O3  UNL     1       9.753  18.389  21.016  1.00  0.00    -0.310 OA
BRANCH  22  23
HETATM   23  C6  UNL     1       9.701  19.716  21.395  1.00  0.00     0.060 C 
HETATM   24  C7  UNL     1       8.293  20.111  21.829  1.00  0.00     0.045 C 
HETATM   25  C8  UNL     1      10.549  20.087  22.643  1.00  0.00     0.045 C 
HETATM   26  C9  UNL     1      10.148  20.609  20.287  1.00  0.00     0.045 C 
ENDBRANCH  22  23
ENDBRANCH  20  22
ENDBRANCH  19  20
ENDBRANCH  17  19
ENDBRANCH   1  15
TORSDOF 9
ENDMDL
MODEL 3
REMARK VINA RESULT: -6.936136331      2.012      2.541
REMARK  9 active torsions:
REMARK  status: ('A' for Active; 'I' for Inactive)
REMARK    1  A    between atoms: C2_2  and  O1_3 
REMARK    2  A    between atoms: C2_2  and  N1_5 
REMARK    3  A    between atoms: N1_5  and  N2_6 
REMARK    4  A    between atoms: N1_5  and  C10_20 
REMARK    5  A    between atoms: N2_6  and  C3_8 
REMARK    6  A    between atoms: N3_10  and  C4_12 
REMARK    7  A    between atoms: C4_12  and  C5_13 
REMARK    8  A    between atoms: C5_13  and  O3_15 
REMARK    9  A    between atoms: O3_15  and  C6_16 
ROOT
HETATM    1  N2  UNL     1       8.694  18.497  17.550  1.00  0.00    -0.266 N 
ATOM      2  H2  UNL     1       9.548  19.016  17.754  1.00  0.00     0.190 HD
ENDROOT
BRANCH   1   3
HETATM    3  N1  UNL     1       8.693  17.757  16.405  1.00  0.00    -0.213 N 
BRANCH   3   4
HETATM    4  C2  UNL     1       8.232  18.051  15.123  1.00  0.00     0.135 C 
HETATM    5  C1  UNL     1       8.691  19.063  14.179  1.00  0.00     0.099 C 
BRANCH   4   6
HETATM    6  O1  UNL     1       7.222  17.332  14.708  1.00  0.00    -0.348 OA
ATOM      7  H1  UNL     1       6.391  17.792  14.677  1.00  0.00     0.219 HD
ENDBRANCH   4   6
ENDBRANCH   3   4
BRANCH   3   8
HETATM    8  C10 UNL     1       9.391  16.464  16.511  1.00  0.00     0.173 A 
HETATM    9  N4  UNL     1       8.985  15.302  16.008  1.00  0.00    -0.343 N 
HETATM   10  C11 UNL     1       9.684  14.262  16.177  1.00  0.00     0.117 A 
ATOM     11  H4  UNL     1       8.109  15.249  15.486  1.00  0.00     0.167 HD
HETATM   12  C12 UNL     1      10.871  14.389  16.894  1.00  0.00     0.070 A 
HETATM   13 BR1  UNL     1      12.132  13.029  17.335  1.00  0.00    -0.042 Br
HETATM   14  S2  UNL     1      10.841  16.059  17.264  1.00  0.00    -0.043 SA
ENDBRANCH   3   8
ENDBRANCH   1   3
BRANCH   1  15
HETATM   15  C3  UNL     1       7.637  18.626  18.492  1.00  0.00     0.187 C 
HETATM   16  S1  UNL     1       6.369  19.602  17.981  1.00  0.00    -0.040 SA
HETATM   17  N3  UNL     1       7.485  17.996  19.690  1.00  0.00    -0.357 N 
ATOM     18  H3  UNL     1       6.683  18.298  20.244  1.00  0.00     0.162 HD
BRANCH  17  19
HETATM   19  C4  UNL     1       8.280  16.983  20.275  1.00  0.00     0.233 C 
BRANCH  19  20
HETATM   20  C5  UNL     1       9.138  17.459  21.411  1.00  0.00     0.277 C 
HETATM   21  O2  UNL     1       9.012  16.796  22.491  1.00  0.00    -0.263 OA
BRANCH  20  22
HETATM   22  O3  UNL     1       9.979  18.490  21.374  1.00  0.00    -0.310 OA
BRANCH  22  23
HETATM   23  C6  UNL     1       9.831  19.829  21.676  1.00  0.00     0.060 C 
HETATM   24  C7  UNL     1      10.105  20.704  20.457  1.00  0.00     0.045 C 
HETATM   25  C8  UNL     1       8.396  20.267  22.082  1.00  0.00     0.045 C 
HETATM   26  C9  UNL     1      10.737  20.233  22.790  1.00  0.00     0.045 C 
ENDBRANCH  22  23
ENDBRANCH  20  22
ENDBRANCH  19  20
ENDBRANCH  17  19
ENDBRANCH   1  15
TORSDOF 9
ENDMDL
MODEL 4
REMARK VINA RESULT: -6.622060399      2.976      5.271
REMARK  9 active torsions:
REMARK  status: ('A' for Active; 'I' for Inactive)
REMARK    1  A    between atoms: C2_2  and  O1_3 
REMARK    2  A    between atoms: C2_2  and  N1_5 
REMARK    3  A    between atoms: N1_5  and  N2_6 
REMARK    4  A    between atoms: N1_5  and  C10_20 
REMARK    5  A    between atoms: N2_6  and  C3_8 
REMARK    6  A    between atoms: N3_10  and  C4_12 
REMARK    7  A    between atoms: C4_12  and  C5_13 
REMARK    8  A    between atoms: C5_13  and  O3_15 
REMARK    9  A    between atoms: O3_15  and  C6_16 
ROOT
HETATM    1  N2  UNL     1       8.311  15.192  17.686  1.00  0.00    -0.266 N 
ATOM      2  H2  UNL     1       7.831  14.773  18.483  1.00  0.00     0.190 HD
ENDROOT
BRANCH   1   3
HETATM    3  N1  UNL     1       9.515  15.776  17.942  1.00  0.00    -0.213 N 
BRANCH   3   4
HETATM    4  C2  UNL     1      10.793  15.490  17.466  1.00  0.00     0.135 C 
HETATM    5  C1  UNL     1      11.413  14.202  17.184  1.00  0.00     0.099 C 
BRANCH   4   6
HETATM    6  O1  UNL     1      11.563  16.526  17.260  1.00  0.00    -0.348 OA
ATOM      7  H1  UNL     1      12.011  16.530  16.422  1.00  0.00     0.219 HD
ENDBRANCH   4   6
ENDBRANCH   3   4
BRANCH   3   8
HETATM    8  C10 UNL     1       9.444  16.979  18.790  1.00  0.00     0.173 A 
HETATM    9  N4  UNL     1       9.841  18.205  18.460  1.00  0.00    -0.343 N 
HETATM   10  C11 UNL     1       9.724  19.151  19.290  1.00  0.00     0.117 A 
ATOM     11  H4  UNL     1      10.241  18.381  17.538  1.00  0.00     0.167 HD
HETATM   12  C12 UNL     1       9.170  18.857  20.534  1.00  0.00     0.070 A 
HETATM   13 BR1  UNL     1       8.874  20.038  22.000  1.00  0.00    -0.042 Br
HETATM   14  S2  UNL     1       8.875  17.180  20.362  1.00  0.00    -0.043 SA
ENDBRANCH   3   8
ENDBRANCH   1   3
BRANCH   1  15
HETATM   15  C3  UNL     1       7.648  15.101  16.431  1.00  0.00     0.187 C 
HETATM   16  S1  UNL     1       8.030  13.727  15.544  1.00  0.00    -0.040 SA
HETATM   17  N3  UNL     1       6.694  15.923  15.913  1.00  0.00    -0.357 N 
ATOM     18  H3  UNL     1       6.409  15.714  14.956  1.00  0.00     0.162 HD
BRANCH  17  19
HETATM   19  C4  UNL     1       6.040  17.025  16.512  1.00  0.00     0.233 C 
BRANCH  19  20
HETATM   20  C5  UNL     1       6.710  18.344  16.259  1.00  0.00     0.277 C 
HETATM   21  O2  UNL     1       6.909  19.051  17.300  1.00  0.00    -0.263 OA
BRANCH  20  22
HETATM   22  O3  UNL     1       7.086  18.813  15.071  1.00  0.00    -0.310 OA
BRANCH  22  23
HETATM   23  C6  UNL     1       8.200  18.591  14.288  1.00  0.00     0.060 C 
HETATM   24  C7  UNL     1       7.912  17.562  13.198  1.00  0.00     0.045 C 
HETATM   25  C8  UNL     1       8.693  19.815  13.466  1.00  0.00     0.045 C 
HETATM   26  C9  UNL     1       9.355  18.131  15.112  1.00  0.00     0.045 C 
ENDBRANCH  22  23
ENDBRANCH  20  22
ENDBRANCH  19  20
ENDBRANCH  17  19
ENDBRANCH   1  15
TORSDOF 9
ENDMDL
MODEL 5
REMARK VINA RESULT: -6.530953871      3.012      5.208
REMARK  9 active torsions:
REMARK  status: ('A' for Active; 'I' for Inactive)
REMARK    1  A    between atoms: C2_2  and  O1_3 
REMARK    2  A    between atoms: C2_2  and  N1_5 
REMARK    3  A    between atoms: N1_5  and  N2_6 
REMARK    4  A    between atoms: N1_5  and  C10_20 
REMARK    5  A    between atoms: N2_6  and  C3_8 
REMARK    6  A    between atoms: N3_10  and  C4_12 
REMARK    7  A    between atoms: C4_12  and  C5_13 
REMARK    8  A    between atoms: C5_13  and  O3_15 
REMARK    9  A    between atoms: O3_15  and  C6_16 
ROOT
HETATM    1  N2  UNL     1       7.397  16.363  15.144  1.00  0.00    -0.266 N 
ATOM      2  H2  UNL     1       6.704  16.101  15.845  1.00  0.00     0.190 HD
ENDROOT
BRANCH   1   3
HETATM    3  N1  UNL     1       7.838  17.652  15.180  1.00  0.00    -0.213 N 
BRANCH   3   4
HETATM    4  C2  UNL     1       7.685  18.700  14.273  1.00  0.00     0.135 C 
HETATM    5  C1  UNL     1       8.687  19.601  13.717  1.00  0.00     0.099 C 
BRANCH   4   6
HETATM    6  O1  UNL     1       6.461  18.928  13.875  1.00  0.00    -0.348 OA
ATOM      7  H1  UNL     1       5.991  18.160  13.573  1.00  0.00     0.219 HD
ENDBRANCH   4   6
ENDBRANCH   3   4
BRANCH   3   8
HETATM    8  C10 UNL     1       8.503  18.037  16.437  1.00  0.00     0.173 A 
HETATM    9  N4  UNL     1       9.629  17.526  16.926  1.00  0.00    -0.343 N 
HETATM   10  C11 UNL     1      10.090  17.950  18.024  1.00  0.00     0.117 A 
ATOM     11  H4  UNL     1      10.120  16.791  16.416  1.00  0.00     0.167 HD
HETATM   12  C12 UNL     1       9.382  18.956  18.679  1.00  0.00     0.070 A 
HETATM   13 BR1  UNL     1       9.793  19.794  20.341  1.00  0.00    -0.042 Br
HETATM   14  S2  UNL     1       8.076  19.181  17.597  1.00  0.00    -0.043 SA
ENDBRANCH   3   8
ENDBRANCH   1   3
BRANCH   1  15
HETATM   15  C3  UNL     1       7.797  15.342  14.238  1.00  0.00     0.187 C 
HETATM   16  S1  UNL     1       7.860  15.827  12.632  1.00  0.00    -0.040 SA
HETATM   17  N3  UNL     1       8.214  14.076  14.516  1.00  0.00    -0.357 N 
ATOM     18  H3  UNL     1       8.379  13.481  13.704  1.00  0.00     0.162 HD
BRANCH  17  19
HETATM   19  C4  UNL     1       8.452  13.467  15.771  1.00  0.00     0.233 C 
BRANCH  19  20
HETATM   20  C5  UNL     1       9.233  14.322  16.726  1.00  0.00     0.277 C 
HETATM   21  O2  UNL     1       8.590  14.688  17.763  1.00  0.00    -0.263 OA
BRANCH  20  22
HETATM   22  O3  UNL     1      10.494  14.718  16.568  1.00  0.00    -0.310 OA
BRANCH  22  23
HETATM   23  C6  UNL     1      11.705  14.115  16.844  1.00  0.00     0.060 C 
HETATM   24  C7  UNL     1      11.548  13.013  17.888  1.00  0.00     0.045 C 
HETATM   25  C8  UNL     1      12.358  13.355  15.656  1.00  0.00     0.045 C 
HETATM   26  C9  UNL     1      12.706  15.113  17.321  1.00  0.00     0.045 C 
ENDBRANCH  22  23
ENDBRANCH  20  22
ENDBRANCH  19  20
ENDBRANCH  17  19
ENDBRANCH   1  15
TORSDOF 9
ENDMDL
