MODEL 1
REMARK VINA RESULT: -0.314229537      0.000      0.000
REMARK  1 active torsions:
REMARK  status: ('A' for Active; 'I' for Inactive)
REMARK       I    between atoms: C2_2  and  N1_4 
REMARK    1  A    between atoms: N5_29  and  C20_30 
ROOT
HETATM    1  C1  UNL     1       5.623  21.800  19.278  1.00  0.00     0.117 C 
HETATM    2  C2  UNL     1       5.452  20.398  19.771  1.00  0.00     0.220 C 
HETATM    3  O1  UNL     1       4.319  19.983  20.183  1.00  0.00    -0.274 OA
HETATM    4  N1  UNL     1       6.547  19.495  19.792  1.00  0.00    -0.292 N 
ATOM      5  H1  UNL     1       7.084  19.327  20.643  1.00  0.00     0.172 HD
HETATM    6  C3  UNL     1       6.833  18.889  18.671  1.00  0.00     0.238 A 
HETATM    7  O2  UNL     1       6.101  19.119  17.524  1.00  0.00    -0.278 OA
HETATM    8  C4  UNL     1       6.495  18.416  16.377  1.00  0.00     0.091 A 
HETATM    9  C5  UNL     1       5.789  18.612  15.188  1.00  0.00     0.040 A 
HETATM   10  C6  UNL     1       6.162  17.933  14.066  1.00  0.00     0.025 A 
HETATM   11  C7  UNL     1       7.220  17.043  14.031  1.00  0.00     0.045 A 
HETATM   12  C8  UNL     1       7.574  16.351  12.823  1.00  0.00     0.099 C 
HETATM   13  N2  UNL     1       7.847  15.793  11.826  1.00  0.00    -0.191 NA
HETATM   14  C9  UNL     1       7.906  16.858  15.206  1.00  0.00     0.039 A 
HETATM   15  C10 UNL     1       7.540  17.547  16.377  1.00  0.00     0.048 A 
HETATM   16  C11 UNL     1       8.350  17.267  17.570  1.00  0.00     0.226 A 
HETATM   17  N3  UNL     1       8.415  15.836  17.843  1.00  0.00    -0.339 N 
ATOM     18  H3  UNL     1       7.645  15.230  18.125  1.00  0.00     0.164 HD
HETATM   19  C12 UNL     1       9.630  15.497  17.659  1.00  0.00     0.070 A 
HETATM   20  C13 UNL     1      10.440  16.617  17.265  1.00  0.00     0.070 A 
HETATM   21  N4  UNL     1       9.720  17.655  17.206  1.00  0.00    -0.339 N 
ATOM     22  H4  UNL     1      10.033  18.592  16.952  1.00  0.00     0.164 HD
HETATM   23  C14 UNL     1      11.638  15.791  17.181  1.00  0.00     0.005 A 
HETATM   24  C15 UNL     1      12.977  15.563  16.948  1.00  0.00     0.014 A 
HETATM   25  C16 UNL     1      13.553  14.319  17.078  1.00  0.00     0.001 A 
HETATM   26  C17 UNL     1      12.762  13.240  17.460  1.00  0.00     0.001 A 
HETATM   27  C18 UNL     1      11.430  13.457  17.693  1.00  0.00     0.014 A 
HETATM   28  C19 UNL     1      10.867  14.717  17.557  1.00  0.00     0.005 A 
HETATM   29  N5  UNL     1       7.926  17.998  18.726  1.00  0.00    -0.263 N 
ENDROOT
BRANCH  29  30
HETATM   30  C20 UNL     1       8.634  17.826  19.992  1.00  0.00     0.042 A 
HETATM   31  C21 UNL     1       8.369  16.749  20.806  1.00  0.00     0.030 A 
HETATM   32  C22 UNL     1       9.051  16.595  22.010  1.00  0.00     0.002 A 
HETATM   33  C23 UNL     1       9.997  17.520  22.398  1.00  0.00     0.000 A 
HETATM   34  C24 UNL     1      10.249  18.588  21.573  1.00  0.00     0.002 A 
HETATM   35  C25 UNL     1       9.579  18.731  20.399  1.00  0.00     0.030 A 
ENDBRANCH  29  30
TORSDOF 1
ENDMDL
MODEL 2
REMARK VINA RESULT: 1.572101275      2.320      6.001
REMARK  1 active torsions:
REMARK  status: ('A' for Active; 'I' for Inactive)
REMARK       I    between atoms: C2_2  and  N1_4 
REMARK    1  A    between atoms: N5_29  and  C20_30 
ROOT
HETATM    1  C1  UNL     1       8.249  17.002  12.075  1.00  0.00     0.117 C 
HETATM    2  C2  UNL     1       7.342  16.546  13.174  1.00  0.00     0.220 C 
HETATM    3  O1  UNL     1       6.492  15.617  12.976  1.00  0.00    -0.274 OA
HETATM    4  N1  UNL     1       7.407  17.134  14.463  1.00  0.00    -0.292 N 
ATOM      5  H1  UNL     1       6.760  17.870  14.748  1.00  0.00     0.172 HD
HETATM    6  C3  UNL     1       8.334  16.690  15.269  1.00  0.00     0.238 A 
HETATM    7  O2  UNL     1       9.206  15.693  14.878  1.00  0.00    -0.278 OA
HETATM    8  C4  UNL     1      10.163  15.291  15.822  1.00  0.00     0.091 A 
HETATM    9  C5  UNL     1      11.070  14.288  15.479  1.00  0.00     0.040 A 
HETATM   10  C6  UNL     1      12.004  13.887  16.387  1.00  0.00     0.025 A 
HETATM   11  C7  UNL     1      12.112  14.427  17.657  1.00  0.00     0.045 A 
HETATM   12  C8  UNL     1      13.114  13.971  18.579  1.00  0.00     0.099 C 
HETATM   13  N2  UNL     1      13.939  13.584  19.320  1.00  0.00    -0.191 NA
HETATM   14  C9  UNL     1      11.214  15.413  17.982  1.00  0.00     0.039 A 
HETATM   15  C10 UNL     1      10.241  15.843  17.061  1.00  0.00     0.048 A 
HETATM   16  C11 UNL     1       9.337  16.905  17.525  1.00  0.00     0.226 A 
HETATM   17  N3  UNL     1       8.696  16.544  18.784  1.00  0.00    -0.339 N 
ATOM     18  H3  UNL     1       8.022  15.794  18.935  1.00  0.00     0.164 HD
HETATM   19  C12 UNL     1       9.148  17.356  19.656  1.00  0.00     0.070 A 
HETATM   20  C13 UNL     1      10.085  18.283  19.082  1.00  0.00     0.070 A 
HETATM   21  N4  UNL     1      10.212  18.042  17.847  1.00  0.00    -0.339 N 
ATOM     22  H4  UNL     1      10.813  18.544  17.193  1.00  0.00     0.164 HD
HETATM   23  C14 UNL     1      10.300  18.943  20.364  1.00  0.00     0.005 A 
HETATM   24  C15 UNL     1      10.867  19.881  21.200  1.00  0.00     0.014 A 
HETATM   25  C16 UNL     1      10.571  19.955  22.543  1.00  0.00     0.001 A 
HETATM   26  C17 UNL     1       9.663  19.054  23.090  1.00  0.00     0.001 A 
HETATM   27  C18 UNL     1       9.094  18.119  22.266  1.00  0.00     0.014 A 
HETATM   28  C19 UNL     1       9.405  18.059  20.916  1.00  0.00     0.005 A 
HETATM   29  N5  UNL     1       8.372  17.295  16.542  1.00  0.00    -0.263 N 
ENDROOT
BRANCH  29  30
HETATM   30  C20 UNL     1       7.402  18.342  16.856  1.00  0.00     0.042 A 
HETATM   31  C21 UNL     1       6.050  18.094  16.785  1.00  0.00     0.030 A 
HETATM   32  C22 UNL     1       5.136  19.100  17.086  1.00  0.00     0.002 A 
HETATM   33  C23 UNL     1       5.575  20.352  17.458  1.00  0.00     0.000 A 
HETATM   34  C24 UNL     1       6.928  20.582  17.524  1.00  0.00     0.002 A 
HETATM   35  C25 UNL     1       7.814  19.595  17.228  1.00  0.00     0.030 A 
ENDBRANCH  29  30
TORSDOF 1
ENDMDL
MODEL 3
REMARK VINA RESULT: 2.731899932      1.764      5.467
REMARK  1 active torsions:
REMARK  status: ('A' for Active; 'I' for Inactive)
REMARK       I    between atoms: C2_2  and  N1_4 
REMARK    1  A    between atoms: N5_29  and  C20_30 
ROOT
HETATM    1  C1  UNL     1       2.797  18.000  15.249  1.00  0.00     0.117 C 
HETATM    2  C2  UNL     1       4.030  18.575  14.628  1.00  0.00     0.220 C 
HETATM    3  O1  UNL     1       3.998  19.701  14.031  1.00  0.00    -0.274 OA
HETATM    4  N1  UNL     1       5.268  17.882  14.688  1.00  0.00    -0.292 N 
ATOM      5  H1  UNL     1       5.598  17.311  13.910  1.00  0.00     0.172 HD
HETATM    6  C3  UNL     1       5.963  18.009  15.787  1.00  0.00     0.238 A 
HETATM    7  O2  UNL     1       5.510  18.784  16.836  1.00  0.00    -0.278 OA
HETATM    8  C4  UNL     1       6.335  18.852  17.968  1.00  0.00     0.091 A 
HETATM    9  C5  UNL     1       5.925  19.621  19.058  1.00  0.00     0.040 A 
HETATM   10  C6  UNL     1       6.719  19.696  20.164  1.00  0.00     0.025 A 
HETATM   11  C7  UNL     1       7.932  19.040  20.276  1.00  0.00     0.045 A 
HETATM   12  C8  UNL     1       8.733  19.150  21.462  1.00  0.00     0.099 C 
HETATM   13  N2  UNL     1       9.375  19.253  22.441  1.00  0.00    -0.191 NA
HETATM   14  C9  UNL     1       8.325  18.287  19.196  1.00  0.00     0.039 A 
HETATM   15  C10 UNL     1       7.522  18.195  18.044  1.00  0.00     0.048 A 
HETATM   16  C11 UNL     1       8.048  17.359  16.957  1.00  0.00     0.226 A 
HETATM   17  N3  UNL     1       9.399  17.762  16.583  1.00  0.00    -0.339 N 
ATOM     18  H3  UNL     1       9.679  18.641  16.150  1.00  0.00     0.164 HD
HETATM   19  C12 UNL     1      10.159  16.791  16.908  1.00  0.00     0.070 A 
HETATM   20  C13 UNL     1       9.416  15.710  17.497  1.00  0.00     0.070 A 
HETATM   21  N4  UNL     1       8.190  16.016  17.537  1.00  0.00    -0.339 N 
ATOM     22  H4  UNL     1       7.436  15.436  17.906  1.00  0.00     0.164 HD
HETATM   23  C14 UNL     1      10.622  14.911  17.682  1.00  0.00     0.005 A 
HETATM   24  C15 UNL     1      11.324  13.794  18.080  1.00  0.00     0.014 A 
HETATM   25  C16 UNL     1      12.689  13.682  17.934  1.00  0.00     0.001 A 
HETATM   26  C17 UNL     1      13.399  14.733  17.362  1.00  0.00     0.001 A 
HETATM   27  C18 UNL     1      12.709  15.847  16.964  1.00  0.00     0.014 A 
HETATM   28  C19 UNL     1      11.335  15.942  17.119  1.00  0.00     0.005 A 
HETATM   29  N5  UNL     1       7.186  17.309  15.815  1.00  0.00    -0.263 N 
ENDROOT
BRANCH  29  30
HETATM   30  C20 UNL     1       7.573  16.516  14.650  1.00  0.00     0.042 A 
HETATM   31  C21 UNL     1       7.914  17.126  13.464  1.00  0.00     0.030 A 
HETATM   32  C22 UNL     1       8.281  16.360  12.362  1.00  0.00     0.002 A 
HETATM   33  C23 UNL     1       8.306  14.985  12.446  1.00  0.00     0.000 A 
HETATM   34  C24 UNL     1       7.964  14.393  13.636  1.00  0.00     0.002 A 
HETATM   35  C25 UNL     1       7.607  15.147  14.709  1.00  0.00     0.030 A 
ENDBRANCH  29  30
TORSDOF 1
ENDMDL
MODEL 4
REMARK VINA RESULT: 2.842057401      0.848      1.210
REMARK  1 active torsions:
REMARK  status: ('A' for Active; 'I' for Inactive)
REMARK       I    between atoms: C2_2  and  N1_4 
REMARK    1  A    between atoms: N5_29  and  C20_30 
ROOT
HETATM    1  C1  UNL     1       6.032  21.424  20.413  1.00  0.00     0.117 C 
HETATM    2  C2  UNL     1       5.696  19.969  20.491  1.00  0.00     0.220 C 
HETATM    3  O1  UNL     1       4.496  19.585  20.688  1.00  0.00    -0.274 OA
HETATM    4  N1  UNL     1       6.704  18.980  20.345  1.00  0.00    -0.292 N 
ATOM      5  H1  UNL     1       7.136  18.535  21.155  1.00  0.00     0.172 HD
HETATM    6  C3  UNL     1       7.050  18.664  19.125  1.00  0.00     0.238 A 
HETATM    7  O2  UNL     1       6.459  19.268  18.034  1.00  0.00    -0.278 OA
HETATM    8  C4  UNL     1       6.905  18.855  16.770  1.00  0.00     0.091 A 
HETATM    9  C5  UNL     1       6.342  19.434  15.632  1.00  0.00     0.040 A 
HETATM   10  C6  UNL     1       6.767  19.040  14.398  1.00  0.00     0.025 A 
HETATM   11  C7  UNL     1       7.746  18.082  14.199  1.00  0.00     0.045 A 
HETATM   12  C8  UNL     1       8.159  17.701  12.878  1.00  0.00     0.099 C 
HETATM   13  N2  UNL     1       8.484  17.401  11.790  1.00  0.00    -0.191 NA
HETATM   14  C9  UNL     1       8.292  17.520  15.327  1.00  0.00     0.039 A 
HETATM   15  C10 UNL     1       7.869  17.910  16.611  1.00  0.00     0.048 A 
HETATM   16  C11 UNL     1       8.528  17.238  17.739  1.00  0.00     0.226 A 
HETATM   17  N3  UNL     1       8.445  15.788  17.615  1.00  0.00    -0.339 N 
ATOM     18  H3  UNL     1       7.603  15.216  17.662  1.00  0.00     0.164 HD
HETATM   19  C12 UNL     1       9.640  15.380  17.435  1.00  0.00     0.070 A 
HETATM   20  C13 UNL     1      10.577  16.471  17.424  1.00  0.00     0.070 A 
HETATM   21  N4  UNL     1       9.956  17.559  17.598  1.00  0.00    -0.339 N 
ATOM     22  H4  UNL     1      10.370  18.490  17.633  1.00  0.00     0.164 HD
HETATM   23  C14 UNL     1      11.703  15.572  17.207  1.00  0.00     0.005 A 
HETATM   24  C15 UNL     1      13.035  15.271  17.021  1.00  0.00     0.014 A 
HETATM   25  C16 UNL     1      13.489  13.982  16.848  1.00  0.00     0.001 A 
HETATM   26  C17 UNL     1      12.576  12.933  16.860  1.00  0.00     0.001 A 
HETATM   27  C18 UNL     1      11.250  13.223  17.044  1.00  0.00     0.014 A 
HETATM   28  C19 UNL     1      10.811  14.527  17.217  1.00  0.00     0.005 A 
HETATM   29  N5  UNL     1       8.053  17.679  19.015  1.00  0.00    -0.263 N 
ENDROOT
BRANCH  29  30
HETATM   30  C20 UNL     1       8.613  17.102  20.236  1.00  0.00     0.042 A 
HETATM   31  C21 UNL     1       9.342  17.876  21.110  1.00  0.00     0.030 A 
HETATM   32  C22 UNL     1       9.870  17.316  22.269  1.00  0.00     0.002 A 
HETATM   33  C23 UNL     1       9.670  15.982  22.552  1.00  0.00     0.000 A 
HETATM   34  C24 UNL     1       8.940  15.224  21.669  1.00  0.00     0.002 A 
HETATM   35  C25 UNL     1       8.427  15.779  20.540  1.00  0.00     0.030 A 
ENDBRANCH  29  30
TORSDOF 1
ENDMDL
