MODEL 1
REMARK VINA RESULT: -7.156956660      0.000      0.000
REMARK  11 active torsions:
REMARK  status: ('A' for Active; 'I' for Inactive)
REMARK    1  A    between atoms: O1_2  and  C2_3 
REMARK    2  A    between atoms: C3_6  and  N2_7 
REMARK    3  A    between atoms: N4_13  and  C5_15 
REMARK    4  A    between atoms: C5_15  and  C6_16 
REMARK    5  A    between atoms: C5_15  and  C10_24 
REMARK    6  A    between atoms: C6_16  and  C7_17 
REMARK    7  A    between atoms: C10_24  and  C11_26 
REMARK    8  A    between atoms: C12_27  and  S1_28 
REMARK    9  A    between atoms: S1_28  and  C13_31 
REMARK   10  A    between atoms: C15_35  and  N8_36 
REMARK   11  A    between atoms: C17_42  and  O5_43 
ROOT
HETATM    1  C5  UNL     1      22.898  14.130  30.999  1.00  0.00     0.163 C 
ENDROOT
BRANCH   1   2
HETATM    2  N4  UNL     1      21.872  15.063  30.873  1.00  0.00    -0.361 N 
HETATM    3  C4  UNL     1      21.122  15.733  31.576  1.00  0.00     0.155 A 
HETATM    4  N3  UNL     1      20.224  16.554  30.950  1.00  0.00    -0.174 N 
HETATM    5  C17 UNL     1      21.104  15.730  32.941  1.00  0.00     0.162 A 
HETATM    6  C3  UNL     1      19.369  17.319  31.647  1.00  0.00     0.679 A 
ATOM      7  H3  UNL     1      20.204  16.586  29.931  1.00  0.00     0.186 HD
HETATM    8  N1  UNL     1      19.348  17.319  32.993  1.00  0.00    -0.168 N 
HETATM    9  C2  UNL     1      20.203  16.534  33.658  1.00  0.00     0.194 A 
ATOM     10  H1  UNL     1      18.689  17.911  33.499  1.00  0.00     0.186 HD
ATOM     11  H4  UNL     1      21.685  15.246  29.887  1.00  0.00     0.162 HD
BRANCH   6  12
HETATM   12  N2  UNL     1      18.544  18.077  30.965  1.00  0.00    -0.234 N 
ATOM     13  H22 UNL     1      17.548  17.863  31.030  1.00  0.00     0.174 HD
ATOM     14  H21 UNL     1      18.895  18.846  30.394  1.00  0.00     0.174 HD
ENDBRANCH   6  12
BRANCH   9  15
HETATM   15  O1  UNL     1      20.238  16.484  35.024  1.00  0.00    -0.338 OA
HETATM   16  C1  UNL     1      19.335  15.790  35.831  1.00  0.00     0.211 C 
ENDBRANCH   9  15
BRANCH   5  17
HETATM   17  O5  UNL     1      21.976  14.929  33.645  1.00  0.00    -0.354 OA
ATOM     18  H5  UNL     1      21.749  14.016  33.774  1.00  0.00     0.218 HD
ENDBRANCH   5  17
ENDBRANCH   1   2
BRANCH   1  19
HETATM   19  C6  UNL     1      22.539  12.717  30.615  1.00  0.00     0.091 C 
BRANCH  19  20
HETATM   20  C7  UNL     1      22.371  11.831  31.776  1.00  0.00     0.028 A 
HETATM   21  C8  UNL     1      22.243  10.461  31.696  1.00  0.00     0.114 A 
HETATM   22  N5  UNL     1      22.106   9.964  32.953  1.00  0.00    -0.360 N 
HETATM   23  C9  UNL     1      22.148  10.998  33.805  1.00  0.00     0.180 A 
ATOM     24  H5  UNL     1      21.992   8.981  33.203  1.00  0.00     0.166 HD
HETATM   25  N6  UNL     1      22.307  12.117  33.084  1.00  0.00    -0.354 N 
ATOM     26  H6  UNL     1      22.372  13.056  33.476  1.00  0.00     0.166 HD
ENDBRANCH  19  20
ENDBRANCH   1  19
BRANCH   1  27
HETATM   27  C10 UNL     1      24.100  14.600  30.210  1.00  0.00     0.172 C 
HETATM   28  O2  UNL     1      25.051  15.166  30.763  1.00  0.00    -0.291 OA
BRANCH  27  29
HETATM   29  C11 UNL     1      24.095  14.363  28.794  1.00  0.00     0.064 C 
HETATM   30  C12 UNL     1      23.930  15.264  27.848  1.00  0.00     0.118 C 
BRANCH  30  31
HETATM   31  S1  UNL     1      23.681  16.961  28.085  1.00  0.00     0.199 S 
HETATM   32  O3  UNL     1      22.980  17.301  29.368  1.00  0.00    -0.218 OA
HETATM   33  O4  UNL     1      22.902  17.565  26.944  1.00  0.00    -0.218 OA
BRANCH  31  34
HETATM   34  C13 UNL     1      25.266  17.740  28.195  1.00  0.00     0.095 A 
HETATM   35  C14 UNL     1      26.412  17.090  27.821  1.00  0.00     0.131 A 
HETATM   36  N7  UNL     1      27.576  17.758  27.941  1.00  0.00    -0.201 N 
HETATM   37  C15 UNL     1      27.615  19.007  28.407  1.00  0.00     0.675 A 
ATOM     38  H7  UNL     1      28.446  17.298  27.670  1.00  0.00     0.183 HD
HETATM   39  N9  UNL     1      26.502  19.651  28.776  1.00  0.00    -0.201 N 
HETATM   40  C16 UNL     1      25.322  19.017  28.670  1.00  0.00     0.131 A 
ATOM     41  H9  UNL     1      26.549  20.607  29.130  1.00  0.00     0.183 HD
BRANCH  37  42
HETATM   42  N8  UNL     1      28.750  19.635  28.515  1.00  0.00    -0.234 N 
ATOM     43  H82 UNL     1      29.273  19.533  29.384  1.00  0.00     0.174 HD
ATOM     44  H81 UNL     1      29.097  20.210  27.747  1.00  0.00     0.174 HD
ENDBRANCH  37  42
ENDBRANCH  31  34
ENDBRANCH  30  31
ENDBRANCH  27  29
ENDBRANCH   1  27
TORSDOF 11
ENDMDL
MODEL 2
REMARK VINA RESULT: -6.784529010      2.666      7.328
REMARK  11 active torsions:
REMARK  status: ('A' for Active; 'I' for Inactive)
REMARK    1  A    between atoms: O1_2  and  C2_3 
REMARK    2  A    between atoms: C3_6  and  N2_7 
REMARK    3  A    between atoms: N4_13  and  C5_15 
REMARK    4  A    between atoms: C5_15  and  C6_16 
REMARK    5  A    between atoms: C5_15  and  C10_24 
REMARK    6  A    between atoms: C6_16  and  C7_17 
REMARK    7  A    between atoms: C10_24  and  C11_26 
REMARK    8  A    between atoms: C12_27  and  S1_28 
REMARK    9  A    between atoms: S1_28  and  C13_31 
REMARK   10  A    between atoms: C15_35  and  N8_36 
REMARK   11  A    between atoms: C17_42  and  O5_43 
ROOT
HETATM    1  C5  UNL     1      22.123  15.240  29.581  1.00  0.00     0.163 C 
ENDROOT
BRANCH   1   2
HETATM    2  N4  UNL     1      23.279  15.913  29.970  1.00  0.00    -0.361 N 
HETATM    3  C4  UNL     1      24.050  16.770  29.552  1.00  0.00     0.155 A 
HETATM    4  N3  UNL     1      25.108  17.121  30.348  1.00  0.00    -0.174 N 
HETATM    5  C17 UNL     1      23.948  17.410  28.351  1.00  0.00     0.162 A 
HETATM    6  C3  UNL     1      25.998  18.049  29.962  1.00  0.00     0.679 A 
ATOM      7  H3  UNL     1      25.222  16.666  31.253  1.00  0.00     0.186 HD
HETATM    8  N1  UNL     1      25.900  18.683  28.779  1.00  0.00    -0.168 N 
HETATM    9  C2  UNL     1      24.886  18.379  27.960  1.00  0.00     0.194 A 
ATOM     10  H1  UNL     1      26.588  19.385  28.511  1.00  0.00     0.186 HD
ATOM     11  H4  UNL     1      23.576  15.593  30.892  1.00  0.00     0.162 HD
BRANCH   6  12
HETATM   12  N2  UNL     1      26.979  18.323  30.789  1.00  0.00    -0.234 N 
ATOM     13  H22 UNL     1      27.921  18.365  30.400  1.00  0.00     0.174 HD
ATOM     14  H21 UNL     1      26.796  18.485  31.779  1.00  0.00     0.174 HD
ENDBRANCH   6  12
BRANCH   9  15
HETATM   15  O1  UNL     1      24.723  18.983  26.743  1.00  0.00    -0.338 OA
HETATM   16  C1  UNL     1      24.031  20.173  26.518  1.00  0.00     0.211 C 
ENDBRANCH   9  15
BRANCH   5  17
HETATM   17  O5  UNL     1      22.912  17.113  27.493  1.00  0.00    -0.354 OA
ATOM     18  H5  UNL     1      22.023  17.147  27.826  1.00  0.00     0.218 HD
ENDBRANCH   5  17
ENDBRANCH   1   2
BRANCH   1  19
HETATM   19  C6  UNL     1      22.036  13.800  30.017  1.00  0.00     0.091 C 
BRANCH  19  20
HETATM   20  C7  UNL     1      23.095  13.419  30.962  1.00  0.00     0.028 A 
HETATM   21  C8  UNL     1      24.264  12.783  30.606  1.00  0.00     0.114 A 
HETATM   22  N5  UNL     1      25.009  12.585  31.725  1.00  0.00    -0.360 N 
HETATM   23  C9  UNL     1      24.324  13.086  32.762  1.00  0.00     0.180 A 
ATOM     24  H5  UNL     1      25.925  12.136  31.767  1.00  0.00     0.166 HD
HETATM   25  N6  UNL     1      23.173  13.585  32.291  1.00  0.00    -0.354 N 
ATOM     26  H6  UNL     1      22.455  14.030  32.863  1.00  0.00     0.166 HD
ENDBRANCH  19  20
ENDBRANCH   1  19
BRANCH   1  27
HETATM   27  C10 UNL     1      20.912  16.009  30.060  1.00  0.00     0.172 C 
HETATM   28  O2  UNL     1      20.811  17.228  29.881  1.00  0.00    -0.291 OA
BRANCH  27  29
HETATM   29  C11 UNL     1      19.882  15.267  30.732  1.00  0.00     0.064 C 
HETATM   30  C12 UNL     1      19.658  15.235  32.030  1.00  0.00     0.118 C 
BRANCH  30  31
HETATM   31  S1  UNL     1      20.553  16.085  33.244  1.00  0.00     0.199 S 
HETATM   32  O3  UNL     1      19.983  17.429  33.593  1.00  0.00    -0.218 OA
HETATM   33  O4  UNL     1      21.992  16.271  32.835  1.00  0.00    -0.218 OA
BRANCH  31  34
HETATM   34  C13 UNL     1      20.482  15.143  34.741  1.00  0.00     0.095 A 
HETATM   35  C14 UNL     1      21.300  15.422  35.803  1.00  0.00     0.131 A 
HETATM   36  N7  UNL     1      21.181  14.653  36.903  1.00  0.00    -0.201 N 
HETATM   37  C15 UNL     1      20.298  13.653  36.958  1.00  0.00     0.675 A 
ATOM     38  H7  UNL     1      21.777  14.838  37.710  1.00  0.00     0.183 HD
HETATM   39  N9  UNL     1      19.495  13.372  35.926  1.00  0.00    -0.201 N 
HETATM   40  C16 UNL     1      19.585  14.118  34.813  1.00  0.00     0.131 A 
ATOM     41  H9  UNL     1      18.825  12.604  35.984  1.00  0.00     0.183 HD
BRANCH  37  42
HETATM   42  N8  UNL     1      20.198  12.921  38.029  1.00  0.00    -0.234 N 
ATOM     43  H82 UNL     1      20.904  13.036  38.756  1.00  0.00     0.174 HD
ATOM     44  H81 UNL     1      19.432  12.255  38.129  1.00  0.00     0.174 HD
ENDBRANCH  37  42
ENDBRANCH  31  34
ENDBRANCH  30  31
ENDBRANCH  27  29
ENDBRANCH   1  27
TORSDOF 11
ENDMDL
MODEL 3
REMARK VINA RESULT: -6.725914431      2.696      7.423
REMARK  11 active torsions:
REMARK  status: ('A' for Active; 'I' for Inactive)
REMARK    1  A    between atoms: O1_2  and  C2_3 
REMARK    2  A    between atoms: C3_6  and  N2_7 
REMARK    3  A    between atoms: N4_13  and  C5_15 
REMARK    4  A    between atoms: C5_15  and  C6_16 
REMARK    5  A    between atoms: C5_15  and  C10_24 
REMARK    6  A    between atoms: C6_16  and  C7_17 
REMARK    7  A    between atoms: C10_24  and  C11_26 
REMARK    8  A    between atoms: C12_27  and  S1_28 
REMARK    9  A    between atoms: S1_28  and  C13_31 
REMARK   10  A    between atoms: C15_35  and  N8_36 
REMARK   11  A    between atoms: C17_42  and  O5_43 
ROOT
HETATM    1  C5  UNL     1      23.750  14.860  29.589  1.00  0.00     0.163 C 
ENDROOT
BRANCH   1   2
HETATM    2  N4  UNL     1      22.658  15.720  29.686  1.00  0.00    -0.361 N 
HETATM    3  C4  UNL     1      22.193  16.710  29.132  1.00  0.00     0.155 A 
HETATM    4  N3  UNL     1      21.024  17.227  29.623  1.00  0.00    -0.174 N 
HETATM    5  C17 UNL     1      22.745  17.350  28.061  1.00  0.00     0.162 A 
HETATM    6  C3  UNL     1      20.451  18.310  29.074  1.00  0.00     0.679 A 
ATOM      7  H3  UNL     1      20.579  16.779  30.424  1.00  0.00     0.186 HD
HETATM    8  N1  UNL     1      20.991  18.943  28.017  1.00  0.00    -0.168 N 
HETATM    9  C2  UNL     1      22.135  18.483  27.496  1.00  0.00     0.194 A 
ATOM     10  H1  UNL     1      20.535  19.763  27.618  1.00  0.00     0.186 HD
ATOM     11  H4  UNL     1      22.058  15.436  30.461  1.00  0.00     0.162 HD
BRANCH   6  12
HETATM   12  N2  UNL     1      19.332  18.735  29.609  1.00  0.00    -0.234 N 
ATOM     13  H22 UNL     1      18.580  19.002  28.972  1.00  0.00     0.174 HD
ATOM     14  H21 UNL     1      19.227  18.793  30.622  1.00  0.00     0.174 HD
ENDBRANCH   6  12
BRANCH   9  15
HETATM   15  O1  UNL     1      22.740  19.075  26.422  1.00  0.00    -0.338 OA
HETATM   16  C1  UNL     1      23.814  19.963  26.489  1.00  0.00     0.211 C 
ENDBRANCH   9  15
BRANCH   5  17
HETATM   17  O5  UNL     1      23.921  16.893  27.509  1.00  0.00    -0.354 OA
ATOM     18  H5  UNL     1      24.740  17.127  27.929  1.00  0.00     0.218 HD
ENDBRANCH   5  17
ENDBRANCH   1   2
BRANCH   1  19
HETATM   19  C6  UNL     1      24.972  15.276  30.368  1.00  0.00     0.091 C 
BRANCH  19  20
HETATM   20  C7  UNL     1      25.984  15.943  29.537  1.00  0.00     0.028 A 
HETATM   21  C8  UNL     1      26.582  17.143  29.853  1.00  0.00     0.114 A 
HETATM   22  N5  UNL     1      27.462  17.463  28.869  1.00  0.00    -0.360 N 
HETATM   23  C9  UNL     1      27.419  16.485  27.953  1.00  0.00     0.180 A 
ATOM     24  H5  UNL     1      28.050  18.296  28.833  1.00  0.00     0.166 HD
HETATM   25  N6  UNL     1      26.525  15.576  28.366  1.00  0.00    -0.354 N 
ATOM     26  H6  UNL     1      26.288  14.722  27.860  1.00  0.00     0.166 HD
ENDBRANCH  19  20
ENDBRANCH   1  19
BRANCH   1  27
HETATM   27  C10 UNL     1      23.323  13.464  29.986  1.00  0.00     0.172 C 
HETATM   28  O2  UNL     1      22.664  12.750  29.220  1.00  0.00    -0.291 OA
BRANCH  27  29
HETATM   29  C11 UNL     1      23.714  12.998  31.286  1.00  0.00     0.064 C 
HETATM   30  C12 UNL     1      23.153  13.316  32.435  1.00  0.00     0.118 C 
BRANCH  30  31
HETATM   31  S1  UNL     1      21.802  14.376  32.655  1.00  0.00     0.199 S 
HETATM   32  O3  UNL     1      20.674  14.132  31.695  1.00  0.00    -0.218 OA
HETATM   33  O4  UNL     1      22.215  15.821  32.546  1.00  0.00    -0.218 OA
BRANCH  31  34
HETATM   34  C13 UNL     1      21.123  14.075  34.261  1.00  0.00     0.095 A 
HETATM   35  C14 UNL     1      19.811  14.346  34.548  1.00  0.00     0.131 A 
HETATM   36  N7  UNL     1      19.379  14.089  35.798  1.00  0.00    -0.201 N 
HETATM   37  C15 UNL     1      20.197  13.590  36.726  1.00  0.00     0.675 A 
ATOM     38  H7  UNL     1      18.406  14.281  36.039  1.00  0.00     0.183 HD
HETATM   39  N9  UNL     1      21.479  13.322  36.458  1.00  0.00    -0.201 N 
HETATM   40  C16 UNL     1      21.946  13.565  35.221  1.00  0.00     0.131 A 
ATOM     41  H9  UNL     1      22.092  12.940  37.179  1.00  0.00     0.183 HD
BRANCH  37  42
HETATM   42  N8  UNL     1      19.759  13.348  37.928  1.00  0.00    -0.234 N 
ATOM     43  H82 UNL     1      18.913  12.789  38.027  1.00  0.00     0.174 HD
ATOM     44  H81 UNL     1      20.257  13.713  38.741  1.00  0.00     0.174 HD
ENDBRANCH  37  42
ENDBRANCH  31  34
ENDBRANCH  30  31
ENDBRANCH  27  29
ENDBRANCH   1  27
TORSDOF 11
ENDMDL
MODEL 4
REMARK VINA RESULT: -6.671603680      2.853      7.927
REMARK  11 active torsions:
REMARK  status: ('A' for Active; 'I' for Inactive)
REMARK    1  A    between atoms: O1_2  and  C2_3 
REMARK    2  A    between atoms: C3_6  and  N2_7 
REMARK    3  A    between atoms: N4_13  and  C5_15 
REMARK    4  A    between atoms: C5_15  and  C6_16 
REMARK    5  A    between atoms: C5_15  and  C10_24 
REMARK    6  A    between atoms: C6_16  and  C7_17 
REMARK    7  A    between atoms: C10_24  and  C11_26 
REMARK    8  A    between atoms: C12_27  and  S1_28 
REMARK    9  A    between atoms: S1_28  and  C13_31 
REMARK   10  A    between atoms: C15_35  and  N8_36 
REMARK   11  A    between atoms: C17_42  and  O5_43 
ROOT
HETATM    1  C5  UNL     1      22.207  16.638  29.696  1.00  0.00     0.163 C 
ENDROOT
BRANCH   1   2
HETATM    2  N4  UNL     1      22.724  15.362  29.905  1.00  0.00    -0.361 N 
HETATM    3  C4  UNL     1      23.680  14.814  30.444  1.00  0.00     0.155 A 
HETATM    4  N3  UNL     1      23.757  13.449  30.376  1.00  0.00    -0.174 N 
HETATM    5  C17 UNL     1      24.685  15.453  31.111  1.00  0.00     0.162 A 
HETATM    6  C3  UNL     1      24.773  12.775  30.939  1.00  0.00     0.679 A 
ATOM      7  H3  UNL     1      23.027  12.933  29.886  1.00  0.00     0.186 HD
HETATM    8  N1  UNL     1      25.765  13.401  31.598  1.00  0.00    -0.168 N 
HETATM    9  C2  UNL     1      25.742  14.735  31.696  1.00  0.00     0.194 A 
ATOM     10  H1  UNL     1      26.524  12.865  32.018  1.00  0.00     0.186 HD
ATOM     11  H4  UNL     1      22.117  14.664  29.476  1.00  0.00     0.162 HD
BRANCH   6  12
HETATM   12  N2  UNL     1      24.765  11.469  30.825  1.00  0.00    -0.234 N 
ATOM     13  H22 UNL     1      25.661  11.005  30.675  1.00  0.00     0.174 HD
ATOM     14  H21 UNL     1      23.891  10.946  30.885  1.00  0.00     0.174 HD
ENDBRANCH   6  12
BRANCH   9  15
HETATM   15  O1  UNL     1      26.716  15.437  32.350  1.00  0.00    -0.338 OA
HETATM   16  C1  UNL     1      28.006  15.671  31.870  1.00  0.00     0.211 C 
ENDBRANCH   9  15
BRANCH   5  17
HETATM   17  O5  UNL     1      24.681  16.826  31.224  1.00  0.00    -0.354 OA
ATOM     18  H5  UNL     1      24.778  17.345  30.435  1.00  0.00     0.218 HD
ENDBRANCH   5  17
ENDBRANCH   1   2
BRANCH   1  19
HETATM   19  C6  UNL     1      22.377  17.184  28.302  1.00  0.00     0.091 C 
BRANCH  19  20
HETATM   20  C7  UNL     1      23.549  18.060  28.166  1.00  0.00     0.028 A 
HETATM   21  C8  UNL     1      23.490  19.389  27.804  1.00  0.00     0.114 A 
HETATM   22  N5  UNL     1      24.753  19.888  27.777  1.00  0.00    -0.360 N 
HETATM   23  C9  UNL     1      25.589  18.897  28.115  1.00  0.00     0.180 A 
ATOM     24  H5  UNL     1      25.017  20.846  27.542  1.00  0.00     0.166 HD
HETATM   25  N6  UNL     1      24.852  17.801  28.346  1.00  0.00    -0.354 N 
ATOM     26  H6  UNL     1      25.231  16.894  28.621  1.00  0.00     0.166 HD
ENDBRANCH  19  20
ENDBRANCH   1  19
BRANCH   1  27
HETATM   27  C10 UNL     1      20.748  16.658  30.094  1.00  0.00     0.172 C 
HETATM   28  O2  UNL     1      20.054  17.671  29.947  1.00  0.00    -0.291 OA
BRANCH  27  29
HETATM   29  C11 UNL     1      20.198  15.453  30.651  1.00  0.00     0.064 C 
HETATM   30  C12 UNL     1      20.137  15.136  31.928  1.00  0.00     0.118 C 
BRANCH  30  31
HETATM   31  S1  UNL     1      20.706  16.098  33.250  1.00  0.00     0.199 S 
HETATM   32  O3  UNL     1      19.889  17.331  33.501  1.00  0.00    -0.218 OA
HETATM   33  O4  UNL     1      22.141  16.512  33.049  1.00  0.00    -0.218 OA
BRANCH  31  34
HETATM   34  C13 UNL     1      20.571  15.136  34.729  1.00  0.00     0.095 A 
HETATM   35  C14 UNL     1      21.356  15.388  35.823  1.00  0.00     0.131 A 
HETATM   36  N7  UNL     1      21.188  14.604  36.906  1.00  0.00    -0.201 N 
HETATM   37  C15 UNL     1      20.291  13.617  36.916  1.00  0.00     0.675 A 
ATOM     38  H7  UNL     1      21.759  14.769  37.735  1.00  0.00     0.183 HD
HETATM   39  N9  UNL     1      19.519  13.362  35.854  1.00  0.00    -0.201 N 
HETATM   40  C16 UNL     1      19.658  14.123  34.755  1.00  0.00     0.131 A 
ATOM     41  H9  UNL     1      18.837  12.603  35.877  1.00  0.00     0.183 HD
BRANCH  37  42
HETATM   42  N8  UNL     1      20.144  12.871  37.972  1.00  0.00    -0.234 N 
ATOM     43  H82 UNL     1      20.667  11.998  38.019  1.00  0.00     0.174 HD
ATOM     44  H81 UNL     1      19.520  13.161  38.726  1.00  0.00     0.174 HD
ENDBRANCH  37  42
ENDBRANCH  31  34
ENDBRANCH  30  31
ENDBRANCH  27  29
ENDBRANCH   1  27
TORSDOF 11
ENDMDL
MODEL 5
REMARK VINA RESULT: -6.458773799      2.603      7.082
REMARK  11 active torsions:
REMARK  status: ('A' for Active; 'I' for Inactive)
REMARK    1  A    between atoms: O1_2  and  C2_3 
REMARK    2  A    between atoms: C3_6  and  N2_7 
REMARK    3  A    between atoms: N4_13  and  C5_15 
REMARK    4  A    between atoms: C5_15  and  C6_16 
REMARK    5  A    between atoms: C5_15  and  C10_24 
REMARK    6  A    between atoms: C6_16  and  C7_17 
REMARK    7  A    between atoms: C10_24  and  C11_26 
REMARK    8  A    between atoms: C12_27  and  S1_28 
REMARK    9  A    between atoms: S1_28  and  C13_31 
REMARK   10  A    between atoms: C15_35  and  N8_36 
REMARK   11  A    between atoms: C17_42  and  O5_43 
ROOT
HETATM    1  C5  UNL     1      24.192  15.006  29.672  1.00  0.00     0.163 C 
ENDROOT
BRANCH   1   2
HETATM    2  N4  UNL     1      23.022  15.759  29.739  1.00  0.00    -0.361 N 
HETATM    3  C4  UNL     1      22.476  16.695  29.164  1.00  0.00     0.155 A 
HETATM    4  N3  UNL     1      21.254  17.103  29.626  1.00  0.00    -0.174 N 
HETATM    5  C17 UNL     1      22.985  17.372  28.094  1.00  0.00     0.162 A 
HETATM    6  C3  UNL     1      20.591  18.121  29.053  1.00  0.00     0.679 A 
ATOM      7  H3  UNL     1      20.838  16.624  30.424  1.00  0.00     0.186 HD
HETATM    8  N1  UNL     1      21.089  18.791  27.998  1.00  0.00    -0.168 N 
HETATM    9  C2  UNL     1      22.281  18.435  27.503  1.00  0.00     0.194 A 
ATOM     10  H1  UNL     1      20.565  19.559  27.580  1.00  0.00     0.186 HD
ATOM     11  H4  UNL     1      22.436  15.428  30.505  1.00  0.00     0.162 HD
BRANCH   6  12
HETATM   12  N2  UNL     1      19.426  18.443  29.561  1.00  0.00    -0.234 N 
ATOM     13  H22 UNL     1      18.792  17.680  29.800  1.00  0.00     0.174 HD
ATOM     14  H21 UNL     1      19.174  19.421  29.707  1.00  0.00     0.174 HD
ENDBRANCH   6  12
BRANCH   9  15
HETATM   15  O1  UNL     1      22.848  19.071  26.433  1.00  0.00    -0.338 OA
HETATM   16  C1  UNL     1      23.724  20.154  26.508  1.00  0.00     0.211 C 
ENDBRANCH   9  15
BRANCH   5  17
HETATM   17  O5  UNL     1      24.209  17.022  27.569  1.00  0.00    -0.354 OA
ATOM     18  H5  UNL     1      24.230  16.513  26.768  1.00  0.00     0.218 HD
ENDBRANCH   5  17
ENDBRANCH   1   2
BRANCH   1  19
HETATM   19  C6  UNL     1      25.255  15.374  30.675  1.00  0.00     0.091 C 
BRANCH  19  20
HETATM   20  C7  UNL     1      26.013  16.574  30.296  1.00  0.00     0.028 A 
HETATM   21  C8  UNL     1      26.163  17.685  31.097  1.00  0.00     0.114 A 
HETATM   22  N5  UNL     1      26.919  18.600  30.435  1.00  0.00    -0.360 N 
HETATM   23  C9  UNL     1      27.238  18.076  29.243  1.00  0.00     0.180 A 
ATOM     24  H5  UNL     1      27.194  19.519  30.782  1.00  0.00     0.166 HD
HETATM   25  N6  UNL     1      26.686  16.856  29.171  1.00  0.00    -0.354 N 
ATOM     26  H6  UNL     1      26.767  16.228  28.371  1.00  0.00     0.166 HD
ENDBRANCH  19  20
ENDBRANCH   1  19
BRANCH   1  27
HETATM   27  C10 UNL     1      23.848  13.537  29.785  1.00  0.00     0.172 C 
HETATM   28  O2  UNL     1      24.730  12.671  29.831  1.00  0.00    -0.291 OA
BRANCH  27  29
HETATM   29  C11 UNL     1      22.456  13.186  29.837  1.00  0.00     0.064 C 
HETATM   30  C12 UNL     1      21.752  12.931  30.920  1.00  0.00     0.118 C 
BRANCH  30  31
HETATM   31  S1  UNL     1      22.334  12.958  32.550  1.00  0.00     0.199 S 
HETATM   32  O3  UNL     1      23.727  13.500  32.691  1.00  0.00    -0.218 OA
HETATM   33  O4  UNL     1      22.294  11.585  33.170  1.00  0.00    -0.218 OA
BRANCH  31  34
HETATM   34  C13 UNL     1      21.308  14.057  33.483  1.00  0.00     0.095 A 
HETATM   35  C14 UNL     1      20.745  13.676  34.673  1.00  0.00     0.131 A 
HETATM   36  N7  UNL     1      19.975  14.575  35.316  1.00  0.00    -0.201 N 
HETATM   37  C15 UNL     1      19.764  15.794  34.814  1.00  0.00     0.675 A 
ATOM     38  H7  UNL     1      19.543  14.319  36.204  1.00  0.00     0.183 HD
HETATM   39  N9  UNL     1      20.308  16.176  33.653  1.00  0.00    -0.201 N 
HETATM   40  C16 UNL     1      21.083  15.306  32.984  1.00  0.00     0.131 A 
ATOM     41  H9  UNL     1      20.137  17.111  33.283  1.00  0.00     0.183 HD
BRANCH  37  42
HETATM   42  N8  UNL     1      19.017  16.648  35.450  1.00  0.00    -0.234 N 
ATOM     43  H82 UNL     1      18.718  16.413  36.396  1.00  0.00     0.174 HD
ATOM     44  H81 UNL     1      18.743  17.525  35.007  1.00  0.00     0.174 HD
ENDBRANCH  37  42
ENDBRANCH  31  34
ENDBRANCH  30  31
ENDBRANCH  27  29
ENDBRANCH   1  27
TORSDOF 11
ENDMDL
