MODEL 1
REMARK VINA RESULT: -7.211358437      0.000      0.000
REMARK  6 active torsions:
REMARK  status: ('A' for Active; 'I' for Inactive)
REMARK    1  A    between atoms: N1_2  and  C2_3 
REMARK       I    between atoms: N1_2  and  C4_7 
REMARK    2  A    between atoms: C2_3  and  C3_4 
REMARK    3  A    between atoms: C3_4  and  O1_5 
REMARK    4  A    between atoms: C4_7  and  C5_9 
REMARK    5  A    between atoms: C5_9  and  O3_10 
REMARK    6  A    between atoms: C17_24  and  O4_25 
ROOT
HETATM    1  C5  UNL     1      -2.265   4.516  12.880  1.00  0.00     0.146 C 
HETATM    2  C6  UNL     1      -0.964   5.334  13.078  1.00  0.00     0.049 C 
HETATM    3  C7  UNL     1      -1.111   6.365  11.978  1.00  0.00     0.009 C 
HETATM    4  C8  UNL     1      -2.537   6.727  12.081  1.00  0.00     0.002 C 
HETATM    5  C9  UNL     1      -3.135   7.486  10.937  1.00  0.00    -0.002 C 
HETATM    6  C10 UNL     1      -2.679   7.142   9.590  1.00  0.00     0.033 C 
HETATM    7  C11 UNL     1      -3.622   6.649   8.606  1.00  0.00    -0.007 C 
HETATM    8  C12 UNL     1      -4.815   7.048   8.298  1.00  0.00     0.027 C 
HETATM    9  C13 UNL     1      -5.502   6.337   7.255  1.00  0.00     0.095 C 
HETATM   10  N2  UNL     1      -6.055   5.756   6.399  1.00  0.00    -0.192 NA
HETATM   11  C14 UNL     1      -5.582   8.135   8.875  1.00  0.00    -0.001 C 
HETATM   12  C15 UNL     1      -7.070   7.829   8.618  1.00  0.00     0.021 C 
HETATM   13  C16 UNL     1      -5.292   9.383   8.075  1.00  0.00     0.046 C 
HETATM   14  C17 UNL     1      -4.398  10.269   8.907  1.00  0.00     0.119 C 
HETATM   15  C18 UNL     1      -4.816   9.926  10.313  1.00  0.00     0.038 C 
HETATM   16  C19 UNL     1      -5.359   8.521  10.256  1.00  0.00     0.006 C 
HETATM   17  C20 UNL     1      -4.597   7.602  11.167  1.00  0.00    -0.005 C 
HETATM   18  C21 UNL     1      -5.309   6.313  11.385  1.00  0.00     0.006 C 
HETATM   19  C22 UNL     1      -4.448   5.143  11.750  1.00  0.00     0.013 C 
HETATM   20  C23 UNL     1      -3.305   5.555  12.608  1.00  0.00     0.000 C 
HETATM   21  C24 UNL     1      -3.930   5.868  13.989  1.00  0.00     0.019 C 
ENDROOT
BRANCH  14  22
HETATM   22  O4  UNL     1      -4.753  11.590   8.567  1.00  0.00    -0.396 OA
ATOM     23  H4  UNL     1      -3.953  11.999   8.261  1.00  0.00     0.210 HD
ENDBRANCH  14  22
BRANCH   1  24
HETATM   24  C4  UNL     1      -2.091   3.452  11.924  1.00  0.00     0.255 C 
HETATM   25  N1  UNL     1      -2.772   2.264  11.774  1.00  0.00    -0.352 N 
HETATM   26  C1  UNL     1      -2.260   1.299  10.719  1.00  0.00     0.152 C 
HETATM   27  O2  UNL     1      -1.142   3.635  11.072  1.00  0.00    -0.270 OA
BRANCH  25  28
HETATM   28  C2  UNL     1      -3.963   1.755  12.387  1.00  0.00     0.151 C 
BRANCH  28  29
HETATM   29  C3  UNL     1      -4.918   1.071  11.454  1.00  0.00     0.183 C 
BRANCH  29  30
HETATM   30  O1  UNL     1      -5.960   1.877  11.118  1.00  0.00    -0.399 OA
ATOM     31  H1  UNL     1      -5.719   2.504  10.446  1.00  0.00     0.209 HD
ENDBRANCH  29  30
ENDBRANCH  28  29
ENDBRANCH  25  28
ENDBRANCH   1  24
BRANCH   1  32
HETATM   32  O3  UNL     1      -2.422   3.942  14.164  1.00  0.00    -0.379 OA
ATOM     33  H3  UNL     1      -3.344   3.751  14.297  1.00  0.00     0.211 HD
ENDBRANCH   1  32
TORSDOF 6
ENDMDL
MODEL 2
REMARK VINA RESULT: -7.173867623      3.205      6.044
REMARK  6 active torsions:
REMARK  status: ('A' for Active; 'I' for Inactive)
REMARK    1  A    between atoms: N1_2  and  C2_3 
REMARK       I    between atoms: N1_2  and  C4_7 
REMARK    2  A    between atoms: C2_3  and  C3_4 
REMARK    3  A    between atoms: C3_4  and  O1_5 
REMARK    4  A    between atoms: C4_7  and  C5_9 
REMARK    5  A    between atoms: C5_9  and  O3_10 
REMARK    6  A    between atoms: C17_24  and  O4_25 
ROOT
HETATM    1  C5  UNL     1      -0.759   6.434  10.292  1.00  0.00     0.146 C 
HETATM    2  C6  UNL     1      -1.638   7.654   9.913  1.00  0.00     0.049 C 
HETATM    3  C7  UNL     1      -2.961   7.246  10.526  1.00  0.00     0.009 C 
HETATM    4  C8  UNL     1      -2.542   6.689  11.827  1.00  0.00     0.002 C 
HETATM    5  C9  UNL     1      -3.552   5.882  12.582  1.00  0.00    -0.002 C 
HETATM    6  C10 UNL     1      -4.450   5.029  11.804  1.00  0.00     0.033 C 
HETATM    7  C11 UNL     1      -4.452   3.595  12.010  1.00  0.00    -0.007 C 
HETATM    8  C12 UNL     1      -4.431   2.893  13.098  1.00  0.00     0.027 C 
HETATM    9  C13 UNL     1      -4.443   1.462  12.961  1.00  0.00     0.095 C 
HETATM   10  N2  UNL     1      -4.458   0.295  12.844  1.00  0.00    -0.192 NA
HETATM   11  C14 UNL     1      -4.389   3.354  14.471  1.00  0.00    -0.001 C 
HETATM   12  C15 UNL     1      -3.787   2.215  15.317  1.00  0.00     0.021 C 
HETATM   13  C16 UNL     1      -5.812   3.496  14.957  1.00  0.00     0.046 C 
HETATM   14  C17 UNL     1      -6.134   4.968  15.023  1.00  0.00     0.119 C 
HETATM   15  C18 UNL     1      -4.793   5.582  15.328  1.00  0.00     0.038 C 
HETATM   16  C19 UNL     1      -3.763   4.625  14.786  1.00  0.00     0.006 C 
HETATM   17  C20 UNL     1      -2.882   5.288  13.766  1.00  0.00    -0.005 C 
HETATM   18  C21 UNL     1      -1.665   4.482  13.469  1.00  0.00     0.006 C 
HETATM   19  C22 UNL     1      -1.047   4.703  12.124  1.00  0.00     0.013 C 
HETATM   20  C23 UNL     1      -1.162   6.124  11.697  1.00  0.00     0.000 C 
HETATM   21  C24 UNL     1      -0.154   6.893  12.584  1.00  0.00     0.019 C 
ENDROOT
BRANCH  14  22
HETATM   22  O4  UNL     1      -7.029   5.112  16.103  1.00  0.00    -0.396 OA
ATOM     23  H4  UNL     1      -6.487   5.123  16.883  1.00  0.00     0.210 HD
ENDBRANCH  14  22
BRANCH   1  24
HETATM   24  C4  UNL     1      -0.839   5.386   9.306  1.00  0.00     0.255 C 
HETATM   25  N1  UNL     1       0.055   4.388   8.987  1.00  0.00    -0.352 N 
HETATM   26  C1  UNL     1      -0.291   3.499   7.806  1.00  0.00     0.152 C 
HETATM   27  O2  UNL     1      -1.919   5.382   8.604  1.00  0.00    -0.270 OA
BRANCH  25  28
HETATM   28  C2  UNL     1       1.267   3.947   9.612  1.00  0.00     0.151 C 
BRANCH  28  29
HETATM   29  C3  UNL     1       2.505   4.099   8.781  1.00  0.00     0.183 C 
BRANCH  29  30
HETATM   30  O1  UNL     1       3.485   3.242   9.173  1.00  0.00    -0.399 OA
ATOM     31  H1  UNL     1       4.075   3.030   8.459  1.00  0.00     0.209 HD
ENDBRANCH  29  30
ENDBRANCH  28  29
ENDBRANCH  25  28
ENDBRANCH   1  24
BRANCH   1  32
HETATM   32  O3  UNL     1       0.536   7.005  10.233  1.00  0.00    -0.379 OA
ATOM     33  H3  UNL     1       0.511   7.851  10.665  1.00  0.00     0.211 HD
ENDBRANCH   1  32
TORSDOF 6
ENDMDL
MODEL 3
REMARK VINA RESULT: -7.172506901      3.281      4.548
REMARK  6 active torsions:
REMARK  status: ('A' for Active; 'I' for Inactive)
REMARK    1  A    between atoms: N1_2  and  C2_3 
REMARK       I    between atoms: N1_2  and  C4_7 
REMARK    2  A    between atoms: C2_3  and  C3_4 
REMARK    3  A    between atoms: C3_4  and  O1_5 
REMARK    4  A    between atoms: C4_7  and  C5_9 
REMARK    5  A    between atoms: C5_9  and  O3_10 
REMARK    6  A    between atoms: C17_24  and  O4_25 
ROOT
HETATM    1  C5  UNL     1      -3.936   3.669  13.129  1.00  0.00     0.146 C 
HETATM    2  C6  UNL     1      -3.701   3.313  14.619  1.00  0.00     0.049 C 
HETATM    3  C7  UNL     1      -2.600   4.292  14.970  1.00  0.00     0.009 C 
HETATM    4  C8  UNL     1      -3.057   5.526  14.303  1.00  0.00     0.002 C 
HETATM    5  C9  UNL     1      -2.059   6.632  14.153  1.00  0.00    -0.002 C 
HETATM    6  C10 UNL     1      -0.674   6.255  13.874  1.00  0.00     0.033 C 
HETATM    7  C11 UNL     1      -0.030   6.698  12.654  1.00  0.00    -0.007 C 
HETATM    8  C12 UNL     1      -0.027   7.851  12.065  1.00  0.00     0.027 C 
HETATM    9  C13 UNL     1       0.726   7.969  10.846  1.00  0.00     0.095 C 
HETATM   10  N2  UNL     1       1.345   8.060   9.854  1.00  0.00    -0.192 NA
HETATM   11  C14 UNL     1      -0.697   9.072  12.465  1.00  0.00    -0.001 C 
HETATM   12  C15 UNL     1      -0.883   9.927  11.197  1.00  0.00     0.021 C 
HETATM   13  C16 UNL     1       0.255   9.859  13.335  1.00  0.00     0.046 C 
HETATM   14  C17 UNL     1      -0.223   9.750  14.762  1.00  0.00     0.119 C 
HETATM   15  C18 UNL     1      -1.713   9.607  14.597  1.00  0.00     0.038 C 
HETATM   16  C19 UNL     1      -1.926   9.002  13.232  1.00  0.00     0.006 C 
HETATM   17  C20 UNL     1      -2.669   7.700  13.321  1.00  0.00    -0.005 C 
HETATM   18  C21 UNL     1      -3.182   7.257  11.995  1.00  0.00     0.006 C 
HETATM   19  C22 UNL     1      -3.396   5.784  11.836  1.00  0.00     0.013 C 
HETATM   20  C23 UNL     1      -3.871   5.161  13.101  1.00  0.00     0.000 C 
HETATM   21  C24 UNL     1      -5.338   5.629  13.253  1.00  0.00     0.019 C 
ENDROOT
BRANCH  14  22
HETATM   22  O4  UNL     1       0.118  10.975  15.370  1.00  0.00    -0.396 OA
ATOM     23  H4  UNL     1      -0.486  11.075  16.097  1.00  0.00     0.210 HD
ENDBRANCH  14  22
BRANCH   1  24
HETATM   24  C4  UNL     1      -3.062   2.927  12.255  1.00  0.00     0.255 C 
HETATM   25  N1  UNL     1      -3.090   1.603  11.876  1.00  0.00    -0.352 N 
HETATM   26  C1  UNL     1      -1.943   1.103  11.016  1.00  0.00     0.152 C 
HETATM   27  O2  UNL     1      -2.093   3.608  11.747  1.00  0.00    -0.270 OA
BRANCH  25  28
HETATM   28  C2  UNL     1      -4.060   0.567  12.073  1.00  0.00     0.151 C 
BRANCH  28  29
HETATM   29  C3  UNL     1      -5.043   0.390  10.954  1.00  0.00     0.183 C 
BRANCH  29  30
HETATM   30  O1  UNL     1      -5.876   1.458  10.840  1.00  0.00    -0.399 OA
ATOM     31  H1  UNL     1      -5.398   2.262  10.673  1.00  0.00     0.209 HD
ENDBRANCH  29  30
ENDBRANCH  28  29
ENDBRANCH  25  28
ENDBRANCH   1  24
BRANCH   1  32
HETATM   32  O3  UNL     1      -5.258   3.198  12.943  1.00  0.00    -0.379 OA
ATOM     33  H3  UNL     1      -5.785   3.486  13.679  1.00  0.00     0.211 HD
ENDBRANCH   1  32
TORSDOF 6
ENDMDL
MODEL 4
REMARK VINA RESULT: -7.151975390      1.434      1.794
REMARK  6 active torsions:
REMARK  status: ('A' for Active; 'I' for Inactive)
REMARK    1  A    between atoms: N1_2  and  C2_3 
REMARK       I    between atoms: N1_2  and  C4_7 
REMARK    2  A    between atoms: C2_3  and  C3_4 
REMARK    3  A    between atoms: C3_4  and  O1_5 
REMARK    4  A    between atoms: C4_7  and  C5_9 
REMARK    5  A    between atoms: C5_9  and  O3_10 
REMARK    6  A    between atoms: C17_24  and  O4_25 
ROOT
HETATM    1  C5  UNL     1      -2.655   4.145  13.070  1.00  0.00     0.146 C 
HETATM    2  C6  UNL     1      -1.180   4.273  12.611  1.00  0.00     0.049 C 
HETATM    3  C7  UNL     1      -1.351   5.083  11.344  1.00  0.00     0.009 C 
HETATM    4  C8  UNL     1      -2.355   6.085  11.749  1.00  0.00     0.002 C 
HETATM    5  C9  UNL     1      -3.022   6.864  10.658  1.00  0.00    -0.002 C 
HETATM    6  C10 UNL     1      -3.319   6.160   9.412  1.00  0.00     0.033 C 
HETATM    7  C11 UNL     1      -4.688   6.036   8.953  1.00  0.00    -0.007 C 
HETATM    8  C12 UNL     1      -5.650   6.901   8.907  1.00  0.00     0.027 C 
HETATM    9  C13 UNL     1      -6.915   6.456   8.386  1.00  0.00     0.095 C 
HETATM   10  N2  UNL     1      -7.942   6.089   7.956  1.00  0.00    -0.192 NA
HETATM   11  C14 UNL     1      -5.638   8.290   9.322  1.00  0.00    -0.001 C 
HETATM   12  C15 UNL     1      -7.095   8.687   9.625  1.00  0.00     0.021 C 
HETATM   13  C16 UNL     1      -5.241   9.126   8.128  1.00  0.00     0.046 C 
HETATM   14  C17 UNL     1      -3.824   9.595   8.342  1.00  0.00     0.119 C 
HETATM   15  C18 UNL     1      -3.735   9.692   9.842  1.00  0.00     0.038 C 
HETATM   16  C19 UNL     1      -4.748   8.717  10.385  1.00  0.00     0.006 C 
HETATM   17  C20 UNL     1      -4.099   7.687  11.265  1.00  0.00    -0.005 C 
HETATM   18  C21 UNL     1      -5.098   6.930  12.070  1.00  0.00     0.006 C 
HETATM   19  C22 UNL     1      -4.684   5.559  12.504  1.00  0.00     0.013 C 
HETATM   20  C23 UNL     1      -3.229   5.500  12.814  1.00  0.00     0.000 C 
HETATM   21  C24 UNL     1      -3.072   6.262  14.151  1.00  0.00     0.019 C 
ENDROOT
BRANCH  14  22
HETATM   22  O4  UNL     1      -3.749  10.865   7.734  1.00  0.00    -0.396 OA
ATOM     23  H4  UNL     1      -3.690  11.487   8.449  1.00  0.00     0.210 HD
ENDBRANCH  14  22
BRANCH   1  24
HETATM   24  C4  UNL     1      -3.304   3.001  12.482  1.00  0.00     0.255 C 
HETATM   25  N1  UNL     1      -4.171   2.083  13.032  1.00  0.00    -0.352 N 
HETATM   26  C1  UNL     1      -4.594   0.916  12.157  1.00  0.00     0.152 C 
HETATM   27  O2  UNL     1      -3.027   2.796  11.240  1.00  0.00    -0.270 OA
BRANCH  25  28
HETATM   28  C2  UNL     1      -4.846   2.036  14.295  1.00  0.00     0.151 C 
BRANCH  28  29
HETATM   29  C3  UNL     1      -4.384   0.955  15.226  1.00  0.00     0.183 C 
BRANCH  29  30
HETATM   30  O1  UNL     1      -3.451   1.409  16.104  1.00  0.00    -0.399 OA
ATOM     31  H1  UNL     1      -3.366   0.836  16.857  1.00  0.00     0.209 HD
ENDBRANCH  29  30
ENDBRANCH  28  29
ENDBRANCH  25  28
ENDBRANCH   1  24
BRANCH   1  32
HETATM   32  O3  UNL     1      -2.488   3.900  14.454  1.00  0.00    -0.379 OA
ATOM     33  H3  UNL     1      -1.891   4.552  14.804  1.00  0.00     0.211 HD
ENDBRANCH   1  32
TORSDOF 6
ENDMDL
MODEL 5
REMARK VINA RESULT: -6.894247802      3.460      5.396
REMARK  6 active torsions:
REMARK  status: ('A' for Active; 'I' for Inactive)
REMARK    1  A    between atoms: N1_2  and  C2_3 
REMARK       I    between atoms: N1_2  and  C4_7 
REMARK    2  A    between atoms: C2_3  and  C3_4 
REMARK    3  A    between atoms: C3_4  and  O1_5 
REMARK    4  A    between atoms: C4_7  and  C5_9 
REMARK    5  A    between atoms: C5_9  and  O3_10 
REMARK    6  A    between atoms: C17_24  and  O4_25 
ROOT
HETATM    1  C5  UNL     1      -3.450   3.374  10.917  1.00  0.00     0.146 C 
HETATM    2  C6  UNL     1      -3.517   3.881  12.380  1.00  0.00     0.049 C 
HETATM    3  C7  UNL     1      -2.145   4.505  12.523  1.00  0.00     0.009 C 
HETATM    4  C8  UNL     1      -1.987   5.207  11.235  1.00  0.00     0.002 C 
HETATM    5  C9  UNL     1      -0.611   5.673  10.875  1.00  0.00    -0.002 C 
HETATM    6  C10 UNL     1       0.511   4.816  11.254  1.00  0.00     0.033 C 
HETATM    7  C11 UNL     1       1.387   4.269  10.236  1.00  0.00    -0.007 C 
HETATM    8  C12 UNL     1       1.921   4.816   9.192  1.00  0.00     0.027 C 
HETATM    9  C13 UNL     1       2.759   3.989   8.367  1.00  0.00     0.095 C 
HETATM   10  N2  UNL     1       3.446   3.310   7.701  1.00  0.00    -0.192 NA
HETATM   11  C14 UNL     1       1.786   6.179   8.717  1.00  0.00    -0.001 C 
HETATM   12  C15 UNL     1       2.086   6.167   7.205  1.00  0.00     0.021 C 
HETATM   13  C16 UNL     1       2.898   6.996   9.332  1.00  0.00     0.046 C 
HETATM   14  C17 UNL     1       2.293   7.867  10.406  1.00  0.00     0.119 C 
HETATM   15  C18 UNL     1       0.900   8.105   9.886  1.00  0.00     0.038 C 
HETATM   16  C19 UNL     1       0.577   6.927   9.003  1.00  0.00     0.006 C 
HETATM   17  C20 UNL     1      -0.645   6.199   9.487  1.00  0.00    -0.005 C 
HETATM   18  C21 UNL     1      -1.176   5.255   8.464  1.00  0.00     0.006 C 
HETATM   19  C22 UNL     1      -1.967   4.099   8.990  1.00  0.00     0.013 C 
HETATM   20  C23 UNL     1      -2.768   4.483  10.183  1.00  0.00     0.000 C 
HETATM   21  C24 UNL     1      -3.916   5.363   9.631  1.00  0.00     0.019 C 
ENDROOT
BRANCH  14  22
HETATM   22  O4  UNL     1       3.057   9.052  10.407  1.00  0.00    -0.396 OA
ATOM     23  H4  UNL     1       3.768   8.896  11.017  1.00  0.00     0.210 HD
ENDBRANCH  14  22
BRANCH   1  24
HETATM   24  C4  UNL     1      -2.890   2.049  10.832  1.00  0.00     0.255 C 
HETATM   25  N1  UNL     1      -3.298   0.867  11.411  1.00  0.00    -0.352 N 
HETATM   26  C1  UNL     1      -2.411  -0.348  11.206  1.00  0.00     0.152 C 
HETATM   27  O2  UNL     1      -1.833   1.949  10.102  1.00  0.00    -0.270 OA
BRANCH  25  28
HETATM   28  C2  UNL     1      -4.479   0.511  12.141  1.00  0.00     0.151 C 
BRANCH  28  29
HETATM   29  C3  UNL     1      -4.436   0.811  13.609  1.00  0.00     0.183 C 
BRANCH  29  30
HETATM   30  O1  UNL     1      -4.818  -0.259  14.355  1.00  0.00    -0.399 OA
ATOM     31  H1  UNL     1      -4.337  -0.310  15.173  1.00  0.00     0.209 HD
ENDBRANCH  29  30
ENDBRANCH  28  29
ENDBRANCH  25  28
ENDBRANCH   1  24
BRANCH   1  32
HETATM   32  O3  UNL     1      -4.826   3.299  10.593  1.00  0.00    -0.379 OA
ATOM     33  H3  UNL     1      -5.065   4.085  10.115  1.00  0.00     0.211 HD
ENDBRANCH   1  32
TORSDOF 6
ENDMDL
