MODEL 1
REMARK VINA RESULT: -7.312846075      0.000      0.000
REMARK  7 active torsions:
REMARK  status: ('A' for Active; 'I' for Inactive)
REMARK    1  A    between atoms: O1_2  and  C2_3 
REMARK    2  A    between atoms: C5_11  and  N3_12 
REMARK    3  A    between atoms: N3_12  and  C6_14 
REMARK    4  A    between atoms: C6_14  and  C7_15 
REMARK    5  A    between atoms: C6_14  and  C8_18 
REMARK       I    between atoms: C8_18  and  N5_20 
REMARK    6  A    between atoms: N5_20  and  N6_22 
REMARK    7  A    between atoms: C10_30  and  N9_31 
ROOT
HETATM    1  C2  UNL     1       3.263 -30.230  -8.645  1.00  0.00     0.187 A 
HETATM    2  N1  UNL     1       4.332 -30.767  -9.273  1.00  0.00    -0.326 N 
ATOM      3  H1  UNL     1       5.194 -30.937  -8.755  1.00  0.00     0.168 HD
HETATM    4  C3  UNL     1       4.260 -31.083 -10.594  1.00  0.00     0.148 A 
HETATM    5  C4  UNL     1       5.311 -31.628 -11.277  1.00  0.00     0.290 A 
HETATM    6  O2  UNL     1       6.388 -31.844 -10.646  1.00  0.00    -0.265 OA
HETATM    7  N2  UNL     1       5.279 -31.955 -12.589  1.00  0.00    -0.154 N 
ATOM      8  H2  UNL     1       6.094 -32.361 -13.051  1.00  0.00     0.187 HD
HETATM    9  C5  UNL     1       4.140 -31.728 -13.264  1.00  0.00     0.683 A 
HETATM   10  N7  UNL     1       3.079 -31.184 -12.602  1.00  0.00    -0.174 N 
ATOM     11  H7  UNL     1       2.219 -31.019 -13.125  1.00  0.00     0.186 HD
HETATM   12  C9  UNL     1       3.101 -30.858 -11.305  1.00  0.00     0.155 A 
HETATM   13  N8  UNL     1       2.031 -30.323 -10.690  1.00  0.00    -0.323 N 
ATOM     14  H8  UNL     1       1.170 -30.154 -11.210  1.00  0.00     0.169 HD
HETATM   15  C10 UNL     1       2.107 -30.007  -9.361  1.00  0.00     0.152 A 
ENDROOT
BRANCH   9  16
HETATM   16  N3  UNL     1       4.058 -32.020 -14.507  1.00  0.00    -0.204 N 
ATOM     17  H3  UNL     1       3.198 -32.440 -14.859  1.00  0.00     0.179 HD
BRANCH  16  18
HETATM   18  C6  UNL     1       5.148 -31.775 -15.434  1.00  0.00     0.282 C 
BRANCH  18  19
HETATM   19  C7  UNL     1       4.950 -30.455 -16.121  1.00  0.00     0.263 C 
HETATM   20  N4  UNL     1       3.686 -29.856 -16.324  1.00  0.00    -0.060 NA
HETATM   21  O3  UNL     1       5.988 -29.852 -16.539  1.00  0.00    -0.274 OA
ENDBRANCH  18  19
BRANCH  18  22
HETATM   22  C8  UNL     1       5.181 -32.806 -16.497  1.00  0.00     0.267 C 
HETATM   23  O4  UNL     1       6.203 -33.524 -16.619  1.00  0.00    -0.269 OA
HETATM   24  N5  UNL     1       4.079 -32.969 -17.350  1.00  0.00    -0.274 N 
ATOM     25  H5  UNL     1       3.267 -32.364 -17.221  1.00  0.00     0.189 HD
BRANCH  24  26
HETATM   26  N6  UNL     1       4.045 -33.921 -18.368  1.00  0.00    -0.343 N 
ATOM     27  H62 UNL     1       3.865 -33.593 -19.317  1.00  0.00     0.176 HD
ATOM     28  H61 UNL     1       4.192 -34.916 -18.198  1.00  0.00     0.176 HD
ENDBRANCH  24  26
ENDBRANCH  18  22
ENDBRANCH  16  18
ENDBRANCH   9  16
BRANCH  15  29
HETATM   29  N9  UNL     1       1.089 -29.496  -8.766  1.00  0.00    -0.382 N 
ATOM     30  H92 UNL     1       0.165 -29.909  -8.896  1.00  0.00     0.157 HD
ATOM     31  H91 UNL     1       1.219 -28.680  -8.168  1.00  0.00     0.157 HD
ENDBRANCH  15  29
BRANCH   1  32
HETATM   32  O1  UNL     1       3.296 -29.896  -7.309  1.00  0.00    -0.338 OA
HETATM   33  C1  UNL     1       4.457 -29.653  -6.573  1.00  0.00     0.211 C 
ENDBRANCH   1  32
TORSDOF 7
ENDMDL
MODEL 2
REMARK VINA RESULT: -7.104968028      3.139      8.903
REMARK  7 active torsions:
REMARK  status: ('A' for Active; 'I' for Inactive)
REMARK    1  A    between atoms: O1_2  and  C2_3 
REMARK    2  A    between atoms: C5_11  and  N3_12 
REMARK    3  A    between atoms: N3_12  and  C6_14 
REMARK    4  A    between atoms: C6_14  and  C7_15 
REMARK    5  A    between atoms: C6_14  and  C8_18 
REMARK       I    between atoms: C8_18  and  N5_20 
REMARK    6  A    between atoms: N5_20  and  N6_22 
REMARK    7  A    between atoms: C10_30  and  N9_31 
ROOT
HETATM    1  C2  UNL     1       4.182 -31.636 -12.099  1.00  0.00     0.187 A 
HETATM    2  N1  UNL     1       3.220 -30.945 -11.451  1.00  0.00    -0.326 N 
ATOM      3  H1  UNL     1       2.387 -30.638 -11.953  1.00  0.00     0.168 HD
HETATM    4  C3  UNL     1       3.361 -30.655 -10.129  1.00  0.00     0.148 A 
HETATM    5  C4  UNL     1       2.418 -29.959  -9.425  1.00  0.00     0.290 A 
HETATM    6  O2  UNL     1       1.378 -29.573 -10.038  1.00  0.00    -0.265 OA
HETATM    7  N2  UNL     1       2.520 -29.651  -8.113  1.00  0.00    -0.154 N 
ATOM      8  H2  UNL     1       1.786 -29.128  -7.635  1.00  0.00     0.187 HD
HETATM    9  C5  UNL     1       3.621 -30.057  -7.458  1.00  0.00     0.683 A 
HETATM   10  N7  UNL     1       4.574 -30.754  -8.141  1.00  0.00    -0.174 N 
ATOM     11  H7  UNL     1       5.404 -31.059  -7.632  1.00  0.00     0.186 HD
HETATM   12  C9  UNL     1       4.482 -31.062  -9.439  1.00  0.00     0.155 A 
HETATM   13  N8  UNL     1       5.446 -31.752 -10.075  1.00  0.00    -0.323 N 
ATOM     14  H8  UNL     1       6.279 -32.057  -9.570  1.00  0.00     0.169 HD
HETATM   15  C10 UNL     1       5.302 -32.041 -11.404  1.00  0.00     0.152 A 
ENDROOT
BRANCH   9  16
HETATM   16  N3  UNL     1       3.766 -29.793  -6.215  1.00  0.00    -0.204 N 
ATOM     17  H3  UNL     1       3.581 -28.844  -5.888  1.00  0.00     0.179 HD
BRANCH  16  18
HETATM   18  C6  UNL     1       4.185 -30.796  -5.253  1.00  0.00     0.282 C 
BRANCH  18  19
HETATM   19  C7  UNL     1       3.000 -31.594  -4.795  1.00  0.00     0.263 C 
HETATM   20  N4  UNL     1       2.971 -33.007  -4.752  1.00  0.00    -0.060 NA
HETATM   21  O3  UNL     1       1.968 -30.949  -4.426  1.00  0.00    -0.274 OA
ENDBRANCH  18  19
BRANCH  18  22
HETATM   22  C8  UNL     1       4.762 -30.162  -4.045  1.00  0.00     0.267 C 
HETATM   23  O4  UNL     1       5.390 -29.082  -4.163  1.00  0.00    -0.269 OA
HETATM   24  N5  UNL     1       4.604 -30.771  -2.790  1.00  0.00    -0.274 N 
ATOM     25  H5  UNL     1       4.091 -31.650  -2.735  1.00  0.00     0.189 HD
BRANCH  24  26
HETATM   26  N6  UNL     1       5.120 -30.226  -1.615  1.00  0.00    -0.343 N 
ATOM     27  H62 UNL     1       6.057 -30.513  -1.332  1.00  0.00     0.176 HD
ATOM     28  H61 UNL     1       4.602 -29.562  -1.040  1.00  0.00     0.176 HD
ENDBRANCH  24  26
ENDBRANCH  18  22
ENDBRANCH  16  18
ENDBRANCH   9  16
BRANCH  15  29
HETATM   29  N9  UNL     1       6.218 -32.699 -12.018  1.00  0.00    -0.382 N 
ATOM     30  H92 UNL     1       6.439 -32.477 -12.989  1.00  0.00     0.157 HD
ATOM     31  H91 UNL     1       6.716 -33.440 -11.524  1.00  0.00     0.157 HD
ENDBRANCH  15  29
BRANCH   1  32
HETATM   32  O1  UNL     1       4.078 -31.949 -13.437  1.00  0.00    -0.338 OA
HETATM   33  C1  UNL     1       4.400 -31.088 -14.487  1.00  0.00     0.211 C 
ENDBRANCH   1  32
TORSDOF 7
ENDMDL
MODEL 3
REMARK VINA RESULT: -7.027001760      4.081      7.123
REMARK  7 active torsions:
REMARK  status: ('A' for Active; 'I' for Inactive)
REMARK    1  A    between atoms: O1_2  and  C2_3 
REMARK    2  A    between atoms: C5_11  and  N3_12 
REMARK    3  A    between atoms: N3_12  and  C6_14 
REMARK    4  A    between atoms: C6_14  and  C7_15 
REMARK    5  A    between atoms: C6_14  and  C8_18 
REMARK       I    between atoms: C8_18  and  N5_20 
REMARK    6  A    between atoms: N5_20  and  N6_22 
REMARK    7  A    between atoms: C10_30  and  N9_31 
ROOT
HETATM    1  C2  UNL     1       5.280 -31.320  -2.314  1.00  0.00     0.187 A 
HETATM    2  N1  UNL     1       4.705 -32.318  -3.020  1.00  0.00    -0.326 N 
ATOM      3  H1  UNL     1       4.672 -33.262  -2.633  1.00  0.00     0.168 HD
HETATM    4  C3  UNL     1       4.170 -32.068  -4.245  1.00  0.00     0.148 A 
HETATM    5  C4  UNL     1       3.578 -33.041  -5.001  1.00  0.00     0.290 A 
HETATM    6  O2  UNL     1       3.531 -34.218  -4.531  1.00  0.00    -0.265 OA
HETATM    7  N2  UNL     1       3.036 -32.833  -6.221  1.00  0.00    -0.154 N 
ATOM      8  H2  UNL     1       2.605 -33.597  -6.744  1.00  0.00     0.187 HD
HETATM    9  C5  UNL     1       3.083 -31.589  -6.724  1.00  0.00     0.683 A 
HETATM   10  N7  UNL     1       3.669 -30.602  -5.987  1.00  0.00    -0.174 N 
ATOM     11  H7  UNL     1       3.697 -29.661  -6.380  1.00  0.00     0.186 HD
HETATM   12  C9  UNL     1       4.208 -30.798  -4.780  1.00  0.00     0.155 A 
HETATM   13  N8  UNL     1       4.778 -29.796  -4.085  1.00  0.00    -0.323 N 
ATOM     14  H8  UNL     1       4.809 -28.854  -4.475  1.00  0.00     0.169 HD
HETATM   15  C10 UNL     1       5.315 -30.052  -2.854  1.00  0.00     0.152 A 
ENDROOT
BRANCH   9  16
HETATM   16  N3  UNL     1       2.583 -31.339  -7.876  1.00  0.00    -0.204 N 
ATOM     17  H3  UNL     1       1.792 -31.896  -8.201  1.00  0.00     0.179 HD
BRANCH  16  18
HETATM   18  C6  UNL     1       3.103 -30.292  -8.736  1.00  0.00     0.282 C 
BRANCH  18  19
HETATM   19  C7  UNL     1       2.183 -29.106  -8.713  1.00  0.00     0.263 C 
HETATM   20  N4  UNL     1       0.933 -29.069  -9.372  1.00  0.00    -0.060 NA
HETATM   21  O3  UNL     1       2.562 -28.084  -8.059  1.00  0.00    -0.274 OA
ENDBRANCH  18  19
BRANCH  18  22
HETATM   22  C8  UNL     1       3.174 -30.748 -10.143  1.00  0.00     0.267 C 
HETATM   23  O4  UNL     1       3.891 -30.115 -10.955  1.00  0.00    -0.269 OA
HETATM   24  N5  UNL     1       2.442 -31.874 -10.552  1.00  0.00    -0.274 N 
ATOM     25  H5  UNL     1       1.868 -32.361  -9.864  1.00  0.00     0.189 HD
BRANCH  24  26
HETATM   26  N6  UNL     1       2.467 -32.357 -11.860  1.00  0.00    -0.343 N 
ATOM     27  H62 UNL     1       3.271 -32.920 -12.141  1.00  0.00     0.176 HD
ATOM     28  H61 UNL     1       1.723 -32.170 -12.532  1.00  0.00     0.176 HD
ENDBRANCH  24  26
ENDBRANCH  18  22
ENDBRANCH  16  18
ENDBRANCH   9  16
BRANCH  15  29
HETATM   29  N9  UNL     1       5.860 -29.100  -2.184  1.00  0.00    -0.382 N 
ATOM     30  H92 UNL     1       5.618 -28.967  -1.202  1.00  0.00     0.157 HD
ATOM     31  H91 UNL     1       6.532 -28.487  -2.646  1.00  0.00     0.157 HD
ENDBRANCH  15  29
BRANCH   1  32
HETATM   32  O1  UNL     1       5.832 -31.532  -1.070  1.00  0.00    -0.338 OA
HETATM   33  C1  UNL     1       7.104 -32.058  -0.839  1.00  0.00     0.211 C 
ENDBRANCH   1  32
TORSDOF 7
ENDMDL
MODEL 4
REMARK VINA RESULT: -6.943601363      1.642      2.539
REMARK  7 active torsions:
REMARK  status: ('A' for Active; 'I' for Inactive)
REMARK    1  A    between atoms: O1_2  and  C2_3 
REMARK    2  A    between atoms: C5_11  and  N3_12 
REMARK    3  A    between atoms: N3_12  and  C6_14 
REMARK    4  A    between atoms: C6_14  and  C7_15 
REMARK    5  A    between atoms: C6_14  and  C8_18 
REMARK       I    between atoms: C8_18  and  N5_20 
REMARK    6  A    between atoms: N5_20  and  N6_22 
REMARK    7  A    between atoms: C10_30  and  N9_31 
ROOT
HETATM    1  C2  UNL     1       2.729 -30.995  -8.240  1.00  0.00     0.187 A 
HETATM    2  N1  UNL     1       3.701 -31.714  -8.843  1.00  0.00    -0.326 N 
ATOM      3  H1  UNL     1       4.358 -32.255  -8.279  1.00  0.00     0.168 HD
HETATM    4  C3  UNL     1       3.806 -31.719 -10.199  1.00  0.00     0.148 A 
HETATM    5  C4  UNL     1       4.770 -32.429 -10.859  1.00  0.00     0.290 A 
HETATM    6  O2  UNL     1       5.592 -33.104 -10.170  1.00  0.00    -0.265 OA
HETATM    7  N2  UNL     1       4.907 -32.459 -12.203  1.00  0.00    -0.154 N 
ATOM      8  H2  UNL     1       5.646 -33.007 -12.646  1.00  0.00     0.187 HD
HETATM    9  C5  UNL     1       4.039 -31.745 -12.938  1.00  0.00     0.683 A 
HETATM   10  N7  UNL     1       3.068 -31.030 -12.300  1.00  0.00    -0.174 N 
ATOM     11  H7  UNL     1       2.414 -30.493 -12.870  1.00  0.00     0.186 HD
HETATM   12  C9  UNL     1       2.925 -30.993 -10.972  1.00  0.00     0.155 A 
HETATM   13  N8  UNL     1       1.953 -30.273 -10.382  1.00  0.00    -0.323 N 
ATOM     14  H8  UNL     1       1.298 -29.734 -10.948  1.00  0.00     0.169 HD
HETATM   15  C10 UNL     1       1.851 -30.271  -9.018  1.00  0.00     0.152 A 
ENDROOT
BRANCH   9  16
HETATM   16  N3  UNL     1       4.125 -31.741 -14.215  1.00  0.00    -0.204 N 
ATOM     17  H3  UNL     1       3.786 -32.551 -14.735  1.00  0.00     0.179 HD
BRANCH  16  18
HETATM   18  C6  UNL     1       4.689 -30.623 -14.950  1.00  0.00     0.282 C 
BRANCH  18  19
HETATM   19  C7  UNL     1       4.786 -30.965 -16.408  1.00  0.00     0.263 C 
HETATM   20  N4  UNL     1       4.921 -30.003 -17.435  1.00  0.00    -0.060 NA
HETATM   21  O3  UNL     1       4.744 -32.196 -16.724  1.00  0.00    -0.274 OA
ENDBRANCH  18  19
BRANCH  18  22
HETATM   22  C8  UNL     1       6.066 -30.329 -14.490  1.00  0.00     0.267 C 
HETATM   23  O4  UNL     1       7.005 -31.075 -14.860  1.00  0.00    -0.269 OA
HETATM   24  N5  UNL     1       6.306 -29.228 -13.653  1.00  0.00    -0.274 N 
ATOM     25  H5  UNL     1       5.516 -28.647 -13.371  1.00  0.00     0.189 HD
BRANCH  24  26
HETATM   26  N6  UNL     1       7.577 -28.895 -13.188  1.00  0.00    -0.343 N 
ATOM     27  H62 UNL     1       7.952 -27.983 -13.448  1.00  0.00     0.176 HD
ATOM     28  H61 UNL     1       8.135 -29.522 -12.607  1.00  0.00     0.176 HD
ENDBRANCH  24  26
ENDBRANCH  18  22
ENDBRANCH  16  18
ENDBRANCH   9  16
BRANCH  15  29
HETATM   29  N9  UNL     1       0.925 -29.586  -8.447  1.00  0.00    -0.382 N 
ATOM     30  H92 UNL     1       0.115 -29.281  -8.986  1.00  0.00     0.157 HD
ATOM     31  H91 UNL     1       1.013 -29.357  -7.457  1.00  0.00     0.157 HD
ENDBRANCH  15  29
BRANCH   1  32
HETATM   32  O1  UNL     1       2.590 -30.964  -6.870  1.00  0.00    -0.338 OA
HETATM   33  C1  UNL     1       2.951 -31.999  -6.006  1.00  0.00     0.211 C 
ENDBRANCH   1  32
TORSDOF 7
ENDMDL
MODEL 5
REMARK VINA RESULT: -6.853892398      3.585      8.721
REMARK  7 active torsions:
REMARK  status: ('A' for Active; 'I' for Inactive)
REMARK    1  A    between atoms: O1_2  and  C2_3 
REMARK    2  A    between atoms: C5_11  and  N3_12 
REMARK    3  A    between atoms: N3_12  and  C6_14 
REMARK    4  A    between atoms: C6_14  and  C7_15 
REMARK    5  A    between atoms: C6_14  and  C8_18 
REMARK       I    between atoms: C8_18  and  N5_20 
REMARK    6  A    between atoms: N5_20  and  N6_22 
REMARK    7  A    between atoms: C10_30  and  N9_31 
ROOT
HETATM    1  C2  UNL     1       3.405 -31.626 -10.815  1.00  0.00     0.187 A 
HETATM    2  N1  UNL     1       4.371 -31.758  -9.881  1.00  0.00    -0.326 N 
ATOM      3  H1  UNL     1       5.131 -32.424 -10.024  1.00  0.00     0.168 HD
HETATM    4  C3  UNL     1       4.333 -31.005  -8.748  1.00  0.00     0.148 A 
HETATM    5  C4  UNL     1       5.285 -31.100  -7.772  1.00  0.00     0.290 A 
HETATM    6  O2  UNL     1       6.234 -31.924  -7.938  1.00  0.00    -0.265 OA
HETATM    7  N2  UNL     1       5.283 -30.370  -6.633  1.00  0.00    -0.154 N 
ATOM      8  H2  UNL     1       6.020 -30.480  -5.935  1.00  0.00     0.187 HD
HETATM    9  C5  UNL     1       4.279 -29.496  -6.451  1.00  0.00     0.683 A 
HETATM   10  N7  UNL     1       3.320 -29.385  -7.414  1.00  0.00    -0.174 N 
ATOM     11  H7  UNL     1       2.564 -28.716  -7.264  1.00  0.00     0.186 HD
HETATM   12  C9  UNL     1       3.313 -30.103  -8.542  1.00  0.00     0.155 A 
HETATM   13  N8  UNL     1       2.345 -29.963  -9.466  1.00  0.00    -0.323 N 
ATOM     14  H8  UNL     1       1.587 -29.296  -9.320  1.00  0.00     0.169 HD
HETATM   15  C10 UNL     1       2.387 -30.722 -10.603  1.00  0.00     0.152 A 
ENDROOT
BRANCH   9  16
HETATM   16  N3  UNL     1       4.232 -28.781  -5.391  1.00  0.00    -0.204 N 
ATOM     17  H3  UNL     1       4.378 -27.774  -5.469  1.00  0.00     0.179 HD
BRANCH  16  18
HETATM   18  C6  UNL     1       3.977 -29.353  -4.082  1.00  0.00     0.282 C 
BRANCH  18  19
HETATM   19  C7  UNL     1       5.227 -29.310  -3.252  1.00  0.00     0.263 C 
HETATM   20  N4  UNL     1       6.532 -29.395  -3.790  1.00  0.00    -0.060 NA
HETATM   21  O3  UNL     1       5.090 -29.189  -1.994  1.00  0.00    -0.274 OA
ENDBRANCH  18  19
BRANCH  18  22
HETATM   22  C8  UNL     1       3.590 -30.778  -4.193  1.00  0.00     0.267 C 
HETATM   23  O4  UNL     1       2.584 -31.085  -4.877  1.00  0.00    -0.269 OA
HETATM   24  N5  UNL     1       4.345 -31.763  -3.537  1.00  0.00    -0.274 N 
ATOM     25  H5  UNL     1       5.154 -31.473  -2.988  1.00  0.00     0.189 HD
BRANCH  24  26
HETATM   26  N6  UNL     1       4.036 -33.121  -3.603  1.00  0.00    -0.343 N 
ATOM     27  H62 UNL     1       3.955 -33.542  -4.529  1.00  0.00     0.176 HD
ATOM     28  H61 UNL     1       3.891 -33.696  -2.774  1.00  0.00     0.176 HD
ENDBRANCH  24  26
ENDBRANCH  18  22
ENDBRANCH  16  18
ENDBRANCH   9  16
BRANCH  15  29
HETATM   29  N9  UNL     1       1.466 -30.593 -11.491  1.00  0.00    -0.382 N 
ATOM     30  H92 UNL     1       0.766 -31.327 -11.606  1.00  0.00     0.157 HD
ATOM     31  H91 UNL     1       1.447 -29.755 -12.072  1.00  0.00     0.157 HD
ENDBRANCH  15  29
BRANCH   1  32
HETATM   32  O1  UNL     1       3.407 -32.370 -11.975  1.00  0.00    -0.338 OA
HETATM   33  C1  UNL     1       4.205 -32.111 -13.090  1.00  0.00     0.211 C 
ENDBRANCH   1  32
TORSDOF 7
ENDMDL
