MODEL 1
REMARK VINA RESULT: -7.559301413      0.000      0.000
REMARK  6 active torsions:
REMARK  status: ('A' for Active; 'I' for Inactive)
REMARK    1  A    between atoms: C2_9  and  C3_10 
REMARK    2  A    between atoms: C3_10  and  O1_14 
REMARK    3  A    between atoms: C5_17  and  O2_18 
REMARK    4  A    between atoms: O2_18  and  C6_19 
REMARK    5  A    between atoms: C7_20  and  C8_21 
REMARK    6  A    between atoms: C9_26  and  N7_27 
ROOT
HETATM    1  N1  UNL     1       5.228 -32.507 -12.060  1.00  0.00    -0.381 N 
ATOM      2  H11 UNL     1       6.093 -32.953 -11.753  1.00  0.00     0.157 HD
ATOM      3  H12 UNL     1       4.986 -32.634 -13.043  1.00  0.00     0.157 HD
HETATM    4  C1  UNL     1       4.487 -31.818 -11.231  1.00  0.00     0.165 A 
HETATM    5  N2  UNL     1       3.281 -31.197 -11.659  1.00  0.00    -0.282 N 
ATOM      6  H2  UNL     1       2.997 -31.297 -12.633  1.00  0.00     0.188 HD
HETATM    7  N3  UNL     1       2.490 -30.473 -10.816  1.00  0.00    -0.294 N 
ATOM      8  H3  UNL     1       1.644 -30.064 -11.213  1.00  0.00     0.187 HD
HETATM    9  C2  UNL     1       2.721 -30.250  -9.518  1.00  0.00     0.114 A 
HETATM   10  C4  UNL     1       3.915 -30.829  -8.961  1.00  0.00     0.073 A 
HETATM   11  C5  UNL     1       4.290 -30.715  -7.736  1.00  0.00     0.161 C 
HETATM   12  C11 UNL     1       4.828 -31.639  -9.846  1.00  0.00     0.231 A 
HETATM   13  O5  UNL     1       5.882 -32.159  -9.388  1.00  0.00    -0.283 OA
ENDROOT
BRANCH   9  14
HETATM   14  C3  UNL     1       1.717 -29.448  -8.861  1.00  0.00     0.163 C 
HETATM   15  N4  UNL     1       0.365 -29.567  -8.739  1.00  0.00    -0.378 N 
ATOM     16  H42 UNL     1       0.019 -30.398  -9.218  1.00  0.00     0.158 HD
ATOM     17  H41 UNL     1      -0.344 -29.000  -8.275  1.00  0.00     0.158 HD
BRANCH  14  18
HETATM   18  O1  UNL     1       2.166 -28.372  -8.241  1.00  0.00    -0.345 OA
ATOM     19  H1  UNL     1       1.598 -28.024  -7.564  1.00  0.00     0.219 HD
ENDBRANCH  14  18
ENDBRANCH   9  14
BRANCH  11  20
HETATM   20  O2  UNL     1       3.779 -30.098  -6.656  1.00  0.00    -0.314 OA
BRANCH  20  21
HETATM   21  C6  UNL     1       4.269 -30.165  -5.368  1.00  0.00     0.175 A 
HETATM   22  C7  UNL     1       3.673 -30.956  -4.436  1.00  0.00     0.153 A 
HETATM   23  N6  UNL     1       4.225 -30.965  -3.186  1.00  0.00    -0.184 N 
HETATM   24  C9  UNL     1       5.298 -30.250  -2.845  1.00  0.00     0.679 A 
ATOM     25  H6  UNL     1       3.791 -31.551  -2.472  1.00  0.00     0.184 HD
HETATM   26  N8  UNL     1       5.879 -29.473  -3.772  1.00  0.00    -0.154 N 
HETATM   27  C10 UNL     1       5.372 -29.423  -5.039  1.00  0.00     0.296 A 
ATOM     28  H8  UNL     1       6.700 -28.918  -3.530  1.00  0.00     0.187 HD
HETATM   29  O4  UNL     1       5.969 -28.669  -5.865  1.00  0.00    -0.264 OA
BRANCH  22  30
HETATM   30  C8  UNL     1       2.488 -31.772  -4.675  1.00  0.00     0.285 C 
HETATM   31  N5  UNL     1       2.574 -33.014  -5.328  1.00  0.00    -0.056 NA
HETATM   32  O3  UNL     1       1.377 -31.358  -4.292  1.00  0.00    -0.269 OA
ENDBRANCH  22  30
BRANCH  24  33
HETATM   33  N7  UNL     1       5.791 -30.292  -1.631  1.00  0.00    -0.234 N 
ATOM     34  H72 UNL     1       6.352 -31.093  -1.340  1.00  0.00     0.174 HD
ATOM     35  H71 UNL     1       5.629 -29.537  -0.963  1.00  0.00     0.174 HD
ENDBRANCH  24  33
ENDBRANCH  20  21
ENDBRANCH  11  20
TORSDOF 6
ENDMDL
MODEL 2
REMARK VINA RESULT: -7.353144770      2.341      2.600
REMARK  6 active torsions:
REMARK  status: ('A' for Active; 'I' for Inactive)
REMARK    1  A    between atoms: C2_9  and  C3_10 
REMARK    2  A    between atoms: C3_10  and  O1_14 
REMARK    3  A    between atoms: C5_17  and  O2_18 
REMARK    4  A    between atoms: O2_18  and  C6_19 
REMARK    5  A    between atoms: C7_20  and  C8_21 
REMARK    6  A    between atoms: C9_26  and  N7_27 
ROOT
HETATM    1  N1  UNL     1       3.700 -32.329 -13.430  1.00  0.00    -0.381 N 
ATOM      2  H11 UNL     1       4.501 -32.923 -13.642  1.00  0.00     0.157 HD
ATOM      3  H12 UNL     1       3.057 -32.156 -14.203  1.00  0.00     0.157 HD
HETATM    4  C1  UNL     1       3.525 -31.826 -12.235  1.00  0.00     0.165 A 
HETATM    5  N2  UNL     1       2.407 -30.997 -11.939  1.00  0.00    -0.282 N 
ATOM      6  H2  UNL     1       1.735 -30.796 -12.680  1.00  0.00     0.188 HD
HETATM    7  N3  UNL     1       2.200 -30.460 -10.703  1.00  0.00    -0.294 N 
ATOM      8  H3  UNL     1       1.371 -29.877 -10.585  1.00  0.00     0.187 HD
HETATM    9  C2  UNL     1       2.982 -30.626  -9.632  1.00  0.00     0.114 A 
HETATM   10  C4  UNL     1       4.151 -31.448  -9.801  1.00  0.00     0.073 A 
HETATM   11  C5  UNL     1       5.009 -31.713  -8.880  1.00  0.00     0.161 C 
HETATM   12  C11 UNL     1       4.431 -32.069 -11.147  1.00  0.00     0.231 A 
HETATM   13  O5  UNL     1       5.447 -32.794 -11.328  1.00  0.00    -0.283 OA
ENDROOT
BRANCH   9  14
HETATM   14  C3  UNL     1       2.526 -29.942  -8.446  1.00  0.00     0.163 C 
HETATM   15  N4  UNL     1       3.102 -29.023  -7.623  1.00  0.00    -0.378 N 
ATOM     16  H42 UNL     1       4.046 -28.787  -7.929  1.00  0.00     0.158 HD
ATOM     17  H41 UNL     1       2.780 -28.540  -6.785  1.00  0.00     0.158 HD
BRANCH  14  18
HETATM   18  O1  UNL     1       1.303 -30.246  -8.049  1.00  0.00    -0.345 OA
ATOM     19  H1  UNL     1       1.178 -30.294  -7.109  1.00  0.00     0.219 HD
ENDBRANCH  14  18
ENDBRANCH   9  14
BRANCH  11  20
HETATM   20  O2  UNL     1       5.125 -31.370  -7.586  1.00  0.00    -0.314 OA
BRANCH  20  21
HETATM   21  C6  UNL     1       5.385 -32.225  -6.535  1.00  0.00     0.175 A 
HETATM   22  C7  UNL     1       4.396 -32.601  -5.680  1.00  0.00     0.153 A 
HETATM   23  N6  UNL     1       4.740 -33.452  -4.668  1.00  0.00    -0.184 N 
HETATM   24  C9  UNL     1       5.975 -33.921  -4.482  1.00  0.00     0.679 A 
ATOM     25  H6  UNL     1       4.012 -33.745  -4.017  1.00  0.00     0.184 HD
HETATM   26  N8  UNL     1       6.944 -33.544  -5.330  1.00  0.00    -0.154 N 
HETATM   27  C10 UNL     1       6.660 -32.695  -6.362  1.00  0.00     0.296 A 
ATOM     28  H8  UNL     1       7.895 -33.891  -5.204  1.00  0.00     0.187 HD
HETATM   29  O4  UNL     1       7.622 -32.379  -7.125  1.00  0.00    -0.264 OA
BRANCH  22  30
HETATM   30  C8  UNL     1       3.012 -32.149  -5.763  1.00  0.00     0.285 C 
HETATM   31  N5  UNL     1       2.575 -30.997  -5.085  1.00  0.00    -0.056 NA
HETATM   32  O3  UNL     1       2.200 -32.799  -6.451  1.00  0.00    -0.269 OA
ENDBRANCH  22  30
BRANCH  24  33
HETATM   33  N7  UNL     1       6.257 -34.736  -3.495  1.00  0.00    -0.234 N 
ATOM     34  H72 UNL     1       6.401 -35.729  -3.684  1.00  0.00     0.174 HD
ATOM     35  H71 UNL     1       6.337 -34.402  -2.535  1.00  0.00     0.174 HD
ENDBRANCH  24  33
ENDBRANCH  20  21
ENDBRANCH  11  20
TORSDOF 6
ENDMDL
MODEL 3
REMARK VINA RESULT: -7.227065131      1.182      1.193
REMARK  6 active torsions:
REMARK  status: ('A' for Active; 'I' for Inactive)
REMARK    1  A    between atoms: C2_9  and  C3_10 
REMARK    2  A    between atoms: C3_10  and  O1_14 
REMARK    3  A    between atoms: C5_17  and  O2_18 
REMARK    4  A    between atoms: O2_18  and  C6_19 
REMARK    5  A    between atoms: C7_20  and  C8_21 
REMARK    6  A    between atoms: C9_26  and  N7_27 
ROOT
HETATM    1  N1  UNL     1       6.078 -32.486 -11.700  1.00  0.00    -0.381 N 
ATOM      2  H11 UNL     1       6.738 -33.161 -11.315  1.00  0.00     0.157 HD
ATOM      3  H12 UNL     1       6.127 -32.341 -12.708  1.00  0.00     0.157 HD
HETATM    4  C1  UNL     1       5.228 -31.853 -10.932  1.00  0.00     0.165 A 
HETATM    5  N2  UNL     1       4.307 -30.911 -11.469  1.00  0.00    -0.282 N 
ATOM      6  H2  UNL     1       4.317 -30.733 -12.473  1.00  0.00     0.188 HD
HETATM    7  N3  UNL     1       3.411 -30.238 -10.693  1.00  0.00    -0.294 N 
ATOM      8  H3  UNL     1       2.790 -29.582 -11.166  1.00  0.00     0.187 HD
HETATM    9  C2  UNL     1       3.271 -30.358  -9.369  1.00  0.00     0.114 A 
HETATM   10  C4  UNL     1       4.148 -31.285  -8.704  1.00  0.00     0.073 A 
HETATM   11  C5  UNL     1       4.150 -31.524  -7.439  1.00  0.00     0.161 C 
HETATM   12  C11 UNL     1       5.160 -32.058  -9.511  1.00  0.00     0.231 A 
HETATM   13  O5  UNL     1       5.943 -32.877  -8.958  1.00  0.00    -0.283 OA
ENDROOT
BRANCH   9  14
HETATM   14  C3  UNL     1       2.241 -29.524  -8.798  1.00  0.00     0.163 C 
HETATM   15  N4  UNL     1       0.880 -29.576  -8.827  1.00  0.00    -0.378 N 
ATOM     16  H42 UNL     1       0.549 -30.375  -9.368  1.00  0.00     0.158 HD
ATOM     17  H41 UNL     1       0.152 -28.987  -8.424  1.00  0.00     0.158 HD
BRANCH  14  18
HETATM   18  O1  UNL     1       2.670 -28.490  -8.097  1.00  0.00    -0.345 OA
ATOM     19  H1  UNL     1       2.809 -28.653  -7.171  1.00  0.00     0.219 HD
ENDBRANCH  14  18
ENDBRANCH   9  14
BRANCH  11  20
HETATM   20  O2  UNL     1       3.432 -31.063  -6.400  1.00  0.00    -0.314 OA
BRANCH  20  21
HETATM   21  C6  UNL     1       3.911 -30.785  -5.137  1.00  0.00     0.175 A 
HETATM   22  C7  UNL     1       4.062 -31.773  -4.215  1.00  0.00     0.153 A 
HETATM   23  N6  UNL     1       4.544 -31.410  -2.989  1.00  0.00    -0.184 N 
HETATM   24  C9  UNL     1       4.866 -30.157  -2.661  1.00  0.00     0.679 A 
ATOM     25  H6  UNL     1       4.664 -32.137  -2.284  1.00  0.00     0.184 HD
HETATM   26  N8  UNL     1       4.712 -29.189  -3.577  1.00  0.00    -0.154 N 
HETATM   27  C10 UNL     1       4.235 -29.492  -4.820  1.00  0.00     0.296 A 
ATOM     28  H8  UNL     1       4.951 -28.225  -3.345  1.00  0.00     0.187 HD
HETATM   29  O4  UNL     1       4.114 -28.530  -5.637  1.00  0.00    -0.264 OA
BRANCH  22  30
HETATM   30  C8  UNL     1       3.734 -33.176  -4.441  1.00  0.00     0.285 C 
HETATM   31  N5  UNL     1       4.617 -34.204  -4.067  1.00  0.00    -0.056 NA
HETATM   32  O3  UNL     1       2.647 -33.467  -4.977  1.00  0.00    -0.269 OA
ENDBRANCH  22  30
BRANCH  24  33
HETATM   33  N7  UNL     1       5.324 -29.857  -1.470  1.00  0.00    -0.234 N 
ATOM     34  H72 UNL     1       6.319 -29.664  -1.344  1.00  0.00     0.174 HD
ATOM     35  H71 UNL     1       4.709 -29.809  -0.658  1.00  0.00     0.174 HD
ENDBRANCH  24  33
ENDBRANCH  20  21
ENDBRANCH  11  20
TORSDOF 6
ENDMDL
MODEL 4
REMARK VINA RESULT: -7.194404584      1.301      2.512
REMARK  6 active torsions:
REMARK  status: ('A' for Active; 'I' for Inactive)
REMARK    1  A    between atoms: C2_9  and  C3_10 
REMARK    2  A    between atoms: C3_10  and  O1_14 
REMARK    3  A    between atoms: C5_17  and  O2_18 
REMARK    4  A    between atoms: O2_18  and  C6_19 
REMARK    5  A    between atoms: C7_20  and  C8_21 
REMARK    6  A    between atoms: C9_26  and  N7_27 
ROOT
HETATM    1  N1  UNL     1       4.591 -32.537 -12.667  1.00  0.00    -0.381 N 
ATOM      2  H11 UNL     1       5.319 -33.214 -12.441  1.00  0.00     0.157 HD
ATOM      3  H12 UNL     1       4.419 -32.384 -13.661  1.00  0.00     0.157 HD
HETATM    4  C1  UNL     1       3.928 -31.913 -11.728  1.00  0.00     0.165 A 
HETATM    5  N2  UNL     1       2.911 -30.969 -12.044  1.00  0.00    -0.282 N 
ATOM      6  H2  UNL     1       2.703 -30.783 -13.024  1.00  0.00     0.188 HD
HETATM    7  N3  UNL     1       2.205 -30.304 -11.085  1.00  0.00    -0.294 N 
ATOM      8  H3  UNL     1       1.496 -29.645 -11.407  1.00  0.00     0.187 HD
HETATM    9  C2  UNL     1       2.356 -30.435  -9.764  1.00  0.00     0.114 A 
HETATM   10  C4  UNL     1       3.358 -31.365  -9.313  1.00  0.00     0.073 A 
HETATM   11  C5  UNL     1       3.635 -31.614  -8.081  1.00  0.00     0.161 C 
HETATM   12  C11 UNL     1       4.170 -32.129 -10.328  1.00  0.00     0.231 A 
HETATM   13  O5  UNL     1       5.055 -32.951  -9.965  1.00  0.00    -0.283 OA
ENDROOT
BRANCH   9  14
HETATM   14  C3  UNL     1       1.474 -29.608  -8.975  1.00  0.00     0.163 C 
HETATM   15  N4  UNL     1       0.127 -29.611  -8.778  1.00  0.00    -0.378 N 
ATOM     16  H42 UNL     1      -0.326 -30.357  -9.306  1.00  0.00     0.158 HD
ATOM     17  H41 UNL     1      -0.496 -29.026  -8.222  1.00  0.00     0.158 HD
BRANCH  14  18
HETATM   18  O1  UNL     1       2.061 -28.642  -8.292  1.00  0.00    -0.345 OA
ATOM     19  H1  UNL     1       2.567 -28.922  -7.538  1.00  0.00     0.219 HD
ENDBRANCH  14  18
ENDBRANCH   9  14
BRANCH  11  20
HETATM   20  O2  UNL     1       3.160 -31.163  -6.907  1.00  0.00    -0.314 OA
BRANCH  20  21
HETATM   21  C6  UNL     1       3.749 -31.328  -5.671  1.00  0.00     0.175 A 
HETATM   22  C7  UNL     1       4.600 -30.390  -5.174  1.00  0.00     0.153 A 
HETATM   23  N6  UNL     1       5.138 -30.631  -3.941  1.00  0.00    -0.184 N 
HETATM   24  C9  UNL     1       4.873 -31.720  -3.217  1.00  0.00     0.679 A 
ATOM     25  H6  UNL     1       5.779 -29.940  -3.552  1.00  0.00     0.184 HD
HETATM   26  N8  UNL     1       4.033 -32.640  -3.717  1.00  0.00    -0.154 N 
HETATM   27  C10 UNL     1       3.464 -32.454  -4.944  1.00  0.00     0.296 A 
ATOM     28  H8  UNL     1       3.820 -33.480  -3.179  1.00  0.00     0.187 HD
HETATM   29  O4  UNL     1       2.680 -33.361  -5.356  1.00  0.00    -0.264 OA
BRANCH  22  30
HETATM   30  C8  UNL     1       4.984 -29.166  -5.868  1.00  0.00     0.285 C 
HETATM   31  N5  UNL     1       4.053 -28.141  -6.114  1.00  0.00    -0.056 NA
HETATM   32  O3  UNL     1       6.161 -29.028  -6.252  1.00  0.00    -0.269 OA
ENDBRANCH  22  30
BRANCH  24  33
HETATM   33  N7  UNL     1       5.415 -31.908  -2.038  1.00  0.00    -0.234 N 
ATOM     34  H72 UNL     1       5.075 -32.661  -1.440  1.00  0.00     0.174 HD
ATOM     35  H71 UNL     1       6.174 -31.317  -1.701  1.00  0.00     0.174 HD
ENDBRANCH  24  33
ENDBRANCH  20  21
ENDBRANCH  11  20
TORSDOF 6
ENDMDL
MODEL 5
REMARK VINA RESULT: -7.147413866      1.027      6.459
REMARK  6 active torsions:
REMARK  status: ('A' for Active; 'I' for Inactive)
REMARK    1  A    between atoms: C2_9  and  C3_10 
REMARK    2  A    between atoms: C3_10  and  O1_14 
REMARK    3  A    between atoms: C5_17  and  O2_18 
REMARK    4  A    between atoms: O2_18  and  C6_19 
REMARK    5  A    between atoms: C7_20  and  C8_21 
REMARK    6  A    between atoms: C9_26  and  N7_27 
ROOT
HETATM    1  N1  UNL     1       7.059 -29.136  -2.838  1.00  0.00    -0.381 N 
ATOM      2  H11 UNL     1       7.458 -28.332  -3.323  1.00  0.00     0.157 HD
ATOM      3  H12 UNL     1       7.467 -29.354  -1.929  1.00  0.00     0.157 HD
HETATM    4  C1  UNL     1       6.086 -29.833  -3.365  1.00  0.00     0.165 A 
HETATM    5  N2  UNL     1       5.531 -30.955  -2.688  1.00  0.00    -0.282 N 
ATOM      6  H2  UNL     1       5.905 -31.211  -1.775  1.00  0.00     0.188 HD
HETATM    7  N3  UNL     1       4.517 -31.699  -3.213  1.00  0.00    -0.294 N 
ATOM      8  H3  UNL     1       4.183 -32.485  -2.655  1.00  0.00     0.187 HD
HETATM    9  C2  UNL     1       3.919 -31.495  -4.391  1.00  0.00     0.114 A 
HETATM   10  C4  UNL     1       4.391 -30.385  -5.176  1.00  0.00     0.073 A 
HETATM   11  C5  UNL     1       3.932 -30.045  -6.329  1.00  0.00     0.161 C 
HETATM   12  C11 UNL     1       5.511 -29.526  -4.646  1.00  0.00     0.231 A 
HETATM   13  O5  UNL     1       5.948 -28.547  -5.309  1.00  0.00    -0.283 OA
ENDROOT
BRANCH   9  14
HETATM   14  C3  UNL     1       2.870 -32.436  -4.702  1.00  0.00     0.163 C 
HETATM   15  N4  UNL     1       2.752 -33.422  -5.634  1.00  0.00    -0.378 N 
ATOM     16  H42 UNL     1       3.586 -33.487  -6.217  1.00  0.00     0.158 HD
ATOM     17  H41 UNL     1       2.010 -34.087  -5.854  1.00  0.00     0.158 HD
BRANCH  14  18
HETATM   18  O1  UNL     1       1.789 -32.352  -3.947  1.00  0.00    -0.345 OA
ATOM     19  H1  UNL     1       0.964 -32.313  -4.417  1.00  0.00     0.219 HD
ENDBRANCH  14  18
ENDBRANCH   9  14
BRANCH  11  20
HETATM   20  O2  UNL     1       2.967 -30.530  -7.129  1.00  0.00    -0.314 OA
BRANCH  20  21
HETATM   21  C6  UNL     1       3.093 -30.832  -8.470  1.00  0.00     0.175 A 
HETATM   22  C7  UNL     1       2.367 -30.166  -9.407  1.00  0.00     0.153 A 
HETATM   23  N6  UNL     1       2.555 -30.528 -10.711  1.00  0.00    -0.184 N 
HETATM   24  C9  UNL     1       3.400 -31.485 -11.099  1.00  0.00     0.679 A 
ATOM     25  H6  UNL     1       2.019 -30.040 -11.428  1.00  0.00     0.184 HD
HETATM   26  N8  UNL     1       4.111 -32.137 -10.167  1.00  0.00    -0.154 N 
HETATM   27  C10 UNL     1       3.966 -31.819  -8.847  1.00  0.00     0.296 A 
ATOM     28  H8  UNL     1       4.761 -32.873 -10.444  1.00  0.00     0.187 HD
HETATM   29  O4  UNL     1       4.668 -32.474  -8.019  1.00  0.00    -0.264 OA
BRANCH  22  30
HETATM   30  C8  UNL     1       1.401 -29.113  -9.114  1.00  0.00     0.285 C 
HETATM   31  N5  UNL     1       0.074 -29.188  -9.572  1.00  0.00    -0.056 NA
HETATM   32  O3  UNL     1       1.762 -28.127  -8.442  1.00  0.00    -0.269 OA
ENDBRANCH  22  30
BRANCH  24  33
HETATM   33  N7  UNL     1       3.546 -31.798 -12.364  1.00  0.00    -0.234 N 
ATOM     34  H72 UNL     1       3.903 -31.102 -13.019  1.00  0.00     0.174 HD
ATOM     35  H71 UNL     1       3.311 -32.727 -12.714  1.00  0.00     0.174 HD
ENDBRANCH  24  33
ENDBRANCH  20  21
ENDBRANCH  11  20
TORSDOF 6
ENDMDL
