MODEL 1
REMARK VINA RESULT: -6.866046024      0.000      0.000
REMARK  3 active torsions:
REMARK  status: ('A' for Active; 'I' for Inactive)
REMARK    1  A    between atoms: C3_3  and  O1_4 
REMARK    2  A    between atoms: O1_4  and  C4_5 
REMARK    3  A    between atoms: C11_12  and  O2_13 
ROOT
HETATM    1  C1  UNL     1       0.995 -26.551 -33.262  1.00  0.00     0.014 C 
HETATM    2  C2  UNL     1       1.100 -26.865 -32.116  1.00  0.00    -0.091 C 
HETATM    3  C3  UNL     1       1.235 -27.239 -30.713  1.00  0.00     0.263 C 
ENDROOT
BRANCH   3   4
HETATM    4  O1  UNL     1       0.020 -27.589 -30.131  1.00  0.00    -0.350 OA
BRANCH   4   5
HETATM    5  C4  UNL     1      -0.146 -26.851 -28.990  1.00  0.00     0.261 C 
HETATM    6  C5  UNL     1      -1.197 -25.790 -29.193  1.00  0.00     0.061 C 
HETATM    7  C6  UNL     1      -1.733 -25.193 -27.938  1.00  0.00     0.017 C 
HETATM    8  C7  UNL     1      -1.841 -26.244 -26.857  1.00  0.00    -0.010 C 
HETATM    9  C8  UNL     1      -2.855 -27.261 -27.374  1.00  0.00     0.018 C 
HETATM   10  C9  UNL     1      -0.525 -26.991 -26.771  1.00  0.00     0.136 C 
HETATM   11  C21 UNL     1      -2.197 -25.686 -25.522  1.00  0.00    -0.027 C 
HETATM   12  C10 UNL     1      -0.435 -27.923 -25.635  1.00  0.00     0.065 C 
HETATM   13  O4  UNL     1      -0.492 -27.759 -27.965  1.00  0.00    -0.355 OA
HETATM   14  C11 UNL     1      -1.022 -27.411 -24.328  1.00  0.00     0.126 C 
HETATM   15  C12 UNL     1      -2.402 -26.883 -24.584  1.00  0.00     0.039 C 
HETATM   16  C13 UNL     1      -3.252 -26.613 -23.422  1.00  0.00     0.027 C 
HETATM   17  C14 UNL     1      -2.823 -27.278 -22.129  1.00  0.00     0.024 C 
HETATM   18  C15 UNL     1      -4.645 -27.091 -23.665  1.00  0.00     0.136 C 
HETATM   19  C18 UNL     1      -3.499 -25.171 -23.076  1.00  0.00     0.002 C 
HETATM   20  O3  UNL     1      -4.926 -27.969 -24.460  1.00  0.00    -0.297 OA
HETATM   21  C16 UNL     1      -5.591 -26.358 -22.816  1.00  0.00     0.079 C 
HETATM   22  C17 UNL     1      -4.816 -25.182 -22.316  1.00  0.00     0.013 C 
HETATM   23  C19 UNL     1      -3.639 -24.241 -24.220  1.00  0.00     0.006 C 
HETATM   24  C20 UNL     1      -3.489 -24.898 -25.567  1.00  0.00     0.011 C 
HETATM   25  C22 UNL     1      -1.119 -24.769 -25.064  1.00  0.00     0.016 C 
BRANCH  14  26
HETATM   26  O2  UNL     1      -1.029 -28.561 -23.499  1.00  0.00    -0.395 OA
ATOM     27  H2  UNL     1      -1.781 -29.052 -23.810  1.00  0.00     0.210 HD
ENDBRANCH  14  26
ENDBRANCH   4   5
ENDBRANCH   3   4
TORSDOF 3
ENDMDL
MODEL 2
REMARK VINA RESULT: -6.708093549      1.808      3.193
REMARK  3 active torsions:
REMARK  status: ('A' for Active; 'I' for Inactive)
REMARK    1  A    between atoms: C3_3  and  O1_4 
REMARK    2  A    between atoms: O1_4  and  C4_5 
REMARK    3  A    between atoms: C11_12  and  O2_13 
ROOT
HETATM    1  C1  UNL     1      -0.127 -26.937 -32.463  1.00  0.00     0.014 C 
HETATM    2  C2  UNL     1       0.558 -27.243 -31.536  1.00  0.00    -0.091 C 
HETATM    3  C3  UNL     1       1.406 -27.614 -30.410  1.00  0.00     0.263 C 
ENDROOT
BRANCH   3   4
HETATM    4  O1  UNL     1       1.076 -26.935 -29.242  1.00  0.00    -0.350 OA
BRANCH   4   5
HETATM    5  C4  UNL     1      -0.156 -27.359 -28.822  1.00  0.00     0.261 C 
HETATM    6  C5  UNL     1      -0.020 -28.342 -27.688  1.00  0.00     0.061 C 
HETATM    7  C6  UNL     1      -1.268 -28.571 -26.906  1.00  0.00     0.017 C 
HETATM    8  C7  UNL     1      -2.052 -27.286 -26.776  1.00  0.00    -0.010 C 
HETATM    9  C8  UNL     1      -1.158 -26.338 -25.981  1.00  0.00     0.018 C 
HETATM   10  C9  UNL     1      -2.191 -26.659 -28.148  1.00  0.00     0.136 C 
HETATM   11  C21 UNL     1      -3.398 -27.474 -26.164  1.00  0.00    -0.027 C 
HETATM   12  C10 UNL     1      -3.089 -25.493 -28.189  1.00  0.00     0.065 C 
HETATM   13  O4  UNL     1      -0.879 -26.205 -28.448  1.00  0.00    -0.355 OA
HETATM   14  C11 UNL     1      -4.359 -25.622 -27.361  1.00  0.00     0.126 C 
HETATM   15  C12 UNL     1      -3.997 -26.074 -25.977  1.00  0.00     0.039 C 
HETATM   16  C13 UNL     1      -5.029 -25.982 -24.942  1.00  0.00     0.027 C 
HETATM   17  C14 UNL     1      -6.195 -25.066 -25.260  1.00  0.00     0.024 C 
HETATM   18  C15 UNL     1      -4.454 -25.456 -23.668  1.00  0.00     0.136 C 
HETATM   19  C18 UNL     1      -5.642 -27.271 -24.470  1.00  0.00     0.002 C 
HETATM   20  O3  UNL     1      -3.448 -24.774 -23.617  1.00  0.00    -0.297 OA
HETATM   21  C16 UNL     1      -5.273 -25.878 -22.527  1.00  0.00     0.079 C 
HETATM   22  C17 UNL     1      -6.146 -26.963 -23.069  1.00  0.00     0.013 C 
HETATM   23  C19 UNL     1      -4.727 -28.433 -24.381  1.00  0.00     0.006 C 
HETATM   24  C20 UNL     1      -3.312 -28.134 -24.804  1.00  0.00     0.011 C 
HETATM   25  C22 UNL     1      -4.225 -28.345 -27.043  1.00  0.00     0.016 C 
BRANCH  14  26
HETATM   26  O2  UNL     1      -4.897 -24.312 -27.378  1.00  0.00    -0.395 OA
ATOM     27  H2  UNL     1      -5.107 -24.147 -26.466  1.00  0.00     0.210 HD
ENDBRANCH  14  26
ENDBRANCH   4   5
ENDBRANCH   3   4
TORSDOF 3
ENDMDL
MODEL 3
REMARK VINA RESULT: -6.532028135      1.509      1.720
REMARK  3 active torsions:
REMARK  status: ('A' for Active; 'I' for Inactive)
REMARK    1  A    between atoms: C3_3  and  O1_4 
REMARK    2  A    between atoms: O1_4  and  C4_5 
REMARK    3  A    between atoms: C11_12  and  O2_13 
ROOT
HETATM    1  C1  UNL     1       3.740 -27.339 -30.456  1.00  0.00     0.014 C 
HETATM    2  C2  UNL     1       3.196 -28.078 -29.694  1.00  0.00    -0.091 C 
HETATM    3  C3  UNL     1       2.537 -28.977 -28.754  1.00  0.00     0.263 C 
ENDROOT
BRANCH   3   4
HETATM    4  O1  UNL     1       1.152 -28.975 -28.889  1.00  0.00    -0.350 OA
BRANCH   4   5
HETATM    5  C4  UNL     1       0.650 -27.889 -28.224  1.00  0.00     0.261 C 
HETATM    6  C5  UNL     1      -0.332 -27.144 -29.091  1.00  0.00     0.061 C 
HETATM    7  C6  UNL     1      -1.218 -26.195 -28.360  1.00  0.00     0.017 C 
HETATM    8  C7  UNL     1      -1.594 -26.759 -27.010  1.00  0.00    -0.010 C 
HETATM    9  C8  UNL     1      -2.392 -28.027 -27.303  1.00  0.00     0.018 C 
HETATM   10  C9  UNL     1      -0.335 -27.224 -26.307  1.00  0.00     0.136 C 
HETATM   11  C21 UNL     1      -2.329 -25.790 -26.148  1.00  0.00    -0.027 C 
HETATM   12  C10 UNL     1      -0.542 -27.629 -24.907  1.00  0.00     0.065 C 
HETATM   13  O4  UNL     1       0.055 -28.376 -27.039  1.00  0.00    -0.355 OA
HETATM   14  C11 UNL     1      -1.488 -26.746 -24.108  1.00  0.00     0.126 C 
HETATM   15  C12 UNL     1      -2.755 -26.554 -24.888  1.00  0.00     0.039 C 
HETATM   16  C13 UNL     1      -3.906 -25.984 -24.183  1.00  0.00     0.027 C 
HETATM   17  C14 UNL     1      -3.839 -26.038 -22.670  1.00  0.00     0.024 C 
HETATM   18  C15 UNL     1      -5.159 -26.708 -24.547  1.00  0.00     0.136 C 
HETATM   19  C18 UNL     1      -4.283 -24.569 -24.524  1.00  0.00     0.002 C 
HETATM   20  O3  UNL     1      -5.179 -27.852 -24.960  1.00  0.00    -0.297 OA
HETATM   21  C16 UNL     1      -6.327 -25.847 -24.329  1.00  0.00     0.079 C 
HETATM   22  C17 UNL     1      -5.759 -24.474 -24.175  1.00  0.00     0.013 C 
HETATM   23  C19 UNL     1      -4.122 -24.174 -25.943  1.00  0.00     0.006 C 
HETATM   24  C20 UNL     1      -3.579 -25.267 -26.826  1.00  0.00     0.011 C 
HETATM   25  C22 UNL     1      -1.451 -24.626 -25.851  1.00  0.00     0.016 C 
BRANCH  14  26
HETATM   26  O2  UNL     1      -1.694 -27.481 -22.914  1.00  0.00    -0.395 OA
ATOM     27  H2  UNL     1      -0.813 -27.623 -22.587  1.00  0.00     0.210 HD
ENDBRANCH  14  26
ENDBRANCH   4   5
ENDBRANCH   3   4
TORSDOF 3
ENDMDL
MODEL 4
REMARK VINA RESULT: -6.405375348      1.683      2.953
REMARK  3 active torsions:
REMARK  status: ('A' for Active; 'I' for Inactive)
REMARK    1  A    between atoms: C3_3  and  O1_4 
REMARK    2  A    between atoms: O1_4  and  C4_5 
REMARK    3  A    between atoms: C11_12  and  O2_13 
ROOT
HETATM    1  C1  UNL     1       0.277 -27.301 -32.229  1.00  0.00     0.014 C 
HETATM    2  C2  UNL     1       0.277 -27.231 -31.039  1.00  0.00    -0.091 C 
HETATM    3  C3  UNL     1       0.268 -27.140 -29.584  1.00  0.00     0.263 C 
ENDROOT
BRANCH   3   4
HETATM    4  O1  UNL     1       0.426 -28.377 -28.967  1.00  0.00    -0.350 OA
BRANCH   4   5
HETATM    5  C4  UNL     1      -0.337 -28.400 -27.830  1.00  0.00     0.261 C 
HETATM    6  C5  UNL     1       0.367 -27.684 -26.706  1.00  0.00     0.061 C 
HETATM    7  C6  UNL     1      -0.507 -27.310 -25.559  1.00  0.00     0.017 C 
HETATM    8  C7  UNL     1      -1.876 -26.899 -26.050  1.00  0.00    -0.010 C 
HETATM    9  C8  UNL     1      -1.648 -25.654 -26.903  1.00  0.00     0.018 C 
HETATM   10  C9  UNL     1      -2.389 -27.958 -27.005  1.00  0.00     0.136 C 
HETATM   11  C21 UNL     1      -2.860 -26.686 -24.951  1.00  0.00    -0.027 C 
HETATM   12  C10 UNL     1      -3.789 -27.768 -27.417  1.00  0.00     0.065 C 
HETATM   13  O4  UNL     1      -1.573 -27.799 -28.157  1.00  0.00    -0.355 OA
HETATM   14  C11 UNL     1      -4.737 -27.322 -26.314  1.00  0.00     0.126 C 
HETATM   15  C12 UNL     1      -4.139 -26.144 -25.603  1.00  0.00     0.039 C 
HETATM   16  C13 UNL     1      -5.008 -25.380 -24.705  1.00  0.00     0.027 C 
HETATM   17  C14 UNL     1      -6.497 -25.588 -24.904  1.00  0.00     0.024 C 
HETATM   18  C15 UNL     1      -4.790 -23.914 -24.880  1.00  0.00     0.136 C 
HETATM   19  C18 UNL     1      -4.770 -25.532 -23.229  1.00  0.00     0.002 C 
HETATM   20  O3  UNL     1      -4.344 -23.417 -25.897  1.00  0.00    -0.297 OA
HETATM   21  C16 UNL     1      -5.190 -23.191 -23.667  1.00  0.00     0.079 C 
HETATM   22  C17 UNL     1      -5.314 -24.250 -22.621  1.00  0.00     0.013 C 
HETATM   23  C19 UNL     1      -3.356 -25.674 -22.808  1.00  0.00     0.006 C 
HETATM   24  C20 UNL     1      -2.372 -25.661 -23.949  1.00  0.00     0.011 C 
HETATM   25  C22 UNL     1      -3.077 -27.966 -24.225  1.00  0.00     0.016 C 
BRANCH  14  26
HETATM   26  O2  UNL     1      -5.921 -26.985 -27.015  1.00  0.00    -0.395 OA
ATOM     27  H2  UNL     1      -6.563 -27.594 -26.668  1.00  0.00     0.210 HD
ENDBRANCH  14  26
ENDBRANCH   4   5
ENDBRANCH   3   4
TORSDOF 3
ENDMDL
MODEL 5
REMARK VINA RESULT: -6.363943999      1.783      3.183
REMARK  3 active torsions:
REMARK  status: ('A' for Active; 'I' for Inactive)
REMARK    1  A    between atoms: C3_3  and  O1_4 
REMARK    2  A    between atoms: O1_4  and  C4_5 
REMARK    3  A    between atoms: C11_12  and  O2_13 
ROOT
HETATM    1  C1  UNL     1       0.245 -27.316 -32.318  1.00  0.00     0.014 C 
HETATM    2  C2  UNL     1       0.256 -27.150 -31.138  1.00  0.00    -0.091 C 
HETATM    3  C3  UNL     1       0.282 -26.944 -29.694  1.00  0.00     0.263 C 
ENDROOT
BRANCH   3   4
HETATM    4  O1  UNL     1      -0.708 -26.069 -29.258  1.00  0.00    -0.350 OA
BRANCH   4   5
HETATM    5  C4  UNL     1      -1.365 -26.643 -28.203  1.00  0.00     0.261 C 
HETATM    6  C5  UNL     1      -0.408 -26.932 -27.076  1.00  0.00     0.061 C 
HETATM    7  C6  UNL     1      -1.053 -27.189 -25.758  1.00  0.00     0.017 C 
HETATM    8  C7  UNL     1      -2.268 -26.307 -25.584  1.00  0.00    -0.010 C 
HETATM    9  C8  UNL     1      -1.738 -24.875 -25.585  1.00  0.00     0.018 C 
HETATM   10  C9  UNL     1      -3.134 -26.420 -26.822  1.00  0.00     0.136 C 
HETATM   11  C21 UNL     1      -3.069 -26.635 -24.371  1.00  0.00    -0.027 C 
HETATM   12  C10 UNL     1      -4.439 -25.750 -26.707  1.00  0.00     0.065 C 
HETATM   13  O4  UNL     1      -2.386 -25.744 -27.822  1.00  0.00    -0.355 OA
HETATM   14  C11 UNL     1      -5.136 -25.910 -25.364  1.00  0.00     0.126 C 
HETATM   15  C12 UNL     1      -4.169 -25.571 -24.268  1.00  0.00     0.039 C 
HETATM   16  C13 UNL     1      -4.711 -25.378 -22.920  1.00  0.00     0.027 C 
HETATM   17  C14 UNL     1      -6.204 -25.125 -22.847  1.00  0.00     0.024 C 
HETATM   18  C15 UNL     1      -4.080 -24.197 -22.262  1.00  0.00     0.136 C 
HETATM   19  C18 UNL     1      -4.431 -26.455 -21.910  1.00  0.00     0.002 C 
HETATM   20  O3  UNL     1      -3.576 -23.275 -22.875  1.00  0.00    -0.297 OA
HETATM   21  C16 UNL     1      -4.166 -24.321 -20.802  1.00  0.00     0.079 C 
HETATM   22  C17 UNL     1      -4.529 -25.751 -20.566  1.00  0.00     0.013 C 
HETATM   23  C19 UNL     1      -3.098 -27.097 -21.994  1.00  0.00     0.006 C 
HETATM   24  C20 UNL     1      -2.233 -26.571 -23.110  1.00  0.00     0.011 C 
HETATM   25  C22 UNL     1      -3.607 -28.017 -24.492  1.00  0.00     0.016 C 
BRANCH  14  26
HETATM   26  O2  UNL     1      -6.211 -24.990 -25.439  1.00  0.00    -0.395 OA
ATOM     27  H2  UNL     1      -6.826 -25.317 -24.793  1.00  0.00     0.210 HD
ENDBRANCH  14  26
ENDBRANCH   4   5
ENDBRANCH   3   4
TORSDOF 3
ENDMDL
