MODEL 1
REMARK VINA RESULT: -5.727172083      0.000      0.000
REMARK  5 active torsions:
REMARK  status: ('A' for Active; 'I' for Inactive)
REMARK    1  A    between atoms: C2_2  and  O1_3 
REMARK    2  A    between atoms: O1_3  and  C3_4 
REMARK    3  A    between atoms: C10_11  and  O2_12 
REMARK    4  A    between atoms: O2_12  and  C11_13 
REMARK    5  A    between atoms: C19_22  and  O4_23 
ROOT
HETATM    1  C3  UNL     1      -5.118 -26.797 -24.340  1.00  0.00     0.137 C 
HETATM    2  C4  UNL     1      -3.867 -25.945 -24.207  1.00  0.00     0.025 C 
HETATM    3  C5  UNL     1      -2.851 -26.729 -23.469  1.00  0.00     0.014 C 
HETATM    4  C6  UNL     1      -3.480 -25.513 -25.574  1.00  0.00     0.005 C 
HETATM    5  C7  UNL     1      -2.043 -25.400 -25.895  1.00  0.00    -0.075 C 
HETATM    6  C8  UNL     1      -1.251 -24.358 -25.178  1.00  0.00     0.044 C 
HETATM    7  C9  UNL     1      -1.369 -26.132 -26.769  1.00  0.00     0.009 C 
HETATM    8  C10 UNL     1      -2.038 -27.225 -27.577  1.00  0.00     0.160 C 
HETATM    9  C13 UNL     1      -3.228 -27.569 -26.795  1.00  0.00     0.032 C 
HETATM   10  C14 UNL     1      -4.142 -28.649 -27.290  1.00  0.00     0.013 C 
HETATM   11  C15 UNL     1      -5.152 -28.609 -26.117  1.00  0.00    -0.011 C 
HETATM   12  C16 UNL     1      -6.444 -29.257 -26.486  1.00  0.00     0.010 C 
HETATM   13  C17 UNL     1      -5.275 -27.161 -25.755  1.00  0.00     0.032 C 
HETATM   14  C18 UNL     1      -4.158 -26.490 -26.468  1.00  0.00     0.011 C 
HETATM   15  C19 UNL     1      -4.535 -25.425 -27.382  1.00  0.00     0.133 C 
HETATM   16  C20 UNL     1      -4.236 -24.429 -26.249  1.00  0.00     0.025 C 
HETATM   17  C21 UNL     1      -5.430 -23.839 -25.607  1.00  0.00     0.014 C 
ENDROOT
BRANCH   8  18
HETATM   18  O2  UNL     1      -1.134 -28.339 -27.529  1.00  0.00    -0.312 OA
BRANCH  18  19
HETATM   19  C11 UNL     1       0.172 -28.250 -27.971  1.00  0.00     0.255 C 
HETATM   20  C12 UNL     1       0.545 -27.772 -29.328  1.00  0.00     0.126 C 
HETATM   21  O3  UNL     1       1.067 -28.608 -27.133  1.00  0.00    -0.266 OA
ENDBRANCH  18  19
ENDBRANCH   8  18
BRANCH  15  22
HETATM   22  O4  UNL     1      -3.875 -25.218 -28.552  1.00  0.00    -0.394 OA
ATOM     23  H4  UNL     1      -3.393 -24.416 -28.720  1.00  0.00     0.210 HD
ENDBRANCH  15  22
BRANCH   1  24
HETATM   24  O1  UNL     1      -5.210 -27.834 -23.416  1.00  0.00    -0.358 OA
BRANCH  24  25
HETATM   25  C2  UNL     1      -6.294 -28.063 -22.597  1.00  0.00     0.125 C 
HETATM   26  C1  UNL     1      -7.360 -27.305 -22.689  1.00  0.00     0.037 C 
ENDBRANCH  24  25
ENDBRANCH   1  24
TORSDOF 5
ENDMDL
MODEL 2
REMARK VINA RESULT: -5.652650400      1.787      5.514
REMARK  5 active torsions:
REMARK  status: ('A' for Active; 'I' for Inactive)
REMARK    1  A    between atoms: C2_2  and  O1_3 
REMARK    2  A    between atoms: O1_3  and  C3_4 
REMARK    3  A    between atoms: C10_11  and  O2_12 
REMARK    4  A    between atoms: O2_12  and  C11_13 
REMARK    5  A    between atoms: C19_22  and  O4_23 
ROOT
HETATM    1  C3  UNL     1      -1.186 -26.413 -27.611  1.00  0.00     0.137 C 
HETATM    2  C4  UNL     1      -2.320 -25.417 -27.445  1.00  0.00     0.025 C 
HETATM    3  C5  UNL     1      -3.174 -25.484 -28.653  1.00  0.00     0.014 C 
HETATM    4  C6  UNL     1      -2.997 -25.727 -26.161  1.00  0.00     0.005 C 
HETATM    5  C7  UNL     1      -4.460 -25.549 -26.076  1.00  0.00    -0.075 C 
HETATM    6  C8  UNL     1      -5.000 -24.163 -26.200  1.00  0.00     0.044 C 
HETATM    7  C9  UNL     1      -5.361 -26.502 -25.894  1.00  0.00     0.009 C 
HETATM    8  C10 UNL     1      -4.966 -27.957 -25.746  1.00  0.00     0.160 C 
HETATM    9  C13 UNL     1      -3.645 -28.032 -26.374  1.00  0.00     0.032 C 
HETATM   10  C14 UNL     1      -2.936 -29.351 -26.431  1.00  0.00     0.013 C 
HETATM   11  C15 UNL     1      -1.676 -28.868 -27.190  1.00  0.00    -0.011 C 
HETATM   12  C16 UNL     1      -0.546 -29.832 -27.042  1.00  0.00     0.010 C 
HETATM   13  C17 UNL     1      -1.390 -27.503 -26.645  1.00  0.00     0.032 C 
HETATM   14  C18 UNL     1      -2.606 -27.133 -25.875  1.00  0.00     0.011 C 
HETATM   15  C19 UNL     1      -2.398 -26.815 -24.473  1.00  0.00     0.133 C 
HETATM   16  C20 UNL     1      -2.363 -25.331 -24.878  1.00  0.00     0.025 C 
HETATM   17  C21 UNL     1      -1.021 -24.714 -24.866  1.00  0.00     0.014 C 
ENDROOT
BRANCH   8  18
HETATM   18  O2  UNL     1      -5.893 -28.687 -26.563  1.00  0.00    -0.312 OA
BRANCH  18  19
HETATM   19  C11 UNL     1      -6.762 -29.624 -26.037  1.00  0.00     0.255 C 
HETATM   20  C12 UNL     1      -6.389 -30.565 -24.950  1.00  0.00     0.126 C 
HETATM   21  O3  UNL     1      -7.933 -29.641 -26.547  1.00  0.00    -0.266 OA
ENDBRANCH  18  19
ENDBRANCH   8  18
BRANCH  15  22
HETATM   22  O4  UNL     1      -3.305 -27.155 -23.519  1.00  0.00    -0.394 OA
ATOM     23  H4  UNL     1      -3.270 -27.991 -23.070  1.00  0.00     0.210 HD
ENDBRANCH  15  22
BRANCH   1  24
HETATM   24  O1  UNL     1      -0.935 -26.788 -28.928  1.00  0.00    -0.358 OA
BRANCH  24  25
HETATM   25  C2  UNL     1       0.289 -26.685 -29.555  1.00  0.00     0.125 C 
HETATM   26  C1  UNL     1       1.020 -27.755 -29.750  1.00  0.00     0.037 C 
ENDBRANCH  24  25
ENDBRANCH   1  24
TORSDOF 5
ENDMDL
MODEL 3
REMARK VINA RESULT: -5.410544542      1.807      5.631
REMARK  5 active torsions:
REMARK  status: ('A' for Active; 'I' for Inactive)
REMARK    1  A    between atoms: C2_2  and  O1_3 
REMARK    2  A    between atoms: O1_3  and  C3_4 
REMARK    3  A    between atoms: C10_11  and  O2_12 
REMARK    4  A    between atoms: O2_12  and  C11_13 
REMARK    5  A    between atoms: C19_22  and  O4_23 
ROOT
HETATM    1  C3  UNL     1      -1.260 -27.983 -26.494  1.00  0.00     0.137 C 
HETATM    2  C4  UNL     1      -2.537 -28.046 -27.314  1.00  0.00     0.025 C 
HETATM    3  C5  UNL     1      -3.366 -29.156 -26.793  1.00  0.00     0.014 C 
HETATM    4  C6  UNL     1      -3.159 -26.699 -27.266  1.00  0.00     0.005 C 
HETATM    5  C7  UNL     1      -4.633 -26.606 -27.237  1.00  0.00    -0.075 C 
HETATM    6  C8  UNL     1      -5.382 -27.076 -28.438  1.00  0.00     0.044 C 
HETATM    7  C9  UNL     1      -5.374 -26.139 -26.244  1.00  0.00     0.009 C 
HETATM    8  C10 UNL     1      -4.756 -25.621 -24.962  1.00  0.00     0.160 C 
HETATM    9  C13 UNL     1      -3.438 -26.259 -24.920  1.00  0.00     0.032 C 
HETATM   10  C14 UNL     1      -2.532 -25.987 -23.757  1.00  0.00     0.013 C 
HETATM   11  C15 UNL     1      -1.361 -26.898 -24.201  1.00  0.00    -0.011 C 
HETATM   12  C16 UNL     1      -0.094 -26.543 -23.496  1.00  0.00     0.010 C 
HETATM   13  C17 UNL     1      -1.293 -26.753 -25.690  1.00  0.00     0.032 C 
HETATM   14  C18 UNL     1      -2.554 -26.062 -26.066  1.00  0.00     0.011 C 
HETATM   15  C19 UNL     1      -2.402 -24.807 -26.781  1.00  0.00     0.133 C 
HETATM   16  C20 UNL     1      -2.599 -25.596 -28.087  1.00  0.00     0.025 C 
HETATM   17  C21 UNL     1      -1.370 -25.805 -28.880  1.00  0.00     0.014 C 
ENDROOT
BRANCH   8  18
HETATM   18  O2  UNL     1      -5.555 -26.174 -23.906  1.00  0.00    -0.312 OA
BRANCH  18  19
HETATM   19  C11 UNL     1      -6.167 -25.384 -22.951  1.00  0.00     0.255 C 
HETATM   20  C12 UNL     1      -5.896 -23.931 -22.797  1.00  0.00     0.126 C 
HETATM   21  O3  UNL     1      -6.998 -25.981 -22.187  1.00  0.00    -0.266 OA
ENDBRANCH  18  19
ENDBRANCH   8  18
BRANCH  15  22
HETATM   22  O4  UNL     1      -3.247 -23.761 -26.580  1.00  0.00    -0.394 OA
ATOM     23  H4  UNL     1      -3.460 -23.149 -27.274  1.00  0.00     0.210 HD
ENDBRANCH  15  22
BRANCH   1  24
HETATM   24  O1  UNL     1      -0.950 -29.160 -25.818  1.00  0.00    -0.358 OA
BRANCH  24  25
HETATM   25  C2  UNL     1       0.175 -29.923 -26.044  1.00  0.00     0.125 C 
HETATM   26  C1  UNL     1       0.717 -29.960 -27.237  1.00  0.00     0.037 C 
ENDBRANCH  24  25
ENDBRANCH   1  24
TORSDOF 5
ENDMDL
MODEL 4
REMARK VINA RESULT: -5.387210873      2.378      4.490
REMARK  5 active torsions:
REMARK  status: ('A' for Active; 'I' for Inactive)
REMARK    1  A    between atoms: C2_2  and  O1_3 
REMARK    2  A    between atoms: O1_3  and  C3_4 
REMARK    3  A    between atoms: C10_11  and  O2_12 
REMARK    4  A    between atoms: O2_12  and  C11_13 
REMARK    5  A    between atoms: C19_22  and  O4_23 
ROOT
HETATM    1  C3  UNL     1      -3.599 -25.136 -25.157  1.00  0.00     0.137 C 
HETATM    2  C4  UNL     1      -2.627 -26.220 -25.587  1.00  0.00     0.025 C 
HETATM    3  C5  UNL     1      -2.237 -26.993 -24.387  1.00  0.00     0.014 C 
HETATM    4  C6  UNL     1      -3.282 -26.997 -26.669  1.00  0.00     0.005 C 
HETATM    5  C7  UNL     1      -3.031 -28.450 -26.742  1.00  0.00    -0.075 C 
HETATM    6  C8  UNL     1      -1.643 -28.901 -27.052  1.00  0.00     0.044 C 
HETATM    7  C9  UNL     1      -3.921 -29.415 -26.563  1.00  0.00     0.009 C 
HETATM    8  C10 UNL     1      -5.371 -29.113 -26.247  1.00  0.00     0.160 C 
HETATM    9  C13 UNL     1      -5.340 -27.759 -25.689  1.00  0.00     0.032 C 
HETATM   10  C14 UNL     1      -6.620 -27.125 -25.237  1.00  0.00     0.013 C 
HETATM   11  C15 UNL     1      -6.015 -25.791 -24.734  1.00  0.00    -0.011 C 
HETATM   12  C16 UNL     1      -7.057 -24.730 -24.610  1.00  0.00     0.010 C 
HETATM   13  C17 UNL     1      -4.923 -25.465 -25.705  1.00  0.00     0.032 C 
HETATM   14  C18 UNL     1      -4.731 -26.707 -26.498  1.00  0.00     0.011 C 
HETATM   15  C19 UNL     1      -4.897 -26.576 -27.936  1.00  0.00     0.133 C 
HETATM   16  C20 UNL     1      -3.369 -26.430 -28.039  1.00  0.00     0.025 C 
HETATM   17  C21 UNL     1      -2.891 -25.058 -28.311  1.00  0.00     0.014 C 
ENDROOT
BRANCH   8  18
HETATM   18  O2  UNL     1      -5.728 -30.024 -25.197  1.00  0.00    -0.312 OA
BRANCH  18  19
HETATM   19  C11 UNL     1      -6.919 -30.724 -25.198  1.00  0.00     0.255 C 
HETATM   20  C12 UNL     1      -8.001 -30.494 -26.190  1.00  0.00     0.126 C 
HETATM   21  O3  UNL     1      -7.046 -31.604 -24.281  1.00  0.00    -0.266 OA
ENDBRANCH  18  19
ENDBRANCH   8  18
BRANCH  15  22
HETATM   22  O4  UNL     1      -5.457 -27.562 -28.685  1.00  0.00    -0.394 OA
ATOM     23  H4  UNL     1      -5.052 -27.872 -29.487  1.00  0.00     0.210 HD
ENDBRANCH  15  22
BRANCH   1  24
HETATM   24  O1  UNL     1      -3.548 -24.819 -23.803  1.00  0.00    -0.358 OA
BRANCH  24  25
HETATM   25  C2  UNL     1      -3.778 -23.564 -23.280  1.00  0.00     0.125 C 
HETATM   26  C1  UNL     1      -4.176 -23.432 -22.038  1.00  0.00     0.037 C 
ENDBRANCH  24  25
ENDBRANCH   1  24
TORSDOF 5
ENDMDL
MODEL 5
REMARK VINA RESULT: -5.338495170      7.968     10.114
REMARK  5 active torsions:
REMARK  status: ('A' for Active; 'I' for Inactive)
REMARK    1  A    between atoms: C2_2  and  O1_3 
REMARK    2  A    between atoms: O1_3  and  C3_4 
REMARK    3  A    between atoms: C10_11  and  O2_12 
REMARK    4  A    between atoms: O2_12  and  C11_13 
REMARK    5  A    between atoms: C19_22  and  O4_23 
ROOT
HETATM    1  C3  UNL     1       5.815 -28.449 -25.677  1.00  0.00     0.137 C 
HETATM    2  C4  UNL     1       4.875 -29.406 -26.389  1.00  0.00     0.025 C 
HETATM    3  C5  UNL     1       3.485 -29.008 -26.071  1.00  0.00     0.014 C 
HETATM    4  C6  UNL     1       5.236 -29.390 -27.829  1.00  0.00     0.005 C 
HETATM    5  C7  UNL     1       4.155 -29.520 -28.826  1.00  0.00    -0.075 C 
HETATM    6  C8  UNL     1       3.403 -30.809 -28.872  1.00  0.00     0.044 C 
HETATM    7  C9  UNL     1       3.775 -28.603 -29.703  1.00  0.00     0.009 C 
HETATM    8  C10 UNL     1       4.447 -27.248 -29.780  1.00  0.00     0.160 C 
HETATM    9  C13 UNL     1       5.059 -27.078 -28.460  1.00  0.00     0.032 C 
HETATM   10  C14 UNL     1       5.810 -25.816 -28.159  1.00  0.00     0.013 C 
HETATM   11  C15 UNL     1       6.186 -26.153 -26.695  1.00  0.00    -0.011 C 
HETATM   12  C16 UNL     1       7.314 -25.304 -26.212  1.00  0.00     0.010 C 
HETATM   13  C17 UNL     1       6.481 -27.621 -26.694  1.00  0.00     0.032 C 
HETATM   14  C18 UNL     1       5.981 -28.115 -28.003  1.00  0.00     0.011 C 
HETATM   15  C19 UNL     1       6.959 -28.775 -28.849  1.00  0.00     0.133 C 
HETATM   16  C20 UNL     1       6.445 -30.115 -28.296  1.00  0.00     0.025 C 
HETATM   17  C21 UNL     1       7.343 -30.774 -27.324  1.00  0.00     0.014 C 
ENDROOT
BRANCH   8  18
HETATM   18  O2  UNL     1       3.375 -26.301 -29.903  1.00  0.00    -0.312 OA
BRANCH  18  19
HETATM   19  C11 UNL     1       3.351 -25.336 -30.892  1.00  0.00     0.255 C 
HETATM   20  C12 UNL     1       3.832 -23.945 -30.690  1.00  0.00     0.126 C 
HETATM   21  O3  UNL     1       2.881 -25.711 -32.020  1.00  0.00    -0.266 OA
ENDBRANCH  18  19
ENDBRANCH   8  18
BRANCH  15  22
HETATM   22  O4  UNL     1       6.944 -28.641 -30.202  1.00  0.00    -0.394 OA
ATOM     23  H4  UNL     1       7.732 -28.736 -30.724  1.00  0.00     0.210 HD
ENDBRANCH  15  22
BRANCH   1  24
HETATM   24  O1  UNL     1       5.247 -27.774 -24.601  1.00  0.00    -0.358 OA
BRANCH  24  25
HETATM   25  C2  UNL     1       5.900 -27.479 -23.424  1.00  0.00     0.125 C 
HETATM   26  C1  UNL     1       5.796 -26.284 -22.895  1.00  0.00     0.037 C 
ENDBRANCH  24  25
ENDBRANCH   1  24
TORSDOF 5
ENDMDL
