MODEL 1
REMARK VINA RESULT: -6.139488338      0.000      0.000
REMARK  3 active torsions:
REMARK  status: ('A' for Active; 'I' for Inactive)
REMARK    1  A    between atoms: O1_2  and  C2_3 
REMARK    2  A    between atoms: C19_21  and  O3_22 
REMARK    3  A    between atoms: C19_21  and  C20_24 
ROOT
HETATM    1  C2  UNL     1      -5.966 -24.840 -24.908  1.00  0.00     0.127 C 
HETATM    2  C3  UNL     1      -4.913 -23.764 -24.953  1.00  0.00     0.037 C 
HETATM    3  C4  UNL     1      -3.742 -24.046 -23.992  1.00  0.00    -0.011 C 
HETATM    4  C5  UNL     1      -4.004 -23.466 -22.635  1.00  0.00     0.010 C 
HETATM    5  C6  UNL     1      -3.555 -25.483 -24.060  1.00  0.00     0.006 A 
HETATM    6  C7  UNL     1      -2.478 -26.376 -24.396  1.00  0.00     0.002 A 
HETATM    7  C8  UNL     1      -2.539 -27.838 -24.171  1.00  0.00     0.007 C 
HETATM    8  C9  UNL     1      -1.566 -28.524 -25.093  1.00  0.00     0.012 C 
HETATM    9  C10 UNL     1      -1.996 -28.685 -26.492  1.00  0.00    -0.018 C 
HETATM   10  C11 UNL     1      -0.824 -29.200 -27.299  1.00  0.00     0.018 C 
HETATM   11  C12 UNL     1      -3.045 -29.800 -26.531  1.00  0.00     0.018 C 
HETATM   12  C13 UNL     1      -2.650 -27.489 -27.149  1.00  0.00     0.171 C 
HETATM   13  O2  UNL     1      -3.934 -27.423 -26.695  1.00  0.00    -0.375 OA
HETATM   14  C14 UNL     1      -4.299 -26.200 -26.213  1.00  0.00     0.137 C 
HETATM   15  C15 UNL     1      -5.704 -26.050 -25.740  1.00  0.00     0.040 C 
HETATM   16  C16 UNL     1      -6.302 -27.270 -25.068  1.00  0.00     0.015 C 
HETATM   17  C17 UNL     1      -3.189 -25.734 -25.425  1.00  0.00    -0.002 A 
HETATM   18  C18 UNL     1      -2.176 -25.134 -26.320  1.00  0.00     0.061 C 
HETATM   19  C19 UNL     1      -1.803 -26.297 -27.260  1.00  0.00     0.145 C 
ENDROOT
BRANCH  19  20
HETATM   20  O3  UNL     1      -0.501 -26.679 -26.836  1.00  0.00    -0.379 OA
ATOM     21  H3  UNL     1       0.052 -25.912 -26.928  1.00  0.00     0.211 HD
ENDBRANCH  19  20
BRANCH  19  22
HETATM   22  C20 UNL     1      -1.603 -25.791 -28.639  1.00  0.00     0.159 C 
HETATM   23  C21 UNL     1      -0.416 -26.191 -29.437  1.00  0.00     0.094 C 
HETATM   24  O4  UNL     1      -2.379 -25.035 -29.193  1.00  0.00    -0.295 OA
ENDBRANCH  19  22
BRANCH   1  25
HETATM   25  O1  UNL     1      -7.223 -24.327 -25.287  1.00  0.00    -0.390 OA
HETATM   26  C1  UNL     1      -7.271 -22.991 -25.490  1.00  0.00     0.202 C 
ENDBRANCH   1  25
TORSDOF 3
ENDMDL
MODEL 2
REMARK VINA RESULT: -5.891183999      2.062      3.523
REMARK  3 active torsions:
REMARK  status: ('A' for Active; 'I' for Inactive)
REMARK    1  A    between atoms: O1_2  and  C2_3 
REMARK    2  A    between atoms: C19_21  and  O3_22 
REMARK    3  A    between atoms: C19_21  and  C20_24 
ROOT
HETATM    1  C2  UNL     1      -4.325 -26.350 -21.872  1.00  0.00     0.127 C 
HETATM    2  C3  UNL     1      -5.417 -25.509 -22.479  1.00  0.00     0.037 C 
HETATM    3  C4  UNL     1      -4.889 -24.174 -23.041  1.00  0.00    -0.011 C 
HETATM    4  C5  UNL     1      -4.909 -23.103 -21.993  1.00  0.00     0.010 C 
HETATM    5  C6  UNL     1      -3.596 -24.506 -23.607  1.00  0.00     0.006 A 
HETATM    6  C7  UNL     1      -2.971 -24.404 -24.899  1.00  0.00     0.002 A 
HETATM    7  C8  UNL     1      -1.527 -24.651 -25.122  1.00  0.00     0.007 C 
HETATM    8  C9  UNL     1      -1.301 -25.013 -26.566  1.00  0.00     0.012 C 
HETATM    9  C10 UNL     1      -1.635 -26.395 -26.952  1.00  0.00    -0.018 C 
HETATM   10  C11 UNL     1      -1.541 -26.508 -28.458  1.00  0.00     0.018 C 
HETATM   11  C12 UNL     1      -0.538 -27.309 -26.400  1.00  0.00     0.018 C 
HETATM   12  C13 UNL     1      -2.937 -26.957 -26.426  1.00  0.00     0.171 C 
HETATM   13  O2  UNL     1      -2.737 -27.303 -25.122  1.00  0.00    -0.375 OA
HETATM   14  C14 UNL     1      -3.667 -26.803 -24.258  1.00  0.00     0.137 C 
HETATM   15  C15 UNL     1      -3.528 -27.178 -22.823  1.00  0.00     0.040 C 
HETATM   16  C16 UNL     1      -2.107 -27.311 -22.315  1.00  0.00     0.015 C 
HETATM   17  C17 UNL     1      -3.891 -25.439 -24.658  1.00  0.00    -0.002 A 
HETATM   18  C18 UNL     1      -4.851 -25.414 -25.783  1.00  0.00     0.061 C 
HETATM   19  C19 UNL     1      -4.146 -26.252 -26.866  1.00  0.00     0.145 C 
ENDROOT
BRANCH  19  20
HETATM   20  O3  UNL     1      -3.731 -25.293 -27.829  1.00  0.00    -0.379 OA
ATOM     21  H3  UNL     1      -4.349 -24.573 -27.781  1.00  0.00     0.211 HD
ENDBRANCH  19  20
BRANCH  19  22
HETATM   22  C20 UNL     1      -5.136 -27.088 -27.587  1.00  0.00     0.159 C 
HETATM   23  C21 UNL     1      -5.797 -28.239 -26.921  1.00  0.00     0.094 C 
HETATM   24  O4  UNL     1      -5.463 -26.889 -28.742  1.00  0.00    -0.295 OA
ENDBRANCH  19  22
BRANCH   1  25
HETATM   25  O1  UNL     1      -4.848 -27.214 -20.889  1.00  0.00    -0.390 OA
HETATM   26  C1  UNL     1      -5.781 -28.093 -21.319  1.00  0.00     0.202 C 
ENDBRANCH   1  25
TORSDOF 3
ENDMDL
MODEL 3
REMARK VINA RESULT: -5.748021441      8.131     10.499
REMARK  3 active torsions:
REMARK  status: ('A' for Active; 'I' for Inactive)
REMARK    1  A    between atoms: O1_2  and  C2_3 
REMARK    2  A    between atoms: C19_21  and  O3_22 
REMARK    3  A    between atoms: C19_21  and  C20_24 
ROOT
HETATM    1  C2  UNL     1       3.805 -26.030 -30.188  1.00  0.00     0.127 C 
HETATM    2  C3  UNL     1       4.744 -24.939 -30.630  1.00  0.00     0.037 C 
HETATM    3  C4  UNL     1       5.110 -23.977 -29.483  1.00  0.00    -0.011 C 
HETATM    4  C5  UNL     1       4.136 -22.841 -29.400  1.00  0.00     0.010 C 
HETATM    5  C6  UNL     1       5.216 -24.829 -28.314  1.00  0.00     0.006 A 
HETATM    6  C7  UNL     1       6.230 -25.136 -27.341  1.00  0.00     0.002 A 
HETATM    7  C8  UNL     1       5.963 -25.919 -26.112  1.00  0.00     0.007 C 
HETATM    8  C9  UNL     1       7.249 -26.528 -25.621  1.00  0.00     0.012 C 
HETATM    9  C10 UNL     1       7.714 -27.732 -26.331  1.00  0.00    -0.018 C 
HETATM   10  C11 UNL     1       9.103 -28.073 -25.839  1.00  0.00     0.018 C 
HETATM   11  C12 UNL     1       6.824 -28.900 -25.896  1.00  0.00     0.018 C 
HETATM   12  C13 UNL     1       7.642 -27.706 -27.842  1.00  0.00     0.171 C 
HETATM   13  O2  UNL     1       6.343 -27.922 -28.194  1.00  0.00    -0.375 OA
HETATM   14  C14 UNL     1       5.837 -27.008 -29.071  1.00  0.00     0.137 C 
HETATM   15  C15 UNL     1       4.433 -27.211 -29.528  1.00  0.00     0.040 C 
HETATM   16  C16 UNL     1       3.485 -27.783 -28.494  1.00  0.00     0.015 C 
HETATM   17  C17 UNL     1       6.298 -25.722 -28.617  1.00  0.00    -0.002 A 
HETATM   18  C18 UNL     1       7.677 -25.501 -29.105  1.00  0.00     0.061 C 
HETATM   19  C19 UNL     1       8.461 -26.676 -28.489  1.00  0.00     0.145 C 
ENDROOT
BRANCH  19  20
HETATM   20  O3  UNL     1       9.241 -26.072 -27.466  1.00  0.00    -0.379 OA
ATOM     21  H3  UNL     1       9.105 -25.134 -27.536  1.00  0.00     0.211 HD
ENDBRANCH  19  20
BRANCH  19  22
HETATM   22  C20 UNL     1       9.462 -27.182 -29.458  1.00  0.00     0.159 C 
HETATM   23  C21 UNL     1       9.249 -28.462 -30.181  1.00  0.00     0.094 C 
HETATM   24  O4  UNL     1      10.497 -26.596 -29.718  1.00  0.00    -0.295 OA
ENDBRANCH  19  22
BRANCH   1  25
HETATM   25  O1  UNL     1       3.042 -26.505 -31.274  1.00  0.00    -0.390 OA
HETATM   26  C1  UNL     1       2.499 -25.553 -32.066  1.00  0.00     0.202 C 
ENDBRANCH   1  25
TORSDOF 3
ENDMDL
MODEL 4
REMARK VINA RESULT: -5.728645371      7.308      9.239
REMARK  3 active torsions:
REMARK  status: ('A' for Active; 'I' for Inactive)
REMARK    1  A    between atoms: O1_2  and  C2_3 
REMARK    2  A    between atoms: C19_21  and  O3_22 
REMARK    3  A    between atoms: C19_21  and  C20_24 
ROOT
HETATM    1  C2  UNL     1       3.935 -26.329 -29.914  1.00  0.00     0.127 C 
HETATM    2  C3  UNL     1       5.404 -26.422 -29.593  1.00  0.00     0.037 C 
HETATM    3  C4  UNL     1       5.667 -26.597 -28.085  1.00  0.00    -0.011 C 
HETATM    4  C5  UNL     1       5.797 -25.270 -27.402  1.00  0.00     0.010 C 
HETATM    5  C6  UNL     1       4.594 -27.461 -27.628  1.00  0.00     0.006 A 
HETATM    6  C7  UNL     1       4.497 -28.737 -26.970  1.00  0.00     0.002 A 
HETATM    7  C8  UNL     1       3.225 -29.281 -26.442  1.00  0.00     0.007 C 
HETATM    8  C9  UNL     1       3.329 -30.779 -26.338  1.00  0.00     0.012 C 
HETATM    9  C10 UNL     1       3.172 -31.533 -27.594  1.00  0.00    -0.018 C 
HETATM   10  C11 UNL     1       3.509 -32.984 -27.329  1.00  0.00     0.018 C 
HETATM   11  C12 UNL     1       1.686 -31.515 -27.964  1.00  0.00     0.018 C 
HETATM   12  C13 UNL     1       3.900 -30.998 -28.808  1.00  0.00     0.171 C 
HETATM   13  O2  UNL     1       3.185 -29.938 -29.281  1.00  0.00    -0.375 OA
HETATM   14  C14 UNL     1       3.921 -28.807 -29.483  1.00  0.00     0.137 C 
HETATM   15  C15 UNL     1       3.206 -27.624 -30.038  1.00  0.00     0.040 C 
HETATM   16  C16 UNL     1       1.773 -27.449 -29.577  1.00  0.00     0.015 C 
HETATM   17  C17 UNL     1       4.793 -28.690 -28.344  1.00  0.00    -0.002 A 
HETATM   18  C18 UNL     1       5.975 -29.555 -28.546  1.00  0.00     0.061 C 
HETATM   19  C19 UNL     1       5.361 -30.961 -28.694  1.00  0.00     0.145 C 
ENDROOT
BRANCH  19  20
HETATM   20  O3  UNL     1       5.693 -31.613 -27.476  1.00  0.00    -0.379 OA
ATOM     21  H3  UNL     1       6.422 -32.192 -27.665  1.00  0.00     0.211 HD
ENDBRANCH  19  20
BRANCH  19  22
HETATM   22  C20 UNL     1       6.095 -31.729 -29.729  1.00  0.00     0.159 C 
HETATM   23  C21 UNL     1       7.316 -31.179 -30.370  1.00  0.00     0.094 C 
HETATM   24  O4  UNL     1       5.751 -32.833 -30.110  1.00  0.00    -0.295 OA
ENDBRANCH  19  22
BRANCH   1  25
HETATM   25  O1  UNL     1       3.729 -25.608 -31.108  1.00  0.00    -0.390 OA
HETATM   26  C1  UNL     1       4.059 -24.297 -31.063  1.00  0.00     0.202 C 
ENDBRANCH   1  25
TORSDOF 3
ENDMDL
MODEL 5
REMARK VINA RESULT: -5.727251487      1.743      3.369
REMARK  3 active torsions:
REMARK  status: ('A' for Active; 'I' for Inactive)
REMARK    1  A    between atoms: O1_2  and  C2_3 
REMARK    2  A    between atoms: C19_21  and  O3_22 
REMARK    3  A    between atoms: C19_21  and  C20_24 
ROOT
HETATM    1  C2  UNL     1      -5.733 -24.054 -23.500  1.00  0.00     0.127 C 
HETATM    2  C3  UNL     1      -6.525 -24.150 -24.777  1.00  0.00     0.037 C 
HETATM    3  C4  UNL     1      -5.778 -23.541 -25.980  1.00  0.00    -0.011 C 
HETATM    4  C5  UNL     1      -6.085 -22.082 -26.124  1.00  0.00     0.010 C 
HETATM    5  C6  UNL     1      -4.389 -23.895 -25.761  1.00  0.00     0.006 A 
HETATM    6  C7  UNL     1      -3.373 -24.614 -26.483  1.00  0.00     0.002 A 
HETATM    7  C8  UNL     1      -1.950 -24.636 -26.074  1.00  0.00     0.007 C 
HETATM    8  C9  UNL     1      -1.285 -25.858 -26.650  1.00  0.00     0.012 C 
HETATM    9  C10 UNL     1      -1.542 -27.130 -25.955  1.00  0.00    -0.018 C 
HETATM   10  C11 UNL     1      -0.969 -28.257 -26.786  1.00  0.00     0.018 C 
HETATM   11  C12 UNL     1      -0.731 -27.122 -24.656  1.00  0.00     0.018 C 
HETATM   12  C13 UNL     1      -2.971 -27.407 -25.540  1.00  0.00     0.171 C 
HETATM   13  O2  UNL     1      -3.223 -26.671 -24.421  1.00  0.00    -0.375 OA
HETATM   14  C14 UNL     1      -4.358 -25.916 -24.487  1.00  0.00     0.137 C 
HETATM   15  C15 UNL     1      -4.712 -25.119 -23.279  1.00  0.00     0.040 C 
HETATM   16  C16 UNL     1      -3.541 -24.550 -22.504  1.00  0.00     0.015 C 
HETATM   17  C17 UNL     1      -4.372 -25.331 -25.802  1.00  0.00    -0.002 A 
HETATM   18  C18 UNL     1      -4.911 -26.314 -26.765  1.00  0.00     0.061 C 
HETATM   19  C19 UNL     1      -3.934 -27.499 -26.643  1.00  0.00     0.145 C 
ENDROOT
BRANCH  19  20
HETATM   20  O3  UNL     1      -3.182 -27.453 -27.848  1.00  0.00    -0.379 OA
ATOM     21  H3  UNL     1      -2.335 -27.838 -27.656  1.00  0.00     0.211 HD
ENDBRANCH  19  20
BRANCH  19  22
HETATM   22  C20 UNL     1      -4.676 -28.780 -26.726  1.00  0.00     0.159 C 
HETATM   23  C21 UNL     1      -6.161 -28.807 -26.740  1.00  0.00     0.094 C 
HETATM   24  O4  UNL     1      -4.129 -29.866 -26.788  1.00  0.00    -0.295 OA
ENDBRANCH  19  22
BRANCH   1  25
HETATM   25  O1  UNL     1      -6.589 -24.045 -22.380  1.00  0.00    -0.390 OA
HETATM   26  C1  UNL     1      -7.340 -25.157 -22.210  1.00  0.00     0.202 C 
ENDBRANCH   1  25
TORSDOF 3
ENDMDL
