MODEL 1
REMARK VINA RESULT: -6.510337055      0.000      0.000
REMARK  5 active torsions:
REMARK  status: ('A' for Active; 'I' for Inactive)
REMARK    1  A    between atoms: C2_2  and  C3_4 
REMARK    2  A    between atoms: C4_5  and  O2_6 
REMARK    3  A    between atoms: C5_8  and  C6_9 
REMARK    4  A    between atoms: C6_9  and  C7_10 
REMARK    5  A    between atoms: C12_15  and  O3_16 
ROOT
HETATM    1  C3  UNL     1      58.537   8.712  34.648  1.00  0.00     0.077 A 
HETATM    2  C4  UNL     1      57.767   8.115  35.615  1.00  0.00     0.090 A 
HETATM    3  C5  UNL     1      57.508   6.721  35.567  1.00  0.00    -0.006 A 
HETATM    4  C10 UNL     1      58.035   6.002  34.554  1.00  0.00     0.020 A 
HETATM    5  C11 UNL     1      58.817   6.538  33.551  1.00  0.00     0.002 A 
HETATM    6  C12 UNL     1      59.053   7.898  33.622  1.00  0.00     0.090 A 
HETATM    7  C13 UNL     1      59.319   5.655  32.526  1.00  0.00    -0.015 C 
HETATM    8  C14 UNL     1      60.402   6.196  31.620  1.00  0.00     0.020 C 
HETATM    9  C15 UNL     1      58.157   5.393  31.551  1.00  0.00     0.020 C 
HETATM   10  C16 UNL     1      59.910   4.361  33.033  1.00  0.00     0.033 C 
HETATM   11  C17 UNL     1      59.039   3.434  33.761  1.00  0.00     0.007 C 
HETATM   12  C18 UNL     1      59.881   2.815  34.892  1.00  0.00     0.027 C 
HETATM   13  C19 UNL     1      58.548   2.255  32.946  1.00  0.00     0.027 C 
HETATM   14  S1  UNL     1      57.636   4.233  34.576  1.00  0.00    -0.119 SA
ENDROOT
BRANCH   3  15
HETATM   15  C6  UNL     1      56.665   6.157  36.645  1.00  0.00     0.046 C 
BRANCH  15  16
HETATM   16  C7  UNL     1      57.326   6.139  37.991  1.00  0.00    -0.018 C 
HETATM   17  C8  UNL     1      58.378   5.056  38.097  1.00  0.00     0.010 C 
HETATM   18  C9  UNL     1      56.239   5.752  39.000  1.00  0.00     0.010 C 
ENDBRANCH  15  16
ENDBRANCH   3  15
BRANCH   2  19
HETATM   19  O2  UNL     1      57.211   8.797  36.660  1.00  0.00    -0.359 OA
ATOM     20  H2  UNL     1      56.977   8.388  37.486  1.00  0.00     0.217 HD
ENDBRANCH   2  19
BRANCH   1  21
HETATM   21  C2  UNL     1      58.850  10.133  34.623  1.00  0.00     0.161 C 
HETATM   22  C1  UNL     1      57.915  11.200  34.203  1.00  0.00     0.097 C 
HETATM   23  O1  UNL     1      59.987  10.512  34.975  1.00  0.00    -0.293 OA
ENDBRANCH   1  21
BRANCH   6  24
HETATM   24  O3  UNL     1      59.785   8.479  32.705  1.00  0.00    -0.359 OA
ATOM     25  H3  UNL     1      59.400   9.210  32.236  1.00  0.00     0.217 HD
ENDBRANCH   6  24
TORSDOF 5
ENDMDL
MODEL 2
REMARK VINA RESULT: -6.310473051      2.221      4.359
REMARK  5 active torsions:
REMARK  status: ('A' for Active; 'I' for Inactive)
REMARK    1  A    between atoms: C2_2  and  C3_4 
REMARK    2  A    between atoms: C4_5  and  O2_6 
REMARK    3  A    between atoms: C5_8  and  C6_9 
REMARK    4  A    between atoms: C6_9  and  C7_10 
REMARK    5  A    between atoms: C12_15  and  O3_16 
ROOT
HETATM    1  C3  UNL     1      61.503   8.687  32.171  1.00  0.00     0.077 A 
HETATM    2  C4  UNL     1      60.877   9.532  33.054  1.00  0.00     0.090 A 
HETATM    3  C5  UNL     1      59.752   9.089  33.796  1.00  0.00    -0.006 A 
HETATM    4  C10 UNL     1      59.316   7.825  33.614  1.00  0.00     0.020 A 
HETATM    5  C11 UNL     1      59.898   6.924  32.745  1.00  0.00     0.002 A 
HETATM    6  C12 UNL     1      60.992   7.382  32.034  1.00  0.00     0.090 A 
HETATM    7  C13 UNL     1      59.332   5.601  32.648  1.00  0.00    -0.015 C 
HETATM    8  C14 UNL     1      60.151   4.552  31.928  1.00  0.00     0.020 C 
HETATM    9  C15 UNL     1      58.074   5.715  31.769  1.00  0.00     0.020 C 
HETATM   10  C16 UNL     1      59.018   4.942  33.971  1.00  0.00     0.033 C 
HETATM   11  C17 UNL     1      58.029   5.577  34.848  1.00  0.00     0.007 C 
HETATM   12  C18 UNL     1      58.529   5.401  36.294  1.00  0.00     0.027 C 
HETATM   13  C19 UNL     1      56.658   4.933  34.824  1.00  0.00     0.027 C 
HETATM   14  S1  UNL     1      57.867   7.361  34.601  1.00  0.00    -0.119 SA
ENDROOT
BRANCH   3  15
HETATM   15  C6  UNL     1      59.134  10.064  34.722  1.00  0.00     0.046 C 
BRANCH  15  16
HETATM   16  C7  UNL     1      58.380  11.165  34.038  1.00  0.00    -0.018 C 
HETATM   17  C8  UNL     1      58.684  12.523  34.635  1.00  0.00     0.010 C 
HETATM   18  C9  UNL     1      56.896  10.916  34.328  1.00  0.00     0.010 C 
ENDBRANCH  15  16
ENDBRANCH   3  15
BRANCH   2  19
HETATM   19  O2  UNL     1      61.278  10.819  33.274  1.00  0.00    -0.359 OA
ATOM     20  H2  UNL     1      61.321  11.477  32.589  1.00  0.00     0.217 HD
ENDBRANCH   2  19
BRANCH   1  21
HETATM   21  C2  UNL     1      62.660   9.060  31.371  1.00  0.00     0.161 C 
HETATM   22  C1  UNL     1      64.033   9.231  31.894  1.00  0.00     0.097 C 
HETATM   23  O1  UNL     1      62.513   9.259  30.147  1.00  0.00    -0.293 OA
ENDBRANCH   1  21
BRANCH   6  24
HETATM   24  O3  UNL     1      61.596   6.585  31.190  1.00  0.00    -0.359 OA
ATOM     25  H3  UNL     1      61.117   6.331  30.410  1.00  0.00     0.217 HD
ENDBRANCH   6  24
TORSDOF 5
ENDMDL
MODEL 3
REMARK VINA RESULT: -6.194022482      1.457      4.537
REMARK  5 active torsions:
REMARK  status: ('A' for Active; 'I' for Inactive)
REMARK    1  A    between atoms: C2_2  and  C3_4 
REMARK    2  A    between atoms: C4_5  and  O2_6 
REMARK    3  A    between atoms: C5_8  and  C6_9 
REMARK    4  A    between atoms: C6_9  and  C7_10 
REMARK    5  A    between atoms: C12_15  and  O3_16 
ROOT
HETATM    1  C3  UNL     1      58.037   8.258  34.860  1.00  0.00     0.077 A 
HETATM    2  C4  UNL     1      58.317   7.376  33.846  1.00  0.00     0.090 A 
HETATM    3  C5  UNL     1      58.167   5.979  34.048  1.00  0.00    -0.006 A 
HETATM    4  C10 UNL     1      57.743   5.545  35.253  1.00  0.00     0.020 A 
HETATM    5  C11 UNL     1      57.444   6.375  36.314  1.00  0.00     0.002 A 
HETATM    6  C12 UNL     1      57.600   7.731  36.089  1.00  0.00     0.090 A 
HETATM    7  C13 UNL     1      56.999   5.779  37.550  1.00  0.00    -0.015 C 
HETATM    8  C14 UNL     1      56.399   6.703  38.585  1.00  0.00     0.020 C 
HETATM    9  C15 UNL     1      58.251   5.235  38.261  1.00  0.00     0.020 C 
HETATM   10  C16 UNL     1      55.947   4.705  37.397  1.00  0.00     0.033 C 
HETATM   11  C17 UNL     1      56.289   3.497  36.641  1.00  0.00     0.007 C 
HETATM   12  C18 UNL     1      55.036   3.094  35.841  1.00  0.00     0.027 C 
HETATM   13  C19 UNL     1      56.616   2.288  37.493  1.00  0.00     0.027 C 
HETATM   14  S1  UNL     1      57.593   3.744  35.413  1.00  0.00    -0.119 SA
ENDROOT
BRANCH   3  15
HETATM   15  C6  UNL     1      58.493   5.097  32.905  1.00  0.00     0.046 C 
BRANCH  15  16
HETATM   16  C7  UNL     1      59.881   4.532  32.945  1.00  0.00    -0.018 C 
HETATM   17  C8  UNL     1      60.815   5.241  31.988  1.00  0.00     0.010 C 
HETATM   18  C9  UNL     1      59.777   3.095  32.425  1.00  0.00     0.010 C 
ENDBRANCH  15  16
ENDBRANCH   3  15
BRANCH   2  19
HETATM   19  O2  UNL     1      58.748   7.765  32.609  1.00  0.00    -0.359 OA
ATOM     20  H2  UNL     1      59.640   8.038  32.429  1.00  0.00     0.217 HD
ENDBRANCH   2  19
BRANCH   1  21
HETATM   21  C2  UNL     1      58.166   9.702  34.737  1.00  0.00     0.161 C 
HETATM   22  C1  UNL     1      57.164  10.594  34.112  1.00  0.00     0.097 C 
HETATM   23  O1  UNL     1      59.190  10.262  35.184  1.00  0.00    -0.293 OA
ENDBRANCH   1  21
BRANCH   6  24
HETATM   24  O3  UNL     1      57.337   8.582  37.049  1.00  0.00    -0.359 OA
ATOM     25  H3  UNL     1      57.803   9.410  37.039  1.00  0.00     0.217 HD
ENDBRANCH   6  24
TORSDOF 5
ENDMDL
MODEL 4
REMARK VINA RESULT: -6.177992109      2.261      5.057
REMARK  5 active torsions:
REMARK  status: ('A' for Active; 'I' for Inactive)
REMARK    1  A    between atoms: C2_2  and  C3_4 
REMARK    2  A    between atoms: C4_5  and  O2_6 
REMARK    3  A    between atoms: C5_8  and  C6_9 
REMARK    4  A    between atoms: C6_9  and  C7_10 
REMARK    5  A    between atoms: C12_15  and  O3_16 
ROOT
HETATM    1  C3  UNL     1      59.141   5.578  32.951  1.00  0.00     0.077 A 
HETATM    2  C4  UNL     1      58.248   5.639  33.993  1.00  0.00     0.090 A 
HETATM    3  C5  UNL     1      58.065   6.850  34.710  1.00  0.00    -0.006 A 
HETATM    4  C10 UNL     1      58.784   7.931  34.345  1.00  0.00     0.020 A 
HETATM    5  C11 UNL     1      59.697   7.939  33.310  1.00  0.00     0.002 A 
HETATM    6  C12 UNL     1      59.857   6.746  32.629  1.00  0.00     0.090 A 
HETATM    7  C13 UNL     1      60.400   9.166  33.023  1.00  0.00    -0.015 C 
HETATM    8  C14 UNL     1      61.161   9.236  31.718  1.00  0.00     0.020 C 
HETATM    9  C15 UNL     1      61.514   9.300  34.076  1.00  0.00     0.020 C 
HETATM   10  C16 UNL     1      59.534  10.403  32.983  1.00  0.00     0.033 C 
HETATM   11  C17 UNL     1      58.823  10.797  34.203  1.00  0.00     0.007 C 
HETATM   12  C18 UNL     1      57.444  11.330  33.772  1.00  0.00     0.027 C 
HETATM   13  C19 UNL     1      59.464  11.936  34.968  1.00  0.00     0.027 C 
HETATM   14  S1  UNL     1      58.485   9.424  35.330  1.00  0.00    -0.119 SA
ENDROOT
BRANCH   3  15
HETATM   15  C6  UNL     1      57.086   6.830  35.820  1.00  0.00     0.046 C 
BRANCH  15  16
HETATM   16  C7  UNL     1      57.708   6.776  37.183  1.00  0.00    -0.018 C 
HETATM   17  C8  UNL     1      58.028   5.360  37.611  1.00  0.00     0.010 C 
HETATM   18  C9  UNL     1      56.638   7.266  38.165  1.00  0.00     0.010 C 
ENDBRANCH  15  16
ENDBRANCH   3  15
BRANCH   2  19
HETATM   19  O2  UNL     1      57.496   4.575  34.401  1.00  0.00    -0.359 OA
ATOM     20  H2  UNL     1      56.559   4.624  34.551  1.00  0.00     0.217 HD
ENDBRANCH   2  19
BRANCH   1  21
HETATM   21  C2  UNL     1      59.390   4.379  32.166  1.00  0.00     0.161 C 
HETATM   22  C1  UNL     1      60.234   3.243  32.597  1.00  0.00     0.097 C 
HETATM   23  O1  UNL     1      58.867   4.272  31.036  1.00  0.00    -0.293 OA
ENDBRANCH   1  21
BRANCH   6  24
HETATM   24  O3  UNL     1      60.706   6.676  31.634  1.00  0.00    -0.359 OA
ATOM     25  H3  UNL     1      61.515   7.169  31.715  1.00  0.00     0.217 HD
ENDBRANCH   6  24
TORSDOF 5
ENDMDL
MODEL 5
REMARK VINA RESULT: -6.117926215      1.461      4.526
REMARK  5 active torsions:
REMARK  status: ('A' for Active; 'I' for Inactive)
REMARK    1  A    between atoms: C2_2  and  C3_4 
REMARK    2  A    between atoms: C4_5  and  O2_6 
REMARK    3  A    between atoms: C5_8  and  C6_9 
REMARK    4  A    between atoms: C6_9  and  C7_10 
REMARK    5  A    between atoms: C12_15  and  O3_16 
ROOT
HETATM    1  C3  UNL     1      58.254   8.516  34.675  1.00  0.00     0.077 A 
HETATM    2  C4  UNL     1      58.831   7.623  33.806  1.00  0.00     0.090 A 
HETATM    3  C5  UNL     1      58.816   6.233  34.091  1.00  0.00    -0.006 A 
HETATM    4  C10 UNL     1      58.223   5.814  35.228  1.00  0.00     0.020 A 
HETATM    5  C11 UNL     1      57.625   6.655  36.144  1.00  0.00     0.002 A 
HETATM    6  C12 UNL     1      57.655   8.005  35.842  1.00  0.00     0.090 A 
HETATM    7  C13 UNL     1      57.025   6.076  37.320  1.00  0.00    -0.015 C 
HETATM    8  C14 UNL     1      56.128   6.968  38.148  1.00  0.00     0.020 C 
HETATM    9  C15 UNL     1      58.173   5.749  38.293  1.00  0.00     0.020 C 
HETATM   10  C16 UNL     1      56.163   4.862  37.065  1.00  0.00     0.033 C 
HETATM   11  C17 UNL     1      56.790   3.670  36.486  1.00  0.00     0.007 C 
HETATM   12  C18 UNL     1      55.775   3.056  35.504  1.00  0.00     0.027 C 
HETATM   13  C19 UNL     1      57.091   2.568  37.480  1.00  0.00     0.027 C 
HETATM   14  S1  UNL     1      58.267   4.022  35.504  1.00  0.00    -0.119 SA
ENDROOT
BRANCH   3  15
HETATM   15  C6  UNL     1      59.464   5.340  33.104  1.00  0.00     0.046 C 
BRANCH  15  16
HETATM   16  C7  UNL     1      58.500   4.572  32.249  1.00  0.00    -0.018 C 
HETATM   17  C8  UNL     1      58.979   3.163  31.973  1.00  0.00     0.010 C 
HETATM   18  C9  UNL     1      58.481   5.271  30.886  1.00  0.00     0.010 C 
ENDBRANCH  15  16
ENDBRANCH   3  15
BRANCH   2  19
HETATM   19  O2  UNL     1      59.443   7.996  32.643  1.00  0.00    -0.359 OA
ATOM     20  H2  UNL     1      58.981   8.398  31.915  1.00  0.00     0.217 HD
ENDBRANCH   2  19
BRANCH   1  21
HETATM   21  C2  UNL     1      58.226   9.955  34.461  1.00  0.00     0.161 C 
HETATM   22  C1  UNL     1      59.369  10.867  34.681  1.00  0.00     0.097 C 
HETATM   23  O1  UNL     1      57.170  10.490  34.061  1.00  0.00    -0.293 OA
ENDBRANCH   1  21
BRANCH   6  24
HETATM   24  O3  UNL     1      57.108   8.865  36.663  1.00  0.00    -0.359 OA
ATOM     25  H3  UNL     1      56.195   8.732  36.891  1.00  0.00     0.217 HD
ENDBRANCH   6  24
TORSDOF 5
ENDMDL
