MODEL 1
REMARK VINA RESULT: -6.048332901      0.000      0.000
REMARK  7 active torsions:
REMARK  status: ('A' for Active; 'I' for Inactive)
REMARK    1  A    between atoms: C2_2  and  C4_4 
REMARK    2  A    between atoms: C5_6  and  O2_7 
REMARK    3  A    between atoms: C6_9  and  O3_10 
REMARK    4  A    between atoms: C7_12  and  C8_13 
REMARK    5  A    between atoms: C15_20  and  N1_21 
REMARK    6  A    between atoms: N1_21  and  N2_23 
REMARK    7  A    between atoms: N2_23  and  N3_24 
ROOT
HETATM    1  C8  UNL     1      61.604   8.874  32.948  1.00  0.00    -0.055 C 
HETATM    2  C9  UNL     1      62.672   8.714  33.967  1.00  0.00     0.037 C 
HETATM    3  C10 UNL     1      63.851   8.053  33.231  1.00  0.00     0.014 C 
HETATM    4  C11 UNL     1      63.667   8.592  31.860  1.00  0.00    -0.032 C 
HETATM    5  C12 UNL     1      64.123  10.005  31.826  1.00  0.00     0.016 C 
HETATM    6  C13 UNL     1      64.387   7.867  30.764  1.00  0.00     0.012 C 
HETATM    7  C14 UNL     1      64.037   8.583  29.500  1.00  0.00     0.028 C 
HETATM    8  C15 UNL     1      62.637   9.006  29.314  1.00  0.00     0.115 C 
HETATM    9  C16 UNL     1      61.809   9.312  30.497  1.00  0.00     0.042 C 
HETATM   10  C17 UNL     1      62.159   8.412  31.674  1.00  0.00    -0.010 C 
HETATM   11  C18 UNL     1      61.856   7.021  31.331  1.00  0.00     0.021 C 
ENDROOT
BRANCH   1  12
HETATM   12  C7  UNL     1      60.242   9.077  33.303  1.00  0.00     0.035 A 
HETATM   13  C4  UNL     1      59.235   8.125  33.492  1.00  0.00     0.072 A 
HETATM   14  O1  UNL     1      58.114   8.803  33.725  1.00  0.00    -0.289 OA
HETATM   15  C5  UNL     1      58.288  10.078  33.705  1.00  0.00     0.218 A 
HETATM   16  C6  UNL     1      59.614  10.317  33.443  1.00  0.00     0.137 A 
BRANCH  13  17
HETATM   17  C2  UNL     1      59.242   6.680  33.473  1.00  0.00     0.036 C 
HETATM   18  C1  UNL     1      58.153   6.289  34.588  1.00  0.00     0.016 C 
HETATM   19  C3  UNL     1      58.482   6.068  32.278  1.00  0.00     0.016 C 
ENDBRANCH  13  17
BRANCH  15  20
HETATM   20  O2  UNL     1      57.305  11.065  33.912  1.00  0.00    -0.339 OA
ATOM     21  H2  UNL     1      56.848  11.248  34.724  1.00  0.00     0.220 HD
ENDBRANCH  15  20
BRANCH  16  22
HETATM   22  O3  UNL     1      60.167  11.620  33.346  1.00  0.00    -0.355 OA
ATOM     23  H3  UNL     1      61.065  11.788  33.087  1.00  0.00     0.218 HD
ENDBRANCH  16  22
ENDBRANCH   1  12
BRANCH   8  24
HETATM   24  N1  UNL     1      61.974   8.126  28.360  1.00  0.00    -0.248 N 
ATOM     25  H1  UNL     1      61.354   7.401  28.721  1.00  0.00     0.197 HD
BRANCH  24  26
HETATM   26  N2  UNL     1      62.122   8.212  27.138  1.00  0.00    -0.248 NA
BRANCH  26  27
HETATM   27  N3  UNL     1      62.593   8.057  26.015  1.00  0.00    -0.261 N 
ATOM     28  H32 UNL     1      61.795   7.556  25.624  1.00  0.00     0.193 HD
ATOM     29  H31 UNL     1      63.245   8.098  25.231  1.00  0.00     0.193 HD
ENDBRANCH  26  27
ENDBRANCH  24  26
ENDBRANCH   8  24
TORSDOF 7
ENDMDL
MODEL 2
REMARK VINA RESULT: -5.802953027      6.347      9.022
REMARK  7 active torsions:
REMARK  status: ('A' for Active; 'I' for Inactive)
REMARK    1  A    between atoms: C2_2  and  C4_4 
REMARK    2  A    between atoms: C5_6  and  O2_7 
REMARK    3  A    between atoms: C6_9  and  O3_10 
REMARK    4  A    between atoms: C7_12  and  C8_13 
REMARK    5  A    between atoms: C15_20  and  N1_21 
REMARK    6  A    between atoms: N1_21  and  N2_23 
REMARK    7  A    between atoms: N2_23  and  N3_24 
ROOT
HETATM    1  C8  UNL     1      57.532   5.088  36.702  1.00  0.00    -0.055 C 
HETATM    2  C9  UNL     1      58.518   4.896  37.795  1.00  0.00     0.037 C 
HETATM    3  C10 UNL     1      57.801   4.043  38.856  1.00  0.00     0.014 C 
HETATM    4  C11 UNL     1      56.886   3.241  38.004  1.00  0.00    -0.032 C 
HETATM    5  C12 UNL     1      57.664   2.175  37.322  1.00  0.00     0.016 C 
HETATM    6  C13 UNL     1      55.743   2.576  38.707  1.00  0.00     0.012 C 
HETATM    7  C14 UNL     1      54.975   1.853  37.649  1.00  0.00     0.028 C 
HETATM    8  C15 UNL     1      54.754   2.545  36.366  1.00  0.00     0.115 C 
HETATM    9  C16 UNL     1      55.737   3.544  35.903  1.00  0.00     0.042 C 
HETATM   10  C17 UNL     1      56.338   4.320  37.066  1.00  0.00    -0.010 C 
HETATM   11  C18 UNL     1      55.287   5.085  37.738  1.00  0.00     0.021 C 
ENDROOT
BRANCH   1  12
HETATM   12  C7  UNL     1      57.661   6.124  35.737  1.00  0.00     0.035 A 
HETATM   13  C4  UNL     1      57.961   6.022  34.376  1.00  0.00     0.072 A 
HETATM   14  O1  UNL     1      58.059   7.266  33.916  1.00  0.00    -0.289 OA
HETATM   15  C5  UNL     1      57.857   8.152  34.827  1.00  0.00     0.218 A 
HETATM   16  C6  UNL     1      57.600   7.495  36.004  1.00  0.00     0.137 A 
BRANCH  13  17
HETATM   17  C2  UNL     1      58.156   4.886  33.503  1.00  0.00     0.036 C 
HETATM   18  C1  UNL     1      58.452   5.563  32.075  1.00  0.00     0.016 C 
HETATM   19  C3  UNL     1      59.535   4.212  33.655  1.00  0.00     0.016 C 
ENDBRANCH  13  17
BRANCH  15  20
HETATM   20  O2  UNL     1      57.891   9.551  34.662  1.00  0.00    -0.339 OA
ATOM     21  H2  UNL     1      58.409  10.169  35.164  1.00  0.00     0.220 HD
ENDBRANCH  15  20
BRANCH  16  22
HETATM   22  O3  UNL     1      57.331   8.161  37.226  1.00  0.00    -0.355 OA
ATOM     23  H3  UNL     1      57.944   8.757  37.642  1.00  0.00     0.218 HD
ENDBRANCH  16  22
ENDBRANCH   1  12
BRANCH   8  24
HETATM   24  N1  UNL     1      53.376   3.012  36.283  1.00  0.00    -0.248 N 
ATOM     25  H1  UNL     1      53.211   4.015  36.196  1.00  0.00     0.197 HD
BRANCH  24  26
HETATM   26  N2  UNL     1      52.399   2.259  36.312  1.00  0.00    -0.248 NA
BRANCH  26  27
HETATM   27  N3  UNL     1      51.599   1.388  35.984  1.00  0.00    -0.261 N 
ATOM     28  H32 UNL     1      50.919   2.014  35.552  1.00  0.00     0.193 HD
ATOM     29  H31 UNL     1      51.174   0.469  35.861  1.00  0.00     0.193 HD
ENDBRANCH  26  27
ENDBRANCH  24  26
ENDBRANCH   8  24
TORSDOF 7
ENDMDL
MODEL 3
REMARK VINA RESULT: -5.729266263      7.397     10.593
REMARK  7 active torsions:
REMARK  status: ('A' for Active; 'I' for Inactive)
REMARK    1  A    between atoms: C2_2  and  C4_4 
REMARK    2  A    between atoms: C5_6  and  O2_7 
REMARK    3  A    between atoms: C6_9  and  O3_10 
REMARK    4  A    between atoms: C7_12  and  C8_13 
REMARK    5  A    between atoms: C15_20  and  N1_21 
REMARK    6  A    between atoms: N1_21  and  N2_23 
REMARK    7  A    between atoms: N2_23  and  N3_24 
ROOT
HETATM    1  C8  UNL     1      56.069   4.813  38.502  1.00  0.00    -0.055 C 
HETATM    2  C9  UNL     1      56.496   4.826  39.925  1.00  0.00     0.037 C 
HETATM    3  C10 UNL     1      55.346   4.170  40.709  1.00  0.00     0.014 C 
HETATM    4  C11 UNL     1      54.816   3.223  39.695  1.00  0.00    -0.032 C 
HETATM    5  C12 UNL     1      55.733   2.058  39.590  1.00  0.00     0.016 C 
HETATM    6  C13 UNL     1      53.442   2.684  39.950  1.00  0.00     0.012 C 
HETATM    7  C14 UNL     1      53.136   1.779  38.801  1.00  0.00     0.028 C 
HETATM    8  C15 UNL     1      53.517   2.229  37.450  1.00  0.00     0.115 C 
HETATM    9  C16 UNL     1      54.669   3.138  37.287  1.00  0.00     0.042 C 
HETATM   10  C17 UNL     1      54.783   4.113  38.451  1.00  0.00    -0.010 C 
HETATM   11  C18 UNL     1      53.602   4.977  38.481  1.00  0.00     0.021 C 
ENDROOT
BRANCH   1  12
HETATM   12  C7  UNL     1      56.658   5.662  37.526  1.00  0.00     0.035 A 
HETATM   13  C4  UNL     1      57.484   5.320  36.451  1.00  0.00     0.072 A 
HETATM   14  O1  UNL     1      57.851   6.463  35.879  1.00  0.00    -0.289 OA
HETATM   15  C5  UNL     1      57.357   7.497  36.465  1.00  0.00     0.218 A 
HETATM   16  C6  UNL     1      56.592   7.058  37.516  1.00  0.00     0.137 A 
BRANCH  13  17
HETATM   17  C2  UNL     1      57.939   4.048  35.936  1.00  0.00     0.036 C 
HETATM   18  C1  UNL     1      58.776   4.456  34.626  1.00  0.00     0.016 C 
HETATM   19  C3  UNL     1      59.129   3.450  36.713  1.00  0.00     0.016 C 
ENDBRANCH  13  17
BRANCH  15  20
HETATM   20  O2  UNL     1      57.557   8.844  36.106  1.00  0.00    -0.339 OA
ATOM     21  H2  UNL     1      57.464   9.602  36.671  1.00  0.00     0.220 HD
ENDBRANCH  15  20
BRANCH  16  22
HETATM   22  O3  UNL     1      55.893   7.930  38.389  1.00  0.00    -0.355 OA
ATOM     23  H3  UNL     1      56.134   8.062  39.299  1.00  0.00     0.218 HD
ENDBRANCH  16  22
ENDBRANCH   1  12
BRANCH   8  24
HETATM   24  N1  UNL     1      52.333   2.664  36.719  1.00  0.00    -0.248 N 
ATOM     25  H1  UNL     1      52.217   3.661  36.538  1.00  0.00     0.197 HD
BRANCH  24  26
HETATM   26  N2  UNL     1      51.465   1.890  36.307  1.00  0.00    -0.248 NA
BRANCH  26  27
HETATM   27  N3  UNL     1      50.615   1.005  36.295  1.00  0.00    -0.261 N 
ATOM     28  H32 UNL     1      50.690   0.761  37.282  1.00  0.00     0.193 HD
ATOM     29  H31 UNL     1      49.898   0.365  35.954  1.00  0.00     0.193 HD
ENDBRANCH  26  27
ENDBRANCH  24  26
ENDBRANCH   8  24
TORSDOF 7
ENDMDL
MODEL 4
REMARK VINA RESULT: -5.722597568      9.138     11.712
REMARK  7 active torsions:
REMARK  status: ('A' for Active; 'I' for Inactive)
REMARK    1  A    between atoms: C2_2  and  C4_4 
REMARK    2  A    between atoms: C5_6  and  O2_7 
REMARK    3  A    between atoms: C6_9  and  O3_10 
REMARK    4  A    between atoms: C7_12  and  C8_13 
REMARK    5  A    between atoms: C15_20  and  N1_21 
REMARK    6  A    between atoms: N1_21  and  N2_23 
REMARK    7  A    between atoms: N2_23  and  N3_24 
ROOT
HETATM    1  C8  UNL     1      53.608   3.374  38.793  1.00  0.00    -0.055 C 
HETATM    2  C9  UNL     1      52.595   3.362  39.879  1.00  0.00     0.037 C 
HETATM    3  C10 UNL     1      51.477   2.424  39.391  1.00  0.00     0.014 C 
HETATM    4  C11 UNL     1      52.251   1.471  38.556  1.00  0.00    -0.032 C 
HETATM    5  C12 UNL     1      52.987   0.532  39.441  1.00  0.00     0.016 C 
HETATM    6  C13 UNL     1      51.457   0.643  37.592  1.00  0.00     0.012 C 
HETATM    7  C14 UNL     1      52.449  -0.212  36.872  1.00  0.00     0.028 C 
HETATM    8  C15 UNL     1      53.714   0.413  36.445  1.00  0.00     0.115 C 
HETATM    9  C16 UNL     1      54.257   1.549  37.216  1.00  0.00     0.042 C 
HETATM   10  C17 UNL     1      53.148   2.431  37.771  1.00  0.00    -0.010 C 
HETATM   11  C18 UNL     1      52.400   3.029  36.664  1.00  0.00     0.021 C 
ENDROOT
BRANCH   1  12
HETATM   12  C7  UNL     1      54.585   4.401  38.679  1.00  0.00     0.035 A 
HETATM   13  C4  UNL     1      55.949   4.351  38.983  1.00  0.00     0.072 A 
HETATM   14  O1  UNL     1      56.422   5.580  38.796  1.00  0.00    -0.289 OA
HETATM   15  C5  UNL     1      55.519   6.410  38.409  1.00  0.00     0.218 A 
HETATM   16  C6  UNL     1      54.332   5.727  38.316  1.00  0.00     0.137 A 
BRANCH  13  17
HETATM   17  C2  UNL     1      56.812   3.277  39.419  1.00  0.00     0.036 C 
HETATM   18  C1  UNL     1      58.242   3.676  38.802  1.00  0.00     0.016 C 
HETATM   19  C3  UNL     1      57.236   3.379  40.899  1.00  0.00     0.016 C 
ENDBRANCH  13  17
BRANCH  15  20
HETATM   20  O2  UNL     1      55.698   7.779  38.129  1.00  0.00    -0.339 OA
ATOM     21  H2  UNL     1      55.016   8.416  37.952  1.00  0.00     0.220 HD
ENDBRANCH  15  20
BRANCH  16  22
HETATM   22  O3  UNL     1      53.114   6.332  37.916  1.00  0.00    -0.355 OA
ATOM     23  H3  UNL     1      53.060   7.210  37.557  1.00  0.00     0.218 HD
ENDBRANCH  16  22
ENDBRANCH   1  12
BRANCH   8  24
HETATM   24  N1  UNL     1      53.691   0.651  35.008  1.00  0.00    -0.248 N 
ATOM     25  H1  UNL     1      52.868   1.101  34.606  1.00  0.00     0.197 HD
BRANCH  24  26
HETATM   26  N2  UNL     1      54.614   0.339  34.251  1.00  0.00    -0.248 NA
BRANCH  26  27
HETATM   27  N3  UNL     1      55.218   0.033  33.227  1.00  0.00    -0.261 N 
ATOM     28  H32 UNL     1      55.628  -0.828  33.589  1.00  0.00     0.193 HD
ATOM     29  H31 UNL     1      55.573   0.072  32.271  1.00  0.00     0.193 HD
ENDBRANCH  26  27
ENDBRANCH  24  26
ENDBRANCH   8  24
TORSDOF 7
ENDMDL
MODEL 5
REMARK VINA RESULT: -5.716903339      1.344      2.644
REMARK  7 active torsions:
REMARK  status: ('A' for Active; 'I' for Inactive)
REMARK    1  A    between atoms: C2_2  and  C4_4 
REMARK    2  A    between atoms: C5_6  and  O2_7 
REMARK    3  A    between atoms: C6_9  and  O3_10 
REMARK    4  A    between atoms: C7_12  and  C8_13 
REMARK    5  A    between atoms: C15_20  and  N1_21 
REMARK    6  A    between atoms: N1_21  and  N2_23 
REMARK    7  A    between atoms: N2_23  and  N3_24 
ROOT
HETATM    1  C8  UNL     1      62.060   8.368  32.571  1.00  0.00    -0.055 C 
HETATM    2  C9  UNL     1      63.107   8.304  33.622  1.00  0.00     0.037 C 
HETATM    3  C10 UNL     1      64.440   8.143  32.869  1.00  0.00     0.014 C 
HETATM    4  C11 UNL     1      64.143   8.873  31.610  1.00  0.00    -0.032 C 
HETATM    5  C12 UNL     1      64.188  10.334  31.872  1.00  0.00     0.016 C 
HETATM    6  C13 UNL     1      65.061   8.600  30.458  1.00  0.00     0.012 C 
HETATM    7  C14 UNL     1      64.555   9.430  29.324  1.00  0.00     0.028 C 
HETATM    8  C15 UNL     1      63.097   9.489  29.112  1.00  0.00     0.115 C 
HETATM    9  C16 UNL     1      62.190   9.321  30.265  1.00  0.00     0.042 C 
HETATM   10  C17 UNL     1      62.750   8.334  31.279  1.00  0.00    -0.010 C 
HETATM   11  C18 UNL     1      62.855   7.009  30.665  1.00  0.00     0.021 C 
ENDROOT
BRANCH   1  12
HETATM   12  C7  UNL     1      60.688   8.122  32.852  1.00  0.00     0.035 A 
HETATM   13  C4  UNL     1      59.688   9.035  33.201  1.00  0.00     0.072 A 
HETATM   14  O1  UNL     1      58.594   8.320  33.449  1.00  0.00    -0.289 OA
HETATM   15  C5  UNL     1      58.780   7.055  33.302  1.00  0.00     0.218 A 
HETATM   16  C6  UNL     1      60.085   6.863  32.924  1.00  0.00     0.137 A 
BRANCH  13  17
HETATM   17  C2  UNL     1      59.678  10.476  33.314  1.00  0.00     0.036 C 
HETATM   18  C1  UNL     1      58.210  10.793  33.888  1.00  0.00     0.016 C 
HETATM   19  C3  UNL     1      60.453  11.011  34.536  1.00  0.00     0.016 C 
ENDBRANCH  13  17
BRANCH  15  20
HETATM   20  O2  UNL     1      57.826   6.036  33.490  1.00  0.00    -0.339 OA
ATOM     21  H2  UNL     1      57.420   5.507  32.814  1.00  0.00     0.220 HD
ENDBRANCH  15  20
BRANCH  16  22
HETATM   22  O3  UNL     1      60.644   5.585  32.673  1.00  0.00    -0.355 OA
ATOM     23  H3  UNL     1      61.174   5.387  31.909  1.00  0.00     0.218 HD
ENDBRANCH  16  22
ENDBRANCH   1  12
BRANCH   8  24
HETATM   24  N1  UNL     1      62.727   8.670  27.965  1.00  0.00    -0.248 N 
ATOM     25  H1  UNL     1      61.887   8.096  28.032  1.00  0.00     0.197 HD
BRANCH  24  26
HETATM   26  N2  UNL     1      63.377   8.634  26.917  1.00  0.00    -0.248 NA
BRANCH  26  27
HETATM   27  N3  UNL     1      63.640   8.630  25.717  1.00  0.00    -0.261 N 
ATOM     28  H32 UNL     1      62.985   9.366  25.454  1.00  0.00     0.193 HD
ATOM     29  H31 UNL     1      64.074   8.380  24.829  1.00  0.00     0.193 HD
ENDBRANCH  26  27
ENDBRANCH  24  26
ENDBRANCH   8  24
TORSDOF 7
ENDMDL
