MODEL 1
REMARK VINA RESULT: -5.716071987      0.000      0.000
REMARK  1 active torsions:
REMARK  status: ('A' for Active; 'I' for Inactive)
REMARK    1  A    between atoms: C2_2  and  C3_3 
ROOT
HETATM    1  C3  UNL     1     -33.430  10.067  43.109  1.00  0.00     0.094 C 
HETATM    2  C4  UNL     1     -34.067   8.937  43.830  1.00  0.00     0.138 C 
HETATM    3  N1  UNL     1     -35.480   8.844  43.736  1.00  0.00    -0.417 N 
ATOM      4  H1  UNL     1     -35.999   8.077  44.164  1.00  0.00     0.153 HD
HETATM    5  C5  UNL     1     -36.134   9.883  43.008  1.00  0.00     0.144 C 
HETATM    6  C6  UNL     1     -35.539  11.227  43.281  1.00  0.00     0.041 C 
HETATM    7  C7  UNL     1     -36.122  12.265  42.336  1.00  0.00     0.032 C 
HETATM    8  C8  UNL     1     -36.290  13.604  43.020  1.00  0.00     0.002 C 
HETATM    9  C9  UNL     1     -37.390  13.560  44.065  1.00  0.00     0.000 C 
HETATM   10  C10 UNL     1     -37.377  12.174  44.705  1.00  0.00     0.002 C 
HETATM   11  C11 UNL     1     -35.972  11.663  44.688  1.00  0.00     0.032 C 
HETATM   12  N2  UNL     1     -34.137  11.289  43.214  1.00  0.00    -0.405 N 
ATOM     13  H2  UNL     1     -33.646  12.183  43.241  1.00  0.00     0.154 HD
ENDROOT
BRANCH   1  14
HETATM   14  C2  UNL     1     -33.099   9.670  41.675  1.00  0.00     0.022 C 
HETATM   15  C1  UNL     1     -31.973   8.657  41.652  1.00  0.00     0.007 C 
ENDBRANCH   1  14
TORSDOF 1
ENDMDL
MODEL 2
REMARK VINA RESULT: -5.565453067      4.336      5.581
REMARK  1 active torsions:
REMARK  status: ('A' for Active; 'I' for Inactive)
REMARK    1  A    between atoms: C2_2  and  C3_3 
ROOT
HETATM    1  C3  UNL     1     -36.710   9.077  45.561  1.00  0.00     0.094 C 
HETATM    2  C4  UNL     1     -35.914   8.128  46.378  1.00  0.00     0.138 C 
HETATM    3  N1  UNL     1     -36.133   6.746  46.135  1.00  0.00    -0.417 N 
ATOM      4  H1  UNL     1     -35.601   6.023  46.620  1.00  0.00     0.153 HD
HETATM    5  C5  UNL     1     -37.139   6.426  45.175  1.00  0.00     0.144 C 
HETATM    6  C6  UNL     1     -38.337   7.314  45.291  1.00  0.00     0.041 C 
HETATM    7  C7  UNL     1     -39.285   7.079  44.126  1.00  0.00     0.032 C 
HETATM    8  C8  UNL     1     -40.730   7.199  44.557  1.00  0.00     0.002 C 
HETATM    9  C9  UNL     1     -41.138   6.048  45.458  1.00  0.00     0.000 C 
HETATM   10  C10 UNL     1     -39.933   5.669  46.315  1.00  0.00     0.002 C 
HETATM   11  C11 UNL     1     -39.117   6.901  46.546  1.00  0.00     0.032 C 
HETATM   12  N2  UNL     1     -38.060   8.689  45.380  1.00  0.00    -0.405 N 
ATOM     13  H2  UNL     1     -38.804   9.384  45.317  1.00  0.00     0.154 HD
ENDROOT
BRANCH   1  14
HETATM   14  C2  UNL     1     -35.985   9.404  44.261  1.00  0.00     0.022 C 
HETATM   15  C1  UNL     1     -34.541   9.770  44.537  1.00  0.00     0.007 C 
ENDBRANCH   1  14
TORSDOF 1
ENDMDL
MODEL 3
REMARK VINA RESULT: -5.397011792      4.071      6.093
REMARK  1 active torsions:
REMARK  status: ('A' for Active; 'I' for Inactive)
REMARK    1  A    between atoms: C2_2  and  C3_3 
ROOT
HETATM    1  C3  UNL     1     -39.888   7.543  45.536  1.00  0.00     0.094 C 
HETATM    2  C4  UNL     1     -40.401   7.773  44.162  1.00  0.00     0.138 C 
HETATM    3  N1  UNL     1     -39.486   7.550  43.100  1.00  0.00    -0.417 N 
ATOM      4  H1  UNL     1     -39.763   7.642  42.123  1.00  0.00     0.153 HD
HETATM    5  C5  UNL     1     -38.157   7.189  43.476  1.00  0.00     0.144 C 
HETATM    6  C6  UNL     1     -37.676   7.960  44.664  1.00  0.00     0.041 C 
HETATM    7  C7  UNL     1     -36.350   7.401  45.155  1.00  0.00     0.032 C 
HETATM    8  C8  UNL     1     -35.441   8.498  45.663  1.00  0.00     0.002 C 
HETATM    9  C9  UNL     1     -34.947   9.379  44.530  1.00  0.00     0.000 C 
HETATM   10  C10 UNL     1     -36.064   9.490  43.497  1.00  0.00     0.002 C 
HETATM   11  C11 UNL     1     -37.374   9.395  44.211  1.00  0.00     0.032 C 
HETATM   12  N2  UNL     1     -38.571   8.020  45.746  1.00  0.00    -0.405 N 
ATOM     13  H2  UNL     1     -38.284   8.395  46.650  1.00  0.00     0.154 HD
ENDROOT
BRANCH   1  14
HETATM   14  C2  UNL     1     -40.087   6.089  45.947  1.00  0.00     0.022 C 
HETATM   15  C1  UNL     1     -41.526   5.669  45.726  1.00  0.00     0.007 C 
ENDBRANCH   1  14
TORSDOF 1
ENDMDL
MODEL 4
REMARK VINA RESULT: -5.335860965      1.313      4.706
REMARK  1 active torsions:
REMARK  status: ('A' for Active; 'I' for Inactive)
REMARK    1  A    between atoms: C2_2  and  C3_3 
ROOT
HETATM    1  C3  UNL     1     -36.107  10.965  43.047  1.00  0.00     0.094 C 
HETATM    2  C4  UNL     1     -36.260  10.913  44.522  1.00  0.00     0.138 C 
HETATM    3  N1  UNL     1     -35.083  10.653  45.271  1.00  0.00    -0.417 N 
ATOM      4  H1  UNL     1     -35.085  10.641  46.291  1.00  0.00     0.153 HD
HETATM    5  C5  UNL     1     -33.896  10.411  44.517  1.00  0.00     0.144 C 
HETATM    6  C6  UNL     1     -34.154   9.570  43.307  1.00  0.00     0.041 C 
HETATM    7  C7  UNL     1     -32.914   9.514  42.429  1.00  0.00     0.032 C 
HETATM    8  C8  UNL     1     -32.760   8.156  41.779  1.00  0.00     0.002 C 
HETATM    9  C9  UNL     1     -32.404   7.089  42.798  1.00  0.00     0.000 C 
HETATM   10  C10 UNL     1     -33.117   7.428  44.104  1.00  0.00     0.002 C 
HETATM   11  C11 UNL     1     -34.396   8.128  43.772  1.00  0.00     0.032 C 
HETATM   12  N2  UNL     1     -35.249   9.968  42.522  1.00  0.00    -0.405 N 
ATOM     13  H2  UNL     1     -35.421   9.553  41.606  1.00  0.00     0.154 HD
ENDROOT
BRANCH   1  14
HETATM   14  C2  UNL     1     -35.757  12.377  42.593  1.00  0.00     0.022 C 
HETATM   15  C1  UNL     1     -36.727  13.379  43.186  1.00  0.00     0.007 C 
ENDBRANCH   1  14
TORSDOF 1
ENDMDL
MODEL 5
REMARK VINA RESULT: -5.334831186      3.866      5.305
REMARK  1 active torsions:
REMARK  status: ('A' for Active; 'I' for Inactive)
REMARK    1  A    between atoms: C2_2  and  C3_3 
ROOT
HETATM    1  C3  UNL     1     -36.720   9.555  44.919  1.00  0.00     0.094 C 
HETATM    2  C4  UNL     1     -35.709   8.587  45.413  1.00  0.00     0.138 C 
HETATM    3  N1  UNL     1     -35.891   7.232  45.030  1.00  0.00    -0.417 N 
ATOM      4  H1  UNL     1     -35.224   6.505  45.288  1.00  0.00     0.153 HD
HETATM    5  C5  UNL     1     -37.061   6.944  44.265  1.00  0.00     0.144 C 
HETATM    6  C6  UNL     1     -38.257   7.700  44.751  1.00  0.00     0.041 C 
HETATM    7  C7  UNL     1     -39.419   7.527  43.787  1.00  0.00     0.032 C 
HETATM    8  C8  UNL     1     -40.741   7.463  44.521  1.00  0.00     0.002 C 
HETATM    9  C9  UNL     1     -40.872   6.178  45.318  1.00  0.00     0.000 C 
HETATM   10  C10 UNL     1     -39.488   5.806  45.844  1.00  0.00     0.002 C 
HETATM   11  C11 UNL     1     -38.718   7.068  46.070  1.00  0.00     0.032 C 
HETATM   12  N2  UNL     1     -38.051   9.073  44.971  1.00  0.00    -0.405 N 
ATOM     13  H2  UNL     1     -38.832   9.701  45.162  1.00  0.00     0.154 HD
ENDROOT
BRANCH   1  14
HETATM   14  C2  UNL     1     -36.317  10.102  43.555  1.00  0.00     0.022 C 
HETATM   15  C1  UNL     1     -36.281  11.617  43.583  1.00  0.00     0.007 C 
ENDBRANCH   1  14
TORSDOF 1
ENDMDL
