MODEL 1
REMARK VINA RESULT: -7.117595651      0.000      0.000
REMARK  3 active torsions:
REMARK  status: ('A' for Active; 'I' for Inactive)
REMARK    1  A    between atoms: C1_2  and  C2_3 
REMARK       I    between atoms: C1_2  and  N2_15 
REMARK    2  A    between atoms: C2_3  and  C3_4 
REMARK    3  A    between atoms: N2_15  and  C13_17 
ROOT
HETATM    1  C2  UNL     1      -2.577   4.881  14.252  1.00  0.00     0.147 C 
ENDROOT
BRANCH   1   2
HETATM    2  C1  UNL     1      -3.170   3.761  15.071  1.00  0.00     0.222 C 
HETATM    3  O1  UNL     1      -2.389   2.972  15.633  1.00  0.00    -0.273 OA
HETATM    4  N2  UNL     1      -4.566   3.580  15.221  1.00  0.00    -0.353 N 
ATOM      5  H2  UNL     1      -5.186   4.241  14.752  1.00  0.00     0.163 HD
BRANCH   4   6
HETATM    6  C13 UNL     1      -5.164   2.532  15.988  1.00  0.00     0.117 C 
HETATM    7  C14 UNL     1      -5.123   1.185  15.301  1.00  0.00     0.194 C 
HETATM    8  O2  UNL     1      -5.019   0.117  16.155  1.00  0.00    -0.379 OA
HETATM    9  C15 UNL     1      -5.722   0.226  17.333  1.00  0.00     0.241 C 
HETATM   10  S1  UNL     1      -7.226   1.248  17.086  1.00  0.00    -0.141 SA
HETATM   11  C16 UNL     1      -6.613   2.805  16.329  1.00  0.00     0.103 C 
ENDBRANCH   4   6
ENDBRANCH   1   2
BRANCH   1  12
HETATM   12  C3  UNL     1      -1.587   4.293  13.291  1.00  0.00     0.068 C 
HETATM   13  N1  UNL     1      -1.981   3.761  12.099  1.00  0.00    -0.384 N 
HETATM   14  C4  UNL     1      -0.856   3.189  11.353  1.00  0.00     0.123 C 
HETATM   15  C8  UNL     1      -3.111   3.887  11.351  1.00  0.00     0.031 C 
HETATM   16  C5  UNL     1      -1.167   1.778  10.910  1.00  0.00     0.020 C 
HETATM   17  C6  UNL     1      -2.571   1.432  11.415  1.00  0.00     0.004 C 
HETATM   18  C7  UNL     1      -3.489   2.477  10.810  1.00  0.00     0.031 C 
HETATM   19  C9  UNL     1      -4.345   4.538  11.718  1.00  0.00     0.031 C 
HETATM   20  C12 UNL     1      -2.671   4.633  10.054  1.00  0.00     0.031 C 
HETATM   21  C10 UNL     1      -4.329   5.919  11.028  1.00  0.00     0.002 C 
HETATM   22  C11 UNL     1      -3.872   5.438   9.641  1.00  0.00     0.002 C 
ENDBRANCH   1  12
TORSDOF 3
ENDMDL
MODEL 2
REMARK VINA RESULT: -6.921536287      0.904      2.523
REMARK  3 active torsions:
REMARK  status: ('A' for Active; 'I' for Inactive)
REMARK    1  A    between atoms: C1_2  and  C2_3 
REMARK       I    between atoms: C1_2  and  N2_15 
REMARK    2  A    between atoms: C2_3  and  C3_4 
REMARK    3  A    between atoms: N2_15  and  C13_17 
ROOT
HETATM    1  C2  UNL     1      -2.254   4.439  14.319  1.00  0.00     0.147 C 
ENDROOT
BRANCH   1   2
HETATM    2  C1  UNL     1      -2.970   3.429  15.181  1.00  0.00     0.222 C 
HETATM    3  O1  UNL     1      -2.281   2.687  15.905  1.00  0.00    -0.273 OA
HETATM    4  N2  UNL     1      -4.380   3.297  15.193  1.00  0.00    -0.353 N 
ATOM      5  H2  UNL     1      -4.922   3.917  14.591  1.00  0.00     0.163 HD
BRANCH   4   6
HETATM    6  C13 UNL     1      -5.092   2.351  15.994  1.00  0.00     0.117 C 
HETATM    7  C14 UNL     1      -5.066   0.946  15.435  1.00  0.00     0.194 C 
HETATM    8  O2  UNL     1      -5.088  -0.042  16.384  1.00  0.00    -0.379 OA
HETATM    9  C15 UNL     1      -5.878   0.206  17.483  1.00  0.00     0.241 C 
HETATM   10  S1  UNL     1      -7.302   1.268  17.019  1.00  0.00    -0.141 SA
HETATM   11  C16 UNL     1      -6.548   2.719  16.184  1.00  0.00     0.103 C 
ENDBRANCH   4   6
ENDBRANCH   1   2
BRANCH   1  12
HETATM   12  C3  UNL     1      -3.271   5.155  13.482  1.00  0.00     0.068 C 
HETATM   13  N1  UNL     1      -3.474   4.827  12.174  1.00  0.00    -0.384 N 
HETATM   14  C4  UNL     1      -4.467   5.697  11.536  1.00  0.00     0.123 C 
HETATM   15  C8  UNL     1      -3.169   3.728  11.431  1.00  0.00     0.031 C 
HETATM   16  C5  UNL     1      -3.933   6.263  10.240  1.00  0.00     0.020 C 
HETATM   17  C6  UNL     1      -2.511   5.725  10.050  1.00  0.00     0.004 C 
HETATM   18  C7  UNL     1      -2.645   4.214  10.047  1.00  0.00     0.031 C 
HETATM   19  C9  UNL     1      -2.353   2.602  11.813  1.00  0.00     0.031 C 
HETATM   20  C12 UNL     1      -4.539   3.084  11.059  1.00  0.00     0.031 C 
HETATM   21  C10 UNL     1      -3.330   1.466  12.188  1.00  0.00     0.002 C 
HETATM   22  C11 UNL     1      -4.264   1.607  10.975  1.00  0.00     0.002 C 
ENDBRANCH   1  12
TORSDOF 3
ENDMDL
MODEL 3
REMARK VINA RESULT: -6.581398324      1.855      3.008
REMARK  3 active torsions:
REMARK  status: ('A' for Active; 'I' for Inactive)
REMARK    1  A    between atoms: C1_2  and  C2_3 
REMARK       I    between atoms: C1_2  and  N2_15 
REMARK    2  A    between atoms: C2_3  and  C3_4 
REMARK    3  A    between atoms: N2_15  and  C13_17 
ROOT
HETATM    1  C2  UNL     1      -3.020   0.906  10.790  1.00  0.00     0.147 C 
ENDROOT
BRANCH   1   2
HETATM    2  C1  UNL     1      -3.991   1.023  11.939  1.00  0.00     0.222 C 
HETATM    3  O1  UNL     1      -5.181   0.728  11.730  1.00  0.00    -0.273 OA
HETATM    4  N2  UNL     1      -3.599   1.453  13.230  1.00  0.00    -0.353 N 
ATOM      5  H2  UNL     1      -2.617   1.688  13.377  1.00  0.00     0.163 HD
BRANCH   4   6
HETATM    6  C13 UNL     1      -4.490   1.577  14.342  1.00  0.00     0.117 C 
HETATM    7  C14 UNL     1      -4.224   2.799  15.193  1.00  0.00     0.194 C 
HETATM    8  O2  UNL     1      -5.342   3.337  15.777  1.00  0.00    -0.379 OA
HETATM    9  C15 UNL     1      -6.279   2.430  16.215  1.00  0.00     0.241 C 
HETATM   10  S1  UNL     1      -5.465   0.863  16.717  1.00  0.00    -0.141 SA
HETATM   11  C16 UNL     1      -4.446   0.381  15.268  1.00  0.00     0.103 C 
ENDBRANCH   4   6
ENDBRANCH   1   2
BRANCH   1  12
HETATM   12  C3  UNL     1      -1.717   1.523  11.204  1.00  0.00     0.068 C 
HETATM   13  N1  UNL     1      -1.402   2.808  10.875  1.00  0.00    -0.384 N 
HETATM   14  C4  UNL     1      -0.058   3.177  11.327  1.00  0.00     0.123 C 
HETATM   15  C8  UNL     1      -2.145   3.876  10.475  1.00  0.00     0.031 C 
HETATM   16  C5  UNL     1       0.743   3.782  10.196  1.00  0.00     0.020 C 
HETATM   17  C6  UNL     1      -0.147   3.787   8.949  1.00  0.00     0.004 C 
HETATM   18  C7  UNL     1      -1.374   4.595   9.329  1.00  0.00     0.031 C 
HETATM   19  C9  UNL     1      -3.541   3.895  10.114  1.00  0.00     0.031 C 
HETATM   20  C12 UNL     1      -2.049   4.909  11.639  1.00  0.00     0.031 C 
HETATM   21  C10 UNL     1      -4.298   4.457  11.337  1.00  0.00     0.002 C 
HETATM   22  C11 UNL     1      -3.362   5.644  11.615  1.00  0.00     0.002 C 
ENDBRANCH   1  12
TORSDOF 3
ENDMDL
MODEL 4
REMARK VINA RESULT: -6.541440936      1.897      3.435
REMARK  3 active torsions:
REMARK  status: ('A' for Active; 'I' for Inactive)
REMARK    1  A    between atoms: C1_2  and  C2_3 
REMARK       I    between atoms: C1_2  and  N2_15 
REMARK    2  A    between atoms: C2_3  and  C3_4 
REMARK    3  A    between atoms: N2_15  and  C13_17 
ROOT
HETATM    1  C2  UNL     1      -3.260   1.936  11.615  1.00  0.00     0.147 C 
ENDROOT
BRANCH   1   2
HETATM    2  C1  UNL     1      -4.154   1.466  12.736  1.00  0.00     0.222 C 
HETATM    3  O1  UNL     1      -4.743   0.379  12.596  1.00  0.00    -0.273 OA
HETATM    4  N2  UNL     1      -4.343   2.210  13.926  1.00  0.00    -0.353 N 
ATOM      5  H2  UNL     1      -3.848   3.098  14.017  1.00  0.00     0.163 HD
BRANCH   4   6
HETATM    6  C13 UNL     1      -5.181   1.798  15.008  1.00  0.00     0.117 C 
HETATM    7  C14 UNL     1      -5.693   2.948  15.846  1.00  0.00     0.194 C 
HETATM    8  O2  UNL     1      -6.936   2.746  16.387  1.00  0.00    -0.379 OA
HETATM    9  C15 UNL     1      -7.198   1.464  16.812  1.00  0.00     0.241 C 
HETATM   10  S1  UNL     1      -5.651   0.646  17.365  1.00  0.00    -0.141 SA
HETATM   11  C16 UNL     1      -4.491   0.840  15.955  1.00  0.00     0.103 C 
ENDBRANCH   4   6
ENDBRANCH   1   2
BRANCH   1  12
HETATM   12  C3  UNL     1      -3.918   3.103  10.941  1.00  0.00     0.068 C 
HETATM   13  N1  UNL     1      -3.637   4.386  11.307  1.00  0.00    -0.384 N 
HETATM   14  C4  UNL     1      -4.440   5.359  10.560  1.00  0.00     0.123 C 
HETATM   15  C8  UNL     1      -2.610   4.956  11.995  1.00  0.00     0.031 C 
HETATM   16  C5  UNL     1      -5.117   6.332  11.498  1.00  0.00     0.020 C 
HETATM   17  C6  UNL     1      -4.726   5.945  12.928  1.00  0.00     0.004 C 
HETATM   18  C7  UNL     1      -3.211   6.013  12.968  1.00  0.00     0.031 C 
HETATM   19  C9  UNL     1      -1.549   4.289  12.708  1.00  0.00     0.031 C 
HETATM   20  C12 UNL     1      -1.858   5.847  10.960  1.00  0.00     0.031 C 
HETATM   21  C10 UNL     1      -0.308   4.343  11.790  1.00  0.00     0.002 C 
HETATM   22  C11 UNL     1      -0.420   5.826  11.400  1.00  0.00     0.002 C 
ENDBRANCH   1  12
TORSDOF 3
ENDMDL
MODEL 5
REMARK VINA RESULT: -6.472856397      1.115      2.810
REMARK  3 active torsions:
REMARK  status: ('A' for Active; 'I' for Inactive)
REMARK    1  A    between atoms: C1_2  and  C2_3 
REMARK       I    between atoms: C1_2  and  N2_15 
REMARK    2  A    between atoms: C2_3  and  C3_4 
REMARK    3  A    between atoms: N2_15  and  C13_17 
ROOT
HETATM    1  C2  UNL     1      -2.336   4.493  14.372  1.00  0.00     0.147 C 
ENDROOT
BRANCH   1   2
HETATM    2  C1  UNL     1      -3.029   3.446  15.209  1.00  0.00     0.222 C 
HETATM    3  O1  UNL     1      -2.320   2.662  15.867  1.00  0.00    -0.273 OA
HETATM    4  N2  UNL     1      -4.438   3.327  15.271  1.00  0.00    -0.353 N 
ATOM      5  H2  UNL     1      -4.997   3.982  14.724  1.00  0.00     0.163 HD
BRANCH   4   6
HETATM    6  C13 UNL     1      -5.129   2.348  16.051  1.00  0.00     0.117 C 
HETATM    7  C14 UNL     1      -5.115   0.967  15.436  1.00  0.00     0.194 C 
HETATM    8  O2  UNL     1      -5.111  -0.059  16.345  1.00  0.00    -0.379 OA
HETATM    9  C15 UNL     1      -5.874   0.143  17.473  1.00  0.00     0.241 C 
HETATM   10  S1  UNL     1      -7.310   1.219  17.087  1.00  0.00    -0.141 SA
HETATM   11  C16 UNL     1      -6.580   2.704  16.293  1.00  0.00     0.103 C 
ENDBRANCH   4   6
ENDBRANCH   1   2
BRANCH   1  12
HETATM   12  C3  UNL     1      -3.310   5.010  13.356  1.00  0.00     0.068 C 
HETATM   13  N1  UNL     1      -2.922   5.307  12.084  1.00  0.00    -0.384 N 
HETATM   14  C4  UNL     1      -4.022   5.855  11.286  1.00  0.00     0.123 C 
HETATM   15  C8  UNL     1      -1.839   4.958  11.335  1.00  0.00     0.031 C 
HETATM   16  C5  UNL     1      -3.608   7.143  10.611  1.00  0.00     0.020 C 
HETATM   17  C6  UNL     1      -2.159   7.432  11.015  1.00  0.00     0.004 C 
HETATM   18  C7  UNL     1      -1.362   6.223  10.563  1.00  0.00     0.031 C 
HETATM   19  C9  UNL     1      -0.653   4.262  11.768  1.00  0.00     0.031 C 
HETATM   20  C12 UNL     1      -2.397   4.060  10.189  1.00  0.00     0.031 C 
HETATM   21  C10 UNL     1      -0.818   2.796  11.312  1.00  0.00     0.002 C 
HETATM   22  C11 UNL     1      -1.289   3.092   9.879  1.00  0.00     0.002 C 
ENDBRANCH   1  12
TORSDOF 3
ENDMDL
