MODEL 1
REMARK VINA RESULT: -6.855308475      0.000      0.000
REMARK  4 active torsions:
REMARK  status: ('A' for Active; 'I' for Inactive)
REMARK    1  A    between atoms: C2_2  and  N2_6 
REMARK    2  A    between atoms: N2_6  and  C5_8 
REMARK    3  A    between atoms: C5_8  and  N3_10 
REMARK    4  A    between atoms: N3_10  and  C6_12 
ROOT
HETATM    1  C1  UNL     1      -5.876   2.765  15.008  1.00  0.00     0.055 C 
HETATM    2  C2  UNL     1      -4.787   1.765  15.238  1.00  0.00     0.114 C 
HETATM    3  C3  UNL     1      -3.680   2.395  16.049  1.00  0.00     0.055 C 
HETATM    4  C4  UNL     1      -5.371   0.711  16.105  1.00  0.00     0.090 C 
HETATM    5  N1  UNL     1      -5.830  -0.112  16.775  1.00  0.00    -0.195 NA
ENDROOT
BRANCH   2   6
HETATM    6  N2  UNL     1      -4.293   1.177  14.017  1.00  0.00    -0.346 N 
ATOM      7  H2  UNL     1      -4.147   0.168  14.000  1.00  0.00     0.163 HD
BRANCH   6   8
HETATM    8  C5  UNL     1      -3.996   1.911  12.834  1.00  0.00     0.169 C 
HETATM    9  S1  UNL     1      -5.020   1.638  11.583  1.00  0.00    -0.041 SA
BRANCH   8  10
HETATM   10  N3  UNL     1      -2.902   2.783  12.803  1.00  0.00    -0.358 N 
ATOM     11  H3  UNL     1      -1.985   2.338  12.772  1.00  0.00     0.162 HD
BRANCH  10  12
HETATM   12  C6  UNL     1      -2.894   4.210  12.808  1.00  0.00     0.033 C 
HETATM   13  C7  UNL     1      -2.246   4.848  11.613  1.00  0.00     0.035 C 
HETATM   14  C8  UNL     1      -2.269   6.353  11.779  1.00  0.00    -0.012 C 
HETATM   15  C9  UNL     1      -3.681   6.891  11.911  1.00  0.00     0.009 C 
HETATM   16  C13 UNL     1      -1.500   6.822  12.979  1.00  0.00     0.009 C 
HETATM   17  C10 UNL     1      -4.314   6.263  13.139  1.00  0.00    -0.012 C 
HETATM   18  C11 UNL     1      -3.571   6.592  14.387  1.00  0.00     0.009 C 
HETATM   19  C15 UNL     1      -4.318   4.760  12.884  1.00  0.00     0.035 C 
HETATM   20  C12 UNL     1      -2.134   6.184  14.190  1.00  0.00    -0.012 C 
HETATM   21  C14 UNL     1      -2.087   4.704  14.017  1.00  0.00     0.035 C 
ENDBRANCH  10  12
ENDBRANCH   8  10
ENDBRANCH   6   8
ENDBRANCH   2   6
TORSDOF 4
ENDMDL
MODEL 2
REMARK VINA RESULT: -6.738882221      0.234      1.735
REMARK  4 active torsions:
REMARK  status: ('A' for Active; 'I' for Inactive)
REMARK    1  A    between atoms: C2_2  and  N2_6 
REMARK    2  A    between atoms: N2_6  and  C5_8 
REMARK    3  A    between atoms: C5_8  and  N3_10 
REMARK    4  A    between atoms: N3_10  and  C6_12 
ROOT
HETATM    1  C1  UNL     1      -5.883   2.738  15.190  1.00  0.00     0.055 C 
HETATM    2  C2  UNL     1      -4.825   1.697  15.386  1.00  0.00     0.114 C 
HETATM    3  C3  UNL     1      -3.672   2.283  16.163  1.00  0.00     0.055 C 
HETATM    4  C4  UNL     1      -5.422   0.664  16.269  1.00  0.00     0.090 C 
HETATM    5  N1  UNL     1      -5.892  -0.142  16.952  1.00  0.00    -0.195 NA
ENDROOT
BRANCH   2   6
HETATM    6  N2  UNL     1      -4.392   1.093  14.150  1.00  0.00    -0.346 N 
ATOM      7  H2  UNL     1      -4.284   0.079  14.127  1.00  0.00     0.163 HD
BRANCH   6   8
HETATM    8  C5  UNL     1      -4.105   1.819  12.959  1.00  0.00     0.169 C 
HETATM    9  S1  UNL     1      -5.140   1.537  11.720  1.00  0.00    -0.041 SA
BRANCH   8  10
HETATM   10  N3  UNL     1      -3.010   2.688  12.911  1.00  0.00    -0.358 N 
ATOM     11  H3  UNL     1      -2.097   2.242  12.827  1.00  0.00     0.162 HD
BRANCH  10  12
HETATM   12  C6  UNL     1      -2.997   4.115  12.963  1.00  0.00     0.033 C 
HETATM   13  C7  UNL     1      -4.343   4.758  13.132  1.00  0.00     0.035 C 
HETATM   14  C8  UNL     1      -4.178   6.264  13.123  1.00  0.00    -0.012 C 
HETATM   15  C9  UNL     1      -3.267   6.745  14.236  1.00  0.00     0.009 C 
HETATM   16  C13 UNL     1      -3.618   6.785  11.832  1.00  0.00     0.009 C 
HETATM   17  C10 UNL     1      -1.902   6.113  14.036  1.00  0.00    -0.012 C 
HETATM   18  C11 UNL     1      -1.289   6.492  12.734  1.00  0.00     0.009 C 
HETATM   19  C15 UNL     1      -2.124   4.606  14.118  1.00  0.00     0.035 C 
HETATM   20  C12 UNL     1      -2.267   6.141  11.643  1.00  0.00    -0.012 C 
HETATM   21  C14 UNL     1      -2.451   4.662  11.637  1.00  0.00     0.035 C 
ENDBRANCH  10  12
ENDBRANCH   8  10
ENDBRANCH   6   8
ENDBRANCH   2   6
TORSDOF 4
ENDMDL
MODEL 3
REMARK VINA RESULT: -6.731502595      0.140      1.662
REMARK  4 active torsions:
REMARK  status: ('A' for Active; 'I' for Inactive)
REMARK    1  A    between atoms: C2_2  and  N2_6 
REMARK    2  A    between atoms: N2_6  and  C5_8 
REMARK    3  A    between atoms: C5_8  and  N3_10 
REMARK    4  A    between atoms: N3_10  and  C6_12 
ROOT
HETATM    1  C1  UNL     1      -5.883   2.744  15.087  1.00  0.00     0.055 C 
HETATM    2  C2  UNL     1      -4.790   1.738  15.274  1.00  0.00     0.114 C 
HETATM    3  C3  UNL     1      -3.670   2.347  16.082  1.00  0.00     0.055 C 
HETATM    4  C4  UNL     1      -5.360   0.662  16.122  1.00  0.00     0.090 C 
HETATM    5  N1  UNL     1      -5.809  -0.179  16.777  1.00  0.00    -0.195 NA
ENDROOT
BRANCH   2   6
HETATM    6  N2  UNL     1      -4.316   1.182  14.029  1.00  0.00    -0.346 N 
ATOM      7  H2  UNL     1      -4.205   0.170  13.972  1.00  0.00     0.163 HD
BRANCH   6   8
HETATM    8  C5  UNL     1      -3.994   1.953  12.876  1.00  0.00     0.169 C 
HETATM    9  S1  UNL     1      -5.028   1.767  11.618  1.00  0.00    -0.041 SA
BRANCH   8  10
HETATM   10  N3  UNL     1      -2.869   2.784  12.878  1.00  0.00    -0.358 N 
ATOM     11  H3  UNL     1      -1.970   2.309  12.798  1.00  0.00     0.162 HD
BRANCH  10  12
HETATM   12  C6  UNL     1      -2.807   4.207  12.975  1.00  0.00     0.033 C 
HETATM   13  C7  UNL     1      -1.999   4.732  14.127  1.00  0.00     0.035 C 
HETATM   14  C8  UNL     1      -2.063   6.245  14.131  1.00  0.00    -0.012 C 
HETATM   15  C9  UNL     1      -1.521   6.842  12.846  1.00  0.00     0.009 C 
HETATM   16  C13 UNL     1      -3.455   6.773  14.315  1.00  0.00     0.009 C 
HETATM   17  C10 UNL     1      -2.366   6.329  11.693  1.00  0.00    -0.012 C 
HETATM   18  C11 UNL     1      -3.796   6.721  11.823  1.00  0.00     0.009 C 
HETATM   19  C15 UNL     1      -2.210   4.812  11.705  1.00  0.00     0.035 C 
HETATM   20  C12 UNL     1      -4.284   6.247  13.169  1.00  0.00    -0.012 C 
HETATM   21  C14 UNL     1      -4.224   4.759  13.191  1.00  0.00     0.035 C 
ENDBRANCH  10  12
ENDBRANCH   8  10
ENDBRANCH   6   8
ENDBRANCH   2   6
TORSDOF 4
ENDMDL
MODEL 4
REMARK VINA RESULT: -6.668549991      1.824      2.734
REMARK  4 active torsions:
REMARK  status: ('A' for Active; 'I' for Inactive)
REMARK    1  A    between atoms: C2_2  and  N2_6 
REMARK    2  A    between atoms: N2_6  and  C5_8 
REMARK    3  A    between atoms: C5_8  and  N3_10 
REMARK    4  A    between atoms: N3_10  and  C6_12 
ROOT
HETATM    1  C1  UNL     1      -6.840   3.685  16.958  1.00  0.00     0.055 C 
HETATM    2  C2  UNL     1      -6.178   2.392  17.319  1.00  0.00     0.114 C 
HETATM    3  C3  UNL     1      -6.051   2.287  18.820  1.00  0.00     0.055 C 
HETATM    4  C4  UNL     1      -7.123   1.319  16.920  1.00  0.00     0.090 C 
HETATM    5  N1  UNL     1      -7.857   0.485  16.601  1.00  0.00    -0.195 NA
ENDROOT
BRANCH   2   6
HETATM    6  N2  UNL     1      -4.911   2.202  16.656  1.00  0.00    -0.346 N 
ATOM      7  H2  UNL     1      -4.062   2.326  17.206  1.00  0.00     0.163 HD
BRANCH   6   8
HETATM    8  C5  UNL     1      -4.768   1.854  15.282  1.00  0.00     0.169 C 
HETATM    9  S1  UNL     1      -4.290   0.310  15.015  1.00  0.00    -0.041 SA
BRANCH   8  10
HETATM   10  N3  UNL     1      -5.029   2.800  14.285  1.00  0.00    -0.358 N 
ATOM     11  H3  UNL     1      -5.899   2.667  13.769  1.00  0.00     0.162 HD
BRANCH  10  12
HETATM   12  C6  UNL     1      -4.246   3.927  13.893  1.00  0.00     0.033 C 
HETATM   13  C7  UNL     1      -4.943   5.253  13.993  1.00  0.00     0.035 C 
HETATM   14  C8  UNL     1      -4.012   6.342  13.502  1.00  0.00    -0.012 C 
HETATM   15  C9  UNL     1      -2.730   6.404  14.310  1.00  0.00     0.009 C 
HETATM   16  C13 UNL     1      -3.622   6.175  12.062  1.00  0.00     0.009 C 
HETATM   17  C10 UNL     1      -2.020   5.069  14.175  1.00  0.00    -0.012 C 
HETATM   18  C11 UNL     1      -1.666   4.759  12.763  1.00  0.00     0.009 C 
HETATM   19  C15 UNL     1      -2.979   4.028  14.741  1.00  0.00     0.035 C 
HETATM   20  C12 UNL     1      -2.928   4.842  11.941  1.00  0.00    -0.012 C 
HETATM   21  C14 UNL     1      -3.863   3.782  12.412  1.00  0.00     0.035 C 
ENDBRANCH  10  12
ENDBRANCH   8  10
ENDBRANCH   6   8
ENDBRANCH   2   6
TORSDOF 4
ENDMDL
MODEL 5
REMARK VINA RESULT: -6.616159551      1.828      2.618
REMARK  4 active torsions:
REMARK  status: ('A' for Active; 'I' for Inactive)
REMARK    1  A    between atoms: C2_2  and  N2_6 
REMARK    2  A    between atoms: N2_6  and  C5_8 
REMARK    3  A    between atoms: C5_8  and  N3_10 
REMARK    4  A    between atoms: N3_10  and  C6_12 
ROOT
HETATM    1  C1  UNL     1      -6.870   3.695  16.977  1.00  0.00     0.055 C 
HETATM    2  C2  UNL     1      -6.196   2.407  17.335  1.00  0.00     0.114 C 
HETATM    3  C3  UNL     1      -6.088   2.289  18.835  1.00  0.00     0.055 C 
HETATM    4  C4  UNL     1      -7.120   1.326  16.911  1.00  0.00     0.090 C 
HETATM    5  N1  UNL     1      -7.838   0.486  16.573  1.00  0.00    -0.195 NA
ENDROOT
BRANCH   2   6
HETATM    6  N2  UNL     1      -4.917   2.241  16.687  1.00  0.00    -0.346 N 
ATOM      7  H2  UNL     1      -4.078   2.388  17.247  1.00  0.00     0.163 HD
BRANCH   6   8
HETATM    8  C5  UNL     1      -4.750   1.887  15.318  1.00  0.00     0.169 C 
HETATM    9  S1  UNL     1      -4.311   0.328  15.064  1.00  0.00    -0.041 SA
BRANCH   8  10
HETATM   10  N3  UNL     1      -4.958   2.838  14.314  1.00  0.00    -0.358 N 
ATOM     11  H3  UNL     1      -5.854   2.780  13.831  1.00  0.00     0.162 HD
BRANCH  10  12
HETATM   12  C6  UNL     1      -4.088   3.880  13.874  1.00  0.00     0.033 C 
HETATM   13  C7  UNL     1      -2.886   4.116  14.742  1.00  0.00     0.035 C 
HETATM   14  C8  UNL     1      -2.086   5.273  14.181  1.00  0.00    -0.012 C 
HETATM   15  C9  UNL     1      -1.616   5.008  12.764  1.00  0.00     0.009 C 
HETATM   16  C13 UNL     1      -2.854   6.562  14.161  1.00  0.00     0.009 C 
HETATM   17  C10 UNL     1      -2.840   4.802  11.890  1.00  0.00    -0.012 C 
HETATM   18  C11 UNL     1      -3.727   5.998  11.871  1.00  0.00     0.009 C 
HETATM   19  C15 UNL     1      -3.566   3.591  12.467  1.00  0.00     0.035 C 
HETATM   20  C12 UNL     1      -4.072   6.340  13.298  1.00  0.00    -0.012 C 
HETATM   21  C14 UNL     1      -4.854   5.211  13.874  1.00  0.00     0.035 C 
ENDBRANCH  10  12
ENDBRANCH   8  10
ENDBRANCH   6   8
ENDBRANCH   2   6
TORSDOF 4
ENDMDL
