MODEL 1
REMARK VINA RESULT: -7.156518493      0.000      0.000
REMARK  3 active torsions:
REMARK  status: ('A' for Active; 'I' for Inactive)
REMARK       I    between atoms: C2_5  and  N3_6 
REMARK       I    between atoms: C2_5  and  N4_13 
REMARK    1  A    between atoms: N3_6  and  C3_8 
REMARK    2  A    between atoms: C3_8  and  C4_10 
REMARK    3  A    between atoms: N4_13  and  C7_15 
ROOT
HETATM    1  N1  UNL     1      -3.891   4.072   9.640  1.00  0.00    -0.171 NA
HETATM    2  C1  UNL     1      -3.935   3.811  10.785  1.00  0.00     0.196 C 
HETATM    3  N2  UNL     1      -3.964   3.493  12.145  1.00  0.00    -0.126 N 
ATOM      4  H2  UNL     1      -4.204   2.540  12.420  1.00  0.00     0.197 HD
HETATM    5  C2  UNL     1      -3.704   4.342  13.051  1.00  0.00     0.688 C 
HETATM    6  N3  UNL     1      -3.363   5.681  12.720  1.00  0.00    -0.185 N 
ATOM      7  H3  UNL     1      -4.080   6.264  12.288  1.00  0.00     0.185 HD
HETATM    8  N4  UNL     1      -3.744   3.980  14.416  1.00  0.00    -0.221 N 
ATOM      9  H4  UNL     1      -3.032   4.368  15.035  1.00  0.00     0.178 HD
ENDROOT
BRANCH   6  10
HETATM   10  C3  UNL     1      -2.105   6.251  12.950  1.00  0.00     0.098 C 
HETATM   11  S1  UNL     1      -0.855   5.981  11.939  1.00  0.00    -0.064 SA
BRANCH  10  12
HETATM   12  C4  UNL     1      -1.866   7.122  14.127  1.00  0.00     0.048 A 
HETATM   13  C5  UNL     1      -2.353   8.540  14.097  1.00  0.00     0.012 A 
HETATM   14  C6  UNL     1      -3.015   7.568  14.964  1.00  0.00     0.012 A 
ENDBRANCH  10  12
ENDBRANCH   6  10
BRANCH   8  15
HETATM   15  C7  UNL     1      -4.729   3.095  14.988  1.00  0.00     0.099 C 
HETATM   16  C8  UNL     1      -4.024   2.080  15.818  1.00  0.00     0.026 C 
HETATM   17  C9  UNL     1      -4.692   0.729  15.830  1.00  0.00     0.002 C 
HETATM   18  C10 UNL     1      -5.423   0.583  17.147  1.00  0.00     0.000 C 
HETATM   19  C11 UNL     1      -6.842   1.043  17.088  1.00  0.00     0.000 C 
HETATM   20  C12 UNL     1      -6.993   2.516  17.328  1.00  0.00     0.000 C 
HETATM   21  C13 UNL     1      -7.001   3.316  16.032  1.00  0.00     0.002 C 
HETATM   22  C14 UNL     1      -5.680   3.959  15.787  1.00  0.00     0.026 C 
ENDBRANCH   8  15
TORSDOF 3
ENDMDL
MODEL 2
REMARK VINA RESULT: -6.891778064      2.602      6.592
REMARK  3 active torsions:
REMARK  status: ('A' for Active; 'I' for Inactive)
REMARK       I    between atoms: C2_5  and  N3_6 
REMARK       I    between atoms: C2_5  and  N4_13 
REMARK    1  A    between atoms: N3_6  and  C3_8 
REMARK    2  A    between atoms: C3_8  and  C4_10 
REMARK    3  A    between atoms: N4_13  and  C7_15 
ROOT
HETATM    1  N1  UNL     1      -4.501  -0.598  15.168  1.00  0.00    -0.171 NA
HETATM    2  C1  UNL     1      -4.367   0.343  14.479  1.00  0.00     0.196 C 
HETATM    3  N2  UNL     1      -4.231   1.462  13.653  1.00  0.00    -0.126 N 
ATOM      4  H2  UNL     1      -4.031   1.318  12.663  1.00  0.00     0.197 HD
HETATM    5  C2  UNL     1      -4.346   2.649  14.086  1.00  0.00     0.688 C 
HETATM    6  N3  UNL     1      -4.625   2.903  15.456  1.00  0.00    -0.185 N 
ATOM      7  H3  UNL     1      -3.914   2.651  16.143  1.00  0.00     0.185 HD
HETATM    8  N4  UNL     1      -4.202   3.754  13.218  1.00  0.00    -0.221 N 
ATOM      9  H4  UNL     1      -4.824   4.551  13.351  1.00  0.00     0.178 HD
ENDROOT
BRANCH   6  10
HETATM   10  C3  UNL     1      -5.814   3.476  15.923  1.00  0.00     0.098 C 
HETATM   11  S1  UNL     1      -6.377   4.877  15.308  1.00  0.00    -0.064 SA
BRANCH  10  12
HETATM   12  C4  UNL     1      -6.604   2.826  16.998  1.00  0.00     0.048 A 
HETATM   13  C5  UNL     1      -7.146   1.447  16.773  1.00  0.00     0.012 A 
HETATM   14  C6  UNL     1      -6.047   1.646  17.716  1.00  0.00     0.012 A 
ENDBRANCH  10  12
ENDBRANCH   6  10
BRANCH   8  15
HETATM   15  C7  UNL     1      -3.229   3.824  12.155  1.00  0.00     0.099 C 
HETATM   16  C8  UNL     1      -3.717   4.793  11.135  1.00  0.00     0.026 C 
HETATM   17  C9  UNL     1      -3.323   4.444   9.722  1.00  0.00     0.002 C 
HETATM   18  C10 UNL     1      -2.177   5.348   9.322  1.00  0.00     0.000 C 
HETATM   19  C11 UNL     1      -0.835   4.763   9.611  1.00  0.00     0.000 C 
HETATM   20  C12 UNL     1      -0.368   5.026  11.012  1.00  0.00     0.000 C 
HETATM   21  C13 UNL     1      -0.728   3.892  11.965  1.00  0.00     0.002 C 
HETATM   22  C14 UNL     1      -1.920   4.238  12.789  1.00  0.00     0.026 C 
ENDBRANCH   8  15
TORSDOF 3
ENDMDL
MODEL 3
REMARK VINA RESULT: -6.677587904      1.228      1.930
REMARK  3 active torsions:
REMARK  status: ('A' for Active; 'I' for Inactive)
REMARK       I    between atoms: C2_5  and  N3_6 
REMARK       I    between atoms: C2_5  and  N4_13 
REMARK    1  A    between atoms: N3_6  and  C3_8 
REMARK    2  A    between atoms: C3_8  and  C4_10 
REMARK    3  A    between atoms: N4_13  and  C7_15 
ROOT
HETATM    1  N1  UNL     1      -4.000   4.113   9.480  1.00  0.00    -0.171 NA
HETATM    2  C1  UNL     1      -3.990   3.833  10.621  1.00  0.00     0.196 C 
HETATM    3  N2  UNL     1      -3.957   3.490  11.975  1.00  0.00    -0.126 N 
ATOM      4  H2  UNL     1      -4.289   2.567  12.254  1.00  0.00     0.197 HD
HETATM    5  C2  UNL     1      -3.531   4.282  12.871  1.00  0.00     0.688 C 
HETATM    6  N3  UNL     1      -3.058   5.579  12.533  1.00  0.00    -0.185 N 
ATOM      7  H3  UNL     1      -3.729   6.252  12.164  1.00  0.00     0.185 HD
HETATM    8  N4  UNL     1      -3.513   3.897  14.229  1.00  0.00    -0.221 N 
ATOM      9  H4  UNL     1      -2.716   4.184  14.798  1.00  0.00     0.178 HD
ENDROOT
BRANCH   6  10
HETATM   10  C3  UNL     1      -1.727   5.990  12.674  1.00  0.00     0.098 C 
HETATM   11  S1  UNL     1      -1.354   7.471  13.248  1.00  0.00    -0.064 SA
BRANCH  10  12
HETATM   12  C4  UNL     1      -0.607   5.090  12.305  1.00  0.00     0.048 A 
HETATM   13  C5  UNL     1      -0.311   4.850  10.855  1.00  0.00     0.012 A 
HETATM   14  C6  UNL     1       0.611   5.652  11.657  1.00  0.00     0.012 A 
ENDBRANCH  10  12
ENDBRANCH   6  10
BRANCH   8  15
HETATM   15  C7  UNL     1      -4.553   3.122  14.863  1.00  0.00     0.099 C 
HETATM   16  C8  UNL     1      -3.917   2.178  15.823  1.00  0.00     0.026 C 
HETATM   17  C9  UNL     1      -4.644   0.865  15.962  1.00  0.00     0.002 C 
HETATM   18  C10 UNL     1      -5.418   0.897  17.261  1.00  0.00     0.000 C 
HETATM   19  C11 UNL     1      -6.813   1.405  17.104  1.00  0.00     0.000 C 
HETATM   20  C12 UNL     1      -6.906   2.901  17.176  1.00  0.00     0.000 C 
HETATM   21  C13 UNL     1      -6.841   3.550  15.799  1.00  0.00     0.002 C 
HETATM   22  C14 UNL     1      -5.487   4.108  15.529  1.00  0.00     0.026 C 
ENDBRANCH   8  15
TORSDOF 3
ENDMDL
MODEL 4
REMARK VINA RESULT: -6.659593295      1.646      3.740
REMARK  3 active torsions:
REMARK  status: ('A' for Active; 'I' for Inactive)
REMARK       I    between atoms: C2_5  and  N3_6 
REMARK       I    between atoms: C2_5  and  N4_13 
REMARK    1  A    between atoms: N3_6  and  C3_8 
REMARK    2  A    between atoms: C3_8  and  C4_10 
REMARK    3  A    between atoms: N4_13  and  C7_15 
ROOT
HETATM    1  N1  UNL     1      -2.103   8.407  14.756  1.00  0.00    -0.171 NA
HETATM    2  C1  UNL     1      -2.841   7.493  14.783  1.00  0.00     0.196 C 
HETATM    3  N2  UNL     1      -3.735   6.421  14.809  1.00  0.00    -0.126 N 
ATOM      4  H2  UNL     1      -4.265   6.245  15.663  1.00  0.00     0.197 HD
HETATM    5  C2  UNL     1      -3.916   5.657  13.812  1.00  0.00     0.688 C 
HETATM    6  N3  UNL     1      -3.203   5.859  12.599  1.00  0.00    -0.185 N 
ATOM      7  H3  UNL     1      -2.193   5.718  12.609  1.00  0.00     0.185 HD
HETATM    8  N4  UNL     1      -4.830   4.583  13.878  1.00  0.00    -0.221 N 
ATOM      9  H4  UNL     1      -5.396   4.385  13.053  1.00  0.00     0.178 HD
ENDROOT
BRANCH   6  10
HETATM   10  C3  UNL     1      -3.800   6.241  11.392  1.00  0.00     0.098 C 
HETATM   11  S1  UNL     1      -4.052   7.810  11.030  1.00  0.00    -0.064 SA
BRANCH  10  12
HETATM   12  C4  UNL     1      -4.227   5.225  10.398  1.00  0.00     0.048 A 
HETATM   13  C5  UNL     1      -3.186   4.512   9.589  1.00  0.00     0.012 A 
HETATM   14  C6  UNL     1      -3.915   3.787  10.627  1.00  0.00     0.012 A 
ENDBRANCH  10  12
ENDBRANCH   6  10
BRANCH   8  15
HETATM   15  C7  UNL     1      -5.014   3.748  15.041  1.00  0.00     0.099 C 
HETATM   16  C8  UNL     1      -6.475   3.576  15.269  1.00  0.00     0.026 C 
HETATM   17  C9  UNL     1      -6.857   3.455  16.722  1.00  0.00     0.002 C 
HETATM   18  C10 UNL     1      -7.135   1.996  17.011  1.00  0.00     0.000 C 
HETATM   19  C11 UNL     1      -5.934   1.249  17.488  1.00  0.00     0.000 C 
HETATM   20  C12 UNL     1      -5.087   0.720  16.368  1.00  0.00     0.000 C 
HETATM   21  C13 UNL     1      -3.963   1.678  15.992  1.00  0.00     0.002 C 
HETATM   22  C14 UNL     1      -4.298   2.446  14.761  1.00  0.00     0.026 C 
ENDBRANCH   8  15
TORSDOF 3
ENDMDL
MODEL 5
REMARK VINA RESULT: -6.541189787      1.417      1.633
REMARK  3 active torsions:
REMARK  status: ('A' for Active; 'I' for Inactive)
REMARK       I    between atoms: C2_5  and  N3_6 
REMARK       I    between atoms: C2_5  and  N4_13 
REMARK    1  A    between atoms: N3_6  and  C3_8 
REMARK    2  A    between atoms: C3_8  and  C4_10 
REMARK    3  A    between atoms: N4_13  and  C7_15 
ROOT
HETATM    1  N1  UNL     1      -1.586   4.510   9.746  1.00  0.00    -0.171 NA
HETATM    2  C1  UNL     1      -2.015   4.457  10.839  1.00  0.00     0.196 C 
HETATM    3  N2  UNL     1      -2.502   4.393  12.146  1.00  0.00    -0.126 N 
ATOM      4  H2  UNL     1      -2.671   3.477  12.561  1.00  0.00     0.197 HD
HETATM    5  C2  UNL     1      -2.742   5.429  12.838  1.00  0.00     0.688 C 
HETATM    6  N3  UNL     1      -2.522   6.729  12.307  1.00  0.00    -0.185 N 
ATOM      7  H3  UNL     1      -3.107   7.032  11.528  1.00  0.00     0.185 HD
HETATM    8  N4  UNL     1      -3.234   5.321  14.158  1.00  0.00    -0.221 N 
ATOM      9  H4  UNL     1      -2.879   5.976  14.855  1.00  0.00     0.178 HD
ENDROOT
BRANCH   6  10
HETATM   10  C3  UNL     1      -1.553   7.618  12.784  1.00  0.00     0.098 C 
HETATM   11  S1  UNL     1       0.006   7.504  12.317  1.00  0.00    -0.064 SA
BRANCH  10  12
HETATM   12  C4  UNL     1      -1.911   8.699  13.735  1.00  0.00     0.048 A 
HETATM   13  C5  UNL     1      -1.970   8.392  15.201  1.00  0.00     0.012 A 
HETATM   14  C6  UNL     1      -0.887   9.224  14.680  1.00  0.00     0.012 A 
ENDBRANCH  10  12
ENDBRANCH   6  10
BRANCH   8  15
HETATM   15  C7  UNL     1      -4.206   4.343  14.580  1.00  0.00     0.099 C 
HETATM   16  C8  UNL     1      -3.542   3.393  15.514  1.00  0.00     0.026 C 
HETATM   17  C9  UNL     1      -4.072   1.984  15.434  1.00  0.00     0.002 C 
HETATM   18  C10 UNL     1      -4.978   1.759  16.625  1.00  0.00     0.000 C 
HETATM   19  C11 UNL     1      -6.408   2.083  16.348  1.00  0.00     0.000 C 
HETATM   20  C12 UNL     1      -6.734   3.533  16.552  1.00  0.00     0.000 C 
HETATM   21  C13 UNL     1      -6.620   4.339  15.264  1.00  0.00     0.002 C 
HETATM   22  C14 UNL     1      -5.345   5.107  15.218  1.00  0.00     0.026 C 
ENDBRANCH   8  15
TORSDOF 3
ENDMDL
