MODEL 1
REMARK VINA RESULT: -7.055635396      0.000      0.000
REMARK  3 active torsions:
REMARK  status: ('A' for Active; 'I' for Inactive)
REMARK    1  A    between atoms: C9_9  and  O1_10 
REMARK    2  A    between atoms: C10_12  and  C11_13 
REMARK    3  A    between atoms: C11_13  and  N1_14 
ROOT
HETATM    1  C1  UNL     1      -5.405   4.679  14.011  1.00  0.00     0.015 C 
HETATM    2  C2  UNL     1      -5.160   3.899  15.285  1.00  0.00     0.014 C 
HETATM    3  C3  UNL     1      -6.415   3.919  16.048  1.00  0.00     0.014 C 
HETATM    4  C4  UNL     1      -6.914   2.652  16.614  1.00  0.00    -0.007 C 
HETATM    5  C5  UNL     1      -6.791   2.675  18.146  1.00  0.00     0.005 C 
HETATM    6  C6  UNL     1      -5.658   1.764  18.462  1.00  0.00     0.001 C 
HETATM    7  C7  UNL     1      -5.742   0.726  17.375  1.00  0.00     0.008 C 
HETATM    8  C8  UNL     1      -6.332   1.388  16.173  1.00  0.00     0.023 C 
HETATM    9  C9  UNL     1      -5.402   1.445  14.969  1.00  0.00     0.153 C 
HETATM   10  C10 UNL     1      -4.476   2.581  15.096  1.00  0.00    -0.037 C 
ENDROOT
BRANCH  10  11
HETATM   11  C11 UNL     1      -3.318   2.697  14.181  1.00  0.00     0.065 C 
BRANCH  11  12
HETATM   12  N1  UNL     1      -3.479   2.601  12.786  1.00  0.00    -0.288 NA
HETATM   13  C12 UNL     1      -2.447   3.418  12.111  1.00  0.00     0.121 C 
HETATM   14  C13 UNL     1      -2.669   3.347  10.605  1.00  0.00     0.182 C 
HETATM   15  O2  UNL     1      -2.343   2.097  10.109  1.00  0.00    -0.389 OA
HETATM   16  C14 UNL     1      -2.118   1.263  11.175  1.00  0.00     0.182 C 
HETATM   17  C15 UNL     1      -3.165   1.262  12.242  1.00  0.00     0.121 C 
ENDBRANCH  11  12
ENDBRANCH  10  11
BRANCH   9  18
HETATM   18  O1  UNL     1      -4.779   0.194  15.058  1.00  0.00    -0.391 OA
ATOM     19  H1  UNL     1      -4.858  -0.109  14.161  1.00  0.00     0.210 HD
ENDBRANCH   9  18
TORSDOF 3
ENDMDL
MODEL 2
REMARK VINA RESULT: -7.045523547      1.978      3.392
REMARK  3 active torsions:
REMARK  status: ('A' for Active; 'I' for Inactive)
REMARK    1  A    between atoms: C9_9  and  O1_10 
REMARK    2  A    between atoms: C10_12  and  C11_13 
REMARK    3  A    between atoms: C11_13  and  N1_14 
ROOT
HETATM    1  C1  UNL     1      -5.490   0.708  16.532  1.00  0.00     0.015 C 
HETATM    2  C2  UNL     1      -5.625   1.743  15.436  1.00  0.00     0.014 C 
HETATM    3  C3  UNL     1      -6.033   2.999  16.079  1.00  0.00     0.014 C 
HETATM    4  C4  UNL     1      -5.323   4.239  15.714  1.00  0.00    -0.007 C 
HETATM    5  C5  UNL     1      -6.252   5.159  14.907  1.00  0.00     0.005 C 
HETATM    6  C6  UNL     1      -5.758   5.083  13.506  1.00  0.00     0.001 C 
HETATM    7  C7  UNL     1      -4.276   4.883  13.677  1.00  0.00     0.008 C 
HETATM    8  C8  UNL     1      -4.071   4.159  14.967  1.00  0.00     0.023 C 
HETATM    9  C9  UNL     1      -3.450   2.777  14.817  1.00  0.00     0.153 C 
HETATM   10  C10 UNL     1      -4.484   1.790  14.468  1.00  0.00    -0.037 C 
ENDROOT
BRANCH  10  11
HETATM   11  C11 UNL     1      -4.091   0.433  14.025  1.00  0.00     0.065 C 
BRANCH  11  12
HETATM   12  N1  UNL     1      -4.434  -0.045  12.747  1.00  0.00    -0.288 NA
HETATM   13  C12 UNL     1      -4.624   1.096  11.825  1.00  0.00     0.121 C 
HETATM   14  C13 UNL     1      -5.048   0.563  10.461  1.00  0.00     0.182 C 
HETATM   15  O2  UNL     1      -3.999  -0.080   9.827  1.00  0.00    -0.389 OA
HETATM   16  C14 UNL     1      -2.971  -0.205  10.728  1.00  0.00     0.182 C 
HETATM   17  C15 UNL     1      -3.334  -0.764  12.067  1.00  0.00     0.121 C 
ENDBRANCH  11  12
ENDBRANCH  10  11
BRANCH   9  18
HETATM   18  O1  UNL     1      -2.525   3.013  13.794  1.00  0.00    -0.391 OA
ATOM     19  H1  UNL     1      -1.774   2.527  14.115  1.00  0.00     0.210 HD
ENDBRANCH   9  18
TORSDOF 3
ENDMDL
MODEL 3
REMARK VINA RESULT: -6.898396084      2.125      6.277
REMARK  3 active torsions:
REMARK  status: ('A' for Active; 'I' for Inactive)
REMARK    1  A    between atoms: C9_9  and  O1_10 
REMARK    2  A    between atoms: C10_12  and  C11_13 
REMARK    3  A    between atoms: C11_13  and  N1_14 
ROOT
HETATM    1  C1  UNL     1      -2.905  -0.315  10.843  1.00  0.00     0.015 C 
HETATM    2  C2  UNL     1      -2.447   0.995  11.449  1.00  0.00     0.014 C 
HETATM    3  C3  UNL     1      -1.291   1.450  10.665  1.00  0.00     0.014 C 
HETATM    4  C4  UNL     1      -1.254   2.854  10.218  1.00  0.00    -0.007 C 
HETATM    5  C5  UNL     1      -0.159   3.619  10.980  1.00  0.00     0.005 C 
HETATM    6  C6  UNL     1      -0.887   4.490  11.941  1.00  0.00     0.001 C 
HETATM    7  C7  UNL     1      -2.159   4.820  11.207  1.00  0.00     0.008 C 
HETATM    8  C8  UNL     1      -2.461   3.670  10.303  1.00  0.00     0.023 C 
HETATM    9  C9  UNL     1      -3.758   2.942  10.629  1.00  0.00     0.153 C 
HETATM   10  C10 UNL     1      -3.541   1.980  11.721  1.00  0.00    -0.037 C 
ENDROOT
BRANCH  10  11
HETATM   11  C11 UNL     1      -4.699   1.337  12.381  1.00  0.00     0.065 C 
BRANCH  11  12
HETATM   12  N1  UNL     1      -4.962   1.536  13.749  1.00  0.00    -0.288 NA
HETATM   13  C12 UNL     1      -4.399   0.413  14.530  1.00  0.00     0.121 C 
HETATM   14  C13 UNL     1      -4.740   0.616  16.002  1.00  0.00     0.182 C 
HETATM   15  O2  UNL     1      -4.017   1.665  16.543  1.00  0.00    -0.389 OA
HETATM   16  C14 UNL     1      -3.377   2.313  15.516  1.00  0.00     0.182 C 
HETATM   17  C15 UNL     1      -4.222   2.674  14.337  1.00  0.00     0.121 C 
ENDBRANCH  11  12
ENDBRANCH  10  11
BRANCH   9  18
HETATM   18  O1  UNL     1      -4.584   4.017  10.977  1.00  0.00    -0.391 OA
ATOM     19  H1  UNL     1      -5.443   3.631  10.853  1.00  0.00     0.210 HD
ENDBRANCH   9  18
TORSDOF 3
ENDMDL
MODEL 4
REMARK VINA RESULT: -6.814762220      3.078      4.839
REMARK  3 active torsions:
REMARK  status: ('A' for Active; 'I' for Inactive)
REMARK    1  A    between atoms: C9_9  and  O1_10 
REMARK    2  A    between atoms: C10_12  and  C11_13 
REMARK    3  A    between atoms: C11_13  and  N1_14 
ROOT
HETATM    1  C1  UNL     1      -0.406   4.148  11.602  1.00  0.00     0.015 C 
HETATM    2  C2  UNL     1      -1.700   4.068  12.383  1.00  0.00     0.014 C 
HETATM    3  C3  UNL     1      -1.723   5.219  13.294  1.00  0.00     0.014 C 
HETATM    4  C4  UNL     1      -2.953   6.030  13.372  1.00  0.00    -0.007 C 
HETATM    5  C5  UNL     1      -3.635   5.821  14.733  1.00  0.00     0.005 C 
HETATM    6  C6  UNL     1      -4.830   4.982  14.448  1.00  0.00     0.001 C 
HETATM    7  C7  UNL     1      -5.233   5.421  13.065  1.00  0.00     0.008 C 
HETATM    8  C8  UNL     1      -3.992   5.861  12.360  1.00  0.00     0.023 C 
HETATM    9  C9  UNL     1      -3.632   5.021  11.142  1.00  0.00     0.153 C 
HETATM   10  C10 UNL     1      -2.921   3.803  11.558  1.00  0.00    -0.037 C 
ENDROOT
BRANCH  10  11
HETATM   11  C11 UNL     1      -2.690   2.713  10.583  1.00  0.00     0.065 C 
BRANCH  11  12
HETATM   12  N1  UNL     1      -3.401   1.501  10.662  1.00  0.00    -0.288 NA
HETATM   13  C12 UNL     1      -2.482   0.412  11.061  1.00  0.00     0.121 C 
HETATM   14  C13 UNL     1      -3.256  -0.901  11.089  1.00  0.00     0.182 C 
HETATM   15  O2  UNL     1      -4.141  -0.938  12.153  1.00  0.00    -0.389 OA
HETATM   16  C14 UNL     1      -4.178   0.313  12.717  1.00  0.00     0.182 C 
HETATM   17  C15 UNL     1      -4.376   1.456  11.774  1.00  0.00     0.121 C 
ENDBRANCH  11  12
ENDBRANCH  10  11
BRANCH   9  18
HETATM   18  O1  UNL     1      -4.901   4.780  10.604  1.00  0.00    -0.391 OA
ATOM     19  H1  UNL     1      -4.676   4.546   9.711  1.00  0.00     0.210 HD
ENDBRANCH   9  18
TORSDOF 3
ENDMDL
MODEL 5
REMARK VINA RESULT: -6.763371860      2.722      4.842
REMARK  3 active torsions:
REMARK  status: ('A' for Active; 'I' for Inactive)
REMARK    1  A    between atoms: C9_9  and  O1_10 
REMARK    2  A    between atoms: C10_12  and  C11_13 
REMARK    3  A    between atoms: C11_13  and  N1_14 
ROOT
HETATM    1  C1  UNL     1      -5.194   4.288  15.132  1.00  0.00     0.015 C 
HETATM    2  C2  UNL     1      -4.398   5.005  14.063  1.00  0.00     0.014 C 
HETATM    3  C3  UNL     1      -3.896   6.248  14.662  1.00  0.00     0.014 C 
HETATM    4  C4  UNL     1      -2.476   6.598  14.469  1.00  0.00    -0.007 C 
HETATM    5  C5  UNL     1      -2.356   7.815  13.538  1.00  0.00     0.005 C 
HETATM    6  C6  UNL     1      -1.857   7.272  12.246  1.00  0.00     0.001 C 
HETATM    7  C7  UNL     1      -0.991   6.118  12.674  1.00  0.00     0.008 C 
HETATM    8  C8  UNL     1      -1.550   5.594  13.956  1.00  0.00     0.023 C 
HETATM    9  C9  UNL     1      -2.066   4.163  13.876  1.00  0.00     0.153 C 
HETATM   10  C10 UNL     1      -3.426   4.145  13.316  1.00  0.00    -0.037 C 
ENDROOT
BRANCH  10  11
HETATM   11  C11 UNL     1      -4.040   2.861  12.908  1.00  0.00     0.065 C 
BRANCH  11  12
HETATM   12  N1  UNL     1      -3.711   2.252  11.683  1.00  0.00    -0.288 NA
HETATM   13  C12 UNL     1      -2.945   1.012  11.935  1.00  0.00     0.121 C 
HETATM   14  C13 UNL     1      -2.551   0.395  10.598  1.00  0.00     0.182 C 
HETATM   15  O2  UNL     1      -3.652  -0.135   9.947  1.00  0.00    -0.389 OA
HETATM   16  C14 UNL     1      -4.777   0.253  10.631  1.00  0.00     0.182 C 
HETATM   17  C15 UNL     1      -4.880   1.708  10.958  1.00  0.00     0.121 C 
ENDBRANCH  11  12
ENDBRANCH  10  11
BRANCH   9  18
HETATM   18  O1  UNL     1      -1.103   3.582  13.043  1.00  0.00    -0.391 OA
ATOM     19  H1  UNL     1      -0.303   3.840  13.486  1.00  0.00     0.210 HD
ENDBRANCH   9  18
TORSDOF 3
ENDMDL
