MODEL 1
REMARK VINA RESULT: -5.796575738      0.000      0.000
REMARK  5 active torsions:
REMARK  status: ('A' for Active; 'I' for Inactive)
REMARK    1  A    between atoms: O1_2  and  C2_3 
REMARK    2  A    between atoms: C2_3  and  C3_4 
REMARK    3  A    between atoms: N1_10  and  C9_11 
REMARK    4  A    between atoms: C9_11  and  N2_13 
REMARK    5  A    between atoms: N2_13  and  C10_15 
ROOT
HETATM    1  C3  UNL     1      -3.859   1.279  13.879  1.00  0.00     0.110 C 
HETATM    2  C4  UNL     1      -4.257  -0.065  13.263  1.00  0.00     0.031 C 
HETATM    3  C5  UNL     1      -3.741  -0.128  11.843  1.00  0.00    -0.015 C 
HETATM    4  C6  UNL     1      -3.861  -1.558  11.378  1.00  0.00     0.010 C 
HETATM    5  C7  UNL     1      -4.608   0.808  11.007  1.00  0.00     0.024 C 
HETATM    6  C8  UNL     1      -4.990   2.038  11.839  1.00  0.00     0.126 C 
HETATM    7  N1  UNL     1      -3.995   2.304  12.845  1.00  0.00    -0.351 N 
ENDROOT
BRANCH   7   8
HETATM    8  C9  UNL     1      -3.186   3.458  12.868  1.00  0.00     0.170 C 
HETATM    9  S1  UNL     1      -3.857   4.932  13.261  1.00  0.00    -0.041 SA
BRANCH   8  10
HETATM   10  N2  UNL     1      -1.802   3.433  12.568  1.00  0.00    -0.359 N 
ATOM     11  H2  UNL     1      -1.135   3.491  13.339  1.00  0.00     0.162 HD
BRANCH  10  12
HETATM   12  C10 UNL     1      -1.294   3.330  11.226  1.00  0.00     0.021 C 
HETATM   13  C11 UNL     1       0.022   4.068  11.135  1.00  0.00     0.037 C 
HETATM   14  C12 UNL     1      -1.003   1.865  10.881  1.00  0.00     0.037 C 
HETATM   15  C13 UNL     1      -2.222   3.935  10.200  1.00  0.00     0.037 C 
ENDBRANCH  10  12
ENDBRANCH   8  10
ENDBRANCH   7   8
BRANCH   1  16
HETATM   16  C2  UNL     1      -4.831   1.522  15.015  1.00  0.00     0.192 C 
BRANCH  16  17
HETATM   17  O1  UNL     1      -5.278   0.353  15.602  1.00  0.00    -0.394 OA
HETATM   18  C1  UNL     1      -5.758   0.679  16.866  1.00  0.00     0.201 C 
ENDBRANCH  16  17
ENDBRANCH   1  16
TORSDOF 5
ENDMDL
MODEL 2
REMARK VINA RESULT: -5.796540406      1.958      3.314
REMARK  5 active torsions:
REMARK  status: ('A' for Active; 'I' for Inactive)
REMARK    1  A    between atoms: O1_2  and  C2_3 
REMARK    2  A    between atoms: C2_3  and  C3_4 
REMARK    3  A    between atoms: N1_10  and  C9_11 
REMARK    4  A    between atoms: C9_11  and  N2_13 
REMARK    5  A    between atoms: N2_13  and  C10_15 
ROOT
HETATM    1  C3  UNL     1      -4.807   1.823  14.663  1.00  0.00     0.110 C 
HETATM    2  C4  UNL     1      -5.417   2.986  15.451  1.00  0.00     0.031 C 
HETATM    3  C5  UNL     1      -5.386   4.232  14.594  1.00  0.00    -0.015 C 
HETATM    4  C6  UNL     1      -6.267   5.262  15.256  1.00  0.00     0.010 C 
HETATM    5  C7  UNL     1      -3.934   4.696  14.528  1.00  0.00     0.024 C 
HETATM    6  C8  UNL     1      -3.004   3.477  14.490  1.00  0.00     0.126 C 
HETATM    7  N1  UNL     1      -3.671   2.344  13.905  1.00  0.00    -0.351 N 
ENDROOT
BRANCH   7   8
HETATM    8  C9  UNL     1      -3.288   1.746  12.686  1.00  0.00     0.170 C 
HETATM    9  S1  UNL     1      -4.354   0.749  11.882  1.00  0.00    -0.041 SA
BRANCH   8  10
HETATM   10  N2  UNL     1      -2.018   1.952  12.094  1.00  0.00    -0.359 N 
ATOM     11  H2  UNL     1      -1.250   1.336  12.363  1.00  0.00     0.162 HD
BRANCH  10  12
HETATM   12  C10 UNL     1      -1.763   2.990  11.130  1.00  0.00     0.021 C 
HETATM   13  C11 UNL     1      -0.749   3.955  11.697  1.00  0.00     0.037 C 
HETATM   14  C12 UNL     1      -1.142   2.393   9.862  1.00  0.00     0.037 C 
HETATM   15  C13 UNL     1      -2.998   3.784  10.784  1.00  0.00     0.037 C 
ENDBRANCH  10  12
ENDBRANCH   8  10
ENDBRANCH   7   8
BRANCH   1  16
HETATM   16  C2  UNL     1      -4.354   0.812  15.695  1.00  0.00     0.192 C 
BRANCH  16  17
HETATM   17  O1  UNL     1      -5.343  -0.090  16.038  1.00  0.00    -0.394 OA
HETATM   18  C1  UNL     1      -5.808   0.262  17.301  1.00  0.00     0.201 C 
ENDBRANCH  16  17
ENDBRANCH   1  16
TORSDOF 5
ENDMDL
MODEL 3
REMARK VINA RESULT: -5.744776945      0.091      1.037
REMARK  5 active torsions:
REMARK  status: ('A' for Active; 'I' for Inactive)
REMARK    1  A    between atoms: O1_2  and  C2_3 
REMARK    2  A    between atoms: C2_3  and  C3_4 
REMARK    3  A    between atoms: N1_10  and  C9_11 
REMARK    4  A    between atoms: C9_11  and  N2_13 
REMARK    5  A    between atoms: N2_13  and  C10_15 
ROOT
HETATM    1  C3  UNL     1      -3.847   1.268  13.821  1.00  0.00     0.110 C 
HETATM    2  C4  UNL     1      -4.240  -0.088  13.228  1.00  0.00     0.031 C 
HETATM    3  C5  UNL     1      -3.743  -0.165  11.802  1.00  0.00    -0.015 C 
HETATM    4  C6  UNL     1      -3.857  -1.603  11.358  1.00  0.00     0.010 C 
HETATM    5  C7  UNL     1      -4.632   0.751  10.966  1.00  0.00     0.024 C 
HETATM    6  C8  UNL     1      -5.013   1.989  11.787  1.00  0.00     0.126 C 
HETATM    7  N1  UNL     1      -4.007   2.277  12.775  1.00  0.00    -0.351 N 
ENDROOT
BRANCH   7   8
HETATM    8  C9  UNL     1      -3.209   3.439  12.771  1.00  0.00     0.170 C 
HETATM    9  S1  UNL     1      -3.909   4.926  13.050  1.00  0.00    -0.041 SA
BRANCH   8  10
HETATM   10  N2  UNL     1      -1.812   3.412  12.537  1.00  0.00    -0.359 N 
ATOM     11  H2  UNL     1      -1.183   3.523  13.332  1.00  0.00     0.162 HD
BRANCH  10  12
HETATM   12  C10 UNL     1      -1.242   3.235  11.227  1.00  0.00     0.021 C 
HETATM   13  C11 UNL     1      -2.183   3.809  10.194  1.00  0.00     0.037 C 
HETATM   14  C12 UNL     1       0.071   4.017  11.111  1.00  0.00     0.037 C 
HETATM   15  C13 UNL     1      -1.019   1.784  10.877  1.00  0.00     0.037 C 
ENDBRANCH  10  12
ENDBRANCH   8  10
ENDBRANCH   7   8
BRANCH   1  16
HETATM   16  C2  UNL     1      -4.805   1.517  14.967  1.00  0.00     0.192 C 
BRANCH  16  17
HETATM   17  O1  UNL     1      -5.256   0.351  15.556  1.00  0.00    -0.394 OA
HETATM   18  C1  UNL     1      -5.681   0.671  16.841  1.00  0.00     0.201 C 
ENDBRANCH  16  17
ENDBRANCH   1  16
TORSDOF 5
ENDMDL
MODEL 4
REMARK VINA RESULT: -5.731158759      0.089      1.036
REMARK  5 active torsions:
REMARK  status: ('A' for Active; 'I' for Inactive)
REMARK    1  A    between atoms: O1_2  and  C2_3 
REMARK    2  A    between atoms: C2_3  and  C3_4 
REMARK    3  A    between atoms: N1_10  and  C9_11 
REMARK    4  A    between atoms: C9_11  and  N2_13 
REMARK    5  A    between atoms: N2_13  and  C10_15 
ROOT
HETATM    1  C3  UNL     1      -3.838   1.269  13.820  1.00  0.00     0.110 C 
HETATM    2  C4  UNL     1      -4.233  -0.086  13.228  1.00  0.00     0.031 C 
HETATM    3  C5  UNL     1      -3.736  -0.166  11.802  1.00  0.00    -0.015 C 
HETATM    4  C6  UNL     1      -3.851  -1.603  11.359  1.00  0.00     0.010 C 
HETATM    5  C7  UNL     1      -4.622   0.752  10.965  1.00  0.00     0.024 C 
HETATM    6  C8  UNL     1      -5.001   1.991  11.785  1.00  0.00     0.126 C 
HETATM    7  N1  UNL     1      -3.996   2.278  12.773  1.00  0.00    -0.351 N 
ENDROOT
BRANCH   7   8
HETATM    8  C9  UNL     1      -3.195   3.439  12.769  1.00  0.00     0.170 C 
HETATM    9  S1  UNL     1      -3.892   4.926  13.054  1.00  0.00    -0.041 SA
BRANCH   8  10
HETATM   10  N2  UNL     1      -1.799   3.410  12.531  1.00  0.00    -0.359 N 
ATOM     11  H2  UNL     1      -1.168   3.471  13.329  1.00  0.00     0.162 HD
BRANCH  10  12
HETATM   12  C10 UNL     1      -1.233   3.297  11.213  1.00  0.00     0.021 C 
HETATM   13  C11 UNL     1      -1.012   1.838  10.890  1.00  0.00     0.037 C 
HETATM   14  C12 UNL     1      -2.216   3.836  10.167  1.00  0.00     0.037 C 
HETATM   15  C13 UNL     1       0.099   3.994  11.086  1.00  0.00     0.037 C 
ENDBRANCH  10  12
ENDBRANCH   8  10
ENDBRANCH   7   8
BRANCH   1  16
HETATM   16  C2  UNL     1      -4.797   1.520  14.965  1.00  0.00     0.192 C 
BRANCH  16  17
HETATM   17  O1  UNL     1      -5.261   0.356  15.546  1.00  0.00    -0.394 OA
HETATM   18  C1  UNL     1      -5.654   0.665  16.844  1.00  0.00     0.201 C 
ENDBRANCH  16  17
ENDBRANCH   1  16
TORSDOF 5
ENDMDL
MODEL 5
REMARK VINA RESULT: -5.654417661      1.847      3.922
REMARK  5 active torsions:
REMARK  status: ('A' for Active; 'I' for Inactive)
REMARK    1  A    between atoms: O1_2  and  C2_3 
REMARK    2  A    between atoms: C2_3  and  C3_4 
REMARK    3  A    between atoms: N1_10  and  C9_11 
REMARK    4  A    between atoms: C9_11  and  N2_13 
REMARK    5  A    between atoms: N2_13  and  C10_15 
ROOT
HETATM    1  C3  UNL     1      -4.608   2.064  14.419  1.00  0.00     0.110 C 
HETATM    2  C4  UNL     1      -5.346   3.077  15.299  1.00  0.00     0.031 C 
HETATM    3  C5  UNL     1      -5.386   4.411  14.588  1.00  0.00    -0.015 C 
HETATM    4  C6  UNL     1      -6.377   5.285  15.315  1.00  0.00     0.010 C 
HETATM    5  C7  UNL     1      -3.977   4.993  14.647  1.00  0.00     0.024 C 
HETATM    6  C8  UNL     1      -2.946   3.865  14.520  1.00  0.00     0.126 C 
HETATM    7  N1  UNL     1      -3.490   2.757  13.781  1.00  0.00    -0.351 N 
ENDROOT
BRANCH   7   8
HETATM    8  C9  UNL     1      -3.009   2.335  12.524  1.00  0.00     0.170 C 
HETATM    9  S1  UNL     1      -2.648   3.466  11.354  1.00  0.00    -0.041 SA
BRANCH   8  10
HETATM   10  N2  UNL     1      -2.812   0.972  12.193  1.00  0.00    -0.359 N 
ATOM     11  H2  UNL     1      -1.976   0.502  12.542  1.00  0.00     0.162 HD
BRANCH  10  12
HETATM   12  C10 UNL     1      -3.738   0.221  11.388  1.00  0.00     0.021 C 
HETATM   13  C11 UNL     1      -3.062  -0.179  10.097  1.00  0.00     0.037 C 
HETATM   14  C12 UNL     1      -4.128  -1.078  12.102  1.00  0.00     0.037 C 
HETATM   15  C13 UNL     1      -4.973   1.010  11.024  1.00  0.00     0.037 C 
ENDBRANCH  10  12
ENDBRANCH   8  10
ENDBRANCH   7   8
BRANCH   1  16
HETATM   16  C2  UNL     1      -4.113   0.980  15.354  1.00  0.00     0.192 C 
BRANCH  16  17
HETATM   17  O1  UNL     1      -5.071   0.022  15.625  1.00  0.00    -0.394 OA
HETATM   18  C1  UNL     1      -5.563   0.274  16.902  1.00  0.00     0.201 C 
ENDBRANCH  16  17
ENDBRANCH   1  16
TORSDOF 5
ENDMDL
