MODEL 1
REMARK VINA RESULT: -6.397870247      0.000      0.000
REMARK  4 active torsions:
REMARK  status: ('A' for Active; 'I' for Inactive)
REMARK    1  A    between atoms: C2_2  and  N1_3 
REMARK    2  A    between atoms: N2_7  and  C6_8 
REMARK    3  A    between atoms: C6_8  and  N3_10 
REMARK    4  A    between atoms: N3_10  and  C7_12 
ROOT
HETATM    1  C6  UNL     1      -3.577   3.120  14.457  1.00  0.00     0.175 C 
HETATM    2  S1  UNL     1      -2.473   4.327  14.566  1.00  0.00    -0.041 SA
ENDROOT
BRANCH   1   3
HETATM    3  N2  UNL     1      -3.850   2.588  13.154  1.00  0.00    -0.320 N 
HETATM    4  C5  UNL     1      -4.487   3.491  12.211  1.00  0.00     0.134 C 
HETATM    5  C4  UNL     1      -4.580   2.844  10.858  1.00  0.00     0.040 C 
HETATM    6  C3  UNL     1      -5.094   1.431  11.075  1.00  0.00     0.125 C 
HETATM    7  N1  UNL     1      -4.083   0.672  11.715  1.00  0.00    -0.377 N 
HETATM    8  C11 UNL     1      -3.492   1.241  12.862  1.00  0.00     0.183 C 
BRANCH   7   9
HETATM    9  C2  UNL     1      -4.340  -0.737  11.774  1.00  0.00     0.119 C 
HETATM   10  C1  UNL     1      -3.205  -1.595  11.352  1.00  0.00     0.026 C 
ENDBRANCH   7   9
ENDBRANCH   1   3
BRANCH   1  11
HETATM   11  N3  UNL     1      -4.203   2.664  15.617  1.00  0.00    -0.360 N 
ATOM     12  H3  UNL     1      -3.770   2.843  16.523  1.00  0.00     0.162 HD
BRANCH  11  13
HETATM   13  C7  UNL     1      -5.450   1.947  15.559  1.00  0.00     0.109 C 
HETATM   14  C8  UNL     1      -6.555   2.532  16.371  1.00  0.00     0.053 C 
HETATM   15  C9  UNL     1      -7.247   1.343  16.950  1.00  0.00     0.169 C 
HETATM   16  O1  UNL     1      -6.594   0.205  16.574  1.00  0.00    -0.389 OA
HETATM   17  C10 UNL     1      -5.320   0.558  16.157  1.00  0.00     0.192 C 
ENDBRANCH  11  13
ENDBRANCH   1  11
TORSDOF 4
ENDMDL
MODEL 2
REMARK VINA RESULT: -6.251915046      2.393      4.920
REMARK  4 active torsions:
REMARK  status: ('A' for Active; 'I' for Inactive)
REMARK    1  A    between atoms: C2_2  and  N1_3 
REMARK    2  A    between atoms: N2_7  and  C6_8 
REMARK    3  A    between atoms: C6_8  and  N3_10 
REMARK    4  A    between atoms: N3_10  and  C7_12 
ROOT
HETATM    1  C6  UNL     1      -3.264   3.247  13.393  1.00  0.00     0.175 C 
HETATM    2  S1  UNL     1      -2.170   4.468  13.388  1.00  0.00    -0.041 SA
ENDROOT
BRANCH   1   3
HETATM    3  N2  UNL     1      -4.519   3.485  14.046  1.00  0.00    -0.320 N 
HETATM    4  C5  UNL     1      -5.109   4.798  13.848  1.00  0.00     0.134 C 
HETATM    5  C4  UNL     1      -6.474   4.850  14.471  1.00  0.00     0.040 C 
HETATM    6  C3  UNL     1      -6.357   4.234  15.854  1.00  0.00     0.125 C 
HETATM    7  N1  UNL     1      -6.131   2.842  15.714  1.00  0.00    -0.377 N 
HETATM    8  C11 UNL     1      -5.102   2.451  14.832  1.00  0.00     0.183 C 
BRANCH   7   9
HETATM    9  C2  UNL     1      -6.230   2.094  16.934  1.00  0.00     0.119 C 
HETATM   10  C1  UNL     1      -7.331   1.100  16.966  1.00  0.00     0.026 C 
ENDBRANCH   7   9
ENDBRANCH   1   3
BRANCH   1  11
HETATM   11  N3  UNL     1      -2.941   2.040  12.775  1.00  0.00    -0.360 N 
ATOM     12  H3  UNL     1      -2.322   1.384  13.252  1.00  0.00     0.162 HD
BRANCH  11  13
HETATM   13  C7  UNL     1      -3.463   1.703  11.477  1.00  0.00     0.109 C 
HETATM   14  C8  UNL     1      -4.848   1.151  11.476  1.00  0.00     0.053 C 
HETATM   15  C9  UNL     1      -4.808   0.073  10.444  1.00  0.00     0.169 C 
HETATM   16  O1  UNL     1      -3.542  -0.035   9.945  1.00  0.00    -0.389 OA
HETATM   17  C10 UNL     1      -2.674   0.574  10.837  1.00  0.00     0.192 C 
ENDBRANCH  11  13
ENDBRANCH   1  11
TORSDOF 4
ENDMDL
MODEL 3
REMARK VINA RESULT: -6.034720112      1.698      2.401
REMARK  4 active torsions:
REMARK  status: ('A' for Active; 'I' for Inactive)
REMARK    1  A    between atoms: C2_2  and  N1_3 
REMARK    2  A    between atoms: N2_7  and  C6_8 
REMARK    3  A    between atoms: C6_8  and  N3_10 
REMARK    4  A    between atoms: N3_10  and  C7_12 
ROOT
HETATM    1  C6  UNL     1      -3.609   2.248  14.638  1.00  0.00     0.175 C 
HETATM    2  S1  UNL     1      -3.169   3.817  14.815  1.00  0.00    -0.041 SA
ENDROOT
BRANCH   1   3
HETATM    3  N2  UNL     1      -3.658   1.720  13.305  1.00  0.00    -0.320 N 
HETATM    4  C5  UNL     1      -4.382   0.473  13.133  1.00  0.00     0.134 C 
HETATM    5  C4  UNL     1      -4.466   0.121  11.675  1.00  0.00     0.040 C 
HETATM    6  C3  UNL     1      -3.080   0.321  11.087  1.00  0.00     0.125 C 
HETATM    7  N1  UNL     1      -2.795   1.709  11.058  1.00  0.00    -0.377 N 
HETATM    8  C11 UNL     1      -3.012   2.428  12.252  1.00  0.00     0.183 C 
BRANCH   7   9
HETATM    9  C2  UNL     1      -1.619   2.062  10.317  1.00  0.00     0.119 C 
HETATM   10  C1  UNL     1      -0.655   2.919  11.052  1.00  0.00     0.026 C 
ENDBRANCH   7   9
ENDBRANCH   1   3
BRANCH   1  11
HETATM   11  N3  UNL     1      -3.920   1.495  15.770  1.00  0.00    -0.360 N 
ATOM     12  H3  UNL     1      -3.332   0.699  16.019  1.00  0.00     0.162 HD
BRANCH  11  13
HETATM   13  C7  UNL     1      -5.053   1.821  16.595  1.00  0.00     0.109 C 
HETATM   14  C8  UNL     1      -5.780   0.649  17.163  1.00  0.00     0.053 C 
HETATM   15  C9  UNL     1      -7.218   1.036  17.071  1.00  0.00     0.169 C 
HETATM   16  O1  UNL     1      -7.327   2.256  16.470  1.00  0.00    -0.389 OA
HETATM   17  C10 UNL     1      -6.144   2.509  15.794  1.00  0.00     0.192 C 
ENDBRANCH  11  13
ENDBRANCH   1  11
TORSDOF 4
ENDMDL
MODEL 4
REMARK VINA RESULT: -6.017871105      1.429      1.518
REMARK  4 active torsions:
REMARK  status: ('A' for Active; 'I' for Inactive)
REMARK    1  A    between atoms: C2_2  and  N1_3 
REMARK    2  A    between atoms: N2_7  and  C6_8 
REMARK    3  A    between atoms: C6_8  and  N3_10 
REMARK    4  A    between atoms: N3_10  and  C7_12 
ROOT
HETATM    1  C6  UNL     1      -4.285   3.599  14.167  1.00  0.00     0.175 C 
HETATM    2  S1  UNL     1      -4.965   5.060  13.867  1.00  0.00    -0.041 SA
ENDROOT
BRANCH   1   3
HETATM    3  N2  UNL     1      -3.417   3.055  13.163  1.00  0.00    -0.320 N 
HETATM    4  C5  UNL     1      -2.429   3.963  12.605  1.00  0.00     0.134 C 
HETATM    5  C4  UNL     1      -1.510   3.220  11.678  1.00  0.00     0.040 C 
HETATM    6  C3  UNL     1      -2.381   2.351  10.788  1.00  0.00     0.125 C 
HETATM    7  N1  UNL     1      -2.941   1.312  11.572  1.00  0.00    -0.377 N 
HETATM    8  C11 UNL     1      -3.566   1.692  12.778  1.00  0.00     0.183 C 
BRANCH   7   9
HETATM    9  C2  UNL     1      -3.598   0.283  10.821  1.00  0.00     0.119 C 
HETATM   10  C1  UNL     1      -3.240  -1.101  11.216  1.00  0.00     0.026 C 
ENDBRANCH   7   9
ENDBRANCH   1   3
BRANCH   1  11
HETATM   11  N3  UNL     1      -4.572   2.947  15.365  1.00  0.00    -0.360 N 
ATOM     12  H3  UNL     1      -3.960   3.086  16.170  1.00  0.00     0.162 HD
BRANCH  11  13
HETATM   13  C7  UNL     1      -5.715   2.082  15.489  1.00  0.00     0.109 C 
HETATM   14  C8  UNL     1      -6.707   2.487  16.525  1.00  0.00     0.053 C 
HETATM   15  C9  UNL     1      -7.135   1.197  17.142  1.00  0.00     0.169 C 
HETATM   16  O1  UNL     1      -6.437   0.168  16.579  1.00  0.00    -0.389 OA
HETATM   17  C10 UNL     1      -5.315   0.696  15.961  1.00  0.00     0.192 C 
ENDBRANCH  11  13
ENDBRANCH   1  11
TORSDOF 4
ENDMDL
MODEL 5
REMARK VINA RESULT: -5.849047940      2.892      5.193
REMARK  4 active torsions:
REMARK  status: ('A' for Active; 'I' for Inactive)
REMARK    1  A    between atoms: C2_2  and  N1_3 
REMARK    2  A    between atoms: N2_7  and  C6_8 
REMARK    3  A    between atoms: C6_8  and  N3_10 
REMARK    4  A    between atoms: N3_10  and  C7_12 
ROOT
HETATM    1  C6  UNL     1      -4.708   1.497  14.957  1.00  0.00     0.175 C 
HETATM    2  S1  UNL     1      -5.390   0.814  16.281  1.00  0.00    -0.041 SA
ENDROOT
BRANCH   1   3
HETATM    3  N2  UNL     1      -4.808   2.922  14.821  1.00  0.00    -0.320 N 
HETATM    4  C5  UNL     1      -6.137   3.451  14.565  1.00  0.00     0.134 C 
HETATM    5  C4  UNL     1      -6.108   4.953  14.588  1.00  0.00     0.040 C 
HETATM    6  C3  UNL     1      -4.908   5.388  13.764  1.00  0.00     0.125 C 
HETATM    7  N1  UNL     1      -3.725   5.042  14.465  1.00  0.00    -0.377 N 
HETATM    8  C11 UNL     1      -3.634   3.718  14.942  1.00  0.00     0.183 C 
BRANCH   7   9
HETATM    9  C2  UNL     1      -2.522   5.597  13.917  1.00  0.00     0.119 C 
HETATM   10  C1  UNL     1      -2.232   6.990  14.337  1.00  0.00     0.026 C 
ENDBRANCH   7   9
ENDBRANCH   1   3
BRANCH   1  11
HETATM   11  N3  UNL     1      -4.068   0.683  14.023  1.00  0.00    -0.360 N 
ATOM     12  H3  UNL     1      -3.390  -0.009  14.344  1.00  0.00     0.162 HD
BRANCH  11  13
HETATM   13  C7  UNL     1      -4.345   0.801  12.616  1.00  0.00     0.109 C 
HETATM   14  C8  UNL     1      -4.322  -0.482  11.857  1.00  0.00     0.053 C 
HETATM   15  C9  UNL     1      -3.669  -0.126  10.563  1.00  0.00     0.169 C 
HETATM   16  O1  UNL     1      -3.300   1.188  10.584  1.00  0.00    -0.389 OA
HETATM   17  C10 UNL     1      -3.274   1.607  11.904  1.00  0.00     0.192 C 
ENDBRANCH  11  13
ENDBRANCH   1  11
TORSDOF 4
ENDMDL
