MODEL 1
REMARK VINA RESULT: -7.361682134      0.000      0.000
REMARK  15 active torsions:
REMARK  status: ('A' for Active; 'I' for Inactive)
REMARK    1  A    between atoms: C3_3  and  C4_4 
REMARK    2  A    between atoms: C4_4  and  N1_5 
REMARK    3  A    between atoms: N1_5  and  C5_8 
REMARK    4  A    between atoms: C5_8  and  C6_9 
REMARK    5  A    between atoms: C6_9  and  C7_10 
REMARK    6  A    between atoms: C7_10  and  N2_11 
REMARK    7  A    between atoms: N2_11  and  C8_14 
REMARK    8  A    between atoms: C8_14  and  C9_15 
REMARK    9  A    between atoms: C9_15  and  C10_16 
REMARK   10  A    between atoms: C10_16  and  N3_17 
REMARK   11  A    between atoms: N3_17  and  C11_19 
REMARK   12  A    between atoms: C12_22  and  N5_23 
REMARK   13  A    between atoms: N5_23  and  C13_25 
REMARK   14  A    between atoms: C13_25  and  C14_26 
REMARK   15  A    between atoms: C14_26  and  O1_27 
ROOT
HETATM    1  C1  UNL     1       8.057  40.545  -3.366  1.00  0.00     0.013 C 
HETATM    2  C2  UNL     1       8.918  39.729  -3.136  1.00  0.00    -0.106 C 
HETATM    3  C3  UNL     1       9.962  38.707  -2.869  1.00  0.00     0.046 C 
HETATM    4  C18 UNL     1      10.780  39.218  -1.736  1.00  0.00     0.024 C 
HETATM    5  C19 UNL     1      10.102  38.652  -0.517  1.00  0.00     0.002 C 
HETATM    6  C20 UNL     1       9.575  37.291  -0.940  1.00  0.00     0.002 C 
HETATM    7  C21 UNL     1       9.305  37.443  -2.434  1.00  0.00     0.024 C 
ENDROOT
BRANCH   3   8
HETATM    8  C4  UNL     1      10.748  38.588  -4.158  1.00  0.00     0.254 C 
BRANCH   8   9
HETATM    9  N1  UNL     1      11.208  39.849  -4.645  1.00  0.00    -0.073 N 
ATOM     10  H12 UNL     1      10.669  40.629  -4.268  1.00  0.00     0.277 HD
ATOM     11  H11 UNL     1      12.119  40.102  -4.262  1.00  0.00     0.277 HD
BRANCH   9  12
HETATM   12  C5  UNL     1      11.208  39.834  -6.091  1.00  0.00     0.234 C 
BRANCH  12  13
HETATM   13  C6  UNL     1      11.762  38.542  -6.657  1.00  0.00     0.055 C 
BRANCH  13  14
HETATM   14  C7  UNL     1      12.672  38.850  -7.855  1.00  0.00     0.233 C 
BRANCH  14  15
HETATM   15  N2  UNL     1      13.776  37.943  -7.894  1.00  0.00    -0.075 N 
ATOM     16  H22 UNL     1      14.499  38.197  -7.220  1.00  0.00     0.277 HD
ATOM     17  H21 UNL     1      13.529  37.029  -7.516  1.00  0.00     0.277 HD
BRANCH  15  18
HETATM   18  C8  UNL     1      14.296  37.847  -9.214  1.00  0.00     0.234 C 
BRANCH  18  19
HETATM   19  C9  UNL     1      13.260  37.993 -10.301  1.00  0.00     0.047 C 
BRANCH  19  20
HETATM   20  C10 UNL     1      13.372  36.834 -11.302  1.00  0.00     0.123 C 
BRANCH  20  21
HETATM   21  N3  UNL     1      13.465  37.318 -12.637  1.00  0.00    -0.374 N 
ATOM     22  H3  UNL     1      12.870  38.115 -12.866  1.00  0.00     0.161 HD
BRANCH  21  23
HETATM   23  C11 UNL     1      14.199  36.880 -13.580  1.00  0.00     0.147 A 
HETATM   24  N4  UNL     1      13.622  36.165 -14.595  1.00  0.00    -0.174 N 
HETATM   25  C12 UNL     1      14.303  35.660 -15.633  1.00  0.00     0.685 A 
ATOM     26  H4  UNL     1      12.616  36.006 -14.559  1.00  0.00     0.186 HD
HETATM   27  N6  UNL     1      15.669  35.920 -15.606  1.00  0.00    -0.174 N 
HETATM   28  C15 UNL     1      16.260  36.612 -14.636  1.00  0.00     0.152 A 
ATOM     29  H6  UNL     1      16.246  35.564 -16.368  1.00  0.00     0.186 HD
HETATM   30  N7  UNL     1      17.560  36.978 -14.415  1.00  0.00    -0.336 N 
HETATM   31  C17 UNL     1      15.552  37.125 -13.576  1.00  0.00     0.123 A 
HETATM   32  C16 UNL     1      17.608  37.676 -13.272  1.00  0.00     0.182 A 
ATOM     33  H7  UNL     1      18.355  36.757 -15.015  1.00  0.00     0.168 HD
HETATM   34  N8  UNL     1      16.381  37.777 -12.741  1.00  0.00    -0.346 N 
ATOM     35  H8  UNL     1      16.126  38.253 -11.875  1.00  0.00     0.167 HD
BRANCH  25  36
HETATM   36  N5  UNL     1      13.856  35.003 -16.589  1.00  0.00    -0.203 N 
ATOM     37  H5  UNL     1      12.856  34.857 -16.448  1.00  0.00     0.183 HD
BRANCH  36  38
HETATM   38  C13 UNL     1      14.224  34.412 -17.753  1.00  0.00     0.105 C 
BRANCH  38  39
HETATM   39  C14 UNL     1      15.080  33.165 -17.759  1.00  0.00     0.209 C 
BRANCH  39  40
HETATM   40  O1  UNL     1      16.421  33.520 -17.429  1.00  0.00    -0.396 OA
ATOM     41  H1  UNL     1      16.775  32.872 -16.831  1.00  0.00     0.209 HD
ENDBRANCH  39  40
ENDBRANCH  38  39
ENDBRANCH  36  38
ENDBRANCH  25  36
ENDBRANCH  21  23
ENDBRANCH  20  21
ENDBRANCH  19  20
ENDBRANCH  18  19
ENDBRANCH  15  18
ENDBRANCH  14  15
ENDBRANCH  13  14
ENDBRANCH  12  13
ENDBRANCH   9  12
ENDBRANCH   8   9
ENDBRANCH   3   8
TORSDOF 15
ENDMDL
MODEL 2
REMARK VINA RESULT: -7.092816839      1.196      1.284
REMARK  15 active torsions:
REMARK  status: ('A' for Active; 'I' for Inactive)
REMARK    1  A    between atoms: C3_3  and  C4_4 
REMARK    2  A    between atoms: C4_4  and  N1_5 
REMARK    3  A    between atoms: N1_5  and  C5_8 
REMARK    4  A    between atoms: C5_8  and  C6_9 
REMARK    5  A    between atoms: C6_9  and  C7_10 
REMARK    6  A    between atoms: C7_10  and  N2_11 
REMARK    7  A    between atoms: N2_11  and  C8_14 
REMARK    8  A    between atoms: C8_14  and  C9_15 
REMARK    9  A    between atoms: C9_15  and  C10_16 
REMARK   10  A    between atoms: C10_16  and  N3_17 
REMARK   11  A    between atoms: N3_17  and  C11_19 
REMARK   12  A    between atoms: C12_22  and  N5_23 
REMARK   13  A    between atoms: N5_23  and  C13_25 
REMARK   14  A    between atoms: C13_25  and  C14_26 
REMARK   15  A    between atoms: C14_26  and  O1_27 
ROOT
HETATM    1  C1  UNL     1       8.352  41.020  -3.164  1.00  0.00     0.013 C 
HETATM    2  C2  UNL     1       8.987  40.018  -2.937  1.00  0.00    -0.106 C 
HETATM    3  C3  UNL     1       9.746  38.770  -2.665  1.00  0.00     0.046 C 
HETATM    4  C18 UNL     1      10.926  39.157  -1.845  1.00  0.00     0.024 C 
HETATM    5  C19 UNL     1      10.441  39.014  -0.427  1.00  0.00     0.002 C 
HETATM    6  C20 UNL     1       9.476  37.839  -0.443  1.00  0.00     0.002 C 
HETATM    7  C21 UNL     1       8.898  37.851  -1.855  1.00  0.00     0.024 C 
ENDROOT
BRANCH   3   8
HETATM    8  C4  UNL     1      10.127  38.226  -4.027  1.00  0.00     0.254 C 
BRANCH   8   9
HETATM    9  N1  UNL     1      11.446  38.604  -4.425  1.00  0.00    -0.073 N 
ATOM     10  H12 UNL     1      11.731  39.496  -4.021  1.00  0.00     0.277 HD
ATOM     11  H11 UNL     1      12.161  38.015  -3.999  1.00  0.00     0.277 HD
BRANCH   9  12
HETATM   12  C5  UNL     1      11.528  38.606  -5.869  1.00  0.00     0.234 C 
BRANCH  12  13
HETATM   13  C6  UNL     1      11.523  40.007  -6.448  1.00  0.00     0.055 C 
BRANCH  13  14
HETATM   14  C7  UNL     1      12.589  40.118  -7.547  1.00  0.00     0.233 C 
BRANCH  14  15
HETATM   15  N2  UNL     1      12.390  39.115  -8.545  1.00  0.00    -0.075 N 
ATOM     16  H22 UNL     1      11.724  38.405  -8.240  1.00  0.00     0.277 HD
ATOM     17  H21 UNL     1      11.873  39.476  -9.346  1.00  0.00     0.277 HD
BRANCH  15  18
HETATM   18  C8  UNL     1      13.632  38.542  -8.932  1.00  0.00     0.234 C 
BRANCH  18  19
HETATM   19  C9  UNL     1      13.713  38.162 -10.391  1.00  0.00     0.047 C 
BRANCH  19  20
HETATM   20  C10 UNL     1      14.194  36.711 -10.537  1.00  0.00     0.123 C 
BRANCH  20  21
HETATM   21  N3  UNL     1      15.400  36.645 -11.289  1.00  0.00    -0.374 N 
ATOM     22  H3  UNL     1      16.245  36.433 -10.759  1.00  0.00     0.161 HD
BRANCH  21  23
HETATM   23  C11 UNL     1      15.553  36.819 -12.540  1.00  0.00     0.147 A 
HETATM   24  N4  UNL     1      14.804  36.077 -13.413  1.00  0.00    -0.174 N 
HETATM   25  C12 UNL     1      14.889  36.182 -14.746  1.00  0.00     0.685 A 
ATOM     26  H4  UNL     1      14.143  35.404 -13.026  1.00  0.00     0.186 HD
HETATM   27  N6  UNL     1      15.813  37.121 -15.192  1.00  0.00    -0.174 N 
HETATM   28  C15 UNL     1      16.556  37.859 -14.371  1.00  0.00     0.152 A 
ATOM     29  H6  UNL     1      15.927  37.250 -16.197  1.00  0.00     0.186 HD
HETATM   30  N7  UNL     1      17.506  38.820 -14.588  1.00  0.00    -0.336 N 
HETATM   31  C17 UNL     1      16.461  37.742 -13.005  1.00  0.00     0.123 A 
HETATM   32  C16 UNL     1      17.946  39.247 -13.396  1.00  0.00     0.182 A 
ATOM     33  H7  UNL     1      17.823  39.153 -15.498  1.00  0.00     0.168 HD
HETATM   34  N8  UNL     1      17.315  38.594 -12.410  1.00  0.00    -0.346 N 
ATOM     35  H8  UNL     1      17.454  38.719 -11.407  1.00  0.00     0.167 HD
BRANCH  25  36
HETATM   36  N5  UNL     1      14.248  35.547 -15.601  1.00  0.00    -0.203 N 
ATOM     37  H5  UNL     1      13.385  35.205 -15.178  1.00  0.00     0.183 HD
BRANCH  36  38
HETATM   38  C13 UNL     1      14.287  35.148 -16.898  1.00  0.00     0.105 C 
BRANCH  38  39
HETATM   39  C14 UNL     1      15.474  34.386 -17.445  1.00  0.00     0.209 C 
BRANCH  39  40
HETATM   40  O1  UNL     1      16.549  35.297 -17.664  1.00  0.00    -0.396 OA
ATOM     41  H1  UNL     1      17.218  34.867 -18.183  1.00  0.00     0.209 HD
ENDBRANCH  39  40
ENDBRANCH  38  39
ENDBRANCH  36  38
ENDBRANCH  25  36
ENDBRANCH  21  23
ENDBRANCH  20  21
ENDBRANCH  19  20
ENDBRANCH  18  19
ENDBRANCH  15  18
ENDBRANCH  14  15
ENDBRANCH  13  14
ENDBRANCH  12  13
ENDBRANCH   9  12
ENDBRANCH   8   9
ENDBRANCH   3   8
TORSDOF 15
ENDMDL
MODEL 3
REMARK VINA RESULT: -7.077845867      2.340      3.931
REMARK  15 active torsions:
REMARK  status: ('A' for Active; 'I' for Inactive)
REMARK    1  A    between atoms: C3_3  and  C4_4 
REMARK    2  A    between atoms: C4_4  and  N1_5 
REMARK    3  A    between atoms: N1_5  and  C5_8 
REMARK    4  A    between atoms: C5_8  and  C6_9 
REMARK    5  A    between atoms: C6_9  and  C7_10 
REMARK    6  A    between atoms: C7_10  and  N2_11 
REMARK    7  A    between atoms: N2_11  and  C8_14 
REMARK    8  A    between atoms: C8_14  and  C9_15 
REMARK    9  A    between atoms: C9_15  and  C10_16 
REMARK   10  A    between atoms: C10_16  and  N3_17 
REMARK   11  A    between atoms: N3_17  and  C11_19 
REMARK   12  A    between atoms: C12_22  and  N5_23 
REMARK   13  A    between atoms: N5_23  and  C13_25 
REMARK   14  A    between atoms: C13_25  and  C14_26 
REMARK   15  A    between atoms: C14_26  and  O1_27 
ROOT
HETATM    1  C1  UNL     1       8.553  41.117  -2.898  1.00  0.00     0.013 C 
HETATM    2  C2  UNL     1       9.113  40.074  -2.654  1.00  0.00    -0.106 C 
HETATM    3  C3  UNL     1       9.779  38.779  -2.362  1.00  0.00     0.046 C 
HETATM    4  C18 UNL     1      10.919  39.079  -1.455  1.00  0.00     0.024 C 
HETATM    5  C19 UNL     1      10.330  38.936  -0.076  1.00  0.00     0.002 C 
HETATM    6  C20 UNL     1       9.304  37.821  -0.187  1.00  0.00     0.002 C 
HETATM    7  C21 UNL     1       8.826  37.895  -1.634  1.00  0.00     0.024 C 
ENDROOT
BRANCH   3   8
HETATM    8  C4  UNL     1      10.221  38.242  -3.708  1.00  0.00     0.254 C 
BRANCH   8   9
HETATM    9  N1  UNL     1      11.410  38.869  -4.191  1.00  0.00    -0.073 N 
ATOM     10  H12 UNL     1      11.459  39.855  -3.932  1.00  0.00     0.277 HD
ATOM     11  H11 UNL     1      12.243  38.547  -3.699  1.00  0.00     0.277 HD
BRANCH   9  12
HETATM   12  C5  UNL     1      11.508  38.673  -5.620  1.00  0.00     0.234 C 
BRANCH  12  13
HETATM   13  C6  UNL     1      11.346  39.966  -6.395  1.00  0.00     0.055 C 
BRANCH  13  14
HETATM   14  C7  UNL     1      12.344  39.999  -7.562  1.00  0.00     0.233 C 
BRANCH  14  15
HETATM   15  N2  UNL     1      12.136  38.885  -8.433  1.00  0.00    -0.075 N 
ATOM     16  H22 UNL     1      11.588  38.151  -7.986  1.00  0.00     0.277 HD
ATOM     17  H21 UNL     1      11.495  39.113  -9.193  1.00  0.00     0.277 HD
BRANCH  15  18
HETATM   18  C8  UNL     1      13.378  38.394  -8.920  1.00  0.00     0.234 C 
BRANCH  18  19
HETATM   19  C9  UNL     1      13.277  37.622 -10.213  1.00  0.00     0.047 C 
BRANCH  19  20
HETATM   20  C10 UNL     1      14.491  36.694 -10.375  1.00  0.00     0.123 C 
BRANCH  20  21
HETATM   21  N3  UNL     1      14.722  36.390 -11.745  1.00  0.00    -0.374 N 
ATOM     22  H3  UNL     1      14.236  35.569 -12.109  1.00  0.00     0.161 HD
BRANCH  21  23
HETATM   23  C11 UNL     1      15.459  37.014 -12.574  1.00  0.00     0.147 A 
HETATM   24  N4  UNL     1      16.314  37.977 -12.110  1.00  0.00    -0.174 N 
HETATM   25  C12 UNL     1      17.131  38.691 -12.896  1.00  0.00     0.685 A 
ATOM     26  H4  UNL     1      16.330  38.163 -11.107  1.00  0.00     0.186 HD
HETATM   27  N6  UNL     1      17.048  38.377 -14.248  1.00  0.00    -0.174 N 
HETATM   28  C15 UNL     1      16.229  37.447 -14.731  1.00  0.00     0.152 A 
ATOM     29  H6  UNL     1      17.645  38.885 -14.901  1.00  0.00     0.186 HD
HETATM   30  N7  UNL     1      15.990  36.987 -15.998  1.00  0.00    -0.336 N 
HETATM   31  C17 UNL     1      15.395  36.721 -13.916  1.00  0.00     0.123 A 
HETATM   32  C16 UNL     1      15.054  36.030 -15.923  1.00  0.00     0.182 A 
ATOM     33  H7  UNL     1      16.445  37.314 -16.850  1.00  0.00     0.168 HD
HETATM   34  N8  UNL     1      14.675  35.853 -14.649  1.00  0.00    -0.346 N 
ATOM     35  H8  UNL     1      13.980  35.191 -14.304  1.00  0.00     0.167 HD
BRANCH  25  36
HETATM   36  N5  UNL     1      17.932  39.578 -12.554  1.00  0.00    -0.203 N 
ATOM     37  H5  UNL     1      18.873  39.296 -12.830  1.00  0.00     0.183 HD
BRANCH  36  38
HETATM   38  C13 UNL     1      18.000  40.788 -11.943  1.00  0.00     0.105 C 
BRANCH  38  39
HETATM   39  C14 UNL     1      16.821  41.343 -11.177  1.00  0.00     0.209 C 
BRANCH  39  40
HETATM   40  O1  UNL     1      16.428  40.400 -10.181  1.00  0.00    -0.396 OA
ATOM     41  H1  UNL     1      15.481  40.400 -10.111  1.00  0.00     0.209 HD
ENDBRANCH  39  40
ENDBRANCH  38  39
ENDBRANCH  36  38
ENDBRANCH  25  36
ENDBRANCH  21  23
ENDBRANCH  20  21
ENDBRANCH  19  20
ENDBRANCH  18  19
ENDBRANCH  15  18
ENDBRANCH  14  15
ENDBRANCH  13  14
ENDBRANCH  12  13
ENDBRANCH   9  12
ENDBRANCH   8   9
ENDBRANCH   3   8
TORSDOF 15
ENDMDL
MODEL 4
REMARK VINA RESULT: -7.031361998      4.151     10.926
REMARK  15 active torsions:
REMARK  status: ('A' for Active; 'I' for Inactive)
REMARK    1  A    between atoms: C3_3  and  C4_4 
REMARK    2  A    between atoms: C4_4  and  N1_5 
REMARK    3  A    between atoms: N1_5  and  C5_8 
REMARK    4  A    between atoms: C5_8  and  C6_9 
REMARK    5  A    between atoms: C6_9  and  C7_10 
REMARK    6  A    between atoms: C7_10  and  N2_11 
REMARK    7  A    between atoms: N2_11  and  C8_14 
REMARK    8  A    between atoms: C8_14  and  C9_15 
REMARK    9  A    between atoms: C9_15  and  C10_16 
REMARK   10  A    between atoms: C10_16  and  N3_17 
REMARK   11  A    between atoms: N3_17  and  C11_19 
REMARK   12  A    between atoms: C12_22  and  N5_23 
REMARK   13  A    between atoms: N5_23  and  C13_25 
REMARK   14  A    between atoms: C13_25  and  C14_26 
REMARK   15  A    between atoms: C14_26  and  O1_27 
ROOT
HETATM    1  C1  UNL     1      14.306  36.750 -15.844  1.00  0.00     0.013 C 
HETATM    2  C2  UNL     1      14.496  37.125 -14.711  1.00  0.00    -0.106 C 
HETATM    3  C3  UNL     1      14.756  37.584 -13.322  1.00  0.00     0.046 C 
HETATM    4  C18 UNL     1      13.479  37.432 -12.575  1.00  0.00     0.024 C 
HETATM    5  C19 UNL     1      13.565  36.046 -11.992  1.00  0.00     0.002 C 
HETATM    6  C20 UNL     1      15.035  35.831 -11.672  1.00  0.00     0.002 C 
HETATM    7  C21 UNL     1      15.770  36.690 -12.696  1.00  0.00     0.024 C 
ENDROOT
BRANCH   3   8
HETATM    8  C4  UNL     1      15.196  39.028 -13.452  1.00  0.00     0.254 C 
BRANCH   8   9
HETATM    9  N1  UNL     1      14.147  39.888 -13.899  1.00  0.00    -0.073 N 
ATOM     10  H12 UNL     1      14.043  39.875 -14.914  1.00  0.00     0.277 HD
ATOM     11  H11 UNL     1      13.224  39.532 -13.653  1.00  0.00     0.277 HD
BRANCH   9  12
HETATM   12  C5  UNL     1      14.372  41.223 -13.389  1.00  0.00     0.234 C 
BRANCH  12  13
HETATM   13  C6  UNL     1      14.924  41.219 -11.978  1.00  0.00     0.055 C 
BRANCH  13  14
HETATM   14  C7  UNL     1      13.782  41.426 -10.973  1.00  0.00     0.233 C 
BRANCH  14  15
HETATM   15  N2  UNL     1      13.445  40.193 -10.334  1.00  0.00    -0.075 N 
ATOM     16  H22 UNL     1      12.716  40.318  -9.631  1.00  0.00     0.277 HD
ATOM     17  H21 UNL     1      12.944  39.565 -10.962  1.00  0.00     0.277 HD
BRANCH  15  18
HETATM   18  C8  UNL     1      14.605  39.580  -9.788  1.00  0.00     0.234 C 
BRANCH  18  19
HETATM   19  C9  UNL     1      14.344  38.267  -9.091  1.00  0.00     0.047 C 
BRANCH  19  20
HETATM   20  C10 UNL     1      12.921  38.246  -8.512  1.00  0.00     0.123 C 
BRANCH  20  21
HETATM   21  N3  UNL     1      12.946  38.322  -7.092  1.00  0.00    -0.374 N 
ATOM     22  H3  UNL     1      13.746  37.885  -6.635  1.00  0.00     0.161 HD
BRANCH  21  23
HETATM   23  C11 UNL     1      12.093  38.869  -6.321  1.00  0.00     0.147 A 
HETATM   24  N4  UNL     1      11.624  38.167  -5.243  1.00  0.00    -0.174 N 
HETATM   25  C12 UNL     1      10.727  38.649  -4.373  1.00  0.00     0.685 A 
ATOM     26  H4  UNL     1      11.977  37.223  -5.095  1.00  0.00     0.186 HD
HETATM   27  N6  UNL     1      10.296  39.943  -4.647  1.00  0.00    -0.174 N 
HETATM   28  C15 UNL     1      10.732  40.651  -5.685  1.00  0.00     0.152 A 
ATOM     29  H6  UNL     1       9.612  40.369  -4.022  1.00  0.00     0.186 HD
HETATM   30  N7  UNL     1      10.449  41.913  -6.133  1.00  0.00    -0.336 N 
HETATM   31  C17 UNL     1      11.652  40.147  -6.572  1.00  0.00     0.123 A 
HETATM   32  C16 UNL     1      11.175  42.135  -7.238  1.00  0.00     0.182 A 
ATOM     33  H7  UNL     1       9.798  42.570  -5.703  1.00  0.00     0.168 HD
HETATM   34  N8  UNL     1      11.922  41.059  -7.523  1.00  0.00    -0.346 N 
ATOM     35  H8  UNL     1      12.567  40.952  -8.307  1.00  0.00     0.167 HD
BRANCH  25  36
HETATM   36  N5  UNL     1      10.253  38.078  -3.375  1.00  0.00    -0.203 N 
ATOM     37  H5  UNL     1       9.660  37.310  -3.687  1.00  0.00     0.183 HD
BRANCH  36  38
HETATM   38  C13 UNL     1      10.245  38.115  -2.018  1.00  0.00     0.105 C 
BRANCH  38  39
HETATM   39  C14 UNL     1      11.203  39.001  -1.255  1.00  0.00     0.209 C 
BRANCH  39  40
HETATM   40  O1  UNL     1      10.712  40.340  -1.273  1.00  0.00    -0.396 OA
ATOM     41  H1  UNL     1      11.246  40.858  -1.862  1.00  0.00     0.209 HD
ENDBRANCH  39  40
ENDBRANCH  38  39
ENDBRANCH  36  38
ENDBRANCH  25  36
ENDBRANCH  21  23
ENDBRANCH  20  21
ENDBRANCH  19  20
ENDBRANCH  18  19
ENDBRANCH  15  18
ENDBRANCH  14  15
ENDBRANCH  13  14
ENDBRANCH  12  13
ENDBRANCH   9  12
ENDBRANCH   8   9
ENDBRANCH   3   8
TORSDOF 15
ENDMDL
MODEL 5
REMARK VINA RESULT: -6.969362520      4.070     10.481
REMARK  15 active torsions:
REMARK  status: ('A' for Active; 'I' for Inactive)
REMARK    1  A    between atoms: C3_3  and  C4_4 
REMARK    2  A    between atoms: C4_4  and  N1_5 
REMARK    3  A    between atoms: N1_5  and  C5_8 
REMARK    4  A    between atoms: C5_8  and  C6_9 
REMARK    5  A    between atoms: C6_9  and  C7_10 
REMARK    6  A    between atoms: C7_10  and  N2_11 
REMARK    7  A    between atoms: N2_11  and  C8_14 
REMARK    8  A    between atoms: C8_14  and  C9_15 
REMARK    9  A    between atoms: C9_15  and  C10_16 
REMARK   10  A    between atoms: C10_16  and  N3_17 
REMARK   11  A    between atoms: N3_17  and  C11_19 
REMARK   12  A    between atoms: C12_22  and  N5_23 
REMARK   13  A    between atoms: N5_23  and  C13_25 
REMARK   14  A    between atoms: C13_25  and  C14_26 
REMARK   15  A    between atoms: C14_26  and  O1_27 
ROOT
HETATM    1  C1  UNL     1      13.208  35.976 -12.448  1.00  0.00     0.013 C 
HETATM    2  C2  UNL     1      13.979  36.790 -12.899  1.00  0.00    -0.106 C 
HETATM    3  C3  UNL     1      14.909  37.810 -13.448  1.00  0.00     0.046 C 
HETATM    4  C18 UNL     1      15.916  37.078 -14.262  1.00  0.00     0.024 C 
HETATM    5  C19 UNL     1      15.322  37.067 -15.646  1.00  0.00     0.002 C 
HETATM    6  C20 UNL     1      14.578  38.386 -15.779  1.00  0.00     0.002 C 
HETATM    7  C21 UNL     1      14.153  38.721 -14.352  1.00  0.00     0.024 C 
ENDROOT
BRANCH   3   8
HETATM    8  C4  UNL     1      15.512  38.496 -12.239  1.00  0.00     0.254 C 
BRANCH   8   9
HETATM    9  N1  UNL     1      15.157  39.876 -12.150  1.00  0.00    -0.073 N 
ATOM     10  H12 UNL     1      14.771  40.233 -13.025  1.00  0.00     0.277 HD
ATOM     11  H11 UNL     1      14.340  40.027 -11.558  1.00  0.00     0.277 HD
BRANCH   9  12
HETATM   12  C5  UNL     1      16.302  40.639 -11.706  1.00  0.00     0.234 C 
BRANCH  12  13
HETATM   13  C6  UNL     1      16.218  41.010 -10.239  1.00  0.00     0.055 C 
BRANCH  13  14
HETATM   14  C7  UNL     1      15.132  42.076 -10.036  1.00  0.00     0.233 C 
BRANCH  14  15
HETATM   15  N2  UNL     1      15.319  42.755  -8.792  1.00  0.00    -0.075 N 
ATOM     16  H22 UNL     1      15.907  42.220  -8.154  1.00  0.00     0.277 HD
ATOM     17  H21 UNL     1      15.915  43.577  -8.896  1.00  0.00     0.277 HD
BRANCH  15  18
HETATM   18  C8  UNL     1      14.065  43.081  -8.208  1.00  0.00     0.234 C 
BRANCH  18  19
HETATM   19  C9  UNL     1      12.940  43.239  -9.201  1.00  0.00     0.047 C 
BRANCH  19  20
HETATM   20  C10 UNL     1      11.631  42.688  -8.615  1.00  0.00     0.123 C 
BRANCH  20  21
HETATM   21  N3  UNL     1      11.561  41.275  -8.761  1.00  0.00    -0.374 N 
ATOM     22  H3  UNL     1      11.282  40.934  -9.682  1.00  0.00     0.161 HD
BRANCH  21  23
HETATM   23  C11 UNL     1      11.802  40.383  -7.886  1.00  0.00     0.147 A 
HETATM   24  N4  UNL     1      11.180  40.458  -6.669  1.00  0.00    -0.174 N 
HETATM   25  C12 UNL     1      11.364  39.572  -5.681  1.00  0.00     0.685 A 
ATOM     26  H4  UNL     1      10.539  41.233  -6.505  1.00  0.00     0.186 HD
HETATM   27  N6  UNL     1      12.253  38.547  -5.985  1.00  0.00    -0.174 N 
HETATM   28  C15 UNL     1      12.874  38.444  -7.157  1.00  0.00     0.152 A 
ATOM     29  H6  UNL     1      12.438  37.839  -5.275  1.00  0.00     0.186 HD
HETATM   30  N7  UNL     1      13.768  37.538  -7.659  1.00  0.00    -0.336 N 
HETATM   31  C17 UNL     1      12.678  39.359  -8.163  1.00  0.00     0.123 A 
HETATM   32  C16 UNL     1      14.081  37.910  -8.908  1.00  0.00     0.182 A 
ATOM     33  H7  UNL     1      14.134  36.723  -7.168  1.00  0.00     0.168 HD
HETATM   34  N8  UNL     1      13.419  39.029  -9.237  1.00  0.00    -0.346 N 
ATOM     35  H8  UNL     1      13.468  39.531 -10.124  1.00  0.00     0.167 HD
BRANCH  25  36
HETATM   36  N5  UNL     1      10.840  39.571  -4.554  1.00  0.00    -0.203 N 
ATOM     37  H5  UNL     1      10.830  40.525  -4.194  1.00  0.00     0.183 HD
BRANCH  36  38
HETATM   38  C13 UNL     1      10.275  38.751  -3.631  1.00  0.00     0.105 C 
BRANCH  38  39
HETATM   39  C14 UNL     1      10.578  38.907  -2.158  1.00  0.00     0.209 C 
BRANCH  39  40
HETATM   40  O1  UNL     1      11.896  39.431  -2.008  1.00  0.00    -0.396 OA
ATOM     41  H1  UNL     1      12.467  39.022  -2.648  1.00  0.00     0.209 HD
ENDBRANCH  39  40
ENDBRANCH  38  39
ENDBRANCH  36  38
ENDBRANCH  25  36
ENDBRANCH  21  23
ENDBRANCH  20  21
ENDBRANCH  19  20
ENDBRANCH  18  19
ENDBRANCH  15  18
ENDBRANCH  14  15
ENDBRANCH  13  14
ENDBRANCH  12  13
ENDBRANCH   9  12
ENDBRANCH   8   9
ENDBRANCH   3   8
TORSDOF 15
ENDMDL
