MODEL 1
REMARK VINA RESULT: -6.935917420      0.000      0.000
REMARK  14 active torsions:
REMARK  status: ('A' for Active; 'I' for Inactive)
REMARK    1  A    between atoms: N1_1  and  C1_4 
REMARK    2  A    between atoms: C2_7  and  C3_8 
REMARK    3  A    between atoms: C3_8  and  C4_9 
REMARK    4  A    between atoms: C4_9  and  C5_10 
REMARK    5  A    between atoms: C5_10  and  C6_11 
REMARK    6  A    between atoms: C6_11  and  N3_12 
REMARK    7  A    between atoms: C12_20  and  C13_21 
REMARK    8  A    between atoms: C13_21  and  O1_22 
REMARK    9  A    between atoms: C14_24  and  C15_25 
REMARK   10  A    between atoms: C15_25  and  S1_26 
REMARK   11  A    between atoms: S1_26  and  C16_27 
REMARK   12  A    between atoms: C16_27  and  C17_28 
REMARK   13  A    between atoms: C17_28  and  C18_29 
REMARK   14  A    between atoms: C18_29  and  N5_30 
ROOT
HETATM    1  C1  UNL     1      14.126  38.250  -8.975  1.00  0.00     0.106 A 
HETATM    2  N2  UNL     1      13.378  37.961  -7.861  1.00  0.00    -0.346 N 
ATOM      3  H2  UNL     1      13.397  37.014  -7.483  1.00  0.00     0.167 HD
HETATM    4  C2  UNL     1      12.642  38.866  -7.274  1.00  0.00     0.011 A 
HETATM    5  C11 UNL     1      12.609  40.184  -7.768  1.00  0.00     0.035 A 
HETATM    6  C12 UNL     1      13.350  40.508  -8.886  1.00  0.00    -0.022 A 
HETATM    7  C14 UNL     1      14.088  39.574  -9.503  1.00  0.00     0.003 A 
ENDROOT
BRANCH   4   8
HETATM    8  C3  UNL     1      11.694  38.673  -6.154  1.00  0.00     0.057 C 
BRANCH   8   9
HETATM    9  C4  UNL     1      11.102  40.011  -5.793  1.00  0.00     0.007 C 
BRANCH   9  10
HETATM   10  C5  UNL     1      10.053  39.794  -4.690  1.00  0.00     0.020 C 
BRANCH  10  11
HETATM   11  C6  UNL     1      10.166  38.426  -4.104  1.00  0.00     0.117 C 
BRANCH  11  12
HETATM   12  N3  UNL     1      10.064  38.389  -2.698  1.00  0.00    -0.409 N 
HETATM   13  C7  UNL     1       9.536  37.221  -2.076  1.00  0.00     0.136 C 
HETATM   14  C8  UNL     1       9.210  37.580  -0.642  1.00  0.00     0.133 C 
HETATM   15  N4  UNL     1      10.114  38.530  -0.055  1.00  0.00    -0.418 N 
HETATM   16  C9  UNL     1      10.268  39.759  -0.789  1.00  0.00     0.133 C 
ATOM     17  H4  UNL     1      10.611  38.347   0.816  1.00  0.00     0.153 HD
HETATM   18  C10 UNL     1       9.537  39.604  -2.110  1.00  0.00     0.136 C 
ENDBRANCH  11  12
ENDBRANCH  10  11
ENDBRANCH   9  10
ENDBRANCH   8   9
ENDBRANCH   4   8
BRANCH   1  19
HETATM   19  N1  UNL     1      14.899  37.426  -9.501  1.00  0.00    -0.385 N 
ATOM     20  H12 UNL     1      14.601  36.452  -9.561  1.00  0.00     0.157 HD
ATOM     21  H11 UNL     1      15.785  37.695  -9.928  1.00  0.00     0.157 HD
ENDBRANCH   1  19
BRANCH   6  22
HETATM   22  C13 UNL     1      13.486  41.941  -9.275  1.00  0.00     0.203 C 
BRANCH  22  23
HETATM   23  O1  UNL     1      12.219  42.318  -9.935  1.00  0.00    -0.396 OA
ATOM     24  H1  UNL     1      12.386  42.300 -10.870  1.00  0.00     0.209 HD
ENDBRANCH  22  23
ENDBRANCH   6  22
BRANCH   7  25
HETATM   25  C15 UNL     1      14.930  39.806 -10.728  1.00  0.00     0.116 C 
BRANCH  25  26
HETATM   26  S1  UNL     1      14.189  39.735 -12.258  1.00  0.00    -0.164 SA
BRANCH  26  27
HETATM   27  C16 UNL     1      14.707  39.510 -13.865  1.00  0.00     0.076 C 
BRANCH  27  28
HETATM   28  C17 UNL     1      14.384  38.029 -14.370  1.00  0.00     0.030 C 
BRANCH  28  29
HETATM   29  C18 UNL     1      15.210  37.177 -13.421  1.00  0.00     0.122 C 
BRANCH  29  30
HETATM   30  N5  UNL     1      14.612  35.892 -13.258  1.00  0.00    -0.367 N 
HETATM   31  C19 UNL     1      13.662  35.542 -12.459  1.00  0.00     0.196 C 
HETATM   32  N6  UNL     1      13.215  34.229 -12.452  1.00  0.00    -0.067 NA
HETATM   33  N7  UNL     1      13.035  36.479 -11.553  1.00  0.00    -0.067 NA
ATOM     34  H5  UNL     1      14.985  35.152 -13.853  1.00  0.00     0.161 HD
ENDBRANCH  29  30
ENDBRANCH  28  29
ENDBRANCH  27  28
ENDBRANCH  26  27
ENDBRANCH  25  26
ENDBRANCH   7  25
TORSDOF 14
ENDMDL
MODEL 2
REMARK VINA RESULT: -6.817747779      1.661      2.302
REMARK  14 active torsions:
REMARK  status: ('A' for Active; 'I' for Inactive)
REMARK    1  A    between atoms: N1_1  and  C1_4 
REMARK    2  A    between atoms: C2_7  and  C3_8 
REMARK    3  A    between atoms: C3_8  and  C4_9 
REMARK    4  A    between atoms: C4_9  and  C5_10 
REMARK    5  A    between atoms: C5_10  and  C6_11 
REMARK    6  A    between atoms: C6_11  and  N3_12 
REMARK    7  A    between atoms: C12_20  and  C13_21 
REMARK    8  A    between atoms: C13_21  and  O1_22 
REMARK    9  A    between atoms: C14_24  and  C15_25 
REMARK   10  A    between atoms: C15_25  and  S1_26 
REMARK   11  A    between atoms: S1_26  and  C16_27 
REMARK   12  A    between atoms: C16_27  and  C17_28 
REMARK   13  A    between atoms: C17_28  and  C18_29 
REMARK   14  A    between atoms: C18_29  and  N5_30 
ROOT
HETATM    1  C1  UNL     1      13.015  40.949  -8.408  1.00  0.00     0.106 A 
HETATM    2  N2  UNL     1      12.159  40.597  -7.395  1.00  0.00    -0.346 N 
ATOM      3  H2  UNL     1      11.638  41.327  -6.908  1.00  0.00     0.167 HD
HETATM    4  C2  UNL     1      11.995  39.351  -7.036  1.00  0.00     0.011 A 
HETATM    5  C11 UNL     1      12.690  38.324  -7.700  1.00  0.00     0.035 A 
HETATM    6  C12 UNL     1      13.559  38.644  -8.724  1.00  0.00    -0.022 A 
HETATM    7  C14 UNL     1      13.746  39.923  -9.077  1.00  0.00     0.003 A 
ENDROOT
BRANCH   4   8
HETATM    8  C3  UNL     1      11.212  38.837  -5.891  1.00  0.00     0.057 C 
BRANCH   8   9
HETATM    9  C4  UNL     1      10.574  40.007  -5.185  1.00  0.00     0.007 C 
BRANCH   9  10
HETATM   10  C5  UNL     1       9.528  39.463  -4.198  1.00  0.00     0.020 C 
BRANCH  10  11
HETATM   11  C6  UNL     1      10.017  38.223  -3.526  1.00  0.00     0.117 C 
BRANCH  11  12
HETATM   12  N3  UNL     1       9.721  38.157  -2.149  1.00  0.00    -0.409 N 
HETATM   13  C7  UNL     1      10.133  39.228  -1.304  1.00  0.00     0.136 C 
HETATM   14  C8  UNL     1      10.017  38.746   0.127  1.00  0.00     0.133 C 
HETATM   15  N4  UNL     1       8.918  37.847   0.354  1.00  0.00    -0.418 N 
HETATM   16  C9  UNL     1       8.892  36.689  -0.500  1.00  0.00     0.133 C 
ATOM     17  H4  UNL     1       8.211  38.018   1.069  1.00  0.00     0.153 HD
HETATM   18  C10 UNL     1       9.974  36.863  -1.549  1.00  0.00     0.136 C 
ENDBRANCH  11  12
ENDBRANCH  10  11
ENDBRANCH   9  10
ENDBRANCH   8   9
ENDBRANCH   4   8
BRANCH   1  19
HETATM   19  N1  UNL     1      13.125  42.120  -8.822  1.00  0.00    -0.385 N 
ATOM     20  H12 UNL     1      12.517  42.834  -8.421  1.00  0.00     0.157 HD
ATOM     21  H11 UNL     1      13.837  42.402  -9.495  1.00  0.00     0.157 HD
ENDBRANCH   1  19
BRANCH   6  22
HETATM   22  C13 UNL     1      14.123  37.549  -9.564  1.00  0.00     0.203 C 
BRANCH  22  23
HETATM   23  O1  UNL     1      13.033  37.098 -10.454  1.00  0.00    -0.396 OA
ATOM     24  H1  UNL     1      13.287  36.243 -10.779  1.00  0.00     0.209 HD
ENDBRANCH  22  23
ENDBRANCH   6  22
BRANCH   7  25
HETATM   25  C15 UNL     1      14.667  40.394 -10.170  1.00  0.00     0.116 C 
BRANCH  25  26
HETATM   26  S1  UNL     1      14.142  40.289 -11.785  1.00  0.00    -0.164 SA
BRANCH  26  27
HETATM   27  C16 UNL     1      14.469  39.283 -13.120  1.00  0.00     0.076 C 
BRANCH  27  28
HETATM   28  C17 UNL     1      15.819  38.457 -12.900  1.00  0.00     0.030 C 
BRANCH  28  29
HETATM   29  C18 UNL     1      15.564  37.198 -13.710  1.00  0.00     0.122 C 
BRANCH  29  30
HETATM   30  N5  UNL     1      14.757  36.284 -12.969  1.00  0.00    -0.367 N 
HETATM   31  C19 UNL     1      13.655  35.716 -13.321  1.00  0.00     0.196 C 
HETATM   32  N6  UNL     1      13.017  34.848 -12.448  1.00  0.00    -0.067 NA
HETATM   33  N7  UNL     1      13.046  35.953 -14.611  1.00  0.00    -0.067 NA
ATOM     34  H5  UNL     1      15.099  36.049 -12.037  1.00  0.00     0.161 HD
ENDBRANCH  29  30
ENDBRANCH  28  29
ENDBRANCH  27  28
ENDBRANCH  26  27
ENDBRANCH  25  26
ENDBRANCH   7  25
TORSDOF 14
ENDMDL
MODEL 3
REMARK VINA RESULT: -6.671534209      2.859      9.339
REMARK  14 active torsions:
REMARK  status: ('A' for Active; 'I' for Inactive)
REMARK    1  A    between atoms: N1_1  and  C1_4 
REMARK    2  A    between atoms: C2_7  and  C3_8 
REMARK    3  A    between atoms: C3_8  and  C4_9 
REMARK    4  A    between atoms: C4_9  and  C5_10 
REMARK    5  A    between atoms: C5_10  and  C6_11 
REMARK    6  A    between atoms: C6_11  and  N3_12 
REMARK    7  A    between atoms: C12_20  and  C13_21 
REMARK    8  A    between atoms: C13_21  and  O1_22 
REMARK    9  A    between atoms: C14_24  and  C15_25 
REMARK   10  A    between atoms: C15_25  and  S1_26 
REMARK   11  A    between atoms: S1_26  and  C16_27 
REMARK   12  A    between atoms: C16_27  and  C17_28 
REMARK   13  A    between atoms: C17_28  and  C18_29 
REMARK   14  A    between atoms: C18_29  and  N5_30 
ROOT
HETATM    1  C1  UNL     1      13.806  37.956 -10.476  1.00  0.00     0.106 A 
HETATM    2  N2  UNL     1      13.573  36.923 -11.349  1.00  0.00    -0.346 N 
ATOM      3  H2  UNL     1      13.321  36.007 -10.978  1.00  0.00     0.167 HD
HETATM    4  C2  UNL     1      13.667  37.083 -12.642  1.00  0.00     0.011 A 
HETATM    5  C11 UNL     1      13.999  38.340 -13.179  1.00  0.00     0.035 A 
HETATM    6  C12 UNL     1      14.238  39.401 -12.329  1.00  0.00    -0.022 A 
HETATM    7  C14 UNL     1      14.165  39.232 -11.002  1.00  0.00     0.003 A 
ENDROOT
BRANCH   4   8
HETATM    8  C3  UNL     1      13.571  36.042 -13.690  1.00  0.00     0.057 C 
BRANCH   8   9
HETATM    9  C4  UNL     1      13.782  36.695 -15.032  1.00  0.00     0.007 C 
BRANCH   9  10
HETATM   10  C5  UNL     1      14.855  35.899 -15.793  1.00  0.00     0.020 C 
BRANCH  10  11
HETATM   11  C6  UNL     1      16.003  36.773 -16.174  1.00  0.00     0.117 C 
BRANCH  11  12
HETATM   12  N3  UNL     1      16.611  37.436 -15.088  1.00  0.00    -0.409 N 
HETATM   13  C7  UNL     1      17.117  38.753 -15.281  1.00  0.00     0.136 C 
HETATM   14  C8  UNL     1      18.009  39.073 -14.100  1.00  0.00     0.133 C 
HETATM   15  N4  UNL     1      17.569  38.496 -12.860  1.00  0.00    -0.418 N 
HETATM   16  C9  UNL     1      17.373  37.070 -12.886  1.00  0.00     0.133 C 
ATOM     17  H4  UNL     1      17.407  39.055 -12.023  1.00  0.00     0.153 HD
HETATM   18  C10 UNL     1      17.523  36.609 -14.325  1.00  0.00     0.136 C 
ENDBRANCH  11  12
ENDBRANCH  10  11
ENDBRANCH   9  10
ENDBRANCH   8   9
ENDBRANCH   4   8
BRANCH   1  19
HETATM   19  N1  UNL     1      13.641  37.849  -9.245  1.00  0.00    -0.385 N 
ATOM     20  H12 UNL     1      12.849  38.330  -8.819  1.00  0.00     0.157 HD
ATOM     21  H11 UNL     1      14.225  37.252  -8.660  1.00  0.00     0.157 HD
ENDBRANCH   1  19
BRANCH   6  22
HETATM   22  C13 UNL     1      14.373  40.771 -12.900  1.00  0.00     0.203 C 
BRANCH  22  23
HETATM   23  O1  UNL     1      14.183  40.639 -14.360  1.00  0.00    -0.396 OA
ATOM     24  H1  UNL     1      13.595  41.338 -14.619  1.00  0.00     0.209 HD
ENDBRANCH  22  23
ENDBRANCH   6  22
BRANCH   7  25
HETATM   25  C15 UNL     1      14.409  40.308  -9.978  1.00  0.00     0.116 C 
BRANCH  25  26
HETATM   26  S1  UNL     1      13.166  41.421  -9.647  1.00  0.00    -0.164 SA
BRANCH  26  27
HETATM   27  C16 UNL     1      12.752  42.453  -8.356  1.00  0.00     0.076 C 
BRANCH  27  28
HETATM   28  C17 UNL     1      12.847  41.687  -6.957  1.00  0.00     0.030 C 
BRANCH  28  29
HETATM   29  C18 UNL     1      11.389  41.379  -6.658  1.00  0.00     0.122 C 
BRANCH  29  30
HETATM   30  N5  UNL     1      11.287  40.256  -5.785  1.00  0.00    -0.367 N 
HETATM   31  C19 UNL     1      11.167  39.009  -6.089  1.00  0.00     0.196 C 
HETATM   32  N6  UNL     1      11.083  38.058  -5.083  1.00  0.00    -0.067 NA
HETATM   33  N7  UNL     1      11.113  38.554  -7.461  1.00  0.00    -0.067 NA
ATOM     34  H5  UNL     1      11.313  40.468  -4.788  1.00  0.00     0.161 HD
ENDBRANCH  29  30
ENDBRANCH  28  29
ENDBRANCH  27  28
ENDBRANCH  26  27
ENDBRANCH  25  26
ENDBRANCH   7  25
TORSDOF 14
ENDMDL
MODEL 4
REMARK VINA RESULT: -6.651124712      1.474      2.179
REMARK  14 active torsions:
REMARK  status: ('A' for Active; 'I' for Inactive)
REMARK    1  A    between atoms: N1_1  and  C1_4 
REMARK    2  A    between atoms: C2_7  and  C3_8 
REMARK    3  A    between atoms: C3_8  and  C4_9 
REMARK    4  A    between atoms: C4_9  and  C5_10 
REMARK    5  A    between atoms: C5_10  and  C6_11 
REMARK    6  A    between atoms: C6_11  and  N3_12 
REMARK    7  A    between atoms: C12_20  and  C13_21 
REMARK    8  A    between atoms: C13_21  and  O1_22 
REMARK    9  A    between atoms: C14_24  and  C15_25 
REMARK   10  A    between atoms: C15_25  and  S1_26 
REMARK   11  A    between atoms: S1_26  and  C16_27 
REMARK   12  A    between atoms: C16_27  and  C17_28 
REMARK   13  A    between atoms: C17_28  and  C18_29 
REMARK   14  A    between atoms: C18_29  and  N5_30 
ROOT
HETATM    1  C1  UNL     1      13.787  38.229  -8.441  1.00  0.00     0.106 A 
HETATM    2  N2  UNL     1      13.111  37.974  -7.274  1.00  0.00    -0.346 N 
ATOM      3  H2  UNL     1      13.332  37.130  -6.746  1.00  0.00     0.167 HD
HETATM    4  C2  UNL     1      12.191  38.785  -6.823  1.00  0.00     0.011 A 
HETATM    5  C11 UNL     1      11.878  39.963  -7.524  1.00  0.00     0.035 A 
HETATM    6  C12 UNL     1      12.539  40.250  -8.701  1.00  0.00    -0.022 A 
HETATM    7  C14 UNL     1      13.466  39.407  -9.178  1.00  0.00     0.003 A 
ENDROOT
BRANCH   4   8
HETATM    8  C3  UNL     1      11.299  38.580  -5.660  1.00  0.00     0.057 C 
BRANCH   8   9
HETATM    9  C4  UNL     1      10.717  39.913  -5.265  1.00  0.00     0.007 C 
BRANCH   9  10
HETATM   10  C5  UNL     1       9.700  39.680  -4.135  1.00  0.00     0.020 C 
BRANCH  10  11
HETATM   11  C6  UNL     1       9.793  38.287  -3.607  1.00  0.00     0.117 C 
BRANCH  11  12
HETATM   12  N3  UNL     1       9.567  38.178  -2.220  1.00  0.00    -0.409 N 
HETATM   13  C7  UNL     1      10.011  39.228  -1.365  1.00  0.00     0.136 C 
HETATM   14  C8  UNL     1       9.971  38.703   0.055  1.00  0.00     0.133 C 
HETATM   15  N4  UNL     1       8.895  37.786   0.310  1.00  0.00    -0.418 N 
HETATM   16  C9  UNL     1       8.836  36.653  -0.576  1.00  0.00     0.133 C 
ATOM     17  H4  UNL     1       8.222  37.928   1.063  1.00  0.00     0.153 HD
HETATM   18  C10 UNL     1       9.863  36.869  -1.673  1.00  0.00     0.136 C 
ENDBRANCH  11  12
ENDBRANCH  10  11
ENDBRANCH   9  10
ENDBRANCH   8   9
ENDBRANCH   4   8
BRANCH   1  19
HETATM   19  N1  UNL     1      14.725  37.514  -8.847  1.00  0.00    -0.385 N 
ATOM     20  H12 UNL     1      14.868  36.606  -8.404  1.00  0.00     0.157 HD
ATOM     21  H11 UNL     1      15.310  37.772  -9.641  1.00  0.00     0.157 HD
ENDBRANCH   1  19
BRANCH   6  22
HETATM   22  C13 UNL     1      12.364  41.593  -9.323  1.00  0.00     0.203 C 
BRANCH  22  23
HETATM   23  O1  UNL     1      10.918  41.896  -9.267  1.00  0.00    -0.396 OA
ATOM     24  H1  UNL     1      10.827  42.816  -9.482  1.00  0.00     0.209 HD
ENDBRANCH  22  23
ENDBRANCH   6  22
BRANCH   7  25
HETATM   25  C15 UNL     1      14.248  39.608 -10.447  1.00  0.00     0.116 C 
BRANCH  25  26
HETATM   26  S1  UNL     1      13.959  38.566 -11.761  1.00  0.00    -0.164 SA
BRANCH  26  27
HETATM   27  C16 UNL     1      14.706  37.185 -12.421  1.00  0.00     0.076 C 
BRANCH  27  28
HETATM   28  C17 UNL     1      13.680  35.963 -12.506  1.00  0.00     0.030 C 
BRANCH  28  29
HETATM   29  C18 UNL     1      13.264  35.991 -13.967  1.00  0.00     0.122 C 
BRANCH  29  30
HETATM   30  N5  UNL     1      14.384  35.720 -14.808  1.00  0.00    -0.367 N 
HETATM   31  C19 UNL     1      14.462  35.794 -16.093  1.00  0.00     0.196 C 
HETATM   32  N6  UNL     1      15.655  35.489 -16.731  1.00  0.00    -0.067 NA
HETATM   33  N7  UNL     1      13.335  36.189 -16.910  1.00  0.00    -0.067 NA
ATOM     34  H5  UNL     1      15.236  35.430 -14.329  1.00  0.00     0.161 HD
ENDBRANCH  29  30
ENDBRANCH  28  29
ENDBRANCH  27  28
ENDBRANCH  26  27
ENDBRANCH  25  26
ENDBRANCH   7  25
TORSDOF 14
ENDMDL
MODEL 5
REMARK VINA RESULT: -6.647528370      3.388      4.881
REMARK  14 active torsions:
REMARK  status: ('A' for Active; 'I' for Inactive)
REMARK    1  A    between atoms: N1_1  and  C1_4 
REMARK    2  A    between atoms: C2_7  and  C3_8 
REMARK    3  A    between atoms: C3_8  and  C4_9 
REMARK    4  A    between atoms: C4_9  and  C5_10 
REMARK    5  A    between atoms: C5_10  and  C6_11 
REMARK    6  A    between atoms: C6_11  and  N3_12 
REMARK    7  A    between atoms: C12_20  and  C13_21 
REMARK    8  A    between atoms: C13_21  and  O1_22 
REMARK    9  A    between atoms: C14_24  and  C15_25 
REMARK   10  A    between atoms: C15_25  and  S1_26 
REMARK   11  A    between atoms: S1_26  and  C16_27 
REMARK   12  A    between atoms: C16_27  and  C17_28 
REMARK   13  A    between atoms: C17_28  and  C18_29 
REMARK   14  A    between atoms: C18_29  and  N5_30 
ROOT
HETATM    1  C1  UNL     1      12.127  41.045  -8.771  1.00  0.00     0.106 A 
HETATM    2  N2  UNL     1      11.490  40.655  -7.620  1.00  0.00    -0.346 N 
ATOM      3  H2  UNL     1      10.886  41.319  -7.137  1.00  0.00     0.167 HD
HETATM    4  C2  UNL     1      11.640  39.455  -7.126  1.00  0.00     0.011 A 
HETATM    5  C11 UNL     1      12.457  38.515  -7.780  1.00  0.00     0.035 A 
HETATM    6  C12 UNL     1      13.112  38.875  -8.940  1.00  0.00    -0.022 A 
HETATM    7  C14 UNL     1      12.978  40.113  -9.436  1.00  0.00     0.003 A 
ENDROOT
BRANCH   4   8
HETATM    8  C3  UNL     1      11.124  38.938  -5.839  1.00  0.00     0.057 C 
BRANCH   8   9
HETATM    9  C4  UNL     1      10.469  40.074  -5.096  1.00  0.00     0.007 C 
BRANCH   9  10
HETATM   10  C5  UNL     1       9.406  39.485  -4.153  1.00  0.00     0.020 C 
BRANCH  10  11
HETATM   11  C6  UNL     1       9.903  38.242  -3.493  1.00  0.00     0.117 C 
BRANCH  11  12
HETATM   12  N3  UNL     1       9.658  38.187  -2.105  1.00  0.00    -0.409 N 
HETATM   13  C7  UNL     1      10.169  39.225  -1.273  1.00  0.00     0.136 C 
HETATM   14  C8  UNL     1      10.078  38.743   0.159  1.00  0.00     0.133 C 
HETATM   15  N4  UNL     1       8.935  37.914   0.426  1.00  0.00    -0.418 N 
HETATM   16  C9  UNL     1       8.802  36.765  -0.430  1.00  0.00     0.133 C 
ATOM     17  H4  UNL     1       8.268  38.124   1.168  1.00  0.00     0.153 HD
HETATM   18  C10 UNL     1       9.852  36.876  -1.520  1.00  0.00     0.136 C 
ENDBRANCH  11  12
ENDBRANCH  10  11
ENDBRANCH   9  10
ENDBRANCH   8   9
ENDBRANCH   4   8
BRANCH   1  19
HETATM   19  N1  UNL     1      11.934  42.155  -9.305  1.00  0.00    -0.385 N 
ATOM     20  H12 UNL     1      11.510  42.895  -8.746  1.00  0.00     0.157 HD
ATOM     21  H11 UNL     1      12.240  42.371 -10.254  1.00  0.00     0.157 HD
ENDBRANCH   1  19
BRANCH   6  22
HETATM   22  C13 UNL     1      13.796  37.821  -9.743  1.00  0.00     0.203 C 
BRANCH  22  23
HETATM   23  O1  UNL     1      14.861  37.263  -8.883  1.00  0.00    -0.396 OA
ATOM     24  H1  UNL     1      14.427  36.890  -8.125  1.00  0.00     0.209 HD
ENDBRANCH  22  23
ENDBRANCH   6  22
BRANCH   7  25
HETATM   25  C15 UNL     1      13.643  40.623 -10.686  1.00  0.00     0.116 C 
BRANCH  25  26
HETATM   26  S1  UNL     1      15.251  41.171 -10.594  1.00  0.00    -0.164 SA
BRANCH  26  27
HETATM   27  C16 UNL     1      16.095  42.582 -11.035  1.00  0.00     0.076 C 
BRANCH  27  28
HETATM   28  C17 UNL     1      17.279  42.888 -10.008  1.00  0.00     0.030 C 
BRANCH  28  29
HETATM   29  C18 UNL     1      16.759  44.111  -9.270  1.00  0.00     0.122 C 
BRANCH  29  30
HETATM   30  N5  UNL     1      16.103  43.723  -8.065  1.00  0.00    -0.367 N 
HETATM   31  C19 UNL     1      14.855  43.831  -7.757  1.00  0.00     0.196 C 
HETATM   32  N6  UNL     1      14.409  43.388  -6.521  1.00  0.00    -0.067 NA
HETATM   33  N7  UNL     1      13.887  44.407  -8.664  1.00  0.00    -0.067 NA
ATOM     34  H5  UNL     1      16.700  43.304  -7.352  1.00  0.00     0.161 HD
ENDBRANCH  29  30
ENDBRANCH  28  29
ENDBRANCH  27  28
ENDBRANCH  26  27
ENDBRANCH  25  26
ENDBRANCH   7  25
TORSDOF 14
ENDMDL
