MODEL 1
REMARK VINA RESULT: -7.797799423      0.000      0.000
REMARK  13 active torsions:
REMARK  status: ('A' for Active; 'I' for Inactive)
REMARK    1  A    between atoms: C2_2  and  C3_3 
REMARK    2  A    between atoms: C3_3  and  N1_4 
REMARK    3  A    between atoms: C7_14  and  C8_15 
REMARK    4  A    between atoms: C8_15  and  C9_16 
REMARK    5  A    between atoms: C9_16  and  C10_17 
REMARK       I    between atoms: C10_17  and  N5_19 
REMARK    6  A    between atoms: N5_19  and  C11_21 
REMARK    7  A    between atoms: C11_21  and  C12_22 
REMARK    8  A    between atoms: C11_21  and  C16_30 
REMARK    9  A    between atoms: C12_22  and  C13_23 
REMARK   10  A    between atoms: C13_23  and  C14_24 
REMARK   11  A    between atoms: C14_24  and  C15_25 
REMARK   12  A    between atoms: C15_25  and  N6_26 
REMARK   13  A    between atoms: C16_30  and  C17_31 
ROOT
HETATM    1  C8  UNL     1      11.142  38.974  -7.179  1.00  0.00     0.052 C 
ENDROOT
BRANCH   1   2
HETATM    2  C7  UNL     1      11.896  40.058  -7.835  1.00  0.00     0.003 A 
HETATM    3  C6  UNL     1      11.828  41.399  -7.489  1.00  0.00     0.125 A 
HETATM    4  N3  UNL     1      12.660  42.046  -8.320  1.00  0.00    -0.330 N 
HETATM    5  N4  UNL     1      11.027  41.975  -6.448  1.00  0.00    -0.082 NA
HETATM    6  C5  UNL     1      13.259  41.205  -9.182  1.00  0.00     0.127 A 
ATOM      7  H3  UNL     1      12.819  43.054  -8.301  1.00  0.00     0.168 HD
HETATM    8  N2  UNL     1      14.154  41.358 -10.186  1.00  0.00    -0.293 N 
HETATM    9  C18 UNL     1      12.782  39.948  -8.882  1.00  0.00     0.086 A 
HETATM   10  C4  UNL     1      14.613  40.336 -10.922  1.00  0.00     0.331 A 
ATOM     11  H2  UNL     1      14.496  42.296 -10.393  1.00  0.00     0.172 HD
HETATM   12  N1  UNL     1      14.158  39.101 -10.643  1.00  0.00    -0.266 N 
HETATM   13  O1  UNL     1      15.458  40.530 -11.861  1.00  0.00    -0.246 OA
HETATM   14  C19 UNL     1      13.267  38.892  -9.655  1.00  0.00     0.266 A 
HETATM   15  O4  UNL     1      12.807  37.762  -9.346  1.00  0.00    -0.267 OA
BRANCH  12  16
HETATM   16  C3  UNL     1      14.632  37.986 -11.402  1.00  0.00     0.137 C 
BRANCH  16  17
HETATM   17  C2  UNL     1      13.764  37.529 -12.514  1.00  0.00     0.016 C 
HETATM   18  C1  UNL     1      13.359  36.096 -12.489  1.00  0.00     0.006 C 
ENDBRANCH  16  17
ENDBRANCH  12  16
ENDBRANCH   1   2
BRANCH   1  19
HETATM   19  C9  UNL     1      11.794  38.650  -5.844  1.00  0.00     0.107 C 
BRANCH  19  20
HETATM   20  C10 UNL     1      10.806  38.626  -4.748  1.00  0.00     0.218 C 
HETATM   21  O2  UNL     1       9.625  38.302  -5.002  1.00  0.00    -0.274 OA
HETATM   22  N5  UNL     1      11.158  38.956  -3.426  1.00  0.00    -0.356 N 
ATOM     23  H5  UNL     1      12.121  39.219  -3.215  1.00  0.00     0.162 HD
BRANCH  22  24
HETATM   24  C11 UNL     1      10.141  38.927  -2.316  1.00  0.00     0.092 C 
BRANCH  24  25
HETATM   25  C12 UNL     1      10.525  40.055  -1.404  1.00  0.00     0.026 C 
BRANCH  25  26
HETATM   26  C13 UNL     1       9.496  40.853  -0.739  1.00  0.00     0.004 C 
BRANCH  26  27
HETATM   27  C14 UNL     1       9.294  42.178  -1.526  1.00  0.00     0.027 C 
BRANCH  27  28
HETATM   28  C15 UNL     1       8.257  42.035  -2.601  1.00  0.00     0.229 C 
BRANCH  28  29
HETATM   29  N6  UNL     1       8.977  42.077  -3.870  1.00  0.00    -0.079 N 
ATOM     30  H63 UNL     1       9.307  43.010  -4.119  1.00  0.00     0.274 HD
ATOM     31  H62 UNL     1       9.891  41.627  -3.833  1.00  0.00     0.274 HD
ATOM     32  H61 UNL     1       8.352  41.669  -4.566  1.00  0.00     0.274 HD
ENDBRANCH  28  29
ENDBRANCH  27  28
ENDBRANCH  26  27
ENDBRANCH  25  26
ENDBRANCH  24  25
BRANCH  24  33
HETATM   33  C16 UNL     1      10.269  37.560  -1.757  1.00  0.00     0.124 C 
BRANCH  33  34
HETATM   34  C17 UNL     1       9.051  36.927  -1.238  1.00  0.00     0.233 C 
HETATM   35  N7  UNL     1       8.553  37.276   0.075  1.00  0.00    -0.062 NA
HETATM   36  O3  UNL     1       8.399  36.076  -1.886  1.00  0.00    -0.277 OA
ENDBRANCH  33  34
ENDBRANCH  24  33
ENDBRANCH  22  24
ENDBRANCH  19  20
ENDBRANCH   1  19
TORSDOF 13
ENDMDL
MODEL 2
REMARK VINA RESULT: -7.750915191      1.092      1.221
REMARK  13 active torsions:
REMARK  status: ('A' for Active; 'I' for Inactive)
REMARK    1  A    between atoms: C2_2  and  C3_3 
REMARK    2  A    between atoms: C3_3  and  N1_4 
REMARK    3  A    between atoms: C7_14  and  C8_15 
REMARK    4  A    between atoms: C8_15  and  C9_16 
REMARK    5  A    between atoms: C9_16  and  C10_17 
REMARK       I    between atoms: C10_17  and  N5_19 
REMARK    6  A    between atoms: N5_19  and  C11_21 
REMARK    7  A    between atoms: C11_21  and  C12_22 
REMARK    8  A    between atoms: C11_21  and  C16_30 
REMARK    9  A    between atoms: C12_22  and  C13_23 
REMARK   10  A    between atoms: C13_23  and  C14_24 
REMARK   11  A    between atoms: C14_24  and  C15_25 
REMARK   12  A    between atoms: C15_25  and  N6_26 
REMARK   13  A    between atoms: C16_30  and  C17_31 
ROOT
HETATM    1  C8  UNL     1      11.506  38.998  -7.493  1.00  0.00     0.052 C 
ENDROOT
BRANCH   1   2
HETATM    2  C7  UNL     1      12.416  39.969  -8.128  1.00  0.00     0.003 A 
HETATM    3  C6  UNL     1      12.559  41.294  -7.748  1.00  0.00     0.125 A 
HETATM    4  N3  UNL     1      13.478  41.826  -8.570  1.00  0.00    -0.330 N 
HETATM    5  N4  UNL     1      11.861  41.961  -6.687  1.00  0.00    -0.082 NA
HETATM    6  C5  UNL     1      13.935  40.924  -9.457  1.00  0.00     0.127 A 
ATOM      7  H3  UNL     1      13.792  42.795  -8.528  1.00  0.00     0.168 HD
HETATM    8  N2  UNL     1      14.839  40.962 -10.465  1.00  0.00    -0.293 N 
HETATM    9  C18 UNL     1      13.270  39.749  -9.185  1.00  0.00     0.086 A 
HETATM   10  C4  UNL     1      15.130  39.900 -11.229  1.00  0.00     0.331 A 
ATOM     11  H2  UNL     1      15.322  41.841 -10.651  1.00  0.00     0.172 HD
HETATM   12  N1  UNL     1      14.490  38.744 -10.977  1.00  0.00    -0.266 N 
HETATM   13  O1  UNL     1      15.992  39.984 -12.170  1.00  0.00    -0.246 OA
HETATM   14  C19 UNL     1      13.582  38.651  -9.987  1.00  0.00     0.266 A 
HETATM   15  O4  UNL     1      12.953  37.598  -9.702  1.00  0.00    -0.267 OA
BRANCH  12  16
HETATM   16  C3  UNL     1      14.782  37.589 -11.766  1.00  0.00     0.137 C 
BRANCH  16  17
HETATM   17  C2  UNL     1      13.832  37.284 -12.864  1.00  0.00     0.016 C 
HETATM   18  C1  UNL     1      13.344  35.878 -12.942  1.00  0.00     0.006 C 
ENDBRANCH  16  17
ENDBRANCH  12  16
ENDBRANCH   1   2
BRANCH   1  19
HETATM   19  C9  UNL     1      11.989  38.712  -6.081  1.00  0.00     0.107 C 
BRANCH  19  20
HETATM   20  C10 UNL     1      10.864  38.611  -5.130  1.00  0.00     0.218 C 
HETATM   21  O2  UNL     1       9.747  38.237  -5.549  1.00  0.00    -0.274 OA
HETATM   22  N5  UNL     1      11.016  38.923  -3.766  1.00  0.00    -0.356 N 
ATOM     23  H5  UNL     1      11.927  39.227  -3.421  1.00  0.00     0.162 HD
BRANCH  22  24
HETATM   24  C11 UNL     1       9.861  38.816  -2.807  1.00  0.00     0.092 C 
BRANCH  24  25
HETATM   25  C12 UNL     1       9.369  40.221  -2.629  1.00  0.00     0.026 C 
BRANCH  25  26
HETATM   26  C13 UNL     1       8.250  40.722  -3.427  1.00  0.00     0.004 C 
BRANCH  26  27
HETATM   27  C14 UNL     1       8.028  42.226  -3.102  1.00  0.00     0.027 C 
BRANCH  27  28
HETATM   28  C15 UNL     1       8.581  42.592  -1.756  1.00  0.00     0.229 C 
BRANCH  28  29
HETATM   29  N6  UNL     1       9.334  43.828  -1.946  1.00  0.00    -0.079 N 
ATOM     30  H63 UNL     1      10.270  43.800  -1.541  1.00  0.00     0.274 HD
ATOM     31  H62 UNL     1       9.621  43.984  -2.912  1.00  0.00     0.274 HD
ATOM     32  H61 UNL     1       8.752  44.577  -1.571  1.00  0.00     0.274 HD
ENDBRANCH  28  29
ENDBRANCH  27  28
ENDBRANCH  26  27
ENDBRANCH  25  26
ENDBRANCH  24  25
BRANCH  24  33
HETATM   33  C16 UNL     1      10.456  38.173  -1.611  1.00  0.00     0.124 C 
BRANCH  33  34
HETATM   34  C17 UNL     1       9.562  37.388  -0.752  1.00  0.00     0.233 C 
HETATM   35  N7  UNL     1       9.332  35.987  -1.029  1.00  0.00    -0.062 NA
HETATM   36  O3  UNL     1       8.968  37.877   0.237  1.00  0.00    -0.277 OA
ENDBRANCH  33  34
ENDBRANCH  24  33
ENDBRANCH  22  24
ENDBRANCH  19  20
ENDBRANCH   1  19
TORSDOF 13
ENDMDL
MODEL 3
REMARK VINA RESULT: -7.737275894      2.154      8.982
REMARK  13 active torsions:
REMARK  status: ('A' for Active; 'I' for Inactive)
REMARK    1  A    between atoms: C2_2  and  C3_3 
REMARK    2  A    between atoms: C3_3  and  N1_4 
REMARK    3  A    between atoms: C7_14  and  C8_15 
REMARK    4  A    between atoms: C8_15  and  C9_16 
REMARK    5  A    between atoms: C9_16  and  C10_17 
REMARK       I    between atoms: C10_17  and  N5_19 
REMARK    6  A    between atoms: N5_19  and  C11_21 
REMARK    7  A    between atoms: C11_21  and  C12_22 
REMARK    8  A    between atoms: C11_21  and  C16_30 
REMARK    9  A    between atoms: C12_22  and  C13_23 
REMARK   10  A    between atoms: C13_23  and  C14_24 
REMARK   11  A    between atoms: C14_24  and  C15_25 
REMARK   12  A    between atoms: C15_25  and  N6_26 
REMARK   13  A    between atoms: C16_30  and  C17_31 
ROOT
HETATM    1  C8  UNL     1      13.204  38.551  -7.760  1.00  0.00     0.052 C 
ENDROOT
BRANCH   1   2
HETATM    2  C7  UNL     1      12.450  39.731  -7.298  1.00  0.00     0.003 A 
HETATM    3  C6  UNL     1      12.607  41.018  -7.785  1.00  0.00     0.125 A 
HETATM    4  N3  UNL     1      11.741  41.788  -7.107  1.00  0.00    -0.330 N 
HETATM    5  N4  UNL     1      13.517  41.441  -8.811  1.00  0.00    -0.082 NA
HETATM    6  C5  UNL     1      11.037  41.074  -6.210  1.00  0.00     0.127 A 
ATOM      7  H3  UNL     1      11.631  42.791  -7.252  1.00  0.00     0.168 HD
HETATM    8  N2  UNL     1      10.070  41.375  -5.310  1.00  0.00    -0.293 N 
HETATM    9  C18 UNL     1      11.478  39.774  -6.325  1.00  0.00     0.086 A 
HETATM   10  C4  UNL     1       9.507  40.462  -4.507  1.00  0.00     0.331 A 
ATOM     11  H2  UNL     1       9.756  42.342  -5.240  1.00  0.00     0.172 HD
HETATM   12  N1  UNL     1       9.926  39.187  -4.605  1.00  0.00    -0.266 N 
HETATM   13  O1  UNL     1       8.597  40.794  -3.672  1.00  0.00    -0.246 OA
HETATM   14  C19 UNL     1      10.883  38.833  -5.483  1.00  0.00     0.266 A 
HETATM   15  O4  UNL     1      11.315  37.659  -5.622  1.00  0.00    -0.267 OA
BRANCH  12  16
HETATM   16  C3  UNL     1       9.341  38.186  -3.770  1.00  0.00     0.137 C 
BRANCH  16  17
HETATM   17  C2  UNL     1       9.971  37.985  -2.442  1.00  0.00     0.016 C 
HETATM   18  C1  UNL     1       9.488  36.819  -1.652  1.00  0.00     0.006 C 
ENDBRANCH  16  17
ENDBRANCH  12  16
ENDBRANCH   1   2
BRANCH   1  19
HETATM   19  C9  UNL     1      12.700  38.144  -9.135  1.00  0.00     0.107 C 
BRANCH  19  20
HETATM   20  C10 UNL     1      13.779  38.175 -10.142  1.00  0.00     0.218 C 
HETATM   21  O2  UNL     1      14.938  38.472  -9.780  1.00  0.00    -0.274 OA
HETATM   22  N5  UNL     1      13.538  37.877 -11.496  1.00  0.00    -0.356 N 
ATOM     23  H5  UNL     1      12.593  37.633 -11.794  1.00  0.00     0.162 HD
BRANCH  22  24
HETATM   24  C11 UNL     1      14.646  37.911 -12.513  1.00  0.00     0.092 C 
BRANCH  24  25
HETATM   25  C12 UNL     1      14.226  38.944 -13.516  1.00  0.00     0.026 C 
BRANCH  25  26
HETATM   26  C13 UNL     1      14.540  40.357 -13.303  1.00  0.00     0.004 C 
BRANCH  26  27
HETATM   27  C14 UNL     1      15.917  40.469 -12.592  1.00  0.00     0.027 C 
BRANCH  27  28
HETATM   28  C15 UNL     1      15.891  41.481 -11.485  1.00  0.00     0.229 C 
BRANCH  28  29
HETATM   29  N6  UNL     1      16.410  40.804 -10.300  1.00  0.00    -0.079 N 
ATOM     30  H63 UNL     1      16.058  41.192  -9.424  1.00  0.00     0.274 HD
ATOM     31  H62 UNL     1      16.040  39.862 -10.177  1.00  0.00     0.274 HD
ATOM     32  H61 UNL     1      17.426  40.834 -10.377  1.00  0.00     0.274 HD
ENDBRANCH  28  29
ENDBRANCH  27  28
ENDBRANCH  26  27
ENDBRANCH  25  26
ENDBRANCH  24  25
BRANCH  24  33
HETATM   33  C16 UNL     1      14.718  36.514 -13.003  1.00  0.00     0.124 C 
BRANCH  33  34
HETATM   34  C17 UNL     1      13.450  35.819 -13.250  1.00  0.00     0.233 C 
HETATM   35  N7  UNL     1      12.934  35.704 -14.597  1.00  0.00    -0.062 NA
HETATM   36  O3  UNL     1      12.768  35.305 -12.335  1.00  0.00    -0.277 OA
ENDBRANCH  33  34
ENDBRANCH  24  33
ENDBRANCH  22  24
ENDBRANCH  19  20
ENDBRANCH   1  19
TORSDOF 13
ENDMDL
MODEL 4
REMARK VINA RESULT: -7.484814802      2.493      3.994
REMARK  13 active torsions:
REMARK  status: ('A' for Active; 'I' for Inactive)
REMARK    1  A    between atoms: C2_2  and  C3_3 
REMARK    2  A    between atoms: C3_3  and  N1_4 
REMARK    3  A    between atoms: C7_14  and  C8_15 
REMARK    4  A    between atoms: C8_15  and  C9_16 
REMARK    5  A    between atoms: C9_16  and  C10_17 
REMARK       I    between atoms: C10_17  and  N5_19 
REMARK    6  A    between atoms: N5_19  and  C11_21 
REMARK    7  A    between atoms: C11_21  and  C12_22 
REMARK    8  A    between atoms: C11_21  and  C16_30 
REMARK    9  A    between atoms: C12_22  and  C13_23 
REMARK   10  A    between atoms: C13_23  and  C14_24 
REMARK   11  A    between atoms: C14_24  and  C15_25 
REMARK   12  A    between atoms: C15_25  and  N6_26 
REMARK   13  A    between atoms: C16_30  and  C17_31 
ROOT
HETATM    1  C8  UNL     1      11.955  40.744  -8.327  1.00  0.00     0.052 C 
ENDROOT
BRANCH   1   2
HETATM    2  C7  UNL     1      13.191  40.302  -8.998  1.00  0.00     0.003 A 
HETATM    3  C6  UNL     1      13.434  39.016  -9.453  1.00  0.00     0.125 A 
HETATM    4  N3  UNL     1      14.661  39.034  -9.998  1.00  0.00    -0.330 N 
HETATM    5  N4  UNL     1      12.548  37.892  -9.359  1.00  0.00    -0.082 NA
HETATM    6  C5  UNL     1      15.224  40.254  -9.920  1.00  0.00     0.127 A 
ATOM      7  H3  UNL     1      15.112  38.222 -10.420  1.00  0.00     0.168 HD
HETATM    8  N2  UNL     1      16.411  40.775 -10.311  1.00  0.00    -0.293 N 
HETATM    9  C18 UNL     1      14.302  41.060  -9.291  1.00  0.00     0.086 A 
HETATM   10  C4  UNL     1      16.749  42.057 -10.117  1.00  0.00     0.331 A 
ATOM     11  H2  UNL     1      17.081  40.162 -10.777  1.00  0.00     0.172 HD
HETATM   12  N1  UNL     1      15.860  42.860  -9.503  1.00  0.00    -0.266 N 
HETATM   13  O1  UNL     1      17.882  42.504 -10.503  1.00  0.00    -0.246 OA
HETATM   14  C19 UNL     1      14.665  42.393  -9.094  1.00  0.00     0.266 A 
HETATM   15  O4  UNL     1      13.793  43.094  -8.517  1.00  0.00    -0.267 OA
BRANCH  12  16
HETATM   16  C3  UNL     1      16.183  44.235  -9.286  1.00  0.00     0.137 C 
BRANCH  16  17
HETATM   17  C2  UNL     1      16.852  44.560  -8.003  1.00  0.00     0.016 C 
HETATM   18  C1  UNL     1      18.088  45.387  -8.094  1.00  0.00     0.006 C 
ENDBRANCH  16  17
ENDBRANCH  12  16
ENDBRANCH   1   2
BRANCH   1  19
HETATM   19  C9  UNL     1      12.141  40.643  -6.822  1.00  0.00     0.107 C 
BRANCH  19  20
HETATM   20  C10 UNL     1      11.105  39.795  -6.201  1.00  0.00     0.218 C 
HETATM   21  O2  UNL     1      10.653  38.822  -6.843  1.00  0.00    -0.274 OA
HETATM   22  N5  UNL     1      10.614  40.051  -4.907  1.00  0.00    -0.356 N 
ATOM     23  H5  UNL     1      10.982  40.844  -4.381  1.00  0.00     0.162 HD
BRANCH  22  24
HETATM   24  C11 UNL     1       9.557  39.179  -4.285  1.00  0.00     0.092 C 
BRANCH  24  25
HETATM   25  C12 UNL     1       8.546  40.131  -3.720  1.00  0.00     0.026 C 
BRANCH  25  26
HETATM   26  C13 UNL     1       8.662  41.568  -3.963  1.00  0.00     0.004 C 
BRANCH  26  27
HETATM   27  C14 UNL     1       7.866  42.335  -2.871  1.00  0.00     0.027 C 
BRANCH  27  28
HETATM   28  C15 UNL     1       8.721  43.345  -2.164  1.00  0.00     0.229 C 
BRANCH  28  29
HETATM   29  N6  UNL     1       9.541  42.594  -1.218  1.00  0.00    -0.079 N 
ATOM     30  H63 UNL     1       9.318  41.599  -1.188  1.00  0.00     0.274 HD
ATOM     31  H62 UNL     1      10.513  42.496  -1.511  1.00  0.00     0.274 HD
ATOM     32  H61 UNL     1       9.435  43.060  -0.316  1.00  0.00     0.274 HD
ENDBRANCH  28  29
ENDBRANCH  27  28
ENDBRANCH  26  27
ENDBRANCH  25  26
ENDBRANCH  24  25
BRANCH  24  33
HETATM   33  C16 UNL     1      10.309  38.362  -3.302  1.00  0.00     0.124 C 
BRANCH  33  34
HETATM   34  C17 UNL     1       9.538  37.704  -2.242  1.00  0.00     0.233 C 
HETATM   35  N7  UNL     1       9.641  38.165  -0.874  1.00  0.00    -0.062 NA
HETATM   36  O3  UNL     1       8.772  36.737  -2.459  1.00  0.00    -0.277 OA
ENDBRANCH  33  34
ENDBRANCH  24  33
ENDBRANCH  22  24
ENDBRANCH  19  20
ENDBRANCH   1  19
TORSDOF 13
ENDMDL
MODEL 5
REMARK VINA RESULT: -7.470141383      2.623      8.685
REMARK  13 active torsions:
REMARK  status: ('A' for Active; 'I' for Inactive)
REMARK    1  A    between atoms: C2_2  and  C3_3 
REMARK    2  A    between atoms: C3_3  and  N1_4 
REMARK    3  A    between atoms: C7_14  and  C8_15 
REMARK    4  A    between atoms: C8_15  and  C9_16 
REMARK    5  A    between atoms: C9_16  and  C10_17 
REMARK       I    between atoms: C10_17  and  N5_19 
REMARK    6  A    between atoms: N5_19  and  C11_21 
REMARK    7  A    between atoms: C11_21  and  C12_22 
REMARK    8  A    between atoms: C11_21  and  C16_30 
REMARK    9  A    between atoms: C12_22  and  C13_23 
REMARK   10  A    between atoms: C13_23  and  C14_24 
REMARK   11  A    between atoms: C14_24  and  C15_25 
REMARK   12  A    between atoms: C15_25  and  N6_26 
REMARK   13  A    between atoms: C16_30  and  C17_31 
ROOT
HETATM    1  C8  UNL     1       9.540  38.903  -3.346  1.00  0.00     0.052 C 
ENDROOT
BRANCH   1   2
HETATM    2  C7  UNL     1       9.471  40.007  -2.371  1.00  0.00     0.003 A 
HETATM    3  C6  UNL     1       9.891  39.933  -1.052  1.00  0.00     0.125 A 
HETATM    4  N3  UNL     1       9.659  41.140  -0.513  1.00  0.00    -0.330 N 
HETATM    5  N4  UNL     1      10.460  38.790  -0.397  1.00  0.00    -0.082 NA
HETATM    6  C5  UNL     1       9.113  41.987  -1.404  1.00  0.00     0.127 A 
ATOM      7  H3  UNL     1       9.870  41.385   0.454  1.00  0.00     0.168 HD
HETATM    8  N2  UNL     1       8.706  43.278  -1.356  1.00  0.00    -0.293 N 
HETATM    9  C18 UNL     1       8.992  41.280  -2.579  1.00  0.00     0.086 A 
HETATM   10  C4  UNL     1       8.180  43.921  -2.407  1.00  0.00     0.331 A 
ATOM     11  H2  UNL     1       8.805  43.786  -0.476  1.00  0.00     0.172 HD
HETATM   12  N1  UNL     1       8.054  43.245  -3.564  1.00  0.00    -0.266 N 
HETATM   13  O1  UNL     1       7.810  45.141  -2.313  1.00  0.00    -0.246 OA
HETATM   14  C19 UNL     1       8.442  41.960  -3.667  1.00  0.00     0.266 A 
HETATM   15  O4  UNL     1       8.352  41.277  -4.720  1.00  0.00    -0.267 OA
BRANCH  12  16
HETATM   16  C3  UNL     1       7.504  43.901  -4.708  1.00  0.00     0.137 C 
BRANCH  16  17
HETATM   17  C2  UNL     1       6.049  43.723  -4.935  1.00  0.00     0.016 C 
HETATM   18  C1  UNL     1       5.538  44.113  -6.278  1.00  0.00     0.006 C 
ENDBRANCH  16  17
ENDBRANCH  12  16
ENDBRANCH   1   2
BRANCH   1  19
HETATM   19  C9  UNL     1      10.958  38.799  -3.883  1.00  0.00     0.107 C 
BRANCH  19  20
HETATM   20  C10 UNL     1      10.978  38.723  -5.356  1.00  0.00     0.218 C 
HETATM   21  O2  UNL     1       9.951  38.341  -5.958  1.00  0.00    -0.274 OA
HETATM   22  N5  UNL     1      12.121  39.070  -6.101  1.00  0.00    -0.356 N 
ATOM     23  H5  UNL     1      12.960  39.383  -5.613  1.00  0.00     0.162 HD
BRANCH  22  24
HETATM   24  C11 UNL     1      12.129  38.988  -7.604  1.00  0.00     0.092 C 
BRANCH  24  25
HETATM   25  C12 UNL     1      13.377  38.229  -7.948  1.00  0.00     0.026 C 
BRANCH  25  26
HETATM   26  C13 UNL     1      13.978  38.352  -9.275  1.00  0.00     0.004 C 
BRANCH  26  27
HETATM   27  C14 UNL     1      13.096  37.591 -10.304  1.00  0.00     0.027 C 
BRANCH  27  28
HETATM   28  C15 UNL     1      13.927  36.847 -11.307  1.00  0.00     0.229 C 
BRANCH  28  29
HETATM   29  N6  UNL     1      15.137  36.430 -10.605  1.00  0.00    -0.079 N 
ATOM     30  H63 UNL     1      15.743  35.828 -11.164  1.00  0.00     0.274 HD
ATOM     31  H62 UNL     1      15.807  37.186 -10.465  1.00  0.00     0.274 HD
ATOM     32  H61 UNL     1      14.827  35.997  -9.735  1.00  0.00     0.274 HD
ENDBRANCH  28  29
ENDBRANCH  27  28
ENDBRANCH  26  27
ENDBRANCH  25  26
ENDBRANCH  24  25
BRANCH  24  33
HETATM   33  C16 UNL     1      12.084  40.405  -8.034  1.00  0.00     0.124 C 
BRANCH  33  34
HETATM   34  C17 UNL     1      12.146  41.431  -6.987  1.00  0.00     0.233 C 
HETATM   35  N7  UNL     1      10.930  42.045  -6.497  1.00  0.00    -0.062 NA
HETATM   36  O3  UNL     1      13.223  41.817  -6.477  1.00  0.00    -0.277 OA
ENDBRANCH  33  34
ENDBRANCH  24  33
ENDBRANCH  22  24
ENDBRANCH  19  20
ENDBRANCH   1  19
TORSDOF 13
ENDMDL
