MODEL 1
REMARK VINA RESULT: -6.508820648      0.000      0.000
REMARK  15 active torsions:
REMARK  status: ('A' for Active; 'I' for Inactive)
REMARK    1  A    between atoms: N1_1  and  C1_5 
REMARK    2  A    between atoms: C1_5  and  C2_6 
REMARK    3  A    between atoms: C2_6  and  C3_7 
REMARK    4  A    between atoms: C3_7  and  C4_8 
REMARK    5  A    between atoms: C4_8  and  C5_9 
REMARK    6  A    between atoms: C8_15  and  C9_16 
REMARK    7  A    between atoms: C9_16  and  C10_17 
REMARK    8  A    between atoms: C10_17  and  C11_18 
REMARK    9  A    between atoms: C11_18  and  C12_19 
REMARK   10  A    between atoms: C12_19  and  N3_20 
REMARK   11  A    between atoms: C16_30  and  C17_31 
REMARK   12  A    between atoms: C17_31  and  C18_32 
REMARK   13  A    between atoms: C18_32  and  C19_33 
REMARK   14  A    between atoms: C19_33  and  C20_34 
REMARK   15  A    between atoms: C20_34  and  N5_35 
ROOT
HETATM    1  C5  UNL     1      13.566  39.066 -10.819  1.00  0.00     0.093 C 
HETATM    2  C6  UNL     1      14.655  39.773 -11.555  1.00  0.00     0.128 C 
HETATM    3  C7  UNL     1      14.186  40.935 -12.355  1.00  0.00     0.220 C 
HETATM    4  O1  UNL     1      14.531  40.977 -13.586  1.00  0.00    -0.274 OA
HETATM    5  N2  UNL     1      13.400  41.964 -11.832  1.00  0.00    -0.348 N 
ATOM      6  H2  UNL     1      12.713  42.380 -12.459  1.00  0.00     0.163 HD
HETATM    7  C8  UNL     1      13.463  42.500 -10.487  1.00  0.00     0.176 C 
HETATM    8  C13 UNL     1      12.061  42.644 -10.019  1.00  0.00     0.240 C 
HETATM    9  O2  UNL     1      11.210  43.028 -10.857  1.00  0.00    -0.271 OA
HETATM   10  N4  UNL     1      11.630  42.377  -8.702  1.00  0.00    -0.359 N 
ATOM     11  H4  UNL     1      10.635  42.202  -8.561  1.00  0.00     0.162 HD
HETATM   12  C14 UNL     1      12.480  42.330  -7.541  1.00  0.00     0.123 C 
HETATM   13  C15 UNL     1      12.871  40.953  -7.119  1.00  0.00     0.034 C 
HETATM   14  C16 UNL     1      12.236  39.857  -7.967  1.00  0.00     0.079 C 
HETATM   15  C21 UNL     1      13.237  38.808  -8.309  1.00  0.00     0.222 C 
HETATM   16  O3  UNL     1      13.380  37.844  -7.479  1.00  0.00    -0.273 OA
HETATM   17  N6  UNL     1      14.030  38.797  -9.465  1.00  0.00    -0.356 N 
ATOM     18  H6  UNL     1      15.019  38.581  -9.346  1.00  0.00     0.162 HD
ENDROOT
BRANCH   1  19
HETATM   19  C4  UNL     1      13.385  37.691 -11.445  1.00  0.00     0.026 C 
BRANCH  19  20
HETATM   20  C3  UNL     1      14.440  36.704 -11.018  1.00  0.00     0.004 C 
BRANCH  20  21
HETATM   21  C2  UNL     1      14.372  35.559 -12.039  1.00  0.00     0.027 C 
BRANCH  21  22
HETATM   22  C1  UNL     1      13.707  36.025 -13.314  1.00  0.00     0.229 C 
BRANCH  22  23
HETATM   23  N1  UNL     1      14.668  35.892 -14.383  1.00  0.00    -0.079 N 
ATOM     24  H13 UNL     1      15.351  35.153 -14.212  1.00  0.00     0.274 HD
ATOM     25  H12 UNL     1      14.262  35.506 -15.235  1.00  0.00     0.274 HD
ATOM     26  H11 UNL     1      15.099  36.805 -14.527  1.00  0.00     0.274 HD
ENDBRANCH  22  23
ENDBRANCH  21  22
ENDBRANCH  20  21
ENDBRANCH  19  20
ENDBRANCH   1  19
BRANCH  14  27
HETATM   27  C17 UNL     1      11.136  39.255  -7.102  1.00  0.00     0.014 C 
BRANCH  27  28
HETATM   28  C18 UNL     1      11.209  39.703  -5.677  1.00  0.00     0.002 C 
BRANCH  28  29
HETATM   29  C19 UNL     1      10.767  38.538  -4.812  1.00  0.00     0.027 C 
BRANCH  29  30
HETATM   30  C20 UNL     1      10.374  39.004  -3.425  1.00  0.00     0.229 C 
BRANCH  30  31
HETATM   31  N5  UNL     1      11.541  39.187  -2.586  1.00  0.00    -0.079 N 
ATOM     32  H53 UNL     1      11.758  38.345  -2.054  1.00  0.00     0.274 HD
ATOM     33  H52 UNL     1      12.395  39.246  -3.139  1.00  0.00     0.274 HD
ATOM     34  H51 UNL     1      11.432  39.998  -1.977  1.00  0.00     0.274 HD
ENDBRANCH  30  31
ENDBRANCH  29  30
ENDBRANCH  28  29
ENDBRANCH  27  28
ENDBRANCH  14  27
BRANCH   7  35
HETATM   35  C9  UNL     1      14.140  43.857 -10.522  1.00  0.00     0.035 C 
BRANCH  35  36
HETATM   36  C10 UNL     1      15.614  43.641 -10.397  1.00  0.00     0.004 C 
BRANCH  36  37
HETATM   37  C11 UNL     1      16.002  43.015  -9.075  1.00  0.00     0.027 C 
BRANCH  37  38
HETATM   38  C12 UNL     1      15.759  43.949  -7.918  1.00  0.00     0.229 C 
BRANCH  38  39
HETATM   39  N3  UNL     1      16.879  44.788  -7.610  1.00  0.00    -0.079 N 
ATOM     40  H33 UNL     1      17.462  44.927  -8.436  1.00  0.00     0.274 HD
ATOM     41  H32 UNL     1      16.575  45.749  -7.450  1.00  0.00     0.274 HD
ATOM     42  H31 UNL     1      17.440  44.453  -6.827  1.00  0.00     0.274 HD
ENDBRANCH  38  39
ENDBRANCH  37  38
ENDBRANCH  36  37
ENDBRANCH  35  36
ENDBRANCH   7  35
TORSDOF 15
ENDMDL
MODEL 2
REMARK VINA RESULT: -6.437698788      2.573      6.900
REMARK  15 active torsions:
REMARK  status: ('A' for Active; 'I' for Inactive)
REMARK    1  A    between atoms: N1_1  and  C1_5 
REMARK    2  A    between atoms: C1_5  and  C2_6 
REMARK    3  A    between atoms: C2_6  and  C3_7 
REMARK    4  A    between atoms: C3_7  and  C4_8 
REMARK    5  A    between atoms: C4_8  and  C5_9 
REMARK    6  A    between atoms: C8_15  and  C9_16 
REMARK    7  A    between atoms: C9_16  and  C10_17 
REMARK    8  A    between atoms: C10_17  and  C11_18 
REMARK    9  A    between atoms: C11_18  and  C12_19 
REMARK   10  A    between atoms: C12_19  and  N3_20 
REMARK   11  A    between atoms: C16_30  and  C17_31 
REMARK   12  A    between atoms: C17_31  and  C18_32 
REMARK   13  A    between atoms: C18_32  and  C19_33 
REMARK   14  A    between atoms: C19_33  and  C20_34 
REMARK   15  A    between atoms: C20_34  and  N5_35 
ROOT
HETATM    1  C5  UNL     1      15.525  40.816 -12.977  1.00  0.00     0.093 C 
HETATM    2  C6  UNL     1      15.420  40.628 -14.454  1.00  0.00     0.128 C 
HETATM    3  C7  UNL     1      16.439  39.703 -15.018  1.00  0.00     0.220 C 
HETATM    4  O1  UNL     1      17.130  40.126 -16.008  1.00  0.00    -0.274 OA
HETATM    5  N2  UNL     1      16.672  38.419 -14.523  1.00  0.00    -0.348 N 
ATOM      6  H2  UNL     1      17.634  38.083 -14.553  1.00  0.00     0.163 HD
HETATM    7  C8  UNL     1      15.683  37.514 -13.972  1.00  0.00     0.176 C 
HETATM    8  C13 UNL     1      16.277  36.932 -12.741  1.00  0.00     0.240 C 
HETATM    9  O2  UNL     1      17.501  36.657 -12.766  1.00  0.00    -0.271 OA
HETATM   10  N4  UNL     1      15.557  36.672 -11.555  1.00  0.00    -0.359 N 
ATOM     11  H4  UNL     1      16.093  36.575 -10.693  1.00  0.00     0.162 HD
HETATM   12  C14 UNL     1      14.127  36.534 -11.463  1.00  0.00     0.123 C 
HETATM   13  C15 UNL     1      13.419  37.758 -10.988  1.00  0.00     0.034 C 
HETATM   14  C16 UNL     1      14.362  38.902 -10.629  1.00  0.00     0.079 C 
HETATM   15  C21 UNL     1      13.851  40.194 -11.164  1.00  0.00     0.222 C 
HETATM   16  O3  UNL     1      13.045  40.856 -10.422  1.00  0.00    -0.273 OA
HETATM   17  N6  UNL     1      14.184  40.739 -12.412  1.00  0.00    -0.356 N 
ATOM     18  H6  UNL     1      13.420  41.114 -12.973  1.00  0.00     0.162 HD
ENDROOT
BRANCH   1  19
HETATM   19  C4  UNL     1      15.973  42.244 -12.711  1.00  0.00     0.026 C 
BRANCH  19  20
HETATM   20  C3  UNL     1      17.323  42.327 -12.047  1.00  0.00     0.004 C 
BRANCH  20  21
HETATM   21  C2  UNL     1      17.102  41.851 -10.604  1.00  0.00     0.027 C 
BRANCH  21  22
HETATM   22  C1  UNL     1      16.551  42.972  -9.753  1.00  0.00     0.229 C 
BRANCH  22  23
HETATM   23  N1  UNL     1      15.390  42.467  -9.061  1.00  0.00    -0.079 N 
ATOM     24  H13 UNL     1      14.933  43.173  -8.484  1.00  0.00     0.274 HD
ATOM     25  H12 UNL     1      14.607  42.277  -9.687  1.00  0.00     0.274 HD
ATOM     26  H11 UNL     1      15.680  41.647  -8.529  1.00  0.00     0.274 HD
ENDBRANCH  22  23
ENDBRANCH  21  22
ENDBRANCH  20  21
ENDBRANCH  19  20
ENDBRANCH   1  19
BRANCH  14  27
HETATM   27  C17 UNL     1      14.388  38.950  -9.107  1.00  0.00     0.014 C 
BRANCH  27  28
HETATM   28  C18 UNL     1      13.165  38.349  -8.487  1.00  0.00     0.002 C 
BRANCH  28  29
HETATM   29  C19 UNL     1      12.717  39.280  -7.376  1.00  0.00     0.027 C 
BRANCH  29  30
HETATM   30  C20 UNL     1      11.504  38.727  -6.655  1.00  0.00     0.229 C 
BRANCH  30  31
HETATM   31  N5  UNL     1      11.872  38.163  -5.372  1.00  0.00    -0.079 N 
ATOM     32  H53 UNL     1      12.610  37.465  -5.466  1.00  0.00     0.274 HD
ATOM     33  H52 UNL     1      12.371  38.838  -4.794  1.00  0.00     0.274 HD
ATOM     34  H51 UNL     1      11.057  37.784  -4.890  1.00  0.00     0.274 HD
ENDBRANCH  30  31
ENDBRANCH  29  30
ENDBRANCH  28  29
ENDBRANCH  27  28
ENDBRANCH  14  27
BRANCH   7  35
HETATM   35  C9  UNL     1      15.394  36.416 -14.978  1.00  0.00     0.035 C 
BRANCH  35  36
HETATM   36  C10 UNL     1      13.912  36.307 -15.129  1.00  0.00     0.004 C 
BRANCH  36  37
HETATM   37  C11 UNL     1      13.489  36.030 -16.556  1.00  0.00     0.027 C 
BRANCH  37  38
HETATM   38  C12 UNL     1      14.343  34.967 -17.198  1.00  0.00     0.229 C 
BRANCH  38  39
HETATM   39  N3  UNL     1      13.794  33.648 -17.095  1.00  0.00    -0.079 N 
ATOM     40  H33 UNL     1      12.796  33.688 -16.891  1.00  0.00     0.274 HD
ATOM     41  H32 UNL     1      13.764  33.199 -18.011  1.00  0.00     0.274 HD
ATOM     42  H31 UNL     1      14.276  33.054 -16.420  1.00  0.00     0.274 HD
ENDBRANCH  38  39
ENDBRANCH  37  38
ENDBRANCH  36  37
ENDBRANCH  35  36
ENDBRANCH   7  35
TORSDOF 15
ENDMDL
MODEL 3
REMARK VINA RESULT: -6.380792916      2.846      6.779
REMARK  15 active torsions:
REMARK  status: ('A' for Active; 'I' for Inactive)
REMARK    1  A    between atoms: N1_1  and  C1_5 
REMARK    2  A    between atoms: C1_5  and  C2_6 
REMARK    3  A    between atoms: C2_6  and  C3_7 
REMARK    4  A    between atoms: C3_7  and  C4_8 
REMARK    5  A    between atoms: C4_8  and  C5_9 
REMARK    6  A    between atoms: C8_15  and  C9_16 
REMARK    7  A    between atoms: C9_16  and  C10_17 
REMARK    8  A    between atoms: C10_17  and  C11_18 
REMARK    9  A    between atoms: C11_18  and  C12_19 
REMARK   10  A    between atoms: C12_19  and  N3_20 
REMARK   11  A    between atoms: C16_30  and  C17_31 
REMARK   12  A    between atoms: C17_31  and  C18_32 
REMARK   13  A    between atoms: C18_32  and  C19_33 
REMARK   14  A    between atoms: C19_33  and  C20_34 
REMARK   15  A    between atoms: C20_34  and  N5_35 
ROOT
HETATM    1  C5  UNL     1      15.465  40.829 -12.986  1.00  0.00     0.093 C 
HETATM    2  C6  UNL     1      15.340  40.632 -14.460  1.00  0.00     0.128 C 
HETATM    3  C7  UNL     1      16.369  39.724 -15.036  1.00  0.00     0.220 C 
HETATM    4  O1  UNL     1      17.034  40.155 -16.039  1.00  0.00    -0.274 OA
HETATM    5  N2  UNL     1      16.635  38.447 -14.538  1.00  0.00    -0.348 N 
ATOM      6  H2  UNL     1      17.603  38.131 -14.582  1.00  0.00     0.163 HD
HETATM    7  C8  UNL     1      15.673  37.526 -13.966  1.00  0.00     0.176 C 
HETATM    8  C13 UNL     1      16.299  36.963 -12.742  1.00  0.00     0.240 C 
HETATM    9  O2  UNL     1      17.528  36.712 -12.786  1.00  0.00    -0.271 OA
HETATM   10  N4  UNL     1      15.604  36.695 -11.543  1.00  0.00    -0.359 N 
ATOM     11  H4  UNL     1      16.156  36.613 -10.690  1.00  0.00     0.162 HD
HETATM   12  C14 UNL     1      14.179  36.528 -11.427  1.00  0.00     0.123 C 
HETATM   13  C15 UNL     1      13.455  37.741 -10.946  1.00  0.00     0.034 C 
HETATM   14  C16 UNL     1      14.380  38.905 -10.609  1.00  0.00     0.079 C 
HETATM   15  C21 UNL     1      13.835  40.184 -11.142  1.00  0.00     0.222 C 
HETATM   16  O3  UNL     1      13.027  40.834 -10.390  1.00  0.00    -0.273 OA
HETATM   17  N6  UNL     1      14.136  40.728 -12.398  1.00  0.00    -0.356 N 
ATOM     18  H6  UNL     1      13.356  41.086 -12.948  1.00  0.00     0.162 HD
ENDROOT
BRANCH   1  19
HETATM   19  C4  UNL     1      15.889  42.268 -12.734  1.00  0.00     0.026 C 
BRANCH  19  20
HETATM   20  C3  UNL     1      16.678  42.439 -11.463  1.00  0.00     0.004 C 
BRANCH  20  21
HETATM   21  C2  UNL     1      17.564  41.190 -11.355  1.00  0.00     0.027 C 
BRANCH  21  22
HETATM   22  C1  UNL     1      18.970  41.495 -11.817  1.00  0.00     0.229 C 
BRANCH  22  23
HETATM   23  N1  UNL     1      19.204  40.747 -13.029  1.00  0.00    -0.079 N 
ATOM     24  H13 UNL     1      18.364  40.285 -13.379  1.00  0.00     0.274 HD
ATOM     25  H12 UNL     1      19.375  41.345 -13.838  1.00  0.00     0.274 HD
ATOM     26  H11 UNL     1      19.968  40.097 -12.849  1.00  0.00     0.274 HD
ENDBRANCH  22  23
ENDBRANCH  21  22
ENDBRANCH  20  21
ENDBRANCH  19  20
ENDBRANCH   1  19
BRANCH  14  27
HETATM   27  C17 UNL     1      14.430  38.962  -9.088  1.00  0.00     0.014 C 
BRANCH  27  28
HETATM   28  C18 UNL     1      13.242  38.318  -8.444  1.00  0.00     0.002 C 
BRANCH  28  29
HETATM   29  C19 UNL     1      12.704  39.290  -7.411  1.00  0.00     0.027 C 
BRANCH  29  30
HETATM   30  C20 UNL     1      11.516  38.704  -6.676  1.00  0.00     0.229 C 
BRANCH  30  31
HETATM   31  N5  UNL     1      11.899  38.227  -5.362  1.00  0.00    -0.079 N 
ATOM     32  H53 UNL     1      12.689  37.584  -5.411  1.00  0.00     0.274 HD
ATOM     33  H52 UNL     1      12.332  38.964  -4.807  1.00  0.00     0.274 HD
ATOM     34  H51 UNL     1      11.104  37.809  -4.877  1.00  0.00     0.274 HD
ENDBRANCH  30  31
ENDBRANCH  29  30
ENDBRANCH  28  29
ENDBRANCH  27  28
ENDBRANCH  14  27
BRANCH   7  35
HETATM   35  C9  UNL     1      15.390  36.417 -14.961  1.00  0.00     0.035 C 
BRANCH  35  36
HETATM   36  C10 UNL     1      13.908  36.290 -15.101  1.00  0.00     0.004 C 
BRANCH  36  37
HETATM   37  C11 UNL     1      13.474  36.072 -16.535  1.00  0.00     0.027 C 
BRANCH  37  38
HETATM   38  C12 UNL     1      14.326  35.042 -17.229  1.00  0.00     0.229 C 
BRANCH  38  39
HETATM   39  N3  UNL     1      13.811  33.709 -17.134  1.00  0.00    -0.079 N 
ATOM     40  H33 UNL     1      12.882  33.711 -16.715  1.00  0.00     0.274 HD
ATOM     41  H32 UNL     1      13.581  33.346 -18.060  1.00  0.00     0.274 HD
ATOM     42  H31 UNL     1      14.427  33.065 -16.638  1.00  0.00     0.274 HD
ENDBRANCH  38  39
ENDBRANCH  37  38
ENDBRANCH  36  37
ENDBRANCH  35  36
ENDBRANCH   7  35
TORSDOF 15
ENDMDL
MODEL 4
REMARK VINA RESULT: -6.308800167      2.095      2.584
REMARK  15 active torsions:
REMARK  status: ('A' for Active; 'I' for Inactive)
REMARK    1  A    between atoms: N1_1  and  C1_5 
REMARK    2  A    between atoms: C1_5  and  C2_6 
REMARK    3  A    between atoms: C2_6  and  C3_7 
REMARK    4  A    between atoms: C3_7  and  C4_8 
REMARK    5  A    between atoms: C4_8  and  C5_9 
REMARK    6  A    between atoms: C8_15  and  C9_16 
REMARK    7  A    between atoms: C9_16  and  C10_17 
REMARK    8  A    between atoms: C10_17  and  C11_18 
REMARK    9  A    between atoms: C11_18  and  C12_19 
REMARK   10  A    between atoms: C12_19  and  N3_20 
REMARK   11  A    between atoms: C16_30  and  C17_31 
REMARK   12  A    between atoms: C17_31  and  C18_32 
REMARK   13  A    between atoms: C18_32  and  C19_33 
REMARK   14  A    between atoms: C19_33  and  C20_34 
REMARK   15  A    between atoms: C20_34  and  N5_35 
ROOT
HETATM    1  C5  UNL     1      14.022  38.309 -11.566  1.00  0.00     0.093 C 
HETATM    2  C6  UNL     1      15.234  38.447 -12.427  1.00  0.00     0.128 C 
HETATM    3  C7  UNL     1      15.065  39.403 -13.555  1.00  0.00     0.220 C 
HETATM    4  O1  UNL     1      15.362  38.985 -14.727  1.00  0.00    -0.274 OA
HETATM    5  N2  UNL     1      14.607  40.712 -13.393  1.00  0.00    -0.348 N 
ATOM      6  H2  UNL     1      14.033  41.092 -14.146  1.00  0.00     0.163 HD
HETATM    7  C8  UNL     1      14.862  41.584 -12.264  1.00  0.00     0.176 C 
HETATM    8  C13 UNL     1      13.570  42.230 -11.923  1.00  0.00     0.240 C 
HETATM    9  O2  UNL     1      12.822  42.563 -12.874  1.00  0.00    -0.271 OA
HETATM   10  N4  UNL     1      13.132  42.490 -10.606  1.00  0.00    -0.359 N 
ATOM     11  H4  UNL     1      12.133  42.639 -10.465  1.00  0.00     0.162 HD
HETATM   12  C14 UNL     1      13.982  42.562  -9.446  1.00  0.00     0.123 C 
HETATM   13  C15 UNL     1      14.003  41.319  -8.621  1.00  0.00     0.034 C 
HETATM   14  C16 UNL     1      13.064  40.234  -9.136  1.00  0.00     0.079 C 
HETATM   15  C21 UNL     1      13.731  38.903  -9.109  1.00  0.00     0.222 C 
HETATM   16  O3  UNL     1      13.640  38.225  -8.027  1.00  0.00    -0.273 OA
HETATM   17  N6  UNL     1      14.447  38.338 -10.173  1.00  0.00    -0.356 N 
ATOM     18  H6  UNL     1      15.346  37.910  -9.952  1.00  0.00     0.162 HD
ENDROOT
BRANCH   1  19
HETATM   19  C4  UNL     1      13.455  36.912 -11.767  1.00  0.00     0.026 C 
BRANCH  19  20
HETATM   20  C3  UNL     1      14.197  36.115 -12.807  1.00  0.00     0.004 C 
BRANCH  20  21
HETATM   21  C2  UNL     1      13.211  35.933 -13.969  1.00  0.00     0.027 C 
BRANCH  21  22
HETATM   22  C1  UNL     1      13.943  35.939 -15.292  1.00  0.00     0.229 C 
BRANCH  22  23
HETATM   23  N1  UNL     1      15.358  35.911 -15.009  1.00  0.00    -0.079 N 
ATOM     24  H13 UNL     1      15.588  36.309 -14.098  1.00  0.00     0.274 HD
ATOM     25  H12 UNL     1      15.709  34.969 -14.836  1.00  0.00     0.274 HD
ATOM     26  H11 UNL     1      15.837  36.378 -15.779  1.00  0.00     0.274 HD
ENDBRANCH  22  23
ENDBRANCH  21  22
ENDBRANCH  20  21
ENDBRANCH  19  20
ENDBRANCH   1  19
BRANCH  14  27
HETATM   27  C17 UNL     1      11.876  40.233  -8.183  1.00  0.00     0.014 C 
BRANCH  27  28
HETATM   28  C18 UNL     1      12.147  40.982  -6.917  1.00  0.00     0.002 C 
BRANCH  28  29
HETATM   29  C19 UNL     1      11.198  40.448  -5.861  1.00  0.00     0.027 C 
BRANCH  29  30
HETATM   30  C20 UNL     1      10.982  38.957  -6.025  1.00  0.00     0.229 C 
BRANCH  30  31
HETATM   31  N5  UNL     1      12.038  38.203  -5.379  1.00  0.00    -0.079 N 
ATOM     32  H53 UNL     1      12.933  38.328  -5.852  1.00  0.00     0.274 HD
ATOM     33  H52 UNL     1      12.284  38.601  -4.474  1.00  0.00     0.274 HD
ATOM     34  H51 UNL     1      11.789  37.217  -5.301  1.00  0.00     0.274 HD
ENDBRANCH  30  31
ENDBRANCH  29  30
ENDBRANCH  28  29
ENDBRANCH  27  28
ENDBRANCH  14  27
BRANCH   7  35
HETATM   35  C9  UNL     1      15.879  42.636 -12.666  1.00  0.00     0.035 C 
BRANCH  35  36
HETATM   36  C10 UNL     1      16.919  42.706 -11.596  1.00  0.00     0.004 C 
BRANCH  36  37
HETATM   37  C11 UNL     1      17.441  41.341 -11.200  1.00  0.00     0.027 C 
BRANCH  37  38
HETATM   38  C12 UNL     1      18.367  40.770 -12.242  1.00  0.00     0.229 C 
BRANCH  38  39
HETATM   39  N3  UNL     1      19.649  41.406 -12.285  1.00  0.00    -0.079 N 
ATOM     40  H33 UNL     1      20.009  41.554 -11.342  1.00  0.00     0.274 HD
ATOM     41  H32 UNL     1      20.357  40.764 -12.641  1.00  0.00     0.274 HD
ATOM     42  H31 UNL     1      19.657  42.279 -12.813  1.00  0.00     0.274 HD
ENDBRANCH  38  39
ENDBRANCH  37  38
ENDBRANCH  36  37
ENDBRANCH  35  36
ENDBRANCH   7  35
TORSDOF 15
ENDMDL
MODEL 5
REMARK VINA RESULT: -6.260131410      2.710      6.179
REMARK  15 active torsions:
REMARK  status: ('A' for Active; 'I' for Inactive)
REMARK    1  A    between atoms: N1_1  and  C1_5 
REMARK    2  A    between atoms: C1_5  and  C2_6 
REMARK    3  A    between atoms: C2_6  and  C3_7 
REMARK    4  A    between atoms: C3_7  and  C4_8 
REMARK    5  A    between atoms: C4_8  and  C5_9 
REMARK    6  A    between atoms: C8_15  and  C9_16 
REMARK    7  A    between atoms: C9_16  and  C10_17 
REMARK    8  A    between atoms: C10_17  and  C11_18 
REMARK    9  A    between atoms: C11_18  and  C12_19 
REMARK   10  A    between atoms: C12_19  and  N3_20 
REMARK   11  A    between atoms: C16_30  and  C17_31 
REMARK   12  A    between atoms: C17_31  and  C18_32 
REMARK   13  A    between atoms: C18_32  and  C19_33 
REMARK   14  A    between atoms: C19_33  and  C20_34 
REMARK   15  A    between atoms: C20_34  and  N5_35 
ROOT
HETATM    1  C5  UNL     1      14.057  39.579  -9.338  1.00  0.00     0.093 C 
HETATM    2  C6  UNL     1      12.585  39.824  -9.288  1.00  0.00     0.128 C 
HETATM    3  C7  UNL     1      12.131  40.510  -8.049  1.00  0.00     0.220 C 
HETATM    4  O1  UNL     1      11.172  39.970  -7.397  1.00  0.00    -0.274 OA
HETATM    5  N2  UNL     1      12.694  41.696  -7.575  1.00  0.00    -0.348 N 
ATOM      6  H2  UNL     1      12.743  41.808  -6.563  1.00  0.00     0.163 HD
HETATM    7  C8  UNL     1      13.216  42.785  -8.376  1.00  0.00     0.176 C 
HETATM    8  C13 UNL     1      14.507  43.186  -7.761  1.00  0.00     0.240 C 
HETATM    9  O2  UNL     1      14.576  43.180  -6.509  1.00  0.00    -0.271 OA
HETATM   10  N4  UNL     1      15.652  43.570  -8.492  1.00  0.00    -0.359 N 
ATOM     11  H4  UNL     1      16.551  43.522  -8.014  1.00  0.00     0.162 HD
HETATM   12  C14 UNL     1      15.654  44.024  -9.858  1.00  0.00     0.123 C 
HETATM   13  C15 UNL     1      16.029  42.977 -10.854  1.00  0.00     0.034 C 
HETATM   14  C16 UNL     1      16.401  41.642 -10.219  1.00  0.00     0.079 C 
HETATM   15  C21 UNL     1      15.779  40.512 -10.962  1.00  0.00     0.222 C 
HETATM   16  O3  UNL     1      16.436  40.029 -11.949  1.00  0.00    -0.273 OA
HETATM   17  N6  UNL     1      14.534  39.940 -10.666  1.00  0.00    -0.356 N 
ATOM     18  H6  UNL     1      13.907  39.761 -11.450  1.00  0.00     0.162 HD
ENDROOT
BRANCH   1  19
HETATM   19  C4  UNL     1      14.291  38.079  -9.239  1.00  0.00     0.026 C 
BRANCH  19  20
HETATM   20  C3  UNL     1      13.751  37.316 -10.421  1.00  0.00     0.004 C 
BRANCH  20  21
HETATM   21  C2  UNL     1      14.896  36.401 -10.879  1.00  0.00     0.027 C 
BRANCH  21  22
HETATM   22  C1  UNL     1      15.276  36.702 -12.310  1.00  0.00     0.229 C 
BRANCH  22  23
HETATM   23  N1  UNL     1      16.667  37.086 -12.322  1.00  0.00    -0.079 N 
ATOM     24  H13 UNL     1      16.877  37.837 -11.664  1.00  0.00     0.274 HD
ATOM     25  H12 UNL     1      17.278  36.377 -11.916  1.00  0.00     0.274 HD
ATOM     26  H11 UNL     1      16.915  37.319 -13.283  1.00  0.00     0.274 HD
ENDBRANCH  22  23
ENDBRANCH  21  22
ENDBRANCH  20  21
ENDBRANCH  19  20
ENDBRANCH   1  19
BRANCH  14  27
HETATM   27  C17 UNL     1      17.918  41.550 -10.318  1.00  0.00     0.014 C 
BRANCH  27  28
HETATM   28  C18 UNL     1      18.502  42.571 -11.242  1.00  0.00     0.002 C 
BRANCH  28  29
HETATM   29  C19 UNL     1      19.671  41.920 -11.957  1.00  0.00     0.027 C 
BRANCH  29  30
HETATM   30  C20 UNL     1      19.305  41.554 -13.381  1.00  0.00     0.229 C 
BRANCH  30  31
HETATM   31  N5  UNL     1      19.008  40.141 -13.497  1.00  0.00    -0.079 N 
ATOM     32  H53 UNL     1      18.839  39.870 -14.465  1.00  0.00     0.274 HD
ATOM     33  H52 UNL     1      19.832  39.568 -13.317  1.00  0.00     0.274 HD
ATOM     34  H51 UNL     1      18.229  39.879 -12.893  1.00  0.00     0.274 HD
ENDBRANCH  30  31
ENDBRANCH  29  30
ENDBRANCH  28  29
ENDBRANCH  27  28
ENDBRANCH  14  27
BRANCH   7  35
HETATM   35  C9  UNL     1      12.240  43.946  -8.338  1.00  0.00     0.035 C 
BRANCH  35  36
HETATM   36  C10 UNL     1      11.992  44.387  -9.743  1.00  0.00     0.004 C 
BRANCH  36  37
HETATM   37  C11 UNL     1      11.077  43.447 -10.497  1.00  0.00     0.027 C 
BRANCH  37  38
HETATM   38  C12 UNL     1       9.663  43.504  -9.980  1.00  0.00     0.229 C 
BRANCH  38  39
HETATM   39  N3  UNL     1       8.680  43.110 -10.945  1.00  0.00    -0.079 N 
ATOM     40  H33 UNL     1       7.915  43.784 -10.973  1.00  0.00     0.274 HD
ATOM     41  H32 UNL     1       9.042  43.221 -11.892  1.00  0.00     0.274 HD
ATOM     42  H31 UNL     1       8.323  42.166 -10.804  1.00  0.00     0.274 HD
ENDBRANCH  38  39
ENDBRANCH  37  38
ENDBRANCH  36  37
ENDBRANCH  35  36
ENDBRANCH   7  35
TORSDOF 15
ENDMDL
