MODEL 1
REMARK VINA RESULT: -6.656135340      0.000      0.000
REMARK  11 active torsions:
REMARK  status: ('A' for Active; 'I' for Inactive)
REMARK    1  A    between atoms: C5_9  and  S1_10 
REMARK    2  A    between atoms: S1_10  and  C6_13 
REMARK    3  A    between atoms: C6_13  and  C7_14 
REMARK    4  A    between atoms: C7_14  and  C8_15 
REMARK    5  A    between atoms: C8_15  and  C9_16 
REMARK    6  A    between atoms: C9_16  and  C10_17 
REMARK    7  A    between atoms: C10_17  and  C11_18 
REMARK    8  A    between atoms: C11_18  and  C12_19 
REMARK    9  A    between atoms: C12_19  and  C13_20 
REMARK   10  A    between atoms: C13_20  and  N3_21 
REMARK   11  A    between atoms: C15_26  and  N6_27 
REMARK       I    between atoms: N6_27  and  C16_29 
ROOT
HETATM    1  N1  UNL     1      11.562  44.018  -7.696  1.00  0.00    -0.191 NA
HETATM    2  C1  UNL     1      11.725  42.881  -7.576  1.00  0.00     0.103 C 
HETATM    3  C2  UNL     1      11.889  41.459  -7.401  1.00  0.00     0.088 A 
HETATM    4  C3  UNL     1      11.203  40.822  -6.362  1.00  0.00     0.116 A 
HETATM    5  N2  UNL     1      11.271  39.505  -6.140  1.00  0.00    -0.331 N 
ATOM      6  H2  UNL     1      10.757  39.072  -5.373  1.00  0.00     0.168 HD
HETATM    7  C4  UNL     1      12.039  38.774  -6.962  1.00  0.00     0.269 A 
HETATM    8  O1  UNL     1      12.084  37.531  -6.731  1.00  0.00    -0.266 OA
HETATM    9  C5  UNL     1      12.753  39.290  -8.009  1.00  0.00     0.155 A 
HETATM   10  C15 UNL     1      12.665  40.676  -8.222  1.00  0.00     0.084 A 
ENDROOT
BRANCH  10  11
HETATM   11  N6  UNL     1      13.401  41.196  -9.267  1.00  0.00    -0.328 N 
HETATM   12  C16 UNL     1      13.089  41.493 -10.589  1.00  0.00     0.186 C 
HETATM   13  N7  UNL     1      13.635  40.850 -11.554  1.00  0.00    -0.373 N 
HETATM   14  N8  UNL     1      12.188  42.546 -10.885  1.00  0.00    -0.064 NA
ATOM     15  H72 UNL     1      14.283  40.092 -11.341  1.00  0.00     0.158 HD
ATOM     16  H71 UNL     1      13.406  41.069 -12.524  1.00  0.00     0.158 HD
ATOM     17  H6  UNL     1      14.368  41.403  -9.020  1.00  0.00     0.168 HD
ENDBRANCH  10  11
BRANCH   9  18
HETATM   18  S1  UNL     1      13.704  38.251  -8.990  1.00  0.00     0.183 S 
HETATM   19  O2  UNL     1      14.875  39.002  -9.492  1.00  0.00    -0.222 OA
HETATM   20  O3  UNL     1      14.296  37.188  -8.037  1.00  0.00    -0.222 OA
BRANCH  18  21
HETATM   21  C6  UNL     1      12.889  37.381 -10.227  1.00  0.00     0.146 C 
BRANCH  21  22
HETATM   22  C7  UNL     1      13.802  36.600 -11.106  1.00  0.00     0.015 C 
BRANCH  22  23
HETATM   23  C8  UNL     1      13.221  35.897 -12.276  1.00  0.00     0.001 C 
BRANCH  23  24
HETATM   24  C9  UNL     1      14.052  36.240 -13.544  1.00  0.00     0.000 C 
BRANCH  24  25
HETATM   25  C10 UNL     1      14.066  37.747 -13.648  1.00  0.00     0.000 C 
BRANCH  25  26
HETATM   26  C11 UNL     1      15.386  38.260 -14.132  1.00  0.00     0.002 C 
BRANCH  26  27
HETATM   27  C12 UNL     1      16.504  37.687 -13.308  1.00  0.00     0.020 C 
BRANCH  27  28
HETATM   28  C13 UNL     1      17.430  38.788 -12.812  1.00  0.00     0.122 C 
BRANCH  28  29
HETATM   29  N3  UNL     1      16.794  39.620 -11.824  1.00  0.00    -0.367 N 
HETATM   30  C14 UNL     1      17.354  40.684 -11.400  1.00  0.00     0.196 C 
HETATM   31  N4  UNL     1      16.668  41.461 -10.423  1.00  0.00    -0.067 NA
HETATM   32  N5  UNL     1      18.626  41.122 -11.863  1.00  0.00    -0.067 NA
ATOM     33  H3  UNL     1      15.880  39.354 -11.457  1.00  0.00     0.161 HD
ENDBRANCH  28  29
ENDBRANCH  27  28
ENDBRANCH  26  27
ENDBRANCH  25  26
ENDBRANCH  24  25
ENDBRANCH  23  24
ENDBRANCH  22  23
ENDBRANCH  21  22
ENDBRANCH  18  21
ENDBRANCH   9  18
TORSDOF 11
ENDMDL
MODEL 2
REMARK VINA RESULT: -6.640867985      2.928      6.829
REMARK  11 active torsions:
REMARK  status: ('A' for Active; 'I' for Inactive)
REMARK    1  A    between atoms: C5_9  and  S1_10 
REMARK    2  A    between atoms: S1_10  and  C6_13 
REMARK    3  A    between atoms: C6_13  and  C7_14 
REMARK    4  A    between atoms: C7_14  and  C8_15 
REMARK    5  A    between atoms: C8_15  and  C9_16 
REMARK    6  A    between atoms: C9_16  and  C10_17 
REMARK    7  A    between atoms: C10_17  and  C11_18 
REMARK    8  A    between atoms: C11_18  and  C12_19 
REMARK    9  A    between atoms: C12_19  and  C13_20 
REMARK   10  A    between atoms: C13_20  and  N3_21 
REMARK   11  A    between atoms: C15_26  and  N6_27 
REMARK       I    between atoms: N6_27  and  C16_29 
ROOT
HETATM    1  N1  UNL     1      12.948  34.792 -12.509  1.00  0.00    -0.191 NA
HETATM    2  C1  UNL     1      13.283  35.795 -12.043  1.00  0.00     0.103 C 
HETATM    3  C2  UNL     1      13.713  37.022 -11.421  1.00  0.00     0.088 A 
HETATM    4  C3  UNL     1      13.837  37.068 -10.029  1.00  0.00     0.116 A 
HETATM    5  N2  UNL     1      14.256  38.151  -9.366  1.00  0.00    -0.331 N 
ATOM      6  H2  UNL     1      14.335  38.151  -8.350  1.00  0.00     0.168 HD
HETATM    7  C4  UNL     1      14.567  39.239 -10.087  1.00  0.00     0.269 A 
HETATM    8  O1  UNL     1      14.961  40.249  -9.436  1.00  0.00    -0.266 OA
HETATM    9  C5  UNL     1      14.483  39.309 -11.451  1.00  0.00     0.155 A 
HETATM   10  C15 UNL     1      14.042  38.156 -12.124  1.00  0.00     0.084 A 
ENDROOT
BRANCH  10  11
HETATM   11  N6  UNL     1      13.941  38.235 -13.498  1.00  0.00    -0.328 N 
HETATM   12  C16 UNL     1      14.809  37.899 -14.531  1.00  0.00     0.186 C 
HETATM   13  N7  UNL     1      15.298  38.802 -15.299  1.00  0.00    -0.373 N 
HETATM   14  N8  UNL     1      15.131  36.540 -14.774  1.00  0.00    -0.064 NA
ATOM     15  H72 UNL     1      15.066  39.780 -15.124  1.00  0.00     0.158 HD
ATOM     16  H71 UNL     1      15.934  38.555 -16.057  1.00  0.00     0.158 HD
ATOM     17  H6  UNL     1      13.053  38.616 -13.820  1.00  0.00     0.168 HD
ENDBRANCH  10  11
BRANCH   9  18
HETATM   18  S1  UNL     1      14.908  40.761 -12.262  1.00  0.00     0.183 S 
HETATM   19  O2  UNL     1      16.147  40.535 -13.035  1.00  0.00    -0.222 OA
HETATM   20  O3  UNL     1      13.814  40.988 -13.329  1.00  0.00    -0.222 OA
BRANCH  18  21
HETATM   21  C6  UNL     1      14.959  42.196 -11.320  1.00  0.00     0.146 C 
BRANCH  21  22
HETATM   22  C7  UNL     1      16.316  42.804 -11.236  1.00  0.00     0.015 C 
BRANCH  22  23
HETATM   23  C8  UNL     1      16.908  43.019  -9.892  1.00  0.00     0.001 C 
BRANCH  23  24
HETATM   24  C9  UNL     1      16.107  44.126  -9.152  1.00  0.00     0.000 C 
BRANCH  24  25
HETATM   25  C10 UNL     1      15.577  43.494  -7.886  1.00  0.00     0.000 C 
BRANCH  25  26
HETATM   26  C11 UNL     1      14.082  43.423  -7.882  1.00  0.00     0.002 C 
BRANCH  26  27
HETATM   27  C12 UNL     1      13.616  42.262  -7.051  1.00  0.00     0.020 C 
BRANCH  27  28
HETATM   28  C13 UNL     1      12.208  41.842  -7.449  1.00  0.00     0.122 C 
BRANCH  28  29
HETATM   29  N3  UNL     1      12.150  40.457  -7.835  1.00  0.00    -0.367 N 
HETATM   30  C14 UNL     1      11.496  39.608  -7.146  1.00  0.00     0.196 C 
HETATM   31  N4  UNL     1      11.480  38.252  -7.585  1.00  0.00    -0.067 NA
HETATM   32  N5  UNL     1      10.785  39.959  -5.964  1.00  0.00    -0.067 NA
ATOM     33  H3  UNL     1      12.641  40.149  -8.675  1.00  0.00     0.161 HD
ENDBRANCH  28  29
ENDBRANCH  27  28
ENDBRANCH  26  27
ENDBRANCH  25  26
ENDBRANCH  24  25
ENDBRANCH  23  24
ENDBRANCH  22  23
ENDBRANCH  21  22
ENDBRANCH  18  21
ENDBRANCH   9  18
TORSDOF 11
ENDMDL
MODEL 3
REMARK VINA RESULT: -6.531948003      3.492      8.432
REMARK  11 active torsions:
REMARK  status: ('A' for Active; 'I' for Inactive)
REMARK    1  A    between atoms: C5_9  and  S1_10 
REMARK    2  A    between atoms: S1_10  and  C6_13 
REMARK    3  A    between atoms: C6_13  and  C7_14 
REMARK    4  A    between atoms: C7_14  and  C8_15 
REMARK    5  A    between atoms: C8_15  and  C9_16 
REMARK    6  A    between atoms: C9_16  and  C10_17 
REMARK    7  A    between atoms: C10_17  and  C11_18 
REMARK    8  A    between atoms: C11_18  and  C12_19 
REMARK    9  A    between atoms: C12_19  and  C13_20 
REMARK   10  A    between atoms: C13_20  and  N3_21 
REMARK   11  A    between atoms: C15_26  and  N6_27 
REMARK       I    between atoms: N6_27  and  C16_29 
ROOT
HETATM    1  N1  UNL     1      14.447  37.167  -9.046  1.00  0.00    -0.191 NA
HETATM    2  C1  UNL     1      13.723  37.916  -8.548  1.00  0.00     0.103 C 
HETATM    3  C2  UNL     1      12.825  38.827  -7.884  1.00  0.00     0.088 A 
HETATM    4  C3  UNL     1      12.203  38.422  -6.698  1.00  0.00     0.116 A 
HETATM    5  N2  UNL     1      11.378  39.208  -5.999  1.00  0.00    -0.331 N 
ATOM      6  H2  UNL     1      10.942  38.881  -5.137  1.00  0.00     0.168 HD
HETATM    7  C4  UNL     1      11.144  40.442  -6.472  1.00  0.00     0.269 A 
HETATM    8  O1  UNL     1      10.361  41.164  -5.790  1.00  0.00    -0.266 OA
HETATM    9  C5  UNL     1      11.695  40.943  -7.619  1.00  0.00     0.155 A 
HETATM   10  C15 UNL     1      12.560  40.098  -8.336  1.00  0.00     0.084 A 
ENDROOT
BRANCH  10  11
HETATM   11  N6  UNL     1      13.099  40.601  -9.502  1.00  0.00    -0.328 N 
HETATM   12  C16 UNL     1      14.306  41.228  -9.793  1.00  0.00     0.186 C 
HETATM   13  N7  UNL     1      14.335  42.452 -10.176  1.00  0.00    -0.373 N 
HETATM   14  N8  UNL     1      15.521  40.504  -9.709  1.00  0.00    -0.064 NA
ATOM     15  H72 UNL     1      13.460  42.973 -10.237  1.00  0.00     0.158 HD
ATOM     16  H71 UNL     1      15.219  42.912 -10.390  1.00  0.00     0.158 HD
ATOM     17  H6  UNL     1      12.492  40.490 -10.313  1.00  0.00     0.168 HD
ENDBRANCH  10  11
BRANCH   9  18
HETATM   18  S1  UNL     1      11.316  42.540  -8.124  1.00  0.00     0.183 S 
HETATM   19  O2  UNL     1      12.443  43.432  -7.783  1.00  0.00    -0.222 OA
HETATM   20  O3  UNL     1      11.294  42.504  -9.668  1.00  0.00    -0.222 OA
BRANCH  18  21
HETATM   21  C6  UNL     1       9.793  43.171  -7.641  1.00  0.00     0.146 C 
BRANCH  21  22
HETATM   22  C7  UNL     1       9.891  44.464  -6.908  1.00  0.00     0.015 C 
BRANCH  22  23
HETATM   23  C8  UNL     1       8.689  44.961  -6.196  1.00  0.00     0.001 C 
BRANCH  23  24
HETATM   24  C9  UNL     1       8.422  44.065  -4.955  1.00  0.00     0.000 C 
BRANCH  24  25
HETATM   25  C10 UNL     1       7.132  43.329  -5.231  1.00  0.00     0.000 C 
BRANCH  25  26
HETATM   26  C11 UNL     1       7.028  42.068  -4.430  1.00  0.00     0.002 C 
BRANCH  26  27
HETATM   27  C12 UNL     1       7.693  42.240  -3.094  1.00  0.00     0.020 C 
BRANCH  27  28
HETATM   28  C13 UNL     1       8.452  40.981  -2.702  1.00  0.00     0.122 C 
BRANCH  28  29
HETATM   29  N3  UNL     1       8.577  40.064  -3.804  1.00  0.00    -0.367 N 
HETATM   30  C14 UNL     1       8.680  38.809  -3.608  1.00  0.00     0.196 C 
HETATM   31  N4  UNL     1       8.800  37.958  -4.745  1.00  0.00    -0.067 NA
HETATM   32  N5  UNL     1       8.678  38.229  -2.309  1.00  0.00    -0.067 NA
ATOM     33  H3  UNL     1       8.584  40.425  -4.758  1.00  0.00     0.161 HD
ENDBRANCH  28  29
ENDBRANCH  27  28
ENDBRANCH  26  27
ENDBRANCH  25  26
ENDBRANCH  24  25
ENDBRANCH  23  24
ENDBRANCH  22  23
ENDBRANCH  21  22
ENDBRANCH  18  21
ENDBRANCH   9  18
TORSDOF 11
ENDMDL
MODEL 4
REMARK VINA RESULT: -6.522123398      2.780      4.763
REMARK  11 active torsions:
REMARK  status: ('A' for Active; 'I' for Inactive)
REMARK    1  A    between atoms: C5_9  and  S1_10 
REMARK    2  A    between atoms: S1_10  and  C6_13 
REMARK    3  A    between atoms: C6_13  and  C7_14 
REMARK    4  A    between atoms: C7_14  and  C8_15 
REMARK    5  A    between atoms: C8_15  and  C9_16 
REMARK    6  A    between atoms: C9_16  and  C10_17 
REMARK    7  A    between atoms: C10_17  and  C11_18 
REMARK    8  A    between atoms: C11_18  and  C12_19 
REMARK    9  A    between atoms: C12_19  and  C13_20 
REMARK   10  A    between atoms: C13_20  and  N3_21 
REMARK   11  A    between atoms: C15_26  and  N6_27 
REMARK       I    between atoms: N6_27  and  C16_29 
ROOT
HETATM    1  N1  UNL     1      11.402  37.817  -6.115  1.00  0.00    -0.191 NA
HETATM    2  C1  UNL     1      12.056  38.151  -7.007  1.00  0.00     0.103 C 
HETATM    3  C2  UNL     1      12.879  38.521  -8.131  1.00  0.00     0.088 A 
HETATM    4  C3  UNL     1      13.761  37.577  -8.665  1.00  0.00     0.116 A 
HETATM    5  N2  UNL     1      14.542  37.820  -9.722  1.00  0.00    -0.331 N 
ATOM      6  H2  UNL     1      15.174  37.108 -10.087  1.00  0.00     0.168 HD
HETATM    7  C4  UNL     1      14.465  39.035 -10.286  1.00  0.00     0.269 A 
HETATM    8  O1  UNL     1      15.214  39.238 -11.286  1.00  0.00    -0.266 OA
HETATM    9  C5  UNL     1      13.641  40.035  -9.849  1.00  0.00     0.155 A 
HETATM   10  C15 UNL     1      12.828  39.754  -8.736  1.00  0.00     0.084 A 
ENDROOT
BRANCH  10  11
HETATM   11  N6  UNL     1      12.012  40.771  -8.287  1.00  0.00    -0.328 N 
HETATM   12  C16 UNL     1      11.939  41.465  -7.084  1.00  0.00     0.186 C 
HETATM   13  N7  UNL     1      10.909  41.362  -6.327  1.00  0.00    -0.373 N 
HETATM   14  N8  UNL     1      12.992  42.331  -6.700  1.00  0.00    -0.064 NA
ATOM     15  H72 UNL     1      10.150  40.738  -6.604  1.00  0.00     0.158 HD
ATOM     16  H71 UNL     1      10.855  41.871  -5.445  1.00  0.00     0.158 HD
ATOM     17  H6  UNL     1      11.323  41.075  -8.975  1.00  0.00     0.168 HD
ENDBRANCH  10  11
BRANCH   9  18
HETATM   18  S1  UNL     1      13.633  41.551 -10.654  1.00  0.00     0.183 S 
HETATM   19  O2  UNL     1      12.240  42.035 -10.755  1.00  0.00    -0.222 OA
HETATM   20  O3  UNL     1      14.326  42.546  -9.695  1.00  0.00    -0.222 OA
BRANCH  18  21
HETATM   21  C6  UNL     1      14.486  41.651 -12.142  1.00  0.00     0.146 C 
BRANCH  21  22
HETATM   22  C7  UNL     1      13.596  41.708 -13.334  1.00  0.00     0.015 C 
BRANCH  22  23
HETATM   23  C8  UNL     1      14.203  41.511 -14.673  1.00  0.00     0.001 C 
BRANCH  23  24
HETATM   24  C9  UNL     1      13.312  40.544 -15.502  1.00  0.00     0.000 C 
BRANCH  24  25
HETATM   25  C10 UNL     1      14.216  39.427 -15.968  1.00  0.00     0.000 C 
BRANCH  25  26
HETATM   26  C11 UNL     1      14.378  38.369 -14.922  1.00  0.00     0.002 C 
BRANCH  26  27
HETATM   27  C12 UNL     1      14.306  37.003 -15.545  1.00  0.00     0.020 C 
BRANCH  27  28
HETATM   28  C13 UNL     1      13.694  36.000 -14.579  1.00  0.00     0.122 C 
BRANCH  28  29
HETATM   29  N3  UNL     1      14.595  35.667 -13.507  1.00  0.00    -0.367 N 
HETATM   30  C14 UNL     1      14.193  35.623 -12.298  1.00  0.00     0.196 C 
HETATM   31  N4  UNL     1      15.138  35.286 -11.287  1.00  0.00    -0.067 NA
HETATM   32  N5  UNL     1      12.848  35.894 -11.924  1.00  0.00    -0.067 NA
ATOM     33  H3  UNL     1      15.572  35.463 -13.719  1.00  0.00     0.161 HD
ENDBRANCH  28  29
ENDBRANCH  27  28
ENDBRANCH  26  27
ENDBRANCH  25  26
ENDBRANCH  24  25
ENDBRANCH  23  24
ENDBRANCH  22  23
ENDBRANCH  21  22
ENDBRANCH  18  21
ENDBRANCH   9  18
TORSDOF 11
ENDMDL
MODEL 5
REMARK VINA RESULT: -6.514633229      2.903      4.700
REMARK  11 active torsions:
REMARK  status: ('A' for Active; 'I' for Inactive)
REMARK    1  A    between atoms: C5_9  and  S1_10 
REMARK    2  A    between atoms: S1_10  and  C6_13 
REMARK    3  A    between atoms: C6_13  and  C7_14 
REMARK    4  A    between atoms: C7_14  and  C8_15 
REMARK    5  A    between atoms: C8_15  and  C9_16 
REMARK    6  A    between atoms: C9_16  and  C10_17 
REMARK    7  A    between atoms: C10_17  and  C11_18 
REMARK    8  A    between atoms: C11_18  and  C12_19 
REMARK    9  A    between atoms: C12_19  and  C13_20 
REMARK   10  A    between atoms: C13_20  and  N3_21 
REMARK   11  A    between atoms: C15_26  and  N6_27 
REMARK       I    between atoms: N6_27  and  C16_29 
ROOT
HETATM    1  N1  UNL     1      11.123  37.891  -6.155  1.00  0.00    -0.191 NA
HETATM    2  C1  UNL     1      11.543  38.767  -6.780  1.00  0.00     0.103 C 
HETATM    3  C2  UNL     1      12.065  39.888  -7.521  1.00  0.00     0.088 A 
HETATM    4  C3  UNL     1      11.874  41.179  -7.019  1.00  0.00     0.116 A 
HETATM    5  N2  UNL     1      12.346  42.276  -7.621  1.00  0.00    -0.331 N 
ATOM      6  H2  UNL     1      12.189  43.203  -7.228  1.00  0.00     0.168 HD
HETATM    7  C4  UNL     1      13.033  42.112  -8.762  1.00  0.00     0.269 A 
HETATM    8  O1  UNL     1      13.469  43.166  -9.310  1.00  0.00    -0.266 OA
HETATM    9  C5  UNL     1      13.280  40.899  -9.344  1.00  0.00     0.155 A 
HETATM   10  C15 UNL     1      12.775  39.761  -8.691  1.00  0.00     0.084 A 
ENDROOT
BRANCH  10  11
HETATM   11  N6  UNL     1      13.010  38.541  -9.291  1.00  0.00    -0.328 N 
HETATM   12  C16 UNL     1      14.018  37.595  -9.147  1.00  0.00     0.186 C 
HETATM   13  N7  UNL     1      14.825  37.342 -10.111  1.00  0.00    -0.373 N 
HETATM   14  N8  UNL     1      14.140  36.866  -7.938  1.00  0.00    -0.064 NA
ATOM     15  H72 UNL     1      14.737  37.866 -10.981  1.00  0.00     0.158 HD
ATOM     16  H71 UNL     1      15.564  36.647 -10.005  1.00  0.00     0.158 HD
ATOM     17  H6  UNL     1      12.302  38.281  -9.977  1.00  0.00     0.168 HD
ENDBRANCH  10  11
BRANCH   9  18
HETATM   18  S1  UNL     1      14.171  40.818 -10.809  1.00  0.00     0.183 S 
HETATM   19  O2  UNL     1      15.556  40.399 -10.507  1.00  0.00    -0.222 OA
HETATM   20  O3  UNL     1      13.569  39.642 -11.610  1.00  0.00    -0.222 OA
BRANCH  18  21
HETATM   21  C6  UNL     1      14.098  42.187 -11.845  1.00  0.00     0.146 C 
BRANCH  21  22
HETATM   22  C7  UNL     1      12.768  42.376 -12.487  1.00  0.00     0.015 C 
BRANCH  22  23
HETATM   23  C8  UNL     1      12.711  42.484 -13.965  1.00  0.00     0.001 C 
BRANCH  23  24
HETATM   24  C9  UNL     1      13.849  41.627 -14.586  1.00  0.00     0.000 C 
BRANCH  24  25
HETATM   25  C10 UNL     1      13.255  40.941 -15.794  1.00  0.00     0.000 C 
BRANCH  25  26
HETATM   26  C11 UNL     1      13.910  39.622 -16.064  1.00  0.00     0.002 C 
BRANCH  26  27
HETATM   27  C12 UNL     1      14.569  39.102 -14.818  1.00  0.00     0.020 C 
BRANCH  27  28
HETATM   28  C13 UNL     1      14.486  37.583 -14.756  1.00  0.00     0.122 C 
BRANCH  28  29
HETATM   29  N3  UNL     1      14.056  37.121 -13.463  1.00  0.00    -0.367 N 
HETATM   30  C14 UNL     1      13.327  36.082 -13.343  1.00  0.00     0.196 C 
HETATM   31  N4  UNL     1      12.938  35.681 -12.032  1.00  0.00    -0.067 NA
HETATM   32  N5  UNL     1      12.891  35.314 -14.459  1.00  0.00    -0.067 NA
ATOM     33  H3  UNL     1      14.339  37.634 -12.627  1.00  0.00     0.161 HD
ENDBRANCH  28  29
ENDBRANCH  27  28
ENDBRANCH  26  27
ENDBRANCH  25  26
ENDBRANCH  24  25
ENDBRANCH  23  24
ENDBRANCH  22  23
ENDBRANCH  21  22
ENDBRANCH  18  21
ENDBRANCH   9  18
TORSDOF 11
ENDMDL
