MODEL 1
REMARK VINA RESULT: -7.865200739      0.000      0.000
REMARK  17 active torsions:
REMARK  status: ('A' for Active; 'I' for Inactive)
REMARK    1  A    between atoms: C2_2  and  C3_3 
REMARK    2  A    between atoms: C3_3  and  C4_4 
REMARK    3  A    between atoms: C4_4  and  C5_5 
REMARK    4  A    between atoms: C5_5  and  C6_6 
REMARK    5  A    between atoms: C8_8  and  N1_9 
REMARK    6  A    between atoms: N1_9  and  C9_11 
REMARK    7  A    between atoms: C9_11  and  C10_12 
REMARK    8  A    between atoms: C10_12  and  O1_13 
REMARK    9  A    between atoms: C11_17  and  C12_18 
REMARK   10  A    between atoms: C12_18  and  N3_19 
REMARK   11  A    between atoms: C12_18  and  C13_23 
REMARK   12  A    between atoms: C13_23  and  C14_24 
REMARK   13  A    between atoms: C14_24  and  C15_25 
REMARK   14  A    between atoms: C15_25  and  N4_26 
REMARK   15  A    between atoms: C15_25  and  C16_30 
REMARK       I    between atoms: C16_30  and  N5_32 
REMARK   16  A    between atoms: C19_35  and  O3_36 
REMARK   17  A    between atoms: C21_39  and  C22_40 
ROOT
HETATM    1  C12 UNL     1      13.783  37.710  -9.175  1.00  0.00     0.250 C 
ENDROOT
BRANCH   1   2
HETATM    2  C11 UNL     1      12.931  38.459  -8.163  1.00  0.00     0.114 A 
HETATM    3  N2  UNL     1      12.592  37.912  -6.993  1.00  0.00    -0.331 N 
HETATM    4  C8  UNL     1      11.837  38.588  -6.101  1.00  0.00     0.104 A 
ATOM      5  H2  UNL     1      12.909  36.968  -6.769  1.00  0.00     0.168 HD
HETATM    6  C7  UNL     1      11.417  39.862  -6.413  1.00  0.00     0.073 A 
HETATM    7  C6  UNL     1      11.762  40.439  -7.622  1.00  0.00     0.014 A 
HETATM    8  N8  UNL     1      12.515  39.699  -8.454  1.00  0.00    -0.347 N 
ATOM      9  H8  UNL     1      12.784  40.101  -9.352  1.00  0.00     0.167 HD
BRANCH   4  10
HETATM   10  N1  UNL     1      11.489  38.103  -4.956  1.00  0.00    -0.374 N 
ATOM     11  H1  UNL     1      12.070  37.411  -4.482  1.00  0.00     0.161 HD
BRANCH  10  12
HETATM   12  C9  UNL     1      10.258  38.564  -4.363  1.00  0.00     0.147 C 
BRANCH  12  13
HETATM   13  C10 UNL     1      10.383  38.669  -2.857  1.00  0.00     0.183 C 
BRANCH  13  14
HETATM   14  O1  UNL     1      11.665  39.156  -2.595  1.00  0.00    -0.399 OA
ATOM     15  H1  UNL     1      12.188  38.411  -2.322  1.00  0.00     0.209 HD
ENDBRANCH  13  14
ENDBRANCH  12  13
ENDBRANCH  10  12
ENDBRANCH   4  10
BRANCH   7  16
HETATM   16  C5  UNL     1      11.307  41.804  -7.959  1.00  0.00     0.057 C 
BRANCH  16  17
HETATM   17  C4  UNL     1      12.370  42.647  -8.615  1.00  0.00     0.006 C 
BRANCH  17  18
HETATM   18  C3  UNL     1      13.490  42.956  -7.649  1.00  0.00     0.000 C 
BRANCH  18  19
HETATM   19  C2  UNL     1      14.816  42.700  -8.370  1.00  0.00    -0.005 C 
HETATM   20  C1  UNL     1      15.815  43.755  -7.947  1.00  0.00     0.005 C 
ENDBRANCH  18  19
ENDBRANCH  17  18
ENDBRANCH  16  17
ENDBRANCH   7  16
ENDBRANCH   1   2
BRANCH   1  21
HETATM   21  N3  UNL     1      14.904  38.577  -9.466  1.00  0.00    -0.068 N 
ATOM     22  H33 UNL     1      15.271  38.466 -10.412  1.00  0.00     0.275 HD
ATOM     23  H32 UNL     1      14.648  39.560  -9.549  1.00  0.00     0.275 HD
ATOM     24  H31 UNL     1      15.592  38.394  -8.736  1.00  0.00     0.275 HD
ENDBRANCH   1  21
BRANCH   1  25
HETATM   25  C13 UNL     1      13.014  37.446 -10.412  1.00  0.00     0.043 C 
BRANCH  25  26
HETATM   26  C14 UNL     1      13.753  36.677 -11.434  1.00  0.00     0.045 C 
BRANCH  26  27
HETATM   27  C15 UNL     1      14.326  37.391 -12.613  1.00  0.00     0.275 C 
BRANCH  27  28
HETATM   28  N4  UNL     1      13.814  38.666 -12.894  1.00  0.00    -0.067 N 
ATOM     29  H43 UNL     1      14.161  38.980 -13.801  1.00  0.00     0.275 HD
ATOM     30  H42 UNL     1      12.815  38.597 -13.088  1.00  0.00     0.275 HD
ATOM     31  H41 UNL     1      13.977  39.393 -12.197  1.00  0.00     0.275 HD
ENDBRANCH  27  28
BRANCH  27  32
HETATM   32  C16 UNL     1      14.419  36.493 -13.799  1.00  0.00     0.251 C 
HETATM   33  O2  UNL     1      13.419  35.737 -13.959  1.00  0.00    -0.271 OA
HETATM   34  N5  UNL     1      15.483  36.444 -14.691  1.00  0.00    -0.339 N 
HETATM   35  C17 UNL     1      16.685  37.176 -14.463  1.00  0.00     0.129 C 
HETATM   36  C21 UNL     1      15.365  35.647 -15.909  1.00  0.00     0.153 C 
HETATM   37  C18 UNL     1      17.909  36.650 -15.190  1.00  0.00     0.051 C 
HETATM   38  C19 UNL     1      17.631  36.174 -16.571  1.00  0.00     0.122 C 
HETATM   39  C20 UNL     1      16.192  36.411 -16.972  1.00  0.00     0.064 C 
BRANCH  38  40
HETATM   40  O3  UNL     1      17.976  34.857 -16.803  1.00  0.00    -0.395 OA
ATOM     41  H3  UNL     1      18.551  34.726 -17.549  1.00  0.00     0.210 HD
ENDBRANCH  38  40
BRANCH  36  42
HETATM   42  C22 UNL     1      13.985  35.545 -16.405  1.00  0.00     0.110 C 
HETATM   43  N6  UNL     1      13.402  34.377 -16.386  1.00  0.00    -0.389 N 
ATOM     44  H62 UNL     1      13.888  33.558 -16.020  1.00  0.00     0.157 HD
ATOM     45  H61 UNL     1      12.445  34.306 -16.730  1.00  0.00     0.157 HD
HETATM   46  N7  UNL     1      13.312  36.680 -16.913  1.00  0.00    -0.086 NA
ENDBRANCH  36  42
ENDBRANCH  27  32
ENDBRANCH  26  27
ENDBRANCH  25  26
ENDBRANCH   1  25
TORSDOF 17
ENDMDL
MODEL 2
REMARK VINA RESULT: -7.835349409      3.313      5.800
REMARK  17 active torsions:
REMARK  status: ('A' for Active; 'I' for Inactive)
REMARK    1  A    between atoms: C2_2  and  C3_3 
REMARK    2  A    between atoms: C3_3  and  C4_4 
REMARK    3  A    between atoms: C4_4  and  C5_5 
REMARK    4  A    between atoms: C5_5  and  C6_6 
REMARK    5  A    between atoms: C8_8  and  N1_9 
REMARK    6  A    between atoms: N1_9  and  C9_11 
REMARK    7  A    between atoms: C9_11  and  C10_12 
REMARK    8  A    between atoms: C10_12  and  O1_13 
REMARK    9  A    between atoms: C11_17  and  C12_18 
REMARK   10  A    between atoms: C12_18  and  N3_19 
REMARK   11  A    between atoms: C12_18  and  C13_23 
REMARK   12  A    between atoms: C13_23  and  C14_24 
REMARK   13  A    between atoms: C14_24  and  C15_25 
REMARK   14  A    between atoms: C15_25  and  N4_26 
REMARK   15  A    between atoms: C15_25  and  C16_30 
REMARK       I    between atoms: C16_30  and  N5_32 
REMARK   16  A    between atoms: C19_35  and  O3_36 
REMARK   17  A    between atoms: C21_39  and  C22_40 
ROOT
HETATM    1  C12 UNL     1      11.235  39.321  -6.131  1.00  0.00     0.250 C 
ENDROOT
BRANCH   1   2
HETATM    2  C11 UNL     1      10.550  39.392  -4.776  1.00  0.00     0.114 A 
HETATM    3  N2  UNL     1      10.988  38.683  -3.732  1.00  0.00    -0.331 N 
HETATM    4  C8  UNL     1      10.372  38.757  -2.533  1.00  0.00     0.104 A 
ATOM      5  H2  UNL     1      11.800  38.076  -3.843  1.00  0.00     0.168 HD
HETATM    6  C7  UNL     1       9.277  39.581  -2.395  1.00  0.00     0.073 A 
HETATM    7  C6  UNL     1       8.814  40.321  -3.469  1.00  0.00     0.014 A 
HETATM    8  N8  UNL     1       9.484  40.190  -4.628  1.00  0.00    -0.347 N 
ATOM      9  H8  UNL     1       9.163  40.725  -5.435  1.00  0.00     0.167 HD
BRANCH   4  10
HETATM   10  N1  UNL     1      10.761  38.096  -1.495  1.00  0.00    -0.374 N 
ATOM     11  H1  UNL     1      11.752  38.028  -1.259  1.00  0.00     0.161 HD
BRANCH  10  12
HETATM   12  C9  UNL     1       9.761  37.454  -0.677  1.00  0.00     0.147 C 
BRANCH  12  13
HETATM   13  C10 UNL     1       9.513  36.031  -1.133  1.00  0.00     0.183 C 
BRANCH  13  14
HETATM   14  O1  UNL     1       8.344  36.053  -1.896  1.00  0.00    -0.399 OA
ATOM     15  H1  UNL     1       8.067  35.150  -1.996  1.00  0.00     0.209 HD
ENDBRANCH  13  14
ENDBRANCH  12  13
ENDBRANCH  10  12
ENDBRANCH   4  10
BRANCH   7  16
HETATM   16  C5  UNL     1       7.637  41.201  -3.322  1.00  0.00     0.057 C 
BRANCH  16  17
HETATM   17  C4  UNL     1       7.989  42.622  -2.963  1.00  0.00     0.006 C 
BRANCH  17  18
HETATM   18  C3  UNL     1       7.945  42.830  -1.467  1.00  0.00     0.000 C 
BRANCH  18  19
HETATM   19  C2  UNL     1       7.960  44.337  -1.202  1.00  0.00    -0.005 C 
HETATM   20  C1  UNL     1       6.773  44.694  -0.333  1.00  0.00     0.005 C 
ENDBRANCH  18  19
ENDBRANCH  17  18
ENDBRANCH  16  17
ENDBRANCH   7  16
ENDBRANCH   1   2
BRANCH   1  21
HETATM   21  N3  UNL     1      12.347  38.411  -5.963  1.00  0.00    -0.068 N 
ATOM     22  H33 UNL     1      12.575  38.220  -4.987  1.00  0.00     0.275 HD
ATOM     23  H32 UNL     1      12.132  37.450  -6.229  1.00  0.00     0.275 HD
ATOM     24  H31 UNL     1      13.120  38.816  -6.491  1.00  0.00     0.275 HD
ENDBRANCH   1  21
BRANCH   1  25
HETATM   25  C13 UNL     1      11.731  40.654  -6.537  1.00  0.00     0.043 C 
BRANCH  25  26
HETATM   26  C14 UNL     1      12.985  40.623  -7.318  1.00  0.00     0.045 C 
BRANCH  26  27
HETATM   27  C15 UNL     1      12.928  40.797  -8.799  1.00  0.00     0.275 C 
BRANCH  27  28
HETATM   28  N4  UNL     1      11.676  41.094  -9.356  1.00  0.00    -0.067 N 
ATOM     29  H43 UNL     1      11.027  40.330  -9.162  1.00  0.00     0.275 HD
ATOM     30  H42 UNL     1      11.239  41.851  -8.829  1.00  0.00     0.275 HD
ATOM     31  H41 UNL     1      11.654  41.315 -10.353  1.00  0.00     0.275 HD
ENDBRANCH  27  28
BRANCH  27  32
HETATM   32  C16 UNL     1      13.671  39.714  -9.502  1.00  0.00     0.251 C 
HETATM   33  O2  UNL     1      13.982  38.734  -8.767  1.00  0.00    -0.271 OA
HETATM   34  N5  UNL     1      14.018  39.718 -10.848  1.00  0.00    -0.339 N 
HETATM   35  C17 UNL     1      13.811  40.863 -11.672  1.00  0.00     0.129 C 
HETATM   36  C21 UNL     1      14.587  38.513 -11.448  1.00  0.00     0.153 C 
HETATM   37  C18 UNL     1      14.676  40.928 -12.917  1.00  0.00     0.051 C 
HETATM   38  C19 UNL     1      14.871  39.612 -13.584  1.00  0.00     0.122 C 
HETATM   39  C20 UNL     1      14.079  38.514 -12.910  1.00  0.00     0.064 C 
BRANCH  38  40
HETATM   40  O3  UNL     1      16.191  39.229 -13.718  1.00  0.00    -0.395 OA
ATOM     41  H3  UNL     1      16.641  39.620 -14.459  1.00  0.00     0.210 HD
ENDBRANCH  38  40
BRANCH  36  42
HETATM   42  C22 UNL     1      14.120  37.272 -10.813  1.00  0.00     0.110 C 
HETATM   43  N6  UNL     1      14.985  36.543 -10.162  1.00  0.00    -0.389 N 
ATOM     44  H62 UNL     1      15.959  36.837 -10.082  1.00  0.00     0.157 HD
ATOM     45  H61 UNL     1      14.661  35.682  -9.721  1.00  0.00     0.157 HD
HETATM   46  N7  UNL     1      12.771  36.865 -10.924  1.00  0.00    -0.086 NA
ENDBRANCH  36  42
ENDBRANCH  27  32
ENDBRANCH  26  27
ENDBRANCH  25  26
ENDBRANCH   1  25
TORSDOF 17
ENDMDL
MODEL 3
REMARK VINA RESULT: -7.656837034      3.362      6.402
REMARK  17 active torsions:
REMARK  status: ('A' for Active; 'I' for Inactive)
REMARK    1  A    between atoms: C2_2  and  C3_3 
REMARK    2  A    between atoms: C3_3  and  C4_4 
REMARK    3  A    between atoms: C4_4  and  C5_5 
REMARK    4  A    between atoms: C5_5  and  C6_6 
REMARK    5  A    between atoms: C8_8  and  N1_9 
REMARK    6  A    between atoms: N1_9  and  C9_11 
REMARK    7  A    between atoms: C9_11  and  C10_12 
REMARK    8  A    between atoms: C10_12  and  O1_13 
REMARK    9  A    between atoms: C11_17  and  C12_18 
REMARK   10  A    between atoms: C12_18  and  N3_19 
REMARK   11  A    between atoms: C12_18  and  C13_23 
REMARK   12  A    between atoms: C13_23  and  C14_24 
REMARK   13  A    between atoms: C14_24  and  C15_25 
REMARK   14  A    between atoms: C15_25  and  N4_26 
REMARK   15  A    between atoms: C15_25  and  C16_30 
REMARK       I    between atoms: C16_30  and  N5_32 
REMARK   16  A    between atoms: C19_35  and  O3_36 
REMARK   17  A    between atoms: C21_39  and  C22_40 
ROOT
HETATM    1  C12 UNL     1      11.223  39.310  -6.171  1.00  0.00     0.250 C 
ENDROOT
BRANCH   1   2
HETATM    2  C11 UNL     1      10.337  39.296  -4.936  1.00  0.00     0.114 A 
HETATM    3  N2  UNL     1       9.621  40.365  -4.576  1.00  0.00    -0.331 N 
HETATM    4  C8  UNL     1       8.836  40.340  -3.479  1.00  0.00     0.104 A 
ATOM      5  H2  UNL     1       9.669  41.214  -5.140  1.00  0.00     0.168 HD
HETATM    6  C7  UNL     1       8.778  39.187  -2.726  1.00  0.00     0.073 A 
HETATM    7  C6  UNL     1       9.515  38.074  -3.089  1.00  0.00     0.014 A 
HETATM    8  N8  UNL     1      10.272  38.182  -4.195  1.00  0.00    -0.347 N 
ATOM      9  H8  UNL     1      10.825  37.375  -4.485  1.00  0.00     0.167 HD
BRANCH   4  10
HETATM   10  N1  UNL     1       8.123  41.345  -3.095  1.00  0.00    -0.374 N 
ATOM     11  H1  UNL     1       7.397  41.231  -2.386  1.00  0.00     0.161 HD
BRANCH  10  12
HETATM   12  C9  UNL     1       8.377  42.633  -3.692  1.00  0.00     0.147 C 
BRANCH  12  13
HETATM   13  C10 UNL     1       8.511  43.709  -2.634  1.00  0.00     0.183 C 
BRANCH  13  14
HETATM   14  O1  UNL     1       9.305  43.174  -1.617  1.00  0.00    -0.399 OA
ATOM     15  H1  UNL     1       8.733  42.641  -1.076  1.00  0.00     0.209 HD
ENDBRANCH  13  14
ENDBRANCH  12  13
ENDBRANCH  10  12
ENDBRANCH   4  10
BRANCH   7  16
HETATM   16  C5  UNL     1       9.457  36.839  -2.279  1.00  0.00     0.057 C 
BRANCH  16  17
HETATM   17  C4  UNL     1       9.767  37.061  -0.821  1.00  0.00     0.006 C 
BRANCH  17  18
HETATM   18  C3  UNL     1       8.518  36.944   0.023  1.00  0.00     0.000 C 
BRANCH  18  19
HETATM   19  C2  UNL     1       8.567  38.044   1.087  1.00  0.00    -0.005 C 
HETATM   20  C1  UNL     1       9.861  38.813   0.937  1.00  0.00     0.005 C 
ENDBRANCH  18  19
ENDBRANCH  17  18
ENDBRANCH  16  17
ENDBRANCH   7  16
ENDBRANCH   1   2
BRANCH   1  21
HETATM   21  N3  UNL     1      12.330  38.427  -5.872  1.00  0.00    -0.068 N 
ATOM     22  H33 UNL     1      12.056  37.587  -5.363  1.00  0.00     0.275 HD
ATOM     23  H32 UNL     1      12.708  37.955  -6.693  1.00  0.00     0.275 HD
ATOM     24  H31 UNL     1      13.016  38.999  -5.379  1.00  0.00     0.275 HD
ENDBRANCH   1  21
BRANCH   1  25
HETATM   25  C13 UNL     1      11.725  40.676  -6.439  1.00  0.00     0.043 C 
BRANCH  25  26
HETATM   26  C14 UNL     1      12.958  40.721  -7.251  1.00  0.00     0.045 C 
BRANCH  26  27
HETATM   27  C15 UNL     1      12.852  40.838  -8.736  1.00  0.00     0.275 C 
BRANCH  27  28
HETATM   28  N4  UNL     1      11.575  41.072  -9.264  1.00  0.00    -0.067 N 
ATOM     29  H43 UNL     1      11.497  40.625 -10.178  1.00  0.00     0.275 HD
ATOM     30  H42 UNL     1      10.884  40.540  -8.735  1.00  0.00     0.275 HD
ATOM     31  H41 UNL     1      11.275  42.045  -9.335  1.00  0.00     0.275 HD
ENDBRANCH  27  28
BRANCH  27  32
HETATM   32  C16 UNL     1      13.610  39.755  -9.422  1.00  0.00     0.251 C 
HETATM   33  O2  UNL     1      13.893  38.769  -8.684  1.00  0.00    -0.271 OA
HETATM   34  N5  UNL     1      14.000  39.765 -10.756  1.00  0.00    -0.339 N 
HETATM   35  C17 UNL     1      13.826  40.916 -11.579  1.00  0.00     0.129 C 
HETATM   36  C21 UNL     1      14.580  38.561 -11.345  1.00  0.00     0.153 C 
HETATM   37  C18 UNL     1      14.729  40.983 -12.796  1.00  0.00     0.051 C 
HETATM   38  C19 UNL     1      14.938  39.671 -13.464  1.00  0.00     0.122 C 
HETATM   39  C20 UNL     1      14.119  38.573 -12.823  1.00  0.00     0.064 C 
BRANCH  38  40
HETATM   40  O3  UNL     1      16.260  39.282 -13.559  1.00  0.00    -0.395 OA
ATOM     41  H3  UNL     1      16.512  38.950 -14.413  1.00  0.00     0.210 HD
ENDBRANCH  38  40
BRANCH  36  42
HETATM   42  C22 UNL     1      14.087  37.319 -10.733  1.00  0.00     0.110 C 
HETATM   43  N6  UNL     1      14.923  36.589 -10.045  1.00  0.00    -0.389 N 
ATOM     44  H62 UNL     1      15.892  36.883  -9.922  1.00  0.00     0.157 HD
ATOM     45  H61 UNL     1      14.581  35.728  -9.620  1.00  0.00     0.157 HD
HETATM   46  N7  UNL     1      12.744  36.911 -10.904  1.00  0.00    -0.086 NA
ENDBRANCH  36  42
ENDBRANCH  27  32
ENDBRANCH  26  27
ENDBRANCH  25  26
ENDBRANCH   1  25
TORSDOF 17
ENDMDL
MODEL 4
REMARK VINA RESULT: -7.653046548      2.828      4.321
REMARK  17 active torsions:
REMARK  status: ('A' for Active; 'I' for Inactive)
REMARK    1  A    between atoms: C2_2  and  C3_3 
REMARK    2  A    between atoms: C3_3  and  C4_4 
REMARK    3  A    between atoms: C4_4  and  C5_5 
REMARK    4  A    between atoms: C5_5  and  C6_6 
REMARK    5  A    between atoms: C8_8  and  N1_9 
REMARK    6  A    between atoms: N1_9  and  C9_11 
REMARK    7  A    between atoms: C9_11  and  C10_12 
REMARK    8  A    between atoms: C10_12  and  O1_13 
REMARK    9  A    between atoms: C11_17  and  C12_18 
REMARK   10  A    between atoms: C12_18  and  N3_19 
REMARK   11  A    between atoms: C12_18  and  C13_23 
REMARK   12  A    between atoms: C13_23  and  C14_24 
REMARK   13  A    between atoms: C14_24  and  C15_25 
REMARK   14  A    between atoms: C15_25  and  N4_26 
REMARK   15  A    between atoms: C15_25  and  C16_30 
REMARK       I    between atoms: C16_30  and  N5_32 
REMARK   16  A    between atoms: C19_35  and  O3_36 
REMARK   17  A    between atoms: C21_39  and  C22_40 
ROOT
HETATM    1  C12 UNL     1      13.800  36.753 -10.732  1.00  0.00     0.250 C 
ENDROOT
BRANCH   1   2
HETATM    2  C11 UNL     1      13.779  38.171 -10.181  1.00  0.00     0.114 A 
HETATM    3  N2  UNL     1      12.745  38.631  -9.473  1.00  0.00    -0.331 N 
HETATM    4  C8  UNL     1      12.739  39.890  -8.987  1.00  0.00     0.104 A 
ATOM      5  H2  UNL     1      11.947  38.020  -9.296  1.00  0.00     0.168 HD
HETATM    6  C7  UNL     1      13.823  40.704  -9.231  1.00  0.00     0.073 A 
HETATM    7  C6  UNL     1      14.901  40.239  -9.963  1.00  0.00     0.014 A 
HETATM    8  N8  UNL     1      14.827  38.973 -10.411  1.00  0.00    -0.347 N 
ATOM      9  H8  UNL     1      15.609  38.605 -10.954  1.00  0.00     0.167 HD
BRANCH   4  10
HETATM   10  N1  UNL     1      11.765  40.377  -8.293  1.00  0.00    -0.374 N 
ATOM     11  H1  UNL     1      10.972  40.828  -8.750  1.00  0.00     0.161 HD
BRANCH  10  12
HETATM   12  C9  UNL     1      11.827  40.269  -6.856  1.00  0.00     0.147 C 
BRANCH  12  13
HETATM   13  C10 UNL     1      11.529  38.856  -6.402  1.00  0.00     0.183 C 
BRANCH  13  14
HETATM   14  O1  UNL     1      10.534  38.364  -7.249  1.00  0.00    -0.399 OA
ATOM     15  H1  UNL     1      10.979  37.970  -7.991  1.00  0.00     0.209 HD
ENDBRANCH  13  14
ENDBRANCH  12  13
ENDBRANCH  10  12
ENDBRANCH   4  10
BRANCH   7  16
HETATM   16  C5  UNL     1      16.062  41.113 -10.229  1.00  0.00     0.057 C 
BRANCH  16  17
HETATM   17  C4  UNL     1      15.817  42.560  -9.883  1.00  0.00     0.006 C 
BRANCH  17  18
HETATM   18  C3  UNL     1      17.113  43.266  -9.556  1.00  0.00     0.000 C 
BRANCH  18  19
HETATM   19  C2  UNL     1      16.874  44.135  -8.319  1.00  0.00    -0.005 C 
HETATM   20  C1  UNL     1      15.502  43.823  -7.759  1.00  0.00     0.005 C 
ENDBRANCH  18  19
ENDBRANCH  17  18
ENDBRANCH  16  17
ENDBRANCH   7  16
ENDBRANCH   1   2
BRANCH   1  21
HETATM   21  N3  UNL     1      15.184  36.333 -10.686  1.00  0.00    -0.068 N 
ATOM     22  H33 UNL     1      15.714  36.757  -9.924  1.00  0.00     0.275 HD
ATOM     23  H32 UNL     1      15.306  35.363 -10.395  1.00  0.00     0.275 HD
ATOM     24  H31 UNL     1      15.566  36.533 -11.610  1.00  0.00     0.275 HD
ENDBRANCH   1  21
BRANCH   1  25
HETATM   25  C13 UNL     1      13.311  36.728 -12.128  1.00  0.00     0.043 C 
BRANCH  25  26
HETATM   26  C14 UNL     1      14.148  35.933 -13.050  1.00  0.00     0.045 C 
BRANCH  26  27
HETATM   27  C15 UNL     1      14.760  36.596 -14.239  1.00  0.00     0.275 C 
BRANCH  27  28
HETATM   28  N4  UNL     1      15.363  35.762 -15.191  1.00  0.00    -0.067 N 
ATOM     29  H43 UNL     1      16.369  35.731 -15.029  1.00  0.00     0.275 HD
ATOM     30  H42 UNL     1      15.111  34.792 -15.002  1.00  0.00     0.275 HD
ATOM     31  H41 UNL     1      15.182  35.976 -16.173  1.00  0.00     0.275 HD
ENDBRANCH  27  28
BRANCH  27  32
HETATM   32  C16 UNL     1      15.587  37.770 -13.840  1.00  0.00     0.251 C 
HETATM   33  O2  UNL     1      16.633  37.475 -13.195  1.00  0.00    -0.271 OA
HETATM   34  N5  UNL     1      15.291  39.098 -14.125  1.00  0.00    -0.339 N 
HETATM   35  C17 UNL     1      14.054  39.478 -14.722  1.00  0.00     0.129 C 
HETATM   36  C21 UNL     1      16.278  40.133 -13.832  1.00  0.00     0.153 C 
HETATM   37  C18 UNL     1      13.647  40.923 -14.502  1.00  0.00     0.051 C 
HETATM   38  C19 UNL     1      14.781  41.884 -14.568  1.00  0.00     0.122 C 
HETATM   39  C20 UNL     1      16.080  41.202 -14.934  1.00  0.00     0.064 C 
BRANCH  38  40
HETATM   40  O3  UNL     1      14.951  42.647 -13.429  1.00  0.00    -0.395 OA
ATOM     41  H3  UNL     1      14.507  43.487 -13.448  1.00  0.00     0.210 HD
ENDBRANCH  38  40
BRANCH  36  42
HETATM   42  C22 UNL     1      17.666  39.655 -13.917  1.00  0.00     0.110 C 
HETATM   43  N6  UNL     1      18.383  39.629 -12.827  1.00  0.00    -0.389 N 
ATOM     44  H62 UNL     1      17.985  39.919 -11.934  1.00  0.00     0.157 HD
ATOM     45  H61 UNL     1      19.346  39.297 -12.887  1.00  0.00     0.157 HD
HETATM   46  N7  UNL     1      18.218  39.253 -15.155  1.00  0.00    -0.086 NA
ENDBRANCH  36  42
ENDBRANCH  27  32
ENDBRANCH  26  27
ENDBRANCH  25  26
ENDBRANCH   1  25
TORSDOF 17
ENDMDL
MODEL 5
REMARK VINA RESULT: -7.619424946      1.413      2.225
REMARK  17 active torsions:
REMARK  status: ('A' for Active; 'I' for Inactive)
REMARK    1  A    between atoms: C2_2  and  C3_3 
REMARK    2  A    between atoms: C3_3  and  C4_4 
REMARK    3  A    between atoms: C4_4  and  C5_5 
REMARK    4  A    between atoms: C5_5  and  C6_6 
REMARK    5  A    between atoms: C8_8  and  N1_9 
REMARK    6  A    between atoms: N1_9  and  C9_11 
REMARK    7  A    between atoms: C9_11  and  C10_12 
REMARK    8  A    between atoms: C10_12  and  O1_13 
REMARK    9  A    between atoms: C11_17  and  C12_18 
REMARK   10  A    between atoms: C12_18  and  N3_19 
REMARK   11  A    between atoms: C12_18  and  C13_23 
REMARK   12  A    between atoms: C13_23  and  C14_24 
REMARK   13  A    between atoms: C14_24  and  C15_25 
REMARK   14  A    between atoms: C15_25  and  N4_26 
REMARK   15  A    between atoms: C15_25  and  C16_30 
REMARK       I    between atoms: C16_30  and  N5_32 
REMARK   16  A    between atoms: C19_35  and  O3_36 
REMARK   17  A    between atoms: C21_39  and  C22_40 
ROOT
HETATM    1  C12 UNL     1      13.975  37.725  -9.599  1.00  0.00     0.250 C 
ENDROOT
BRANCH   1   2
HETATM    2  C11 UNL     1      13.202  38.524  -8.561  1.00  0.00     0.114 A 
HETATM    3  N2  UNL     1      12.815  37.979  -7.405  1.00  0.00    -0.331 N 
HETATM    4  C8  UNL     1      12.132  38.699  -6.490  1.00  0.00     0.104 A 
ATOM      5  H2  UNL     1      13.039  37.003  -7.211  1.00  0.00     0.168 HD
HETATM    6  C7  UNL     1      11.836  40.017  -6.764  1.00  0.00     0.073 A 
HETATM    7  C6  UNL     1      12.233  40.592  -7.957  1.00  0.00     0.014 A 
HETATM    8  N8  UNL     1      12.908  39.806  -8.815  1.00  0.00    -0.347 N 
ATOM      9  H8  UNL     1      13.213  40.207  -9.702  1.00  0.00     0.167 HD
BRANCH   4  10
HETATM   10  N1  UNL     1      11.741  38.218  -5.358  1.00  0.00    -0.374 N 
ATOM     11  H1  UNL     1      12.345  37.599  -4.817  1.00  0.00     0.161 HD
BRANCH  10  12
HETATM   12  C9  UNL     1      10.429  38.577  -4.877  1.00  0.00     0.147 C 
BRANCH  12  13
HETATM   13  C10 UNL     1      10.319  38.365  -3.382  1.00  0.00     0.183 C 
BRANCH  13  14
HETATM   14  O1  UNL     1      11.433  38.980  -2.807  1.00  0.00    -0.399 OA
ATOM     15  H1  UNL     1      11.106  39.704  -2.285  1.00  0.00     0.209 HD
ENDBRANCH  13  14
ENDBRANCH  12  13
ENDBRANCH  10  12
ENDBRANCH   4  10
BRANCH   7  16
HETATM   16  C5  UNL     1      11.912  42.004  -8.253  1.00  0.00     0.057 C 
BRANCH  16  17
HETATM   17  C4  UNL     1      13.097  42.802  -8.735  1.00  0.00     0.006 C 
BRANCH  17  18
HETATM   18  C3  UNL     1      14.037  43.119  -7.594  1.00  0.00     0.000 C 
BRANCH  18  19
HETATM   19  C2  UNL     1      15.444  43.277  -8.176  1.00  0.00    -0.005 C 
HETATM   20  C1  UNL     1      15.621  42.284  -9.305  1.00  0.00     0.005 C 
ENDBRANCH  18  19
ENDBRANCH  17  18
ENDBRANCH  16  17
ENDBRANCH   7  16
ENDBRANCH   1   2
BRANCH   1  21
HETATM   21  N3  UNL     1      14.885  38.662 -10.221  1.00  0.00    -0.068 N 
ATOM     22  H33 UNL     1      14.760  39.624  -9.904  1.00  0.00     0.275 HD
ATOM     23  H32 UNL     1      15.851  38.556  -9.914  1.00  0.00     0.275 HD
ATOM     24  H31 UNL     1      14.761  38.545 -11.226  1.00  0.00     0.275 HD
ENDBRANCH   1  21
BRANCH   1  25
HETATM   25  C13 UNL     1      13.057  37.163 -10.615  1.00  0.00     0.043 C 
BRANCH  25  26
HETATM   26  C14 UNL     1      13.470  37.415 -12.011  1.00  0.00     0.045 C 
BRANCH  26  27
HETATM   27  C15 UNL     1      13.992  36.284 -12.834  1.00  0.00     0.275 C 
BRANCH  27  28
HETATM   28  N4  UNL     1      14.215  35.068 -12.172  1.00  0.00    -0.067 N 
ATOM     29  H43 UNL     1      13.694  35.056 -11.295  1.00  0.00     0.275 HD
ATOM     30  H42 UNL     1      13.748  34.314 -12.678  1.00  0.00     0.275 HD
ATOM     31  H41 UNL     1      15.186  34.809 -11.995  1.00  0.00     0.275 HD
ENDBRANCH  27  28
BRANCH  27  32
HETATM   32  C16 UNL     1      15.117  36.722 -13.707  1.00  0.00     0.251 C 
HETATM   33  O2  UNL     1      16.005  37.398 -13.113  1.00  0.00    -0.271 OA
HETATM   34  N5  UNL     1      15.241  36.442 -15.063  1.00  0.00    -0.339 N 
HETATM   35  C17 UNL     1      14.194  35.809 -15.795  1.00  0.00     0.129 C 
HETATM   36  C21 UNL     1      16.481  36.779 -15.757  1.00  0.00     0.153 C 
HETATM   37  C18 UNL     1      14.229  36.032 -17.296  1.00  0.00     0.051 C 
HETATM   38  C19 UNL     1      15.599  36.013 -17.875  1.00  0.00     0.122 C 
HETATM   39  C20 UNL     1      16.648  35.682 -16.836  1.00  0.00     0.064 C 
BRANCH  38  40
HETATM   40  O3  UNL     1      15.950  37.165 -18.551  1.00  0.00    -0.395 OA
ATOM     41  H3  UNL     1      16.209  37.028 -19.455  1.00  0.00     0.210 HD
ENDBRANCH  38  40
BRANCH  36  42
HETATM   42  C22 UNL     1      17.665  36.733 -14.887  1.00  0.00     0.110 C 
HETATM   43  N6  UNL     1      17.954  35.610 -14.288  1.00  0.00    -0.389 N 
ATOM     44  H62 UNL     1      17.380  34.779 -14.433  1.00  0.00     0.157 HD
ATOM     45  H61 UNL     1      18.776  35.578 -13.685  1.00  0.00     0.157 HD
HETATM   46  N7  UNL     1      18.460  37.885 -14.684  1.00  0.00    -0.086 NA
ENDBRANCH  36  42
ENDBRANCH  27  32
ENDBRANCH  26  27
ENDBRANCH  25  26
ENDBRANCH   1  25
TORSDOF 17
ENDMDL
