MODEL 1
REMARK VINA RESULT: -9.031158803      0.000      0.000
REMARK  0 active torsions:
REMARK  status: ('A' for Active; 'I' for Inactive)
ROOT
HETATM    1  C1  UNL     1     -21.405  -5.435  21.477  1.00  0.00     0.149 C 
HETATM    2  N1  UNL     1     -21.709  -4.840  22.712  1.00  0.00    -0.391 N 
HETATM    3  C2  UNL     1     -22.669  -3.816  22.741  1.00  0.00     0.060 C 
HETATM    4  C3  UNL     1     -24.084  -4.308  23.006  1.00  0.00     0.076 C 
HETATM    5  C4  UNL     1     -24.254  -4.696  24.466  1.00  0.00     0.130 C 
HETATM    6  O1  UNL     1     -23.205  -4.444  25.250  1.00  0.00    -0.383 OA
HETATM    7  C5  UNL     1     -22.003  -4.948  25.105  1.00  0.00     0.193 C 
HETATM    8  C6  UNL     1     -21.625  -5.679  23.865  1.00  0.00     0.106 C 
HETATM    9  C7  UNL     1     -22.242  -7.027  23.702  1.00  0.00     0.028 C 
HETATM   10  C8  UNL     1     -22.838  -7.603  24.937  1.00  0.00     0.007 C 
HETATM   11  C9  UNL     1     -24.043  -6.985  25.469  1.00  0.00    -0.003 C 
HETATM   12  C10 UNL     1     -24.814  -6.093  24.521  1.00  0.00     0.020 C 
HETATM   13  C11 UNL     1     -26.256  -6.133  25.022  1.00  0.00     0.013 C 
HETATM   14  C12 UNL     1     -26.205  -7.034  26.202  1.00  0.00     0.001 C 
HETATM   15  C13 UNL     1     -25.131  -8.021  25.720  1.00  0.00    -0.003 C 
HETATM   16  C14 UNL     1     -24.854  -8.959  26.818  1.00  0.00     0.040 C 
HETATM   17  C15 UNL     1     -26.057  -9.870  26.947  1.00  0.00     0.162 C 
HETATM   18  O2  UNL     1     -25.723 -11.084  26.392  1.00  0.00    -0.356 OA
HETATM   19  C16 UNL     1     -26.219 -11.314  25.141  1.00  0.00     0.379 C 
HETATM   20  O3  UNL     1     -27.548 -10.922  24.990  1.00  0.00    -0.214 OA
HETATM   21  O4  UNL     1     -27.567  -9.613  25.078  1.00  0.00    -0.224 OA
HETATM   22  C17 UNL     1     -27.315  -9.278  26.407  1.00  0.00     0.126 C 
HETATM   23  C18 UNL     1     -28.468  -9.897  27.212  1.00  0.00     0.053 C 
HETATM   24  C19 UNL     1     -27.412  -7.794  26.534  1.00  0.00    -0.007 C 
HETATM   25  C20 UNL     1     -27.772  -7.495  27.997  1.00  0.00     0.018 C 
HETATM   26  C21 UNL     1     -28.581  -7.305  25.710  1.00  0.00     0.018 C 
ENDROOT
TORSDOF 0
ENDMDL
MODEL 2
REMARK VINA RESULT: -6.963437191      4.166      6.016
REMARK  0 active torsions:
REMARK  status: ('A' for Active; 'I' for Inactive)
ROOT
HETATM    1  C1  UNL     1     -28.148  -0.362  29.528  1.00  0.00     0.149 C 
HETATM    2  N1  UNL     1     -28.765  -0.791  28.341  1.00  0.00    -0.391 N 
HETATM    3  C2  UNL     1     -28.075  -0.620  27.131  1.00  0.00     0.060 C 
HETATM    4  C3  UNL     1     -27.228  -1.818  26.731  1.00  0.00     0.076 C 
HETATM    5  C4  UNL     1     -28.105  -2.953  26.229  1.00  0.00     0.130 C 
HETATM    6  O1  UNL     1     -29.404  -2.669  26.129  1.00  0.00    -0.383 OA
HETATM    7  C5  UNL     1     -30.187  -2.307  27.116  1.00  0.00     0.193 C 
HETATM    8  C6  UNL     1     -29.622  -1.929  28.441  1.00  0.00     0.106 C 
HETATM    9  C7  UNL     1     -29.072  -3.056  29.248  1.00  0.00     0.028 C 
HETATM   10  C8  UNL     1     -29.488  -4.414  28.805  1.00  0.00     0.007 C 
HETATM   11  C9  UNL     1     -28.966  -4.910  27.541  1.00  0.00    -0.003 C 
HETATM   12  C10 UNL     1     -27.747  -4.201  26.993  1.00  0.00     0.020 C 
HETATM   13  C11 UNL     1     -27.038  -5.241  26.127  1.00  0.00     0.013 C 
HETATM   14  C12 UNL     1     -27.889  -6.451  26.244  1.00  0.00     0.001 C 
HETATM   15  C13 UNL     1     -28.352  -6.295  27.701  1.00  0.00    -0.003 C 
HETATM   16  C14 UNL     1     -29.314  -7.371  27.987  1.00  0.00     0.040 C 
HETATM   17  C15 UNL     1     -28.532  -8.666  28.063  1.00  0.00     0.162 C 
HETATM   18  O2  UNL     1     -28.408  -9.001  29.392  1.00  0.00    -0.356 OA
HETATM   19  C16 UNL     1     -27.192  -8.733  29.953  1.00  0.00     0.379 C 
HETATM   20  O3  UNL     1     -26.116  -9.075  29.137  1.00  0.00    -0.214 OA
HETATM   21  O4  UNL     1     -26.150  -8.261  28.107  1.00  0.00    -0.224 OA
HETATM   22  C17 UNL     1     -27.240  -8.627  27.320  1.00  0.00     0.126 C 
HETATM   23  C18 UNL     1     -26.955 -10.068  26.868  1.00  0.00     0.053 C 
HETATM   24  C19 UNL     1     -27.243  -7.758  26.106  1.00  0.00    -0.007 C 
HETATM   25  C20 UNL     1     -27.978  -8.536  25.004  1.00  0.00     0.018 C 
HETATM   26  C21 UNL     1     -25.822  -7.589  25.619  1.00  0.00     0.018 C 
ENDROOT
TORSDOF 0
ENDMDL
MODEL 3
REMARK VINA RESULT: -6.741747051      4.360      7.159
REMARK  0 active torsions:
REMARK  status: ('A' for Active; 'I' for Inactive)
ROOT
HETATM    1  C1  UNL     1     -24.603  -8.840  26.880  1.00  0.00     0.149 C 
HETATM    2  N1  UNL     1     -25.895  -8.815  26.331  1.00  0.00    -0.391 N 
HETATM    3  C2  UNL     1     -26.947  -9.373  27.074  1.00  0.00     0.060 C 
HETATM    4  C3  UNL     1     -27.667  -8.373  27.966  1.00  0.00     0.076 C 
HETATM    5  C4  UNL     1     -28.554  -7.457  27.140  1.00  0.00     0.130 C 
HETATM    6  O1  UNL     1     -28.626  -7.750  25.840  1.00  0.00    -0.383 OA
HETATM    7  C5  UNL     1     -27.617  -7.768  25.003  1.00  0.00     0.193 C 
HETATM    8  C6  UNL     1     -26.213  -7.701  25.496  1.00  0.00     0.106 C 
HETATM    9  C7  UNL     1     -25.785  -6.376  26.031  1.00  0.00     0.028 C 
HETATM   10  C8  UNL     1     -26.664  -5.233  25.669  1.00  0.00     0.007 C 
HETATM   11  C9  UNL     1     -27.992  -5.175  26.262  1.00  0.00    -0.003 C 
HETATM   12  C10 UNL     1     -28.216  -6.031  27.489  1.00  0.00     0.020 C 
HETATM   13  C11 UNL     1     -29.332  -5.331  28.262  1.00  0.00     0.013 C 
HETATM   14  C12 UNL     1     -29.658  -4.143  27.434  1.00  0.00     0.001 C 
HETATM   15  C13 UNL     1     -28.255  -3.816  26.898  1.00  0.00    -0.003 C 
HETATM   16  C14 UNL     1     -28.382  -2.700  25.948  1.00  0.00     0.040 C 
HETATM   17  C15 UNL     1     -28.687  -1.455  26.754  1.00  0.00     0.162 C 
HETATM   18  O2  UNL     1     -27.534  -0.709  26.823  1.00  0.00    -0.356 OA
HETATM   19  C16 UNL     1     -26.853  -0.787  28.003  1.00  0.00     0.379 C 
HETATM   20  O3  UNL     1     -27.678  -0.735  29.125  1.00  0.00    -0.214 OA
HETATM   21  O4  UNL     1     -28.390  -1.838  29.122  1.00  0.00    -0.224 OA
HETATM   22  C17 UNL     1     -29.309  -1.740  28.080  1.00  0.00     0.126 C 
HETATM   23  C18 UNL     1     -30.187  -0.525  28.419  1.00  0.00     0.053 C 
HETATM   24  C19 UNL     1     -30.176  -2.955  28.115  1.00  0.00    -0.007 C 
HETATM   25  C20 UNL     1     -31.508  -2.572  27.452  1.00  0.00     0.018 C 
HETATM   26  C21 UNL     1     -30.507  -3.281  29.553  1.00  0.00     0.018 C 
ENDROOT
TORSDOF 0
ENDMDL
MODEL 4
REMARK VINA RESULT: -6.545706078      3.752      6.196
REMARK  0 active torsions:
REMARK  status: ('A' for Active; 'I' for Inactive)
ROOT
HETATM    1  C1  UNL     1     -29.194  -1.958  30.250  1.00  0.00     0.149 C 
HETATM    2  N1  UNL     1     -29.840  -2.518  29.135  1.00  0.00    -0.391 N 
HETATM    3  C2  UNL     1     -29.461  -2.082  27.856  1.00  0.00     0.060 C 
HETATM    4  C3  UNL     1     -28.361  -2.918  27.222  1.00  0.00     0.076 C 
HETATM    5  C4  UNL     1     -28.906  -4.258  26.753  1.00  0.00     0.130 C 
HETATM    6  O1  UNL     1     -30.224  -4.414  26.879  1.00  0.00    -0.383 OA
HETATM    7  C5  UNL     1     -30.897  -4.369  28.003  1.00  0.00     0.193 C 
HETATM    8  C6  UNL     1     -30.260  -3.878  29.256  1.00  0.00     0.106 C 
HETATM    9  C7  UNL     1     -29.250  -4.793  29.862  1.00  0.00     0.028 C 
HETATM   10  C8  UNL     1     -29.283  -6.193  29.361  1.00  0.00     0.007 C 
HETATM   11  C9  UNL     1     -28.858  -6.440  27.991  1.00  0.00    -0.003 C 
HETATM   12  C10 UNL     1     -28.043  -5.348  27.334  1.00  0.00     0.020 C 
HETATM   13  C11 UNL     1     -27.202  -6.062  26.277  1.00  0.00     0.013 C 
HETATM   14  C12 UNL     1     -27.591  -7.489  26.407  1.00  0.00     0.001 C 
HETATM   15  C13 UNL     1     -27.819  -7.551  27.926  1.00  0.00    -0.003 C 
HETATM   16  C14 UNL     1     -28.325  -8.894  28.252  1.00  0.00     0.040 C 
HETATM   17  C15 UNL     1     -27.171  -9.862  28.086  1.00  0.00     0.162 C 
HETATM   18  O2  UNL     1     -26.718 -10.190  29.343  1.00  0.00    -0.356 OA
HETATM   19  C16 UNL     1     -25.572  -9.560  29.737  1.00  0.00     0.379 C 
HETATM   20  O3  UNL     1     -24.602  -9.496  28.738  1.00  0.00    -0.214 OA
HETATM   21  O4  UNL     1     -25.072  -8.699  27.807  1.00  0.00    -0.224 OA
HETATM   22  C17 UNL     1     -26.108  -9.371  27.162  1.00  0.00     0.126 C 
HETATM   23  C18 UNL     1     -25.463 -10.619  26.539  1.00  0.00     0.053 C 
HETATM   24  C19 UNL     1     -26.598  -8.504  26.051  1.00  0.00    -0.007 C 
HETATM   25  C20 UNL     1     -27.227  -9.436  25.003  1.00  0.00     0.018 C 
HETATM   26  C21 UNL     1     -25.412  -7.858  25.372  1.00  0.00     0.018 C 
ENDROOT
TORSDOF 0
ENDMDL
MODEL 5
REMARK VINA RESULT: -6.420597809      3.379      5.651
REMARK  0 active torsions:
REMARK  status: ('A' for Active; 'I' for Inactive)
ROOT
HETATM    1  C1  UNL     1     -26.312  -4.558  25.875  1.00  0.00     0.149 C 
HETATM    2  N1  UNL     1     -26.381  -5.809  25.240  1.00  0.00    -0.391 N 
HETATM    3  C2  UNL     1     -25.185  -6.412  24.821  1.00  0.00     0.060 C 
HETATM    4  C3  UNL     1     -24.571  -7.343  25.856  1.00  0.00     0.076 C 
HETATM    5  C4  UNL     1     -25.355  -8.642  25.943  1.00  0.00     0.130 C 
HETATM    6  O1  UNL     1     -26.341  -8.775  25.055  1.00  0.00    -0.383 OA
HETATM    7  C5  UNL     1     -27.381  -7.985  24.942  1.00  0.00     0.193 C 
HETATM    8  C6  UNL     1     -27.432  -6.681  25.658  1.00  0.00     0.106 C 
HETATM    9  C7  UNL     1     -27.621  -6.768  27.135  1.00  0.00     0.028 C 
HETATM   10  C8  UNL     1     -28.096  -8.086  27.636  1.00  0.00     0.007 C 
HETATM   11  C9  UNL     1     -27.179  -9.215  27.567  1.00  0.00    -0.003 C 
HETATM   12  C10 UNL     1     -25.715  -8.880  27.387  1.00  0.00     0.020 C 
HETATM   13  C11 UNL     1     -24.960 -10.059  27.997  1.00  0.00     0.013 C 
HETATM   14  C12 UNL     1     -26.033 -10.967  28.478  1.00  0.00     0.001 C 
HETATM   15  C13 UNL     1     -27.073  -9.922  28.912  1.00  0.00    -0.003 C 
HETATM   16  C14 UNL     1     -28.285 -10.640  29.334  1.00  0.00     0.040 C 
HETATM   17  C15 UNL     1     -27.973 -11.313  30.654  1.00  0.00     0.162 C 
HETATM   18  O2  UNL     1     -28.575 -10.578  31.650  1.00  0.00    -0.356 OA
HETATM   19  C16 UNL     1     -27.742  -9.761  32.360  1.00  0.00     0.379 C 
HETATM   20  O3  UNL     1     -26.529 -10.359  32.694  1.00  0.00    -0.214 OA
HETATM   21  O4  UNL     1     -25.875 -10.539  31.570  1.00  0.00    -0.224 OA
HETATM   22  C17 UNL     1     -26.518 -11.558  30.870  1.00  0.00     0.126 C 
HETATM   23  C18 UNL     1     -26.415 -12.801  31.768  1.00  0.00     0.053 C 
HETATM   24  C19 UNL     1     -25.738 -11.826  29.626  1.00  0.00    -0.007 C 
HETATM   25  C20 UNL     1     -26.032 -13.278  29.220  1.00  0.00     0.018 C 
HETATM   26  C21 UNL     1     -24.263 -11.776  29.951  1.00  0.00     0.018 C 
ENDROOT
TORSDOF 0
ENDMDL
