MODEL 1
REMARK VINA RESULT: -8.752903793      0.000      0.000
REMARK  10 active torsions:
REMARK  status: ('A' for Active; 'I' for Inactive)
REMARK    1  A    between atoms: O1_2  and  C2_3 
REMARK    2  A    between atoms: C2_3  and  C3_5 
REMARK    3  A    between atoms: N1_8  and  C6_9 
REMARK    4  A    between atoms: C6_9  and  C7_10 
REMARK    5  A    between atoms: C7_10  and  C8_11 
REMARK    6  A    between atoms: C8_11  and  C9_12 
REMARK    7  A    between atoms: C9_12  and  O3_13 
REMARK    8  A    between atoms: C9_12  and  N2_15 
REMARK    9  A    between atoms: C14_23  and  N4_24 
REMARK   10  A    between atoms: C15_30  and  N7_31 
ROOT
HETATM    1  C3  UNL     1      -1.247  -2.552  50.548  1.00  0.00     0.107 A 
HETATM    2  C4  UNL     1       0.054  -2.547  50.728  1.00  0.00     0.050 A 
HETATM    3  C5  UNL     1       0.854  -3.234  49.641  1.00  0.00     0.071 C 
HETATM    4  N1  UNL     1       0.754  -1.946  51.809  1.00  0.00    -0.272 N 
HETATM    5  N5  UNL     1       0.125  -1.242  52.868  1.00  0.00    -0.155 N 
HETATM    6  N6  UNL     1       0.695  -0.636  53.918  1.00  0.00    -0.109 N 
ATOM      7  H6  UNL     1       1.694  -0.593  54.122  1.00  0.00     0.208 HD
HETATM    8  C15 UNL     1      -0.289  -0.098  54.648  1.00  0.00     0.694 A 
HETATM    9  N8  UNL     1      -1.467  -0.353  54.082  1.00  0.00    -0.166 N 
ATOM     10  H8  UNL     1      -2.388  -0.067  54.415  1.00  0.00     0.186 HD
HETATM   11  C16 UNL     1      -1.188  -1.063  52.981  1.00  0.00     0.203 A 
HETATM   12  S1  UNL     1      -2.297  -1.742  51.774  1.00  0.00    -0.042 SA
ENDROOT
BRANCH   4  13
HETATM   13  C6  UNL     1       2.217  -2.119  51.903  1.00  0.00     0.151 C 
BRANCH  13  14
HETATM   14  C7  UNL     1       2.849  -0.783  51.738  1.00  0.00     0.026 C 
BRANCH  14  15
HETATM   15  C8  UNL     1       2.464  -0.139  50.394  1.00  0.00     0.056 C 
BRANCH  15  16
HETATM   16  C9  UNL     1       3.801   0.147  49.724  1.00  0.00     0.242 C 
BRANCH  16  17
HETATM   17  O3  UNL     1       4.722  -0.703  50.380  1.00  0.00    -0.376 OA
ATOM     18  H3  UNL     1       5.577  -0.371  50.131  1.00  0.00     0.212 HD
ENDBRANCH  16  17
BRANCH  16  19
HETATM   19  N2  UNL     1       3.805  -0.111  48.312  1.00  0.00    -0.166 N 
HETATM   20  C10 UNL     1       3.354  -1.251  47.784  1.00  0.00     0.124 A 
HETATM   21  C11 UNL     1       3.370  -1.475  46.408  1.00  0.00     0.023 A 
HETATM   22  C12 UNL     1       2.871  -2.742  45.800  1.00  0.00     0.056 C 
HETATM   23  C13 UNL     1       3.861  -0.499  45.570  1.00  0.00     0.266 A 
HETATM   24  O4  UNL     1       3.895  -0.660  44.307  1.00  0.00    -0.267 OA
HETATM   25  N3  UNL     1       4.308   0.638  46.133  1.00  0.00    -0.156 N 
HETATM   26  C14 UNL     1       4.282   0.832  47.459  1.00  0.00     0.682 A 
ATOM     27  H3  UNL     1       4.677   1.375  45.533  1.00  0.00     0.187 HD
BRANCH  26  28
HETATM   28  N4  UNL     1       4.715   1.924  47.969  1.00  0.00    -0.234 N 
ATOM     29  H42 UNL     1       4.320   2.287  48.836  1.00  0.00     0.174 HD
ATOM     30  H41 UNL     1       5.463   2.410  47.474  1.00  0.00     0.174 HD
ENDBRANCH  26  28
ENDBRANCH  16  19
ENDBRANCH  15  16
ENDBRANCH  14  15
ENDBRANCH  13  14
ENDBRANCH   4  13
BRANCH   1  31
HETATM   31  C2  UNL     1      -1.945  -3.141  49.439  1.00  0.00     0.302 C 
HETATM   32  O2  UNL     1      -2.271  -2.536  48.388  1.00  0.00    -0.259 OA
BRANCH  31  33
HETATM   33  O1  UNL     1      -2.315  -4.506  49.494  1.00  0.00    -0.322 OA
HETATM   34  C1  UNL     1      -3.344  -4.974  48.618  1.00  0.00     0.213 C 
ENDBRANCH  31  33
ENDBRANCH   1  31
BRANCH   8  35
HETATM   35  N7  UNL     1      -0.160   0.573  55.740  1.00  0.00    -0.233 N 
ATOM     36  H72 UNL     1       0.477   0.305  56.490  1.00  0.00     0.174 HD
ATOM     37  H71 UNL     1      -0.656   1.428  55.993  1.00  0.00     0.174 HD
ENDBRANCH   8  35
TORSDOF 10
ENDMDL
MODEL 2
REMARK VINA RESULT: -8.665402398      1.204      1.245
REMARK  10 active torsions:
REMARK  status: ('A' for Active; 'I' for Inactive)
REMARK    1  A    between atoms: O1_2  and  C2_3 
REMARK    2  A    between atoms: C2_3  and  C3_5 
REMARK    3  A    between atoms: N1_8  and  C6_9 
REMARK    4  A    between atoms: C6_9  and  C7_10 
REMARK    5  A    between atoms: C7_10  and  C8_11 
REMARK    6  A    between atoms: C8_11  and  C9_12 
REMARK    7  A    between atoms: C9_12  and  O3_13 
REMARK    8  A    between atoms: C9_12  and  N2_15 
REMARK    9  A    between atoms: C14_23  and  N4_24 
REMARK   10  A    between atoms: C15_30  and  N7_31 
ROOT
HETATM    1  C3  UNL     1      -2.034  -2.463  50.140  1.00  0.00     0.107 A 
HETATM    2  C4  UNL     1      -0.844  -2.515  50.693  1.00  0.00     0.050 A 
HETATM    3  C5  UNL     1       0.036  -3.652  50.218  1.00  0.00     0.071 C 
HETATM    4  N1  UNL     1      -0.318  -1.604  51.650  1.00  0.00    -0.272 N 
HETATM    5  N5  UNL     1      -1.026  -0.479  52.146  1.00  0.00    -0.155 N 
HETATM    6  N6  UNL     1      -0.614   0.436  53.034  1.00  0.00    -0.109 N 
ATOM      7  H6  UNL     1       0.291   0.459  53.504  1.00  0.00     0.208 HD
HETATM    8  C15 UNL     1      -1.612   1.315  53.190  1.00  0.00     0.694 A 
HETATM    9  N8  UNL     1      -2.644   0.972  52.420  1.00  0.00    -0.166 N 
ATOM     10  H8  UNL     1      -3.539   1.455  52.334  1.00  0.00     0.186 HD
HETATM   11  C16 UNL     1      -2.259  -0.142  51.783  1.00  0.00     0.203 A 
HETATM   12  S1  UNL     1      -3.158  -1.133  50.618  1.00  0.00    -0.042 SA
ENDROOT
BRANCH   4  13
HETATM   13  C6  UNL     1       1.008  -1.868  52.240  1.00  0.00     0.151 C 
BRANCH  13  14
HETATM   14  C7  UNL     1       1.988  -0.953  51.595  1.00  0.00     0.026 C 
BRANCH  14  15
HETATM   15  C8  UNL     1       2.627  -1.596  50.351  1.00  0.00     0.056 C 
BRANCH  15  16
HETATM   16  C9  UNL     1       3.462  -0.478  49.743  1.00  0.00     0.242 C 
BRANCH  16  17
HETATM   17  O3  UNL     1       4.734  -0.608  50.349  1.00  0.00    -0.376 OA
ATOM     18  H3  UNL     1       4.775  -1.513  50.633  1.00  0.00     0.212 HD
ENDBRANCH  16  17
BRANCH  16  19
HETATM   19  N2  UNL     1       3.581  -0.558  48.315  1.00  0.00    -0.166 N 
HETATM   20  C10 UNL     1       3.275  -1.660  47.625  1.00  0.00     0.124 A 
HETATM   21  C11 UNL     1       3.401  -1.710  46.237  1.00  0.00     0.023 A 
HETATM   22  C12 UNL     1       3.064  -2.931  45.450  1.00  0.00     0.056 C 
HETATM   23  C13 UNL     1       3.848  -0.599  45.558  1.00  0.00     0.266 A 
HETATM   24  O4  UNL     1       3.978  -0.600  44.291  1.00  0.00    -0.267 OA
HETATM   25  N3  UNL     1       4.148   0.494  46.283  1.00  0.00    -0.156 N 
HETATM   26  C14 UNL     1       4.019   0.520  47.616  1.00  0.00     0.682 A 
ATOM     27  H3  UNL     1       4.482   1.329  45.802  1.00  0.00     0.187 HD
BRANCH  26  28
HETATM   28  N4  UNL     1       4.313   1.575  48.282  1.00  0.00    -0.234 N 
ATOM     29  H42 UNL     1       4.620   1.510  49.252  1.00  0.00     0.174 HD
ATOM     30  H41 UNL     1       4.225   2.472  47.804  1.00  0.00     0.174 HD
ENDBRANCH  26  28
ENDBRANCH  16  19
ENDBRANCH  15  16
ENDBRANCH  14  15
ENDBRANCH  13  14
ENDBRANCH   4  13
BRANCH   1  31
HETATM   31  C2  UNL     1      -2.548  -3.373  49.155  1.00  0.00     0.302 C 
HETATM   32  O2  UNL     1      -2.556  -3.167  47.916  1.00  0.00    -0.259 OA
BRANCH  31  33
HETATM   33  O1  UNL     1      -3.099  -4.610  49.568  1.00  0.00    -0.322 OA
HETATM   34  C1  UNL     1      -3.353  -5.612  48.581  1.00  0.00     0.213 C 
ENDBRANCH  31  33
ENDBRANCH   1  31
BRANCH   8  35
HETATM   35  N7  UNL     1      -1.616   2.348  53.958  1.00  0.00    -0.233 N 
ATOM     36  H72 UNL     1      -1.311   3.273  53.653  1.00  0.00     0.174 HD
ATOM     37  H71 UNL     1      -1.912   2.384  54.933  1.00  0.00     0.174 HD
ENDBRANCH   8  35
TORSDOF 10
ENDMDL
MODEL 3
REMARK VINA RESULT: -8.324237061      2.602      4.333
REMARK  10 active torsions:
REMARK  status: ('A' for Active; 'I' for Inactive)
REMARK    1  A    between atoms: O1_2  and  C2_3 
REMARK    2  A    between atoms: C2_3  and  C3_5 
REMARK    3  A    between atoms: N1_8  and  C6_9 
REMARK    4  A    between atoms: C6_9  and  C7_10 
REMARK    5  A    between atoms: C7_10  and  C8_11 
REMARK    6  A    between atoms: C8_11  and  C9_12 
REMARK    7  A    between atoms: C9_12  and  O3_13 
REMARK    8  A    between atoms: C9_12  and  N2_15 
REMARK    9  A    between atoms: C14_23  and  N4_24 
REMARK   10  A    between atoms: C15_30  and  N7_31 
ROOT
HETATM    1  C3  UNL     1       0.299  -1.127  54.950  1.00  0.00     0.107 A 
HETATM    2  C4  UNL     1       1.205  -1.599  54.124  1.00  0.00     0.050 A 
HETATM    3  C5  UNL     1       2.621  -1.604  54.660  1.00  0.00     0.071 C 
HETATM    4  N1  UNL     1       0.971  -2.117  52.821  1.00  0.00    -0.272 N 
HETATM    5  N5  UNL     1      -0.312  -2.202  52.221  1.00  0.00    -0.155 N 
HETATM    6  N6  UNL     1      -0.633  -2.680  51.011  1.00  0.00    -0.109 N 
ATOM      7  H6  UNL     1       0.014  -3.059  50.319  1.00  0.00     0.208 HD
HETATM    8  C15 UNL     1      -1.960  -2.567  50.879  1.00  0.00     0.694 A 
HETATM    9  N8  UNL     1      -2.482  -2.027  51.979  1.00  0.00    -0.166 N 
ATOM     10  H8  UNL     1      -3.465  -1.823  52.161  1.00  0.00     0.186 HD
HETATM   11  C16 UNL     1      -1.444  -1.808  52.796  1.00  0.00     0.203 A 
HETATM   12  S1  UNL     1      -1.427  -1.094  54.420  1.00  0.00    -0.042 SA
ENDROOT
BRANCH   4  13
HETATM   13  C6  UNL     1       2.122  -2.519  51.990  1.00  0.00     0.151 C 
BRANCH  13  14
HETATM   14  C7  UNL     1       2.633  -1.306  51.297  1.00  0.00     0.026 C 
BRANCH  14  15
HETATM   15  C8  UNL     1       2.321  -1.344  49.790  1.00  0.00     0.056 C 
BRANCH  15  16
HETATM   16  C9  UNL     1       3.405  -0.478  49.165  1.00  0.00     0.242 C 
BRANCH  16  17
HETATM   17  O3  UNL     1       4.582  -0.801  49.880  1.00  0.00    -0.376 OA
ATOM     18  H3  UNL     1       5.292  -0.602  49.281  1.00  0.00     0.212 HD
ENDBRANCH  16  17
BRANCH  16  19
HETATM   19  N2  UNL     1       3.595  -0.714  47.762  1.00  0.00    -0.166 N 
HETATM   20  C10 UNL     1       3.427  -1.914  47.202  1.00  0.00     0.124 A 
HETATM   21  C11 UNL     1       3.619  -2.115  45.836  1.00  0.00     0.023 A 
HETATM   22  C12 UNL     1       3.436  -3.448  45.192  1.00  0.00     0.056 C 
HETATM   23  C13 UNL     1       3.989  -1.053  45.041  1.00  0.00     0.266 A 
HETATM   24  O4  UNL     1       4.175  -1.191  43.788  1.00  0.00    -0.267 OA
HETATM   25  N3  UNL     1       4.150   0.142  45.636  1.00  0.00    -0.156 N 
HETATM   26  C14 UNL     1       3.960   0.313  46.952  1.00  0.00     0.682 A 
ATOM     27  H3  UNL     1       4.425   0.944  45.068  1.00  0.00     0.187 HD
BRANCH  26  28
HETATM   28  N4  UNL     1       4.122   1.463  47.493  1.00  0.00    -0.234 N 
ATOM     29  H42 UNL     1       4.129   1.565  48.508  1.00  0.00     0.174 HD
ATOM     30  H41 UNL     1       4.239   2.263  46.870  1.00  0.00     0.174 HD
ENDBRANCH  26  28
ENDBRANCH  16  19
ENDBRANCH  15  16
ENDBRANCH  14  15
ENDBRANCH  13  14
ENDBRANCH   4  13
BRANCH   1  31
HETATM   31  C2  UNL     1       0.541  -0.629  56.275  1.00  0.00     0.302 C 
HETATM   32  O2  UNL     1       0.532  -1.325  57.320  1.00  0.00    -0.259 OA
BRANCH  31  33
HETATM   33  O1  UNL     1       0.814   0.747  56.464  1.00  0.00    -0.322 OA
HETATM   34  C1  UNL     1      -0.249   1.606  56.882  1.00  0.00     0.213 C 
ENDBRANCH  31  33
ENDBRANCH   1  31
BRANCH   8  35
HETATM   35  N7  UNL     1      -2.666  -2.915  49.860  1.00  0.00    -0.233 N 
ATOM     36  H72 UNL     1      -3.664  -3.120  49.914  1.00  0.00     0.174 HD
ATOM     37  H71 UNL     1      -2.339  -3.030  48.901  1.00  0.00     0.174 HD
ENDBRANCH   8  35
TORSDOF 10
ENDMDL
MODEL 4
REMARK VINA RESULT: -8.287828094      2.952      4.822
REMARK  10 active torsions:
REMARK  status: ('A' for Active; 'I' for Inactive)
REMARK    1  A    between atoms: O1_2  and  C2_3 
REMARK    2  A    between atoms: C2_3  and  C3_5 
REMARK    3  A    between atoms: N1_8  and  C6_9 
REMARK    4  A    between atoms: C6_9  and  C7_10 
REMARK    5  A    between atoms: C7_10  and  C8_11 
REMARK    6  A    between atoms: C8_11  and  C9_12 
REMARK    7  A    between atoms: C9_12  and  O3_13 
REMARK    8  A    between atoms: C9_12  and  N2_15 
REMARK    9  A    between atoms: C14_23  and  N4_24 
REMARK   10  A    between atoms: C15_30  and  N7_31 
ROOT
HETATM    1  C3  UNL     1       1.983  -2.574  55.285  1.00  0.00     0.107 A 
HETATM    2  C4  UNL     1       1.992  -1.504  54.525  1.00  0.00     0.050 A 
HETATM    3  C5  UNL     1       2.692  -0.300  55.120  1.00  0.00     0.071 C 
HETATM    4  N1  UNL     1       1.443  -1.392  53.218  1.00  0.00    -0.272 N 
HETATM    5  N5  UNL     1       0.797  -2.456  52.536  1.00  0.00    -0.155 N 
HETATM    6  N6  UNL     1       0.260  -2.451  51.309  1.00  0.00    -0.109 N 
ATOM      7  H6  UNL     1       0.229  -1.661  50.665  1.00  0.00     0.208 HD
HETATM    8  C15 UNL     1      -0.228  -3.677  51.085  1.00  0.00     0.694 A 
HETATM    9  N8  UNL     1      -0.011  -4.453  52.145  1.00  0.00    -0.166 N 
ATOM     10  H8  UNL     1      -0.274  -5.433  52.258  1.00  0.00     0.186 HD
HETATM   11  C16 UNL     1       0.624  -3.677  53.032  1.00  0.00     0.203 A 
HETATM   12  S1  UNL     1       1.192  -4.075  54.665  1.00  0.00    -0.042 SA
ENDROOT
BRANCH   4  13
HETATM   13  C6  UNL     1       1.459  -0.081  52.542  1.00  0.00     0.151 C 
BRANCH  13  14
HETATM   14  C7  UNL     1       2.730   0.025  51.777  1.00  0.00     0.026 C 
BRANCH  14  15
HETATM   15  C8  UNL     1       2.469   0.196  50.269  1.00  0.00     0.056 C 
BRANCH  15  16
HETATM   16  C9  UNL     1       3.856   0.151  49.645  1.00  0.00     0.242 C 
BRANCH  16  17
HETATM   17  O3  UNL     1       4.530  -0.881  50.339  1.00  0.00    -0.376 OA
ATOM     18  H3  UNL     1       4.931  -1.409  49.658  1.00  0.00     0.212 HD
ENDBRANCH  16  17
BRANCH  16  19
HETATM   19  N2  UNL     1       3.846  -0.121  48.236  1.00  0.00    -0.166 N 
HETATM   20  C10 UNL     1       3.422  -1.280  47.727  1.00  0.00     0.124 A 
HETATM   21  C11 UNL     1       3.424  -1.518  46.353  1.00  0.00     0.023 A 
HETATM   22  C12 UNL     1       2.953  -2.806  45.766  1.00  0.00     0.056 C 
HETATM   23  C13 UNL     1       3.872  -0.537  45.497  1.00  0.00     0.266 A 
HETATM   24  O4  UNL     1       3.891  -0.710  44.235  1.00  0.00    -0.267 OA
HETATM   25  N3  UNL     1       4.293   0.619  46.042  1.00  0.00    -0.156 N 
HETATM   26  C14 UNL     1       4.282   0.826  47.366  1.00  0.00     0.682 A 
ATOM     27  H3  UNL     1       4.630   1.360  45.428  1.00  0.00     0.187 HD
BRANCH  26  28
HETATM   28  N4  UNL     1       4.690   1.936  47.858  1.00  0.00    -0.234 N 
ATOM     29  H42 UNL     1       4.121   2.447  48.533  1.00  0.00     0.174 HD
ATOM     30  H41 UNL     1       5.598   2.283  47.547  1.00  0.00     0.174 HD
ENDBRANCH  26  28
ENDBRANCH  16  19
ENDBRANCH  15  16
ENDBRANCH  14  15
ENDBRANCH  13  14
ENDBRANCH   4  13
BRANCH   1  31
HETATM   31  C2  UNL     1       2.563  -2.686  56.595  1.00  0.00     0.302 C 
HETATM   32  O2  UNL     1       1.985  -2.384  57.668  1.00  0.00    -0.259 OA
BRANCH  31  33
HETATM   33  O1  UNL     1       3.887  -3.167  56.733  1.00  0.00    -0.322 OA
HETATM   34  C1  UNL     1       4.847  -2.351  57.408  1.00  0.00     0.213 C 
ENDBRANCH  31  33
ENDBRANCH   1  31
BRANCH   8  35
HETATM   35  N7  UNL     1      -0.824  -4.087  50.019  1.00  0.00    -0.233 N 
ATOM     36  H72 UNL     1      -0.709  -3.643  49.108  1.00  0.00     0.174 HD
ATOM     37  H71 UNL     1      -1.465  -4.876  49.944  1.00  0.00     0.174 HD
ENDBRANCH   8  35
TORSDOF 10
ENDMDL
MODEL 5
REMARK VINA RESULT: -8.261757174      2.705      4.397
REMARK  10 active torsions:
REMARK  status: ('A' for Active; 'I' for Inactive)
REMARK    1  A    between atoms: O1_2  and  C2_3 
REMARK    2  A    between atoms: C2_3  and  C3_5 
REMARK    3  A    between atoms: N1_8  and  C6_9 
REMARK    4  A    between atoms: C6_9  and  C7_10 
REMARK    5  A    between atoms: C7_10  and  C8_11 
REMARK    6  A    between atoms: C8_11  and  C9_12 
REMARK    7  A    between atoms: C9_12  and  O3_13 
REMARK    8  A    between atoms: C9_12  and  N2_15 
REMARK    9  A    between atoms: C14_23  and  N4_24 
REMARK   10  A    between atoms: C15_30  and  N7_31 
ROOT
HETATM    1  C3  UNL     1       0.844  -1.205  55.217  1.00  0.00     0.107 A 
HETATM    2  C4  UNL     1       1.652  -1.624  54.271  1.00  0.00     0.050 A 
HETATM    3  C5  UNL     1       3.116  -1.672  54.652  1.00  0.00     0.071 C 
HETATM    4  N1  UNL     1       1.276  -2.050  52.968  1.00  0.00    -0.272 N 
HETATM    5  N5  UNL     1      -0.064  -2.088  52.502  1.00  0.00    -0.155 N 
HETATM    6  N6  UNL     1      -0.516  -2.481  51.303  1.00  0.00    -0.109 N 
ATOM      7  H6  UNL     1       0.049  -2.815  50.523  1.00  0.00     0.208 HD
HETATM    8  C15 UNL     1      -1.849  -2.353  51.320  1.00  0.00     0.694 A 
HETATM    9  N8  UNL     1      -2.245  -1.887  52.504  1.00  0.00    -0.166 N 
ATOM     10  H8  UNL     1      -3.201  -1.691  52.802  1.00  0.00     0.186 HD
HETATM   11  C16 UNL     1      -1.124  -1.729  53.219  1.00  0.00     0.203 A 
HETATM   12  S1  UNL     1      -0.928  -1.128  54.877  1.00  0.00    -0.042 SA
ENDROOT
BRANCH   4  13
HETATM   13  C6  UNL     1       2.328  -2.400  51.994  1.00  0.00     0.151 C 
BRANCH  13  14
HETATM   14  C7  UNL     1       2.777  -1.145  51.334  1.00  0.00     0.026 C 
BRANCH  14  15
HETATM   15  C8  UNL     1       2.375  -1.114  49.848  1.00  0.00     0.056 C 
BRANCH  15  16
HETATM   16  C9  UNL     1       3.482  -0.310  49.180  1.00  0.00     0.242 C 
BRANCH  16  17
HETATM   17  O3  UNL     1       4.656  -0.656  49.889  1.00  0.00    -0.376 OA
ATOM     18  H3  UNL     1       5.353  -0.595  49.246  1.00  0.00     0.212 HD
ENDBRANCH  16  17
BRANCH  16  19
HETATM   19  N2  UNL     1       3.641  -0.597  47.783  1.00  0.00    -0.166 N 
HETATM   20  C10 UNL     1       3.429  -1.809  47.265  1.00  0.00     0.124 A 
HETATM   21  C11 UNL     1       3.592  -2.059  45.903  1.00  0.00     0.023 A 
HETATM   22  C12 UNL     1       3.360  -3.407  45.307  1.00  0.00     0.056 C 
HETATM   23  C13 UNL     1       3.979  -1.034  45.069  1.00  0.00     0.266 A 
HETATM   24  O4  UNL     1       4.140  -1.218  43.818  1.00  0.00    -0.267 OA
HETATM   25  N3  UNL     1       4.184   0.174  45.622  1.00  0.00    -0.156 N 
HETATM   26  C14 UNL     1       4.022   0.393  46.934  1.00  0.00     0.682 A 
ATOM     27  H3  UNL     1       4.472   0.949  45.024  1.00  0.00     0.187 HD
BRANCH  26  28
HETATM   28  N4  UNL     1       4.225   1.554  47.435  1.00  0.00    -0.234 N 
ATOM     29  H42 UNL     1       3.989   1.751  48.407  1.00  0.00     0.174 HD
ATOM     30  H41 UNL     1       4.628   2.265  46.824  1.00  0.00     0.174 HD
ENDBRANCH  26  28
ENDBRANCH  16  19
ENDBRANCH  15  16
ENDBRANCH  14  15
ENDBRANCH  13  14
ENDBRANCH   4  13
BRANCH   1  31
HETATM   31  C2  UNL     1       1.230  -0.800  56.540  1.00  0.00     0.302 C 
HETATM   32  O2  UNL     1       1.530   0.372  56.877  1.00  0.00    -0.259 OA
BRANCH  31  33
HETATM   33  O1  UNL     1       1.290  -1.763  57.575  1.00  0.00    -0.322 OA
HETATM   34  C1  UNL     1       2.569  -2.125  58.103  1.00  0.00     0.213 C 
ENDBRANCH  31  33
ENDBRANCH   1  31
BRANCH   8  35
HETATM   35  N7  UNL     1      -2.662  -2.628  50.361  1.00  0.00    -0.233 N 
ATOM     36  H72 UNL     1      -3.436  -2.020  50.091  1.00  0.00     0.174 HD
ATOM     37  H71 UNL     1      -2.646  -3.455  49.765  1.00  0.00     0.174 HD
ENDBRANCH   8  35
TORSDOF 10
ENDMDL
