MODEL 1
REMARK VINA RESULT: -5.950980482      0.000      0.000
REMARK  10 active torsions:
REMARK  status: ('A' for Active; 'I' for Inactive)
REMARK    1  A    between atoms: C2_2  and  C4_4 
REMARK    2  A    between atoms: C4_4  and  C5_5 
REMARK    3  A    between atoms: C5_5  and  O1_6 
REMARK    4  A    between atoms: C5_5  and  C6_8 
REMARK    5  A    between atoms: C6_8  and  C8_10 
REMARK    6  A    between atoms: C16_18  and  C17_19 
REMARK    7  A    between atoms: C19_22  and  O3_23 
REMARK    8  A    between atoms: C22_26  and  C23_27 
REMARK    9  A    between atoms: C23_27  and  O5_29 
REMARK   10  A    between atoms: C28_35  and  O7_36 
ROOT
HETATM    1  C8  UNL     1       5.831   1.894  27.705  1.00  0.00     0.001 C 
HETATM    2  C9  UNL     1       5.134   1.131  26.566  1.00  0.00     0.007 C 
HETATM    3  C10 UNL     1       4.428   2.180  25.745  1.00  0.00     0.011 C 
HETATM    4  C11 UNL     1       4.899   3.501  26.248  1.00  0.00    -0.032 C 
HETATM    5  C12 UNL     1       3.811   4.038  27.163  1.00  0.00     0.016 C 
HETATM    6  C13 UNL     1       5.156   4.539  25.186  1.00  0.00     0.002 C 
HETATM    7  C14 UNL     1       3.850   4.713  24.446  1.00  0.00     0.007 C 
HETATM    8  C15 UNL     1       3.801   5.954  23.646  1.00  0.00     0.015 C 
HETATM    9  C16 UNL     1       5.133   6.350  22.998  1.00  0.00     0.090 C 
HETATM   10  C19 UNL     1       5.626   5.306  22.088  1.00  0.00     0.082 C 
HETATM   11  C21 UNL     1       7.016   5.597  21.596  1.00  0.00     0.062 C 
HETATM   12  C22 UNL     1       7.512   4.265  21.038  1.00  0.00     0.158 C 
HETATM   13  C25 UNL     1       7.011   3.337  22.084  1.00  0.00     0.148 C 
HETATM   14  O6  UNL     1       7.475   2.213  22.188  1.00  0.00    -0.296 OA
HETATM   15  C26 UNL     1       5.947   3.998  22.880  1.00  0.00     0.098 C 
HETATM   16  C27 UNL     1       6.331   4.250  24.288  1.00  0.00     0.033 C 
HETATM   17  C28 UNL     1       7.252   3.177  24.870  1.00  0.00     0.124 C 
HETATM   18  C29 UNL     1       7.330   3.444  26.369  1.00  0.00     0.042 C 
HETATM   19  C30 UNL     1       6.099   3.248  27.132  1.00  0.00    -0.030 C 
HETATM   20  C31 UNL     1       6.086   4.286  28.266  1.00  0.00     0.016 C 
ENDROOT
BRANCH   1  21
HETATM   21  C6  UNL     1       6.999   1.081  28.101  1.00  0.00     0.015 C 
HETATM   22  C7  UNL     1       6.977   0.517  29.494  1.00  0.00     0.013 C 
BRANCH  21  23
HETATM   23  C5  UNL     1       7.095  -0.112  27.156  1.00  0.00     0.126 C 
BRANCH  23  24
HETATM   24  C4  UNL     1       7.093  -1.434  27.892  1.00  0.00     0.065 C 
BRANCH  24  25
HETATM   25  C2  UNL     1       5.924  -2.268  27.540  1.00  0.00    -0.091 C 
HETATM   26  C1  UNL     1       5.251  -2.893  28.475  1.00  0.00     0.014 C 
HETATM   27  C3  UNL     1       5.513  -2.393  26.120  1.00  0.00     0.042 C 
ENDBRANCH  24  25
ENDBRANCH  23  24
BRANCH  23  28
HETATM   28  O1  UNL     1       8.329   0.050  26.499  1.00  0.00    -0.395 OA
ATOM     29  H1  UNL     1       8.177   0.134  25.565  1.00  0.00     0.210 HD
ENDBRANCH  23  28
ENDBRANCH  21  23
ENDBRANCH   1  21
BRANCH  17  30
HETATM   30  O7  UNL     1       8.601   3.423  24.476  1.00  0.00    -0.395 OA
ATOM     31  H7  UNL     1       9.181   2.795  24.891  1.00  0.00     0.210 HD
ENDBRANCH  17  30
BRANCH   9  32
HETATM   32  C17 UNL     1       4.872   7.650  22.368  1.00  0.00     0.130 C 
HETATM   33  C18 UNL     1       5.852   8.725  22.077  1.00  0.00     0.091 C 
HETATM   34  O2  UNL     1       3.705   7.969  22.004  1.00  0.00    -0.298 OA
ENDBRANCH   9  32
BRANCH  10  35
HETATM   35  O3  UNL     1       4.744   4.931  21.161  1.00  0.00    -0.383 OA
HETATM   36  C20 UNL     1       4.598   5.370  19.932  1.00  0.00     0.202 C 
ENDBRANCH  10  35
BRANCH  12  37
HETATM   37  C23 UNL     1       8.947   4.245  20.811  1.00  0.00     0.270 C 
HETATM   38  O4  UNL     1       9.778   4.413  21.737  1.00  0.00    -0.264 OA
BRANCH  37  39
HETATM   39  O5  UNL     1       9.515   4.037  19.542  1.00  0.00    -0.326 OA
HETATM   40  C24 UNL     1      10.684   3.287  19.370  1.00  0.00     0.213 C 
ENDBRANCH  37  39
ENDBRANCH  12  37
TORSDOF 10
ENDMDL
MODEL 2
REMARK VINA RESULT: -5.853525067      2.729      7.378
REMARK  10 active torsions:
REMARK  status: ('A' for Active; 'I' for Inactive)
REMARK    1  A    between atoms: C2_2  and  C4_4 
REMARK    2  A    between atoms: C4_4  and  C5_5 
REMARK    3  A    between atoms: C5_5  and  O1_6 
REMARK    4  A    between atoms: C5_5  and  C6_8 
REMARK    5  A    between atoms: C6_8  and  C8_10 
REMARK    6  A    between atoms: C16_18  and  C17_19 
REMARK    7  A    between atoms: C19_22  and  O3_23 
REMARK    8  A    between atoms: C22_26  and  C23_27 
REMARK    9  A    between atoms: C23_27  and  O5_29 
REMARK   10  A    between atoms: C28_35  and  O7_36 
ROOT
HETATM    1  C8  UNL     1       2.749   7.537  20.511  1.00  0.00     0.001 C 
HETATM    2  C9  UNL     1       2.914   6.203  19.764  1.00  0.00     0.007 C 
HETATM    3  C10 UNL     1       4.308   6.228  19.187  1.00  0.00     0.011 C 
HETATM    4  C11 UNL     1       4.991   7.412  19.781  1.00  0.00    -0.032 C 
HETATM    5  C12 UNL     1       4.954   8.513  18.734  1.00  0.00     0.016 C 
HETATM    6  C13 UNL     1       6.431   7.196  20.167  1.00  0.00     0.002 C 
HETATM    7  C14 UNL     1       7.145   6.777  18.902  1.00  0.00     0.007 C 
HETATM    8  C15 UNL     1       8.613   6.907  18.998  1.00  0.00     0.015 C 
HETATM    9  C16 UNL     1       9.195   6.576  20.378  1.00  0.00     0.090 C 
HETATM   10  C19 UNL     1       8.887   5.196  20.781  1.00  0.00     0.082 C 
HETATM   11  C21 UNL     1       9.286   4.923  22.204  1.00  0.00     0.062 C 
HETATM   12  C22 UNL     1       8.536   3.644  22.572  1.00  0.00     0.158 C 
HETATM   13  C25 UNL     1       7.213   3.926  21.956  1.00  0.00     0.148 C 
HETATM   14  O6  UNL     1       6.224   3.299  22.300  1.00  0.00    -0.296 OA
HETATM   15  C26 UNL     1       7.345   5.007  20.948  1.00  0.00     0.098 C 
HETATM   16  C27 UNL     1       6.644   6.256  21.325  1.00  0.00     0.033 C 
HETATM   17  C28 UNL     1       5.358   6.018  22.117  1.00  0.00     0.124 C 
HETATM   18  C29 UNL     1       4.642   7.361  22.190  1.00  0.00     0.042 C 
HETATM   19  C30 UNL     1       4.137   7.900  20.928  1.00  0.00    -0.030 C 
HETATM   20  C31 UNL     1       4.257   9.431  20.997  1.00  0.00     0.016 C 
ENDROOT
BRANCH   1  21
HETATM   21  C6  UNL     1       1.758   7.299  21.579  1.00  0.00     0.015 C 
HETATM   22  C7  UNL     1       0.437   8.002  21.433  1.00  0.00     0.013 C 
BRANCH  21  23
HETATM   23  C5  UNL     1       1.449   5.807  21.623  1.00  0.00     0.126 C 
BRANCH  23  24
HETATM   24  C4  UNL     1       0.007   5.505  21.277  1.00  0.00     0.065 C 
BRANCH  24  25
HETATM   25  C2  UNL     1      -0.137   4.226  20.549  1.00  0.00    -0.091 C 
HETATM   26  C1  UNL     1       0.786   3.301  20.648  1.00  0.00     0.014 C 
HETATM   27  C3  UNL     1      -1.335   3.993  19.706  1.00  0.00     0.042 C 
ENDBRANCH  24  25
ENDBRANCH  23  24
BRANCH  23  28
HETATM   28  O1  UNL     1       1.693   5.429  22.956  1.00  0.00    -0.395 OA
ATOM     29  H1  UNL     1       2.583   5.107  23.032  1.00  0.00     0.210 HD
ENDBRANCH  23  28
ENDBRANCH  21  23
ENDBRANCH   1  21
BRANCH  17  30
HETATM   30  O7  UNL     1       5.665   5.795  23.493  1.00  0.00    -0.395 OA
ATOM     31  H7  UNL     1       5.425   6.557  24.008  1.00  0.00     0.210 HD
ENDBRANCH  17  30
BRANCH   9  32
HETATM   32  C17 UNL     1      10.626   6.885  20.266  1.00  0.00     0.130 C 
HETATM   33  C18 UNL     1      11.561   7.241  21.361  1.00  0.00     0.091 C 
HETATM   34  O2  UNL     1      11.204   6.872  19.143  1.00  0.00    -0.298 OA
ENDBRANCH   9  32
BRANCH  10  35
HETATM   35  O3  UNL     1       9.245   4.275  19.886  1.00  0.00    -0.383 OA
HETATM   36  C20 UNL     1      10.359   3.584  19.808  1.00  0.00     0.202 C 
ENDBRANCH  10  35
BRANCH  12  37
HETATM   37  C23 UNL     1       8.524   3.387  24.003  1.00  0.00     0.270 C 
HETATM   38  O4  UNL     1       8.698   4.295  24.851  1.00  0.00    -0.264 OA
BRANCH  37  39
HETATM   39  O5  UNL     1       8.316   2.107  24.545  1.00  0.00    -0.326 OA
HETATM   40  C24 UNL     1       7.312   1.859  25.487  1.00  0.00     0.213 C 
ENDBRANCH  37  39
ENDBRANCH  12  37
TORSDOF 10
ENDMDL
MODEL 3
REMARK VINA RESULT: -5.851353651      0.895      1.018
REMARK  10 active torsions:
REMARK  status: ('A' for Active; 'I' for Inactive)
REMARK    1  A    between atoms: C2_2  and  C4_4 
REMARK    2  A    between atoms: C4_4  and  C5_5 
REMARK    3  A    between atoms: C5_5  and  O1_6 
REMARK    4  A    between atoms: C5_5  and  C6_8 
REMARK    5  A    between atoms: C6_8  and  C8_10 
REMARK    6  A    between atoms: C16_18  and  C17_19 
REMARK    7  A    between atoms: C19_22  and  O3_23 
REMARK    8  A    between atoms: C22_26  and  C23_27 
REMARK    9  A    between atoms: C23_27  and  O5_29 
REMARK   10  A    between atoms: C28_35  and  O7_36 
ROOT
HETATM    1  C8  UNL     1       5.231   2.586  27.418  1.00  0.00     0.001 C 
HETATM    2  C9  UNL     1       4.521   1.882  26.249  1.00  0.00     0.007 C 
HETATM    3  C10 UNL     1       4.074   2.984  25.321  1.00  0.00     0.011 C 
HETATM    4  C11 UNL     1       4.711   4.238  25.813  1.00  0.00    -0.032 C 
HETATM    5  C12 UNL     1       3.649   4.992  26.596  1.00  0.00     0.016 C 
HETATM    6  C13 UNL     1       5.230   5.159  24.740  1.00  0.00     0.002 C 
HETATM    7  C14 UNL     1       4.043   5.499  23.870  1.00  0.00     0.007 C 
HETATM    8  C15 UNL     1       4.271   6.685  23.019  1.00  0.00     0.015 C 
HETATM    9  C16 UNL     1       5.702   6.825  22.488  1.00  0.00     0.090 C 
HETATM   10  C19 UNL     1       6.095   5.665  21.673  1.00  0.00     0.082 C 
HETATM   11  C21 UNL     1       7.553   5.702  21.308  1.00  0.00     0.062 C 
HETATM   12  C22 UNL     1       7.869   4.278  20.856  1.00  0.00     0.158 C 
HETATM   13  C25 UNL     1       7.130   3.502  21.885  1.00  0.00     0.148 C 
HETATM   14  O6  UNL     1       7.391   2.326  22.079  1.00  0.00    -0.296 OA
HETATM   15  C26 UNL     1       6.124   4.370  22.546  1.00  0.00     0.098 C 
HETATM   16  C27 UNL     1       6.417   4.635  23.974  1.00  0.00     0.033 C 
HETATM   17  C28 UNL     1       7.091   3.462  24.685  1.00  0.00     0.124 C 
HETATM   18  C29 UNL     1       7.079   3.796  26.172  1.00  0.00     0.042 C 
HETATM   19  C30 UNL     1       5.769   3.844  26.819  1.00  0.00    -0.030 C 
HETATM   20  C31 UNL     1       5.826   4.932  27.904  1.00  0.00     0.016 C 
ENDROOT
BRANCH   1  21
HETATM   21  C6  UNL     1       6.207   1.619  27.958  1.00  0.00     0.015 C 
HETATM   22  C7  UNL     1       5.929   1.089  29.337  1.00  0.00     0.013 C 
BRANCH  21  23
HETATM   23  C5  UNL     1       6.245   0.408  27.033  1.00  0.00     0.126 C 
BRANCH  23  24
HETATM   24  C4  UNL     1       5.829  -0.868  27.732  1.00  0.00     0.065 C 
BRANCH  24  25
HETATM   25  C2  UNL     1       4.830  -1.631  26.954  1.00  0.00    -0.091 C 
HETATM   26  C1  UNL     1       5.214  -2.566  26.120  1.00  0.00     0.014 C 
HETATM   27  C3  UNL     1       3.386  -1.333  27.121  1.00  0.00     0.042 C 
ENDBRANCH  24  25
ENDBRANCH  23  24
BRANCH  23  28
HETATM   28  O1  UNL     1       7.592   0.300  26.639  1.00  0.00    -0.395 OA
ATOM     29  H1  UNL     1       7.874   1.124  26.261  1.00  0.00     0.210 HD
ENDBRANCH  23  28
ENDBRANCH  21  23
ENDBRANCH   1  21
BRANCH  17  30
HETATM   30  O7  UNL     1       8.492   3.465  24.415  1.00  0.00    -0.395 OA
ATOM     31  H7  UNL     1       8.843   2.587  24.501  1.00  0.00     0.210 HD
ENDBRANCH  17  30
BRANCH   9  32
HETATM   32  C17 UNL     1       5.718   8.112  21.784  1.00  0.00     0.130 C 
HETATM   33  C18 UNL     1       6.881   9.006  21.563  1.00  0.00     0.091 C 
HETATM   34  O2  UNL     1       4.661   8.586  21.280  1.00  0.00    -0.298 OA
ENDBRANCH   9  32
BRANCH  10  35
HETATM   35  O3  UNL     1       5.250   5.387  20.681  1.00  0.00    -0.383 OA
HETATM   36  C20 UNL     1       5.315   5.734  19.416  1.00  0.00     0.202 C 
ENDBRANCH  10  35
BRANCH  12  37
HETATM   37  C23 UNL     1       9.296   4.015  20.770  1.00  0.00     0.270 C 
HETATM   38  O4  UNL     1      10.100   4.366  21.667  1.00  0.00    -0.264 OA
BRANCH  37  39
HETATM   39  O5  UNL     1       9.884   3.348  19.682  1.00  0.00    -0.326 OA
HETATM   40  C24 UNL     1      11.273   3.240  19.544  1.00  0.00     0.213 C 
ENDBRANCH  37  39
ENDBRANCH  12  37
TORSDOF 10
ENDMDL
MODEL 4
REMARK VINA RESULT: -5.848003580      6.638     10.733
REMARK  10 active torsions:
REMARK  status: ('A' for Active; 'I' for Inactive)
REMARK    1  A    between atoms: C2_2  and  C4_4 
REMARK    2  A    between atoms: C4_4  and  C5_5 
REMARK    3  A    between atoms: C5_5  and  O1_6 
REMARK    4  A    between atoms: C5_5  and  C6_8 
REMARK    5  A    between atoms: C6_8  and  C8_10 
REMARK    6  A    between atoms: C16_18  and  C17_19 
REMARK    7  A    between atoms: C19_22  and  O3_23 
REMARK    8  A    between atoms: C22_26  and  C23_27 
REMARK    9  A    between atoms: C23_27  and  O5_29 
REMARK   10  A    between atoms: C28_35  and  O7_36 
ROOT
HETATM    1  C8  UNL     1       4.841  -1.184  28.236  1.00  0.00     0.001 C 
HETATM    2  C9  UNL     1       4.823  -1.340  29.766  1.00  0.00     0.007 C 
HETATM    3  C10 UNL     1       3.639  -0.537  30.243  1.00  0.00     0.011 C 
HETATM    4  C11 UNL     1       2.875  -0.142  29.026  1.00  0.00    -0.032 C 
HETATM    5  C12 UNL     1       3.244   1.301  28.725  1.00  0.00     0.016 C 
HETATM    6  C13 UNL     1       1.377  -0.215  29.156  1.00  0.00     0.002 C 
HETATM    7  C14 UNL     1       1.011   0.698  30.304  1.00  0.00     0.007 C 
HETATM    8  C15 UNL     1      -0.421   1.058  30.322  1.00  0.00     0.015 C 
HETATM    9  C16 UNL     1      -1.368  -0.062  29.875  1.00  0.00     0.090 C 
HETATM   10  C19 UNL     1      -1.243  -1.253  30.728  1.00  0.00     0.082 C 
HETATM   11  C21 UNL     1      -2.022  -2.418  30.187  1.00  0.00     0.062 C 
HETATM   12  C22 UNL     1      -1.458  -3.631  30.925  1.00  0.00     0.158 C 
HETATM   13  C25 UNL     1      -0.007  -3.312  30.887  1.00  0.00     0.148 C 
HETATM   14  O6  UNL     1       0.823  -4.186  31.080  1.00  0.00    -0.296 OA
HETATM   15  C26 UNL     1       0.187  -1.870  30.599  1.00  0.00     0.098 C 
HETATM   16  C27 UNL     1       0.817  -1.608  29.284  1.00  0.00     0.033 C 
HETATM   17  C28 UNL     1       1.830  -2.676  28.871  1.00  0.00     0.124 C 
HETATM   18  C29 UNL     1       2.561  -2.127  27.651  1.00  0.00     0.042 C 
HETATM   19  C30 UNL     1       3.410  -0.958  27.871  1.00  0.00    -0.030 C 
HETATM   20  C31 UNL     1       3.346  -0.092  26.603  1.00  0.00     0.016 C 
ENDROOT
BRANCH   1  21
HETATM   21  C6  UNL     1       5.496  -2.394  27.700  1.00  0.00     0.015 C 
HETATM   22  C7  UNL     1       5.694  -2.441  26.211  1.00  0.00     0.013 C 
BRANCH  21  23
HETATM   23  C5  UNL     1       6.883  -2.504  28.321  1.00  0.00     0.126 C 
BRANCH  23  24
HETATM   24  C4  UNL     1       7.987  -2.216  27.327  1.00  0.00     0.065 C 
BRANCH  24  25
HETATM   25  C2  UNL     1       8.653  -0.923  27.590  1.00  0.00    -0.091 C 
HETATM   26  C1  UNL     1       9.623  -0.844  28.468  1.00  0.00     0.014 C 
HETATM   27  C3  UNL     1       8.217   0.289  26.854  1.00  0.00     0.042 C 
ENDBRANCH  24  25
ENDBRANCH  23  24
BRANCH  23  28
HETATM   28  O1  UNL     1       6.981  -3.843  28.746  1.00  0.00    -0.395 OA
ATOM     29  H1  UNL     1       7.672  -3.915  29.394  1.00  0.00     0.210 HD
ENDBRANCH  23  28
ENDBRANCH  21  23
ENDBRANCH   1  21
BRANCH  17  30
HETATM   30  O7  UNL     1       1.154  -3.797  28.304  1.00  0.00    -0.395 OA
ATOM     31  H7  UNL     1       0.964  -3.635  27.387  1.00  0.00     0.210 HD
ENDBRANCH  17  30
BRANCH   9  32
HETATM   32  C17 UNL     1      -2.699   0.555  29.861  1.00  0.00     0.130 C 
HETATM   33  C18 UNL     1      -3.081   1.890  30.383  1.00  0.00     0.091 C 
HETATM   34  O2  UNL     1      -3.689  -0.055  29.368  1.00  0.00    -0.298 OA
ENDBRANCH   9  32
BRANCH  10  35
HETATM   35  O3  UNL     1      -1.388  -1.006  32.030  1.00  0.00    -0.383 OA
HETATM   36  C20 UNL     1      -2.477  -1.041  32.764  1.00  0.00     0.202 C 
ENDBRANCH  10  35
BRANCH  12  37
HETATM   37  C23 UNL     1      -1.843  -4.893  30.316  1.00  0.00     0.270 C 
HETATM   38  O4  UNL     1      -1.547  -5.189  29.133  1.00  0.00    -0.264 OA
BRANCH  37  39
HETATM   39  O5  UNL     1      -2.574  -5.878  31.002  1.00  0.00    -0.326 OA
HETATM   40  C24 UNL     1      -3.973  -5.882  31.019  1.00  0.00     0.213 C 
ENDBRANCH  37  39
ENDBRANCH  12  37
TORSDOF 10
ENDMDL
MODEL 5
REMARK VINA RESULT: -5.715654725      3.466      8.091
REMARK  10 active torsions:
REMARK  status: ('A' for Active; 'I' for Inactive)
REMARK    1  A    between atoms: C2_2  and  C4_4 
REMARK    2  A    between atoms: C4_4  and  C5_5 
REMARK    3  A    between atoms: C5_5  and  O1_6 
REMARK    4  A    between atoms: C5_5  and  C6_8 
REMARK    5  A    between atoms: C6_8  and  C8_10 
REMARK    6  A    between atoms: C16_18  and  C17_19 
REMARK    7  A    between atoms: C19_22  and  O3_23 
REMARK    8  A    between atoms: C22_26  and  C23_27 
REMARK    9  A    between atoms: C23_27  and  O5_29 
REMARK   10  A    between atoms: C28_35  and  O7_36 
ROOT
HETATM    1  C8  UNL     1       7.293   4.416  25.434  1.00  0.00     0.001 C 
HETATM    2  C9  UNL     1       7.009   4.515  26.943  1.00  0.00     0.007 C 
HETATM    3  C10 UNL     1       5.851   3.583  27.201  1.00  0.00     0.011 C 
HETATM    4  C11 UNL     1       5.644   2.806  25.947  1.00  0.00    -0.032 C 
HETATM    5  C12 UNL     1       4.468   3.443  25.224  1.00  0.00     0.016 C 
HETATM    6  C13 UNL     1       5.326   1.347  26.140  1.00  0.00     0.002 C 
HETATM    7  C14 UNL     1       4.071   1.299  26.981  1.00  0.00     0.007 C 
HETATM    8  C15 UNL     1       3.396  -0.014  26.939  1.00  0.00     0.015 C 
HETATM    9  C16 UNL     1       4.344  -1.217  26.870  1.00  0.00     0.090 C 
HETATM   10  C19 UNL     1       5.245  -1.267  28.031  1.00  0.00     0.082 C 
HETATM   11  C21 UNL     1       6.300  -2.327  27.880  1.00  0.00     0.062 C 
HETATM   12  C22 UNL     1       7.356  -1.965  28.923  1.00  0.00     0.158 C 
HETATM   13  C25 UNL     1       7.408  -0.491  28.747  1.00  0.00     0.148 C 
HETATM   14  O6  UNL     1       8.362   0.148  29.161  1.00  0.00    -0.296 OA
HETATM   15  C26 UNL     1       6.189  -0.022  28.042  1.00  0.00     0.098 C 
HETATM   16  C27 UNL     1       6.458   0.517  26.689  1.00  0.00     0.033 C 
HETATM   17  C28 UNL     1       7.804   1.233  26.574  1.00  0.00     0.124 C 
HETATM   18  C29 UNL     1       7.802   1.940  25.225  1.00  0.00     0.042 C 
HETATM   19  C30 UNL     1       6.850   3.038  25.065  1.00  0.00    -0.030 C 
HETATM   20  C31 UNL     1       6.380   3.036  23.601  1.00  0.00     0.016 C 
ENDROOT
BRANCH   1  21
HETATM   21  C6  UNL     1       8.722   4.741  25.256  1.00  0.00     0.015 C 
HETATM   22  C7  UNL     1       9.064   5.629  24.092  1.00  0.00     0.013 C 
BRANCH  21  23
HETATM   23  C5  UNL     1       9.210   5.464  26.506  1.00  0.00     0.126 C 
BRANCH  23  24
HETATM   24  C4  UNL     1       9.526   6.921  26.245  1.00  0.00     0.065 C 
BRANCH  24  25
HETATM   25  C2  UNL     1       8.596   7.829  26.949  1.00  0.00    -0.091 C 
HETATM   26  C1  UNL     1       7.770   8.587  26.270  1.00  0.00     0.014 C 
HETATM   27  C3  UNL     1       8.602   7.880  28.432  1.00  0.00     0.042 C 
ENDBRANCH  24  25
ENDBRANCH  23  24
BRANCH  23  28
HETATM   28  O1  UNL     1      10.392   4.793  26.871  1.00  0.00    -0.395 OA
ATOM     29  H1  UNL     1      10.298   3.867  26.676  1.00  0.00     0.210 HD
ENDBRANCH  23  28
ENDBRANCH  21  23
ENDBRANCH   1  21
BRANCH  17  30
HETATM   30  O7  UNL     1       8.849   0.280  26.384  1.00  0.00    -0.395 OA
ATOM     31  H7  UNL     1       9.694   0.715  26.402  1.00  0.00     0.210 HD
ENDBRANCH  17  30
BRANCH   9  32
HETATM   32  C17 UNL     1       3.462  -2.381  26.719  1.00  0.00     0.130 C 
HETATM   33  C18 UNL     1       2.122  -2.583  27.322  1.00  0.00     0.091 C 
HETATM   34  O2  UNL     1       3.811  -3.368  26.012  1.00  0.00    -0.298 OA
ENDBRANCH   9  32
BRANCH  10  35
HETATM   35  O3  UNL     1       4.619  -1.227  29.207  1.00  0.00    -0.383 OA
HETATM   36  C20 UNL     1       4.390  -2.202  30.057  1.00  0.00     0.202 C 
ENDBRANCH  10  35
BRANCH  12  37
HETATM   37  C23 UNL     1       8.612  -2.670  28.723  1.00  0.00     0.270 C 
HETATM   38  O4  UNL     1       8.926  -3.189  27.625  1.00  0.00    -0.264 OA
BRANCH  37  39
HETATM   39  O5  UNL     1       9.569  -2.823  29.741  1.00  0.00    -0.326 OA
HETATM   40  C24 UNL     1      10.896  -2.408  29.576  1.00  0.00     0.213 C 
ENDBRANCH  37  39
ENDBRANCH  12  37
TORSDOF 10
ENDMDL
