MODEL 1
REMARK VINA RESULT: -7.369536106      0.000      0.000
REMARK  8 active torsions:
REMARK  status: ('A' for Active; 'I' for Inactive)
REMARK    1  A    between atoms: C2_2  and  C3_3 
REMARK    2  A    between atoms: C6_7  and  O2_8 
REMARK    3  A    between atoms: C7_10  and  C8_11 
REMARK    4  A    between atoms: C8_11  and  C10_13 
REMARK    5  A    between atoms: C10_13  and  C12_15 
REMARK    6  A    between atoms: C12_15  and  O3_16 
REMARK    7  A    between atoms: C13_18  and  O4_19 
REMARK    8  A    between atoms: C14_21  and  O5_22 
ROOT
HETATM    1  C3  UNL     1       1.378  38.792  50.745  1.00  0.00     0.172 C 
HETATM    2  C4  UNL     1       0.620  39.471  51.811  1.00  0.00     0.080 C 
HETATM    3  O1  UNL     1       0.522  38.452  49.664  1.00  0.00    -0.310 OA
HETATM    4  C5  UNL     1       0.623  37.189  49.067  1.00  0.00     0.122 A 
HETATM    5  C6  UNL     1       0.267  36.956  47.749  1.00  0.00     0.113 A 
HETATM    6  C7  UNL     1       0.359  35.704  47.148  1.00  0.00     0.038 A 
HETATM    7  C13 UNL     1       0.850  34.698  48.006  1.00  0.00     0.113 A 
HETATM    8  C14 UNL     1       1.212  34.915  49.320  1.00  0.00     0.115 A 
HETATM    9  C15 UNL     1       1.095  36.167  49.860  1.00  0.00     0.065 A 
HETATM   10  C16 UNL     1       1.360  36.560  51.249  1.00  0.00     0.062 C 
HETATM   11  C17 UNL     1       1.782  35.490  52.199  1.00  0.00     0.077 C 
HETATM   12  O6  UNL     1       2.076  37.730  51.288  1.00  0.00    -0.318 OA
ENDROOT
BRANCH   6  13
HETATM   13  C8  UNL     1       0.055  35.484  45.724  1.00  0.00    -0.062 C 
HETATM   14  C9  UNL     1       1.321  35.487  44.873  1.00  0.00     0.045 C 
BRANCH  13  15
HETATM   15  C10 UNL     1      -1.143  34.857  45.232  1.00  0.00     0.035 C 
HETATM   16  C11 UNL     1      -1.227  33.784  44.242  1.00  0.00     0.017 C 
BRANCH  15  17
HETATM   17  C12 UNL     1      -2.049  36.018  44.716  1.00  0.00     0.172 C 
BRANCH  17  18
HETATM   18  O3  UNL     1      -2.676  36.612  45.817  1.00  0.00    -0.400 OA
ATOM     19  H3  UNL     1      -3.616  36.529  45.707  1.00  0.00     0.209 HD
ENDBRANCH  17  18
ENDBRANCH  15  17
ENDBRANCH  13  15
ENDBRANCH   6  13
BRANCH   5  20
HETATM   20  O2  UNL     1      -0.204  38.038  47.046  1.00  0.00    -0.357 OA
ATOM     21  H2  UNL     1       0.131  38.888  47.310  1.00  0.00     0.217 HD
ENDBRANCH   5  20
BRANCH   7  22
HETATM   22  O4  UNL     1       0.952  33.433  47.443  1.00  0.00    -0.357 OA
ATOM     23  H4  UNL     1       0.302  33.230  46.781  1.00  0.00     0.217 HD
ENDBRANCH   7  22
BRANCH   8  24
HETATM   24  O5  UNL     1       1.712  33.902  50.130  1.00  0.00    -0.357 OA
ATOM     25  H5  UNL     1       2.572  33.523  49.997  1.00  0.00     0.217 HD
ENDBRANCH   8  24
BRANCH   1  26
HETATM   26  C2  UNL     1       2.439  39.699  50.121  1.00  0.00     0.064 C 
HETATM   27  C1  UNL     1       3.556  39.986  51.118  1.00  0.00     0.010 C 
ENDBRANCH   1  26
TORSDOF 8
ENDMDL
MODEL 2
REMARK VINA RESULT: -7.343758919      1.474      5.980
REMARK  8 active torsions:
REMARK  status: ('A' for Active; 'I' for Inactive)
REMARK    1  A    between atoms: C2_2  and  C3_3 
REMARK    2  A    between atoms: C6_7  and  O2_8 
REMARK    3  A    between atoms: C7_10  and  C8_11 
REMARK    4  A    between atoms: C8_11  and  C10_13 
REMARK    5  A    between atoms: C10_13  and  C12_15 
REMARK    6  A    between atoms: C12_15  and  O3_16 
REMARK    7  A    between atoms: C13_18  and  O4_19 
REMARK    8  A    between atoms: C14_21  and  O5_22 
ROOT
HETATM    1  C3  UNL     1      -0.990  36.180  44.931  1.00  0.00     0.172 C 
HETATM    2  C4  UNL     1      -0.639  36.153  43.500  1.00  0.00     0.080 C 
HETATM    3  O1  UNL     1      -0.085  37.003  45.652  1.00  0.00    -0.310 OA
HETATM    4  C5  UNL     1       0.423  36.568  46.881  1.00  0.00     0.122 A 
HETATM    5  C6  UNL     1       0.837  37.445  47.871  1.00  0.00     0.113 A 
HETATM    6  C7  UNL     1       1.347  37.023  49.095  1.00  0.00     0.038 A 
HETATM    7  C13 UNL     1       1.402  35.621  49.233  1.00  0.00     0.113 A 
HETATM    8  C14 UNL     1       0.991  34.733  48.259  1.00  0.00     0.115 A 
HETATM    9  C15 UNL     1       0.501  35.206  47.071  1.00  0.00     0.065 A 
HETATM   10  C16 UNL     1       0.093  34.414  45.905  1.00  0.00     0.062 C 
HETATM   11  C17 UNL     1       0.239  32.933  45.993  1.00  0.00     0.077 C 
HETATM   12  O6  UNL     1      -1.094  34.884  45.399  1.00  0.00    -0.318 OA
ENDROOT
BRANCH   6  13
HETATM   13  C8  UNL     1       1.708  37.963  50.169  1.00  0.00    -0.062 C 
HETATM   14  C9  UNL     1       2.889  38.843  49.771  1.00  0.00     0.045 C 
BRANCH  13  15
HETATM   15  C10 UNL     1       0.820  38.381  51.222  1.00  0.00     0.035 C 
HETATM   16  C11 UNL     1       0.358  39.743  51.489  1.00  0.00     0.017 C 
BRANCH  15  17
HETATM   17  C12 UNL     1       1.454  37.851  52.546  1.00  0.00     0.172 C 
BRANCH  17  18
HETATM   18  O3  UNL     1       0.831  36.644  52.882  1.00  0.00    -0.400 OA
ATOM     19  H3  UNL     1       0.541  36.697  53.785  1.00  0.00     0.209 HD
ENDBRANCH  17  18
ENDBRANCH  15  17
ENDBRANCH  13  15
ENDBRANCH   6  13
BRANCH   5  20
HETATM   20  O2  UNL     1       0.730  38.784  47.579  1.00  0.00    -0.357 OA
ATOM     21  H2  UNL     1       1.269  39.102  46.865  1.00  0.00     0.217 HD
ENDBRANCH   5  20
BRANCH   7  22
HETATM   22  O4  UNL     1       1.910  35.161  50.440  1.00  0.00    -0.357 OA
ATOM     23  H4  UNL     1       2.857  35.143  50.502  1.00  0.00     0.217 HD
ENDBRANCH   7  22
BRANCH   8  24
HETATM   24  O5  UNL     1       1.040  33.356  48.439  1.00  0.00    -0.357 OA
ATOM     25  H5  UNL     1       1.468  32.777  47.819  1.00  0.00     0.217 HD
ENDBRANCH   8  24
BRANCH   1  26
HETATM   26  C2  UNL     1      -2.360  36.812  45.179  1.00  0.00     0.064 C 
HETATM   27  C1  UNL     1      -2.704  37.804  44.074  1.00  0.00     0.010 C 
ENDBRANCH   1  26
TORSDOF 8
ENDMDL
MODEL 3
REMARK VINA RESULT: -6.897972956      1.384      1.866
REMARK  8 active torsions:
REMARK  status: ('A' for Active; 'I' for Inactive)
REMARK    1  A    between atoms: C2_2  and  C3_3 
REMARK    2  A    between atoms: C6_7  and  O2_8 
REMARK    3  A    between atoms: C7_10  and  C8_11 
REMARK    4  A    between atoms: C8_11  and  C10_13 
REMARK    5  A    between atoms: C10_13  and  C12_15 
REMARK    6  A    between atoms: C12_15  and  O3_16 
REMARK    7  A    between atoms: C13_18  and  O4_19 
REMARK    8  A    between atoms: C14_21  and  O5_22 
ROOT
HETATM    1  C3  UNL     1       0.940  38.369  49.847  1.00  0.00     0.172 C 
HETATM    2  C4  UNL     1       0.247  38.868  51.048  1.00  0.00     0.080 C 
HETATM    3  O1  UNL     1       0.000  37.995  48.849  1.00  0.00    -0.310 OA
HETATM    4  C5  UNL     1       0.176  36.801  48.140  1.00  0.00     0.122 A 
HETATM    5  C6  UNL     1      -0.314  36.614  46.858  1.00  0.00     0.113 A 
HETATM    6  C7  UNL     1      -0.147  35.430  46.147  1.00  0.00     0.038 A 
HETATM    7  C13 UNL     1       0.567  34.440  46.852  1.00  0.00     0.113 A 
HETATM    8  C14 UNL     1       1.066  34.612  48.128  1.00  0.00     0.115 A 
HETATM    9  C15 UNL     1       0.867  35.798  48.782  1.00  0.00     0.065 A 
HETATM   10  C16 UNL     1       1.258  36.125  50.159  1.00  0.00     0.062 C 
HETATM   11  C17 UNL     1       1.925  35.057  50.958  1.00  0.00     0.077 C 
HETATM   12  O6  UNL     1       1.825  37.374  50.211  1.00  0.00    -0.318 OA
ENDROOT
BRANCH   6  13
HETATM   13  C8  UNL     1      -0.603  35.271  44.755  1.00  0.00    -0.062 C 
HETATM   14  C9  UNL     1      -1.992  34.644  44.688  1.00  0.00     0.045 C 
BRANCH  13  15
HETATM   15  C10 UNL     1      -0.098  36.026  43.639  1.00  0.00     0.035 C 
HETATM   16  C11 UNL     1       0.935  37.061  43.676  1.00  0.00     0.017 C 
BRANCH  15  17
HETATM   17  C12 UNL     1      -1.350  36.662  42.957  1.00  0.00     0.172 C 
BRANCH  17  18
HETATM   18  O3  UNL     1      -1.476  37.980  43.409  1.00  0.00    -0.400 OA
ATOM     19  H3  UNL     1      -1.825  37.962  44.292  1.00  0.00     0.209 HD
ENDBRANCH  17  18
ENDBRANCH  15  17
ENDBRANCH  13  15
ENDBRANCH   6  13
BRANCH   5  20
HETATM   20  O2  UNL     1      -1.000  37.672  46.310  1.00  0.00    -0.357 OA
ATOM     21  H2  UNL     1      -0.997  38.479  46.812  1.00  0.00     0.217 HD
ENDBRANCH   5  20
BRANCH   7  22
HETATM   22  O4  UNL     1       0.750  33.242  46.176  1.00  0.00    -0.357 OA
ATOM     23  H4  UNL     1       1.252  33.302  45.372  1.00  0.00     0.217 HD
ENDBRANCH   7  22
BRANCH   8  24
HETATM   24  O5  UNL     1       1.785  33.620  48.785  1.00  0.00    -0.357 OA
ATOM     25  H5  UNL     1       2.024  33.688  49.701  1.00  0.00     0.217 HD
ENDBRANCH   8  24
BRANCH   1  26
HETATM   26  C2  UNL     1       1.794  39.449  49.180  1.00  0.00     0.064 C 
HETATM   27  C1  UNL     1       1.050  40.779  49.147  1.00  0.00     0.010 C 
ENDBRANCH   1  26
TORSDOF 8
ENDMDL
MODEL 4
REMARK VINA RESULT: -6.884342371      1.737      6.268
REMARK  8 active torsions:
REMARK  status: ('A' for Active; 'I' for Inactive)
REMARK    1  A    between atoms: C2_2  and  C3_3 
REMARK    2  A    between atoms: C6_7  and  O2_8 
REMARK    3  A    between atoms: C7_10  and  C8_11 
REMARK    4  A    between atoms: C8_11  and  C10_13 
REMARK    5  A    between atoms: C10_13  and  C12_15 
REMARK    6  A    between atoms: C12_15  and  O3_16 
REMARK    7  A    between atoms: C13_18  and  O4_19 
REMARK    8  A    between atoms: C14_21  and  O5_22 
ROOT
HETATM    1  C3  UNL     1      -1.277  35.874  43.156  1.00  0.00     0.172 C 
HETATM    2  C4  UNL     1      -0.831  36.053  41.763  1.00  0.00     0.080 C 
HETATM    3  O1  UNL     1      -0.354  36.471  44.056  1.00  0.00    -0.310 OA
HETATM    4  C5  UNL     1       0.027  35.788  45.216  1.00  0.00     0.122 A 
HETATM    5  C6  UNL     1       0.447  36.441  46.364  1.00  0.00     0.113 A 
HETATM    6  C7  UNL     1       0.832  35.771  47.521  1.00  0.00     0.038 A 
HETATM    7  C13 UNL     1       0.752  34.367  47.416  1.00  0.00     0.113 A 
HETATM    8  C14 UNL     1       0.333  33.701  46.282  1.00  0.00     0.115 A 
HETATM    9  C15 UNL     1      -0.029  34.413  45.171  1.00  0.00     0.065 A 
HETATM   10  C16 UNL     1      -0.425  33.872  43.864  1.00  0.00     0.062 C 
HETATM   11  C17 UNL     1      -0.417  32.389  43.701  1.00  0.00     0.077 C 
HETATM   12  O6  UNL     1      -1.527  34.535  43.386  1.00  0.00    -0.318 OA
ENDROOT
BRANCH   6  13
HETATM   13  C8  UNL     1       1.200  36.477  48.760  1.00  0.00    -0.062 C 
HETATM   14  C9  UNL     1       1.773  35.520  49.801  1.00  0.00     0.045 C 
BRANCH  13  15
HETATM   15  C10 UNL     1       1.477  37.886  48.846  1.00  0.00     0.035 C 
HETATM   16  C11 UNL     1       2.664  38.511  49.429  1.00  0.00     0.017 C 
BRANCH  15  17
HETATM   17  C12 UNL     1       0.239  38.519  49.555  1.00  0.00     0.172 C 
BRANCH  17  18
HETATM   18  O3  UNL     1      -0.238  39.566  48.759  1.00  0.00    -0.400 OA
ATOM     19  H3  UNL     1       0.235  40.358  48.990  1.00  0.00     0.209 HD
ENDBRANCH  17  18
ENDBRANCH  15  17
ENDBRANCH  13  15
ENDBRANCH   6  13
BRANCH   5  20
HETATM   20  O2  UNL     1       0.480  37.813  46.303  1.00  0.00    -0.357 OA
ATOM     21  H2  UNL     1       0.455  38.271  47.136  1.00  0.00     0.217 HD
ENDBRANCH   5  20
BRANCH   7  22
HETATM   22  O4  UNL     1       1.133  33.663  48.551  1.00  0.00    -0.357 OA
ATOM     23  H4  UNL     1       1.280  32.734  48.422  1.00  0.00     0.217 HD
ENDBRANCH   7  22
BRANCH   8  24
HETATM   24  O5  UNL     1       0.247  32.315  46.223  1.00  0.00    -0.357 OA
ATOM     25  H5  UNL     1      -0.466  31.868  45.783  1.00  0.00     0.217 HD
ENDBRANCH   8  24
BRANCH   1  26
HETATM   26  C2  UNL     1      -2.599  36.589  43.437  1.00  0.00     0.064 C 
HETATM   27  C1  UNL     1      -2.371  38.082  43.646  1.00  0.00     0.010 C 
ENDBRANCH   1  26
TORSDOF 8
ENDMDL
MODEL 5
REMARK VINA RESULT: -6.778200982      1.532      6.095
REMARK  8 active torsions:
REMARK  status: ('A' for Active; 'I' for Inactive)
REMARK    1  A    between atoms: C2_2  and  C3_3 
REMARK    2  A    between atoms: C6_7  and  O2_8 
REMARK    3  A    between atoms: C7_10  and  C8_11 
REMARK    4  A    between atoms: C8_11  and  C10_13 
REMARK    5  A    between atoms: C10_13  and  C12_15 
REMARK    6  A    between atoms: C12_15  and  O3_16 
REMARK    7  A    between atoms: C13_18  and  O4_19 
REMARK    8  A    between atoms: C14_21  and  O5_22 
ROOT
HETATM    1  C3  UNL     1       0.041  36.566  45.556  1.00  0.00     0.172 C 
HETATM    2  C4  UNL     1       0.734  36.310  44.282  1.00  0.00     0.080 C 
HETATM    3  O1  UNL     1       0.817  37.421  46.383  1.00  0.00    -0.310 OA
HETATM    4  C5  UNL     1       0.953  37.135  47.746  1.00  0.00     0.122 A 
HETATM    5  C6  UNL     1       1.194  38.115  48.695  1.00  0.00     0.113 A 
HETATM    6  C7  UNL     1       1.334  37.840  50.052  1.00  0.00     0.038 A 
HETATM    7  C13 UNL     1       1.209  36.472  50.369  1.00  0.00     0.113 A 
HETATM    8  C14 UNL     1       0.966  35.484  49.437  1.00  0.00     0.115 A 
HETATM    9  C15 UNL     1       0.840  35.813  48.114  1.00  0.00     0.065 A 
HETATM   10  C16 UNL     1       0.657  34.890  46.987  1.00  0.00     0.062 C 
HETATM   11  C17 UNL     1       0.624  33.430  47.289  1.00  0.00     0.077 C 
HETATM   12  O6  UNL     1      -0.310  35.362  46.135  1.00  0.00    -0.318 OA
ENDROOT
BRANCH   6  13
HETATM   13  C8  UNL     1       1.510  38.899  51.061  1.00  0.00    -0.062 C 
HETATM   14  C9  UNL     1       0.183  39.273  51.716  1.00  0.00     0.045 C 
BRANCH  13  15
HETATM   15  C10 UNL     1       2.751  39.199  51.723  1.00  0.00     0.035 C 
HETATM   16  C11 UNL     1       3.110  38.872  53.102  1.00  0.00     0.017 C 
BRANCH  15  17
HETATM   17  C12 UNL     1       2.960  40.737  51.555  1.00  0.00     0.172 C 
BRANCH  17  18
HETATM   18  O3  UNL     1       2.688  41.077  50.226  1.00  0.00    -0.400 OA
ATOM     19  H3  UNL     1       1.748  41.172  50.126  1.00  0.00     0.209 HD
ENDBRANCH  17  18
ENDBRANCH  15  17
ENDBRANCH  13  15
ENDBRANCH   6  13
BRANCH   5  20
HETATM   20  O2  UNL     1       1.301  39.402  48.225  1.00  0.00    -0.357 OA
ATOM     21  H2  UNL     1       0.484  39.853  48.044  1.00  0.00     0.217 HD
ENDBRANCH   5  20
BRANCH   7  22
HETATM   22  O4  UNL     1       1.348  36.158  51.714  1.00  0.00    -0.357 OA
ATOM     23  H4  UNL     1       1.541  35.247  51.901  1.00  0.00     0.217 HD
ENDBRANCH   7  22
BRANCH   8  24
HETATM   24  O5  UNL     1       0.826  34.147  49.790  1.00  0.00    -0.357 OA
ATOM     25  H5  UNL     1       1.571  33.596  50.001  1.00  0.00     0.217 HD
ENDBRANCH   8  24
BRANCH   1  26
HETATM   26  C2  UNL     1      -1.275  37.320  45.357  1.00  0.00     0.064 C 
HETATM   27  C1  UNL     1      -2.463  36.372  45.486  1.00  0.00     0.010 C 
ENDBRANCH   1  26
TORSDOF 8
ENDMDL
