MODEL 1
REMARK VINA RESULT: -9.922152269      0.000      0.000
REMARK  5 active torsions:
REMARK  status: ('A' for Active; 'I' for Inactive)
REMARK    1  A    between atoms: C2_2  and  C3_3 
REMARK    2  A    between atoms: C9_9  and  C10_10 
REMARK       I    between atoms: C10_10  and  N1_12 
REMARK    3  A    between atoms: N1_12  and  C11_14 
REMARK    4  A    between atoms: C11_14  and  C12_15 
REMARK       I    between atoms: N2_19  and  C16_20 
REMARK    5  A    between atoms: C16_20  and  C17_22 
ROOT
HETATM    1  C11 UNL     1     112.590 125.638 180.521  1.00  0.00     0.128 C 
ENDROOT
BRANCH   1   2
HETATM    2  N1  UNL     1     113.981 125.534 180.078  1.00  0.00    -0.360 N 
HETATM    3  C10 UNL     1     114.492 126.383 179.041  1.00  0.00     0.222 C 
HETATM    4  O1  UNL     1     113.661 127.204 178.557  1.00  0.00    -0.273 OA
ATOM      5  H1  UNL     1     114.598 124.848 180.514  1.00  0.00     0.162 HD
BRANCH   3   6
HETATM    6  C9  UNL     1     115.887 126.233 178.643  1.00  0.00     0.090 C 
HETATM    7  C3  UNL     1     116.913 126.737 179.597  1.00  0.00     0.025 C 
HETATM    8  C4  UNL     1     117.857 127.573 178.751  1.00  0.00    -0.006 C 
HETATM    9  C5  UNL     1     118.552 126.661 177.801  1.00  0.00     0.005 C 
HETATM   10  C8  UNL     1     116.808 128.221 177.826  1.00  0.00     0.011 C 
HETATM   11  C6  UNL     1     117.473 126.250 176.810  1.00  0.00     0.006 C 
HETATM   12  C7  UNL     1     116.215 126.907 177.335  1.00  0.00    -0.001 C 
BRANCH   7  13
HETATM   13  C2  UNL     1     116.434 127.529 180.726  1.00  0.00    -0.031 C 
HETATM   14  C1  UNL     1     117.147 128.539 181.171  1.00  0.00     0.007 C 
ENDBRANCH   7  13
ENDBRANCH   3   6
ENDBRANCH   1   2
BRANCH   1  15
HETATM   15  C12 UNL     1     112.544 125.121 181.940  1.00  0.00     0.021 C 
HETATM   16  C13 UNL     1     113.782 125.375 182.723  1.00  0.00     0.009 C 
HETATM   17  C14 UNL     1     113.919 126.775 183.248  1.00  0.00     0.020 C 
HETATM   18  C15 UNL     1     112.623 127.507 183.357  1.00  0.00     0.126 C 
HETATM   19  N2  UNL     1     111.565 126.561 183.632  1.00  0.00    -0.351 N 
HETATM   20  C16 UNL     1     110.867 126.641 184.870  1.00  0.00     0.224 C 
HETATM   21  C22 UNL     1     111.279 125.574 182.613  1.00  0.00     0.132 C 
HETATM   22  O2  UNL     1     111.198 127.535 185.689  1.00  0.00    -0.273 OA
BRANCH  20  23
HETATM   23  C17 UNL     1     109.774 125.726 185.237  1.00  0.00     0.078 C 
HETATM   24  C18 UNL     1     110.082 125.116 186.585  1.00  0.00     0.014 C 
HETATM   25  C19 UNL     1     108.767 124.899 187.281  1.00  0.00     0.001 C 
HETATM   26  C20 UNL     1     107.720 125.386 186.329  1.00  0.00     0.001 C 
HETATM   27  C21 UNL     1     108.483 126.455 185.534  1.00  0.00     0.014 C 
ENDBRANCH  20  23
ENDBRANCH   1  15
TORSDOF 5
ENDMDL
MODEL 2
REMARK VINA RESULT: -9.897495131      1.163      1.293
REMARK  5 active torsions:
REMARK  status: ('A' for Active; 'I' for Inactive)
REMARK    1  A    between atoms: C2_2  and  C3_3 
REMARK    2  A    between atoms: C9_9  and  C10_10 
REMARK       I    between atoms: C10_10  and  N1_12 
REMARK    3  A    between atoms: N1_12  and  C11_14 
REMARK    4  A    between atoms: C11_14  and  C12_15 
REMARK       I    between atoms: N2_19  and  C16_20 
REMARK    5  A    between atoms: C16_20  and  C17_22 
ROOT
HETATM    1  C11 UNL     1     112.273 125.479 180.834  1.00  0.00     0.128 C 
ENDROOT
BRANCH   1   2
HETATM    2  N1  UNL     1     113.712 125.548 180.572  1.00  0.00    -0.360 N 
HETATM    3  C10 UNL     1     114.225 126.288 179.456  1.00  0.00     0.222 C 
HETATM    4  O1  UNL     1     113.353 126.859 178.740  1.00  0.00    -0.273 OA
ATOM      5  H1  UNL     1     114.359 125.063 181.193  1.00  0.00     0.162 HD
BRANCH   3   6
HETATM    6  C9  UNL     1     115.668 126.320 179.247  1.00  0.00     0.090 C 
HETATM    7  C3  UNL     1     116.471 127.086 180.241  1.00  0.00     0.025 C 
HETATM    8  C4  UNL     1     117.390 127.963 179.408  1.00  0.00    -0.006 C 
HETATM    9  C5  UNL     1     118.332 127.074 178.674  1.00  0.00     0.005 C 
HETATM   10  C8  UNL     1     116.394 128.327 178.290  1.00  0.00     0.011 C 
HETATM   11  C6  UNL     1     117.469 126.387 177.626  1.00  0.00     0.006 C 
HETATM   12  C7  UNL     1     116.069 126.888 177.910  1.00  0.00    -0.001 C 
BRANCH   7  13
HETATM   13  C2  UNL     1     115.733 127.912 181.192  1.00  0.00    -0.031 C 
HETATM   14  C1  UNL     1     116.068 127.910 182.463  1.00  0.00     0.007 C 
ENDBRANCH   7  13
ENDBRANCH   3   6
ENDBRANCH   1   2
BRANCH   1  15
HETATM   15  C12 UNL     1     112.111 125.024 182.266  1.00  0.00     0.021 C 
HETATM   16  C13 UNL     1     112.965 125.756 183.239  1.00  0.00     0.009 C 
HETATM   17  C14 UNL     1     112.457 127.115 183.623  1.00  0.00     0.020 C 
HETATM   18  C15 UNL     1     110.992 127.297 183.401  1.00  0.00     0.126 C 
HETATM   19  N2  UNL     1     110.325 126.026 183.571  1.00  0.00    -0.351 N 
HETATM   20  C16 UNL     1     109.394 125.867 184.635  1.00  0.00     0.224 C 
HETATM   21  C22 UNL     1     110.654 124.976 182.630  1.00  0.00     0.132 C 
HETATM   22  O2  UNL     1     109.184 126.842 185.400  1.00  0.00    -0.273 OA
BRANCH  20  23
HETATM   23  C17 UNL     1     108.664 124.613 184.884  1.00  0.00     0.078 C 
HETATM   24  C18 UNL     1     109.459 123.771 185.854  1.00  0.00     0.014 C 
HETATM   25  C19 UNL     1     108.470 123.003 186.685  1.00  0.00     0.001 C 
HETATM   26  C20 UNL     1     107.118 123.413 186.188  1.00  0.00     0.001 C 
HETATM   27  C21 UNL     1     107.387 124.831 185.664  1.00  0.00     0.014 C 
ENDBRANCH  20  23
ENDBRANCH   1  15
TORSDOF 5
ENDMDL
MODEL 3
REMARK VINA RESULT: -9.887767463      1.614      8.718
REMARK  5 active torsions:
REMARK  status: ('A' for Active; 'I' for Inactive)
REMARK    1  A    between atoms: C2_2  and  C3_3 
REMARK    2  A    between atoms: C9_9  and  C10_10 
REMARK       I    between atoms: C10_10  and  N1_12 
REMARK    3  A    between atoms: N1_12  and  C11_14 
REMARK    4  A    between atoms: C11_14  and  C12_15 
REMARK       I    between atoms: N2_19  and  C16_20 
REMARK    5  A    between atoms: C16_20  and  C17_22 
ROOT
HETATM    1  C11 UNL     1     114.266 128.955 182.375  1.00  0.00     0.128 C 
ENDROOT
BRANCH   1   2
HETATM    2  N1  UNL     1     113.585 128.185 183.418  1.00  0.00    -0.360 N 
HETATM    3  C10 UNL     1     112.231 128.477 183.788  1.00  0.00     0.222 C 
HETATM    4  O1  UNL     1     111.691 129.429 183.153  1.00  0.00    -0.273 OA
ATOM      5  H1  UNL     1     114.082 127.428 183.889  1.00  0.00     0.162 HD
BRANCH   3   6
HETATM    6  C9  UNL     1     111.606 127.674 184.833  1.00  0.00     0.090 C 
HETATM    7  C3  UNL     1     110.822 126.489 184.388  1.00  0.00     0.025 C 
HETATM    8  C4  UNL     1     109.505 126.587 185.138  1.00  0.00    -0.006 C 
HETATM    9  C5  UNL     1     109.789 126.406 186.588  1.00  0.00     0.005 C 
HETATM   10  C8  UNL     1     109.321 128.115 185.061  1.00  0.00     0.011 C 
HETATM   11  C6  UNL     1     110.514 127.679 186.997  1.00  0.00     0.006 C 
HETATM   12  C7  UNL     1     110.658 128.456 185.706  1.00  0.00    -0.001 C 
BRANCH   7  13
HETATM   13  C2  UNL     1     110.563 126.367 182.956  1.00  0.00    -0.031 C 
HETATM   14  C1  UNL     1     110.712 125.207 182.357  1.00  0.00     0.007 C 
ENDBRANCH   7  13
ENDBRANCH   3   6
ENDBRANCH   1   2
BRANCH   1  15
HETATM   15  C12 UNL     1     115.393 128.091 181.859  1.00  0.00     0.021 C 
HETATM   16  C13 UNL     1     115.450 126.734 182.466  1.00  0.00     0.009 C 
HETATM   17  C14 UNL     1     114.457 125.755 181.911  1.00  0.00     0.020 C 
HETATM   18  C15 UNL     1     113.959 126.108 180.550  1.00  0.00     0.126 C 
HETATM   19  N2  UNL     1     114.996 126.814 179.833  1.00  0.00    -0.351 N 
HETATM   20  C16 UNL     1     115.560 126.224 178.667  1.00  0.00     0.224 C 
HETATM   21  C22 UNL     1     115.404 128.100 180.357  1.00  0.00     0.132 C 
HETATM   22  O2  UNL     1     115.137 125.099 178.299  1.00  0.00    -0.273 OA
BRANCH  20  23
HETATM   23  C17 UNL     1     116.616 126.869 177.870  1.00  0.00     0.078 C 
HETATM   24  C18 UNL     1     117.958 126.346 178.327  1.00  0.00     0.014 C 
HETATM   25  C19 UNL     1     118.855 126.320 177.121  1.00  0.00     0.001 C 
HETATM   26  C20 UNL     1     118.021 126.824 175.985  1.00  0.00     0.001 C 
HETATM   27  C21 UNL     1     116.606 126.423 176.425  1.00  0.00     0.014 C 
ENDBRANCH  20  23
ENDBRANCH   1  15
TORSDOF 5
ENDMDL
MODEL 4
REMARK VINA RESULT: -9.829932193      2.903      7.423
REMARK  5 active torsions:
REMARK  status: ('A' for Active; 'I' for Inactive)
REMARK    1  A    between atoms: C2_2  and  C3_3 
REMARK    2  A    between atoms: C9_9  and  C10_10 
REMARK       I    between atoms: C10_10  and  N1_12 
REMARK    3  A    between atoms: N1_12  and  C11_14 
REMARK    4  A    between atoms: C11_14  and  C12_15 
REMARK       I    between atoms: N2_19  and  C16_20 
REMARK    5  A    between atoms: C16_20  and  C17_22 
ROOT
HETATM    1  C11 UNL     1     116.090 126.090 180.551  1.00  0.00     0.128 C 
ENDROOT
BRANCH   1   2
HETATM    2  N1  UNL     1     114.654 126.162 180.827  1.00  0.00    -0.360 N 
HETATM    3  C10 UNL     1     114.083 125.483 181.953  1.00  0.00     0.222 C 
HETATM    4  O1  UNL     1     114.902 124.836 182.667  1.00  0.00    -0.273 OA
ATOM      5  H1  UNL     1     114.050 126.704 180.208  1.00  0.00     0.162 HD
BRANCH   3   6
HETATM    6  C9  UNL     1     112.645 125.593 182.176  1.00  0.00     0.090 C 
HETATM    7  C3  UNL     1     112.171 126.807 182.896  1.00  0.00     0.025 C 
HETATM    8  C4  UNL     1     111.234 126.283 183.971  1.00  0.00    -0.006 C 
HETATM    9  C5  UNL     1     110.050 125.684 183.295  1.00  0.00     0.005 C 
HETATM   10  C8  UNL     1     112.026 125.019 184.357  1.00  0.00     0.011 C 
HETATM   11  C6  UNL     1     110.583 124.412 182.651  1.00  0.00     0.006 C 
HETATM   12  C7  UNL     1     112.067 124.436 182.950  1.00  0.00    -0.001 C 
BRANCH   7  13
HETATM   13  C2  UNL     1     113.191 127.655 183.506  1.00  0.00    -0.031 C 
HETATM   14  C1  UNL     1     113.026 128.958 183.544  1.00  0.00     0.007 C 
ENDBRANCH   7  13
ENDBRANCH   3   6
ENDBRANCH   1   2
BRANCH   1  15
HETATM   15  C12 UNL     1     116.569 127.509 180.355  1.00  0.00     0.021 C 
HETATM   16  C13 UNL     1     117.566 127.672 179.263  1.00  0.00     0.009 C 
HETATM   17  C14 UNL     1     116.986 127.686 177.879  1.00  0.00     0.020 C 
HETATM   18  C15 UNL     1     115.540 128.052 177.835  1.00  0.00     0.126 C 
HETATM   19  N2  UNL     1     115.246 128.957 178.923  1.00  0.00    -0.351 N 
HETATM   20  C16 UNL     1     114.833 130.286 178.629  1.00  0.00     0.224 C 
HETATM   21  C22 UNL     1     115.395 128.443 180.268  1.00  0.00     0.132 C 
HETATM   22  O2  UNL     1     114.740 130.634 177.424  1.00  0.00    -0.273 OA
BRANCH  20  23
HETATM   23  C17 UNL     1     114.508 131.276 179.669  1.00  0.00     0.078 C 
HETATM   24  C18 UNL     1     114.168 132.589 179.002  1.00  0.00     0.014 C 
HETATM   25  C19 UNL     1     113.130 133.261 179.856  1.00  0.00     0.001 C 
HETATM   26  C20 UNL     1     112.883 132.330 181.002  1.00  0.00     0.001 C 
HETATM   27  C21 UNL     1     113.210 130.965 180.380  1.00  0.00     0.014 C 
ENDBRANCH  20  23
ENDBRANCH   1  15
TORSDOF 5
ENDMDL
MODEL 5
REMARK VINA RESULT: -9.754383973      1.881      3.124
REMARK  5 active torsions:
REMARK  status: ('A' for Active; 'I' for Inactive)
REMARK    1  A    between atoms: C2_2  and  C3_3 
REMARK    2  A    between atoms: C9_9  and  C10_10 
REMARK       I    between atoms: C10_10  and  N1_12 
REMARK    3  A    between atoms: N1_12  and  C11_14 
REMARK    4  A    between atoms: C11_14  and  C12_15 
REMARK       I    between atoms: N2_19  and  C16_20 
REMARK    5  A    between atoms: C16_20  and  C17_22 
ROOT
HETATM    1  C11 UNL     1     113.130 125.955 183.216  1.00  0.00     0.128 C 
ENDROOT
BRANCH   1   2
HETATM    2  N1  UNL     1     113.731 126.680 182.096  1.00  0.00    -0.360 N 
HETATM    3  C10 UNL     1     114.800 126.105 181.332  1.00  0.00     0.222 C 
HETATM    4  O1  UNL     1     115.166 124.952 181.698  1.00  0.00    -0.273 OA
ATOM      5  H1  UNL     1     113.384 127.608 181.854  1.00  0.00     0.162 HD
BRANCH   3   6
HETATM    6  C9  UNL     1     115.357 126.876 180.226  1.00  0.00     0.090 C 
HETATM    7  C3  UNL     1     114.769 126.635 178.879  1.00  0.00     0.025 C 
HETATM    8  C4  UNL     1     115.963 126.438 177.961  1.00  0.00    -0.006 C 
HETATM    9  C5  UNL     1     116.706 127.726 177.891  1.00  0.00     0.005 C 
HETATM   10  C8  UNL     1     116.854 125.633 178.928  1.00  0.00     0.011 C 
HETATM   11  C6  UNL     1     117.347 127.871 179.263  1.00  0.00     0.006 C 
HETATM   12  C7  UNL     1     116.839 126.674 180.039  1.00  0.00    -0.001 C 
BRANCH   7  13
HETATM   13  C2  UNL     1     113.857 125.502 178.748  1.00  0.00    -0.031 C 
HETATM   14  C1  UNL     1     112.632 125.691 178.311  1.00  0.00     0.007 C 
ENDBRANCH   7  13
ENDBRANCH   3   6
ENDBRANCH   1   2
BRANCH   1  15
HETATM   15  C12 UNL     1     111.638 125.943 182.979  1.00  0.00     0.021 C 
HETATM   16  C13 UNL     1     111.106 124.639 182.500  1.00  0.00     0.009 C 
HETATM   17  C14 UNL     1     110.935 123.599 183.569  1.00  0.00     0.020 C 
HETATM   18  C15 UNL     1     110.821 124.163 184.946  1.00  0.00     0.126 C 
HETATM   19  N2  UNL     1     110.200 125.465 184.876  1.00  0.00    -0.351 N 
HETATM   20  C16 UNL     1     108.930 125.663 185.488  1.00  0.00     0.224 C 
HETATM   21  C22 UNL     1     110.921 126.505 184.174  1.00  0.00     0.132 C 
HETATM   22  O2  UNL     1     108.386 124.690 186.070  1.00  0.00    -0.273 OA
BRANCH  20  23
HETATM   23  C17 UNL     1     108.222 126.953 185.473  1.00  0.00     0.078 C 
HETATM   24  C18 UNL     1     107.033 126.867 186.403  1.00  0.00     0.014 C 
HETATM   25  C19 UNL     1     106.840 128.233 186.998  1.00  0.00     0.001 C 
HETATM   26  C20 UNL     1     107.918 129.089 186.409  1.00  0.00     0.001 C 
HETATM   27  C21 UNL     1     109.021 128.061 186.123  1.00  0.00     0.014 C 
ENDBRANCH  20  23
ENDBRANCH   1  15
TORSDOF 5
ENDMDL
