MODEL 1
REMARK VINA RESULT: -6.248104094      0.000      0.000
REMARK  0 active torsions:
REMARK  status: ('A' for Active; 'I' for Inactive)
ROOT
HETATM    1  C1  UNL     1      16.719 -40.790   0.450  1.00  0.00     0.047 C 
HETATM    2  C2  UNL     1      15.755 -40.033   0.922  1.00  0.00     0.049 C 
HETATM    3  O1  UNL     1      15.539 -39.307   2.109  1.00  0.00    -0.343 OA
HETATM    4  C3  UNL     1      14.548 -38.515   1.535  1.00  0.00     0.085 C 
HETATM    5  C4  UNL     1      14.874 -37.132   1.146  1.00  0.00     0.041 C 
HETATM    6  C5  UNL     1      13.792 -36.171   1.627  1.00  0.00     0.009 C 
HETATM    7  C6  UNL     1      13.572 -36.366   3.116  1.00  0.00     0.002 C 
HETATM    8  C7  UNL     1      12.592 -35.363   3.633  1.00  0.00    -0.043 C 
HETATM    9  C8  UNL     1      11.360 -35.210   2.820  1.00  0.00     0.015 C 
HETATM   10  C9  UNL     1      13.306 -34.002   3.621  1.00  0.00     0.015 C 
HETATM   11  C10 UNL     1      12.317 -35.666   5.090  1.00  0.00     0.009 C 
HETATM   12  C11 UNL     1      11.699 -37.001   5.279  1.00  0.00     0.002 C 
HETATM   13  C12 UNL     1      11.925 -37.964   4.165  1.00  0.00     0.010 C 
HETATM   14  C13 UNL     1      13.246 -37.790   3.461  1.00  0.00    -0.033 C 
HETATM   15  C14 UNL     1      14.313 -38.344   4.403  1.00  0.00     0.016 C 
HETATM   16  C15 UNL     1      13.193 -38.569   2.197  1.00  0.00     0.030 C 
HETATM   17  C16 UNL     1      12.933 -40.019   2.318  1.00  0.00     0.010 C 
HETATM   18  C17 UNL     1      13.302 -40.483   0.898  1.00  0.00     0.020 C 
HETATM   19  C18 UNL     1      14.431 -39.557   0.474  1.00  0.00     0.036 C 
HETATM   20  C19 UNL     1      14.420 -39.109  -0.936  1.00  0.00     0.025 C 
ENDROOT
TORSDOF 0
ENDMDL
MODEL 2
REMARK VINA RESULT: -6.184279853      1.992      3.060
REMARK  0 active torsions:
REMARK  status: ('A' for Active; 'I' for Inactive)
ROOT
HETATM    1  C1  UNL     1      19.140 -36.043   0.774  1.00  0.00     0.047 C 
HETATM    2  C2  UNL     1      17.867 -36.107   1.090  1.00  0.00     0.049 C 
HETATM    3  O1  UNL     1      17.129 -36.567   2.198  1.00  0.00    -0.343 OA
HETATM    4  C3  UNL     1      15.996 -35.839   1.841  1.00  0.00     0.085 C 
HETATM    5  C4  UNL     1      15.684 -34.600   2.574  1.00  0.00     0.041 C 
HETATM    6  C5  UNL     1      14.209 -34.564   2.963  1.00  0.00     0.009 C 
HETATM    7  C6  UNL     1      13.856 -35.837   3.710  1.00  0.00     0.002 C 
HETATM    8  C7  UNL     1      12.444 -35.781   4.194  1.00  0.00    -0.043 C 
HETATM    9  C8  UNL     1      11.449 -35.335   3.187  1.00  0.00     0.015 C 
HETATM   10  C9  UNL     1      12.411 -34.754   5.338  1.00  0.00     0.015 C 
HETATM   11  C10 UNL     1      12.099 -37.111   4.831  1.00  0.00     0.009 C 
HETATM   12  C11 UNL     1      12.172 -38.232   3.861  1.00  0.00     0.002 C 
HETATM   13  C12 UNL     1      13.019 -37.975   2.663  1.00  0.00     0.010 C 
HETATM   14  C13 UNL     1      14.195 -37.070   2.925  1.00  0.00    -0.033 C 
HETATM   15  C14 UNL     1      15.217 -37.903   3.698  1.00  0.00     0.016 C 
HETATM   16  C15 UNL     1      14.740 -36.643   1.610  1.00  0.00     0.030 C 
HETATM   17  C16 UNL     1      15.188 -37.714   0.694  1.00  0.00     0.010 C 
HETATM   18  C17 UNL     1      15.972 -36.883  -0.336  1.00  0.00     0.020 C 
HETATM   19  C18 UNL     1      16.576 -35.744   0.470  1.00  0.00     0.036 C 
HETATM   20  C19 UNL     1      16.596 -34.415  -0.180  1.00  0.00     0.025 C 
ENDROOT
TORSDOF 0
ENDMDL
MODEL 3
REMARK VINA RESULT: -6.174946639      2.051      4.219
REMARK  0 active torsions:
REMARK  status: ('A' for Active; 'I' for Inactive)
ROOT
HETATM    1  C1  UNL     1      16.005 -34.464  -1.646  1.00  0.00     0.047 C 
HETATM    2  C2  UNL     1      15.712 -35.106  -0.537  1.00  0.00     0.049 C 
HETATM    3  O1  UNL     1      14.543 -35.648   0.031  1.00  0.00    -0.343 OA
HETATM    4  C3  UNL     1      15.255 -36.470   0.901  1.00  0.00     0.085 C 
HETATM    5  C4  UNL     1      15.367 -37.906   0.594  1.00  0.00     0.041 C 
HETATM    6  C5  UNL     1      15.073 -38.744   1.835  1.00  0.00     0.009 C 
HETATM    7  C6  UNL     1      13.731 -38.331   2.412  1.00  0.00     0.002 C 
HETATM    8  C7  UNL     1      13.370 -39.208   3.566  1.00  0.00    -0.043 C 
HETATM    9  C8  UNL     1      14.453 -39.422   4.558  1.00  0.00     0.015 C 
HETATM   10  C9  UNL     1      13.022 -40.586   2.981  1.00  0.00     0.015 C 
HETATM   11  C10 UNL     1      12.086 -38.692   4.181  1.00  0.00     0.009 C 
HETATM   12  C11 UNL     1      12.236 -37.318   4.721  1.00  0.00     0.002 C 
HETATM   13  C12 UNL     1      13.362 -36.533   4.143  1.00  0.00     0.010 C 
HETATM   14  C13 UNL     1      13.665 -36.860   2.704  1.00  0.00    -0.033 C 
HETATM   15  C14 UNL     1      12.552 -36.224   1.873  1.00  0.00     0.016 C 
HETATM   16  C15 UNL     1      14.986 -36.266   2.371  1.00  0.00     0.030 C 
HETATM   17  C16 UNL     1      15.120 -34.803   2.540  1.00  0.00     0.010 C 
HETATM   18  C17 UNL     1      16.439 -34.560   1.786  1.00  0.00     0.020 C 
HETATM   19  C18 UNL     1      16.431 -35.584   0.662  1.00  0.00     0.036 C 
HETATM   20  C19 UNL     1      17.726 -36.225   0.346  1.00  0.00     0.025 C 
ENDROOT
TORSDOF 0
ENDMDL
MODEL 4
REMARK VINA RESULT: -5.998594585      1.928      3.874
REMARK  0 active torsions:
REMARK  status: ('A' for Active; 'I' for Inactive)
ROOT
HETATM    1  C1  UNL     1      14.759 -35.729  -2.766  1.00  0.00     0.047 C 
HETATM    2  C2  UNL     1      14.684 -36.119  -1.513  1.00  0.00     0.049 C 
HETATM    3  O1  UNL     1      13.649 -36.283  -0.573  1.00  0.00    -0.343 OA
HETATM    4  C3  UNL     1      14.415 -37.117   0.238  1.00  0.00     0.085 C 
HETATM    5  C4  UNL     1      14.163 -38.569   0.210  1.00  0.00     0.041 C 
HETATM    6  C5  UNL     1      14.088 -39.127   1.627  1.00  0.00     0.009 C 
HETATM    7  C6  UNL     1      13.072 -38.333   2.427  1.00  0.00     0.002 C 
HETATM    8  C7  UNL     1      12.902 -38.926   3.787  1.00  0.00    -0.043 C 
HETATM    9  C8  UNL     1      14.166 -39.245   4.498  1.00  0.00     0.015 C 
HETATM   10  C9  UNL     1      12.149 -40.253   3.599  1.00  0.00     0.015 C 
HETATM   11  C10 UNL     1      11.971 -38.040   4.587  1.00  0.00     0.009 C 
HETATM   12  C11 UNL     1      12.525 -36.677   4.784  1.00  0.00     0.002 C 
HETATM   13  C12 UNL     1      13.562 -36.270   3.795  1.00  0.00     0.010 C 
HETATM   14  C13 UNL     1      13.370 -36.861   2.423  1.00  0.00    -0.033 C 
HETATM   15  C14 UNL     1      12.204 -36.106   1.787  1.00  0.00     0.016 C 
HETATM   16  C15 UNL     1      14.625 -36.648   1.656  1.00  0.00     0.030 C 
HETATM   17  C16 UNL     1      15.073 -35.250   1.487  1.00  0.00     0.010 C 
HETATM   18  C17 UNL     1      16.140 -35.434   0.394  1.00  0.00     0.020 C 
HETATM   19  C18 UNL     1      15.616 -36.577  -0.462  1.00  0.00     0.036 C 
HETATM   20  C19 UNL     1      16.621 -37.543  -0.956  1.00  0.00     0.025 C 
ENDROOT
TORSDOF 0
ENDMDL
MODEL 5
REMARK VINA RESULT: -5.935725290      1.742      4.976
REMARK  0 active torsions:
REMARK  status: ('A' for Active; 'I' for Inactive)
ROOT
HETATM    1  C1  UNL     1      13.272 -33.923   3.642  1.00  0.00     0.047 C 
HETATM    2  C2  UNL     1      13.573 -35.144   3.259  1.00  0.00     0.049 C 
HETATM    3  O1  UNL     1      12.906 -36.384   3.243  1.00  0.00    -0.343 OA
HETATM    4  C3  UNL     1      13.777 -36.926   2.302  1.00  0.00     0.085 C 
HETATM    5  C4  UNL     1      13.331 -37.048   0.903  1.00  0.00     0.041 C 
HETATM    6  C5  UNL     1      13.665 -38.432   0.353  1.00  0.00     0.009 C 
HETATM    7  C6  UNL     1      13.102 -39.491   1.283  1.00  0.00     0.002 C 
HETATM    8  C7  UNL     1      13.322 -40.854   0.713  1.00  0.00    -0.043 C 
HETATM    9  C8  UNL     1      14.694 -41.112   0.208  1.00  0.00     0.015 C 
HETATM   10  C9  UNL     1      12.373 -40.989  -0.488  1.00  0.00     0.015 C 
HETATM   11  C10 UNL     1      12.851 -41.880   1.721  1.00  0.00     0.009 C 
HETATM   12  C11 UNL     1      13.623 -41.819   2.987  1.00  0.00     0.002 C 
HETATM   13  C12 UNL     1      14.309 -40.522   3.244  1.00  0.00     0.010 C 
HETATM   14  C13 UNL     1      13.582 -39.322   2.695  1.00  0.00    -0.033 C 
HETATM   15  C14 UNL     1      12.387 -39.083   3.616  1.00  0.00     0.016 C 
HETATM   16  C15 UNL     1      14.519 -38.169   2.727  1.00  0.00     0.030 C 
HETATM   17  C16 UNL     1      15.074 -37.797   4.046  1.00  0.00     0.010 C 
HETATM   18  C17 UNL     1      15.669 -36.418   3.714  1.00  0.00     0.020 C 
HETATM   19  C18 UNL     1      14.732 -35.840   2.665  1.00  0.00     0.036 C 
HETATM   20  C19 UNL     1      15.365 -35.079   1.565  1.00  0.00     0.025 C 
ENDROOT
TORSDOF 0
ENDMDL
