MODEL 1
REMARK VINA RESULT: -6.893314299      0.000      0.000
REMARK  0 active torsions:
REMARK  status: ('A' for Active; 'I' for Inactive)
ROOT
HETATM    1  C1  UNL     1      13.835 -36.075   4.084  1.00  0.00     0.015 C 
HETATM    2  C2  UNL     1      12.438 -35.690   4.601  1.00  0.00    -0.044 C 
HETATM    3  C3  UNL     1      11.657 -35.367   3.318  1.00  0.00     0.015 C 
HETATM    4  C4  UNL     1      11.843 -36.942   5.148  1.00  0.00     0.009 C 
HETATM    5  C5  UNL     1      10.522 -36.617   5.774  1.00  0.00     0.001 C 
HETATM    6  C6  UNL     1      10.713 -35.710   6.946  1.00  0.00     0.006 C 
HETATM    7  C7  UNL     1      11.724 -34.645   6.793  1.00  0.00    -0.001 C 
HETATM    8  C8  UNL     1      12.484 -34.541   5.549  1.00  0.00    -0.002 C 
HETATM    9  C9  UNL     1      12.192 -33.276   4.726  1.00  0.00     0.006 C 
HETATM   10  C10 UNL     1      12.323 -32.026   5.521  1.00  0.00     0.006 C 
HETATM   11  C11 UNL     1      12.091 -32.256   6.999  1.00  0.00     0.002 C 
HETATM   12  C12 UNL     1      11.942 -31.038   7.801  1.00  0.00    -0.043 C 
HETATM   13  C13 UNL     1      10.758 -30.177   7.566  1.00  0.00     0.015 C 
HETATM   14  C14 UNL     1      13.182 -30.162   7.553  1.00  0.00     0.015 C 
HETATM   15  C15 UNL     1      11.987 -31.402   9.271  1.00  0.00     0.009 C 
HETATM   16  C16 UNL     1      11.814 -32.877   9.494  1.00  0.00     0.002 C 
HETATM   17  C17 UNL     1      10.696 -33.393   8.635  1.00  0.00     0.010 C 
HETATM   18  C18 UNL     1      11.047 -33.302   7.144  1.00  0.00    -0.036 C 
HETATM   19  C19 UNL     1       9.817 -33.119   6.353  1.00  0.00     0.016 C 
ENDROOT
TORSDOF 0
ENDMDL
MODEL 2
REMARK VINA RESULT: -6.740220271      1.422      5.845
REMARK  0 active torsions:
REMARK  status: ('A' for Active; 'I' for Inactive)
ROOT
HETATM    1  C1  UNL     1      11.083 -34.395   8.544  1.00  0.00     0.015 C 
HETATM    2  C2  UNL     1      11.135 -34.001   7.057  1.00  0.00    -0.044 C 
HETATM    3  C3  UNL     1       9.655 -33.923   6.654  1.00  0.00     0.015 C 
HETATM    4  C4  UNL     1      11.652 -32.604   7.021  1.00  0.00     0.009 C 
HETATM    5  C5  UNL     1      11.837 -32.194   5.593  1.00  0.00     0.001 C 
HETATM    6  C6  UNL     1      12.888 -33.035   4.944  1.00  0.00     0.006 C 
HETATM    7  C7  UNL     1      12.887 -34.470   5.292  1.00  0.00    -0.001 C 
HETATM    8  C8  UNL     1      11.901 -34.985   6.241  1.00  0.00    -0.002 C 
HETATM    9  C9  UNL     1      10.873 -35.951   5.633  1.00  0.00     0.006 C 
HETATM   10  C10 UNL     1      11.504 -37.069   4.881  1.00  0.00     0.006 C 
HETATM   11  C11 UNL     1      12.876 -36.707   4.353  1.00  0.00     0.002 C 
HETATM   12  C12 UNL     1      13.439 -37.655   3.387  1.00  0.00    -0.043 C 
HETATM   13  C13 UNL     1      12.775 -37.803   2.071  1.00  0.00     0.015 C 
HETATM   14  C14 UNL     1      13.435 -39.046   4.044  1.00  0.00     0.015 C 
HETATM   15  C15 UNL     1      14.898 -37.319   3.154  1.00  0.00     0.009 C 
HETATM   16  C16 UNL     1      15.253 -35.953   3.669  1.00  0.00     0.002 C 
HETATM   17  C17 UNL     1      14.191 -34.969   3.274  1.00  0.00     0.010 C 
HETATM   18  C18 UNL     1      12.858 -35.272   3.972  1.00  0.00    -0.036 C 
HETATM   19  C19 UNL     1      11.739 -34.830   3.121  1.00  0.00     0.016 C 
ENDROOT
TORSDOF 0
ENDMDL
MODEL 3
REMARK VINA RESULT: -6.615605643      3.708      6.928
REMARK  0 active torsions:
REMARK  status: ('A' for Active; 'I' for Inactive)
ROOT
HETATM    1  C1  UNL     1      18.329 -39.199   5.592  1.00  0.00     0.015 C 
HETATM    2  C2  UNL     1      17.433 -39.438   4.363  1.00  0.00    -0.044 C 
HETATM    3  C3  UNL     1      18.282 -38.916   3.193  1.00  0.00     0.015 C 
HETATM    4  C4  UNL     1      17.355 -40.917   4.193  1.00  0.00     0.009 C 
HETATM    5  C5  UNL     1      16.403 -41.226   3.080  1.00  0.00     0.001 C 
HETATM    6  C6  UNL     1      15.023 -40.783   3.439  1.00  0.00     0.006 C 
HETATM    7  C7  UNL     1      14.912 -39.494   4.150  1.00  0.00    -0.001 C 
HETATM    8  C8  UNL     1      16.122 -38.741   4.477  1.00  0.00    -0.002 C 
HETATM    9  C9  UNL     1      16.264 -37.405   3.731  1.00  0.00     0.006 C 
HETATM   10  C10 UNL     1      15.062 -36.539   3.860  1.00  0.00     0.006 C 
HETATM   11  C11 UNL     1      13.802 -37.337   4.120  1.00  0.00     0.002 C 
HETATM   12  C12 UNL     1      12.552 -36.581   3.995  1.00  0.00    -0.043 C 
HETATM   13  C13 UNL     1      12.166 -36.068   2.659  1.00  0.00     0.015 C 
HETATM   14  C14 UNL     1      12.650 -35.361   4.926  1.00  0.00     0.015 C 
HETATM   15  C15 UNL     1      11.410 -37.416   4.537  1.00  0.00     0.009 C 
HETATM   16  C16 UNL     1      11.795 -38.858   4.708  1.00  0.00     0.002 C 
HETATM   17  C17 UNL     1      12.552 -39.329   3.500  1.00  0.00     0.010 C 
HETATM   18  C18 UNL     1      13.905 -38.616   3.374  1.00  0.00    -0.036 C 
HETATM   19  C19 UNL     1      14.287 -38.521   1.953  1.00  0.00     0.016 C 
ENDROOT
TORSDOF 0
ENDMDL
MODEL 4
REMARK VINA RESULT: -6.447951918      4.930      8.139
REMARK  0 active torsions:
REMARK  status: ('A' for Active; 'I' for Inactive)
ROOT
HETATM    1  C1  UNL     1      11.655 -40.189  -2.387  1.00  0.00     0.015 C 
HETATM    2  C2  UNL     1      12.842 -39.391  -1.817  1.00  0.00    -0.044 C 
HETATM    3  C3  UNL     1      14.033 -40.345  -1.995  1.00  0.00     0.015 C 
HETATM    4  C4  UNL     1      13.068 -38.261  -2.761  1.00  0.00     0.009 C 
HETATM    5  C5  UNL     1      14.140 -37.375  -2.207  1.00  0.00     0.001 C 
HETATM    6  C6  UNL     1      13.688 -36.754  -0.926  1.00  0.00     0.006 C 
HETATM    7  C7  UNL     1      12.920 -37.620  -0.011  1.00  0.00    -0.001 C 
HETATM    8  C8  UNL     1      12.628 -39.001  -0.395  1.00  0.00    -0.002 C 
HETATM    9  C9  UNL     1      13.324 -40.065   0.466  1.00  0.00     0.006 C 
HETATM   10  C10 UNL     1      13.094 -39.871   1.923  1.00  0.00     0.006 C 
HETATM   11  C11 UNL     1      12.799 -38.429   2.273  1.00  0.00     0.002 C 
HETATM   12  C12 UNL     1      12.825 -38.120   3.706  1.00  0.00    -0.043 C 
HETATM   13  C13 UNL     1      14.115 -38.220   4.429  1.00  0.00     0.015 C 
HETATM   14  C14 UNL     1      11.851 -39.083   4.407  1.00  0.00     0.015 C 
HETATM   15  C15 UNL     1      12.256 -36.733   3.927  1.00  0.00     0.009 C 
HETATM   16  C16 UNL     1      12.167 -35.949   2.648  1.00  0.00     0.002 C 
HETATM   17  C17 UNL     1      13.433 -36.118   1.859  1.00  0.00     0.010 C 
HETATM   18  C18 UNL     1      13.603 -37.563   1.374  1.00  0.00    -0.036 C 
HETATM   19  C19 UNL     1      15.037 -37.884   1.258  1.00  0.00     0.016 C 
ENDROOT
TORSDOF 0
ENDMDL
MODEL 5
REMARK VINA RESULT: -6.390558886      4.426      7.279
REMARK  0 active torsions:
REMARK  status: ('A' for Active; 'I' for Inactive)
ROOT
HETATM    1  C1  UNL     1      18.562 -38.368   6.651  1.00  0.00     0.015 C 
HETATM    2  C2  UNL     1      17.953 -38.978   5.376  1.00  0.00    -0.044 C 
HETATM    3  C3  UNL     1      19.056 -38.784   4.323  1.00  0.00     0.015 C 
HETATM    4  C4  UNL     1      17.867 -40.445   5.623  1.00  0.00     0.009 C 
HETATM    5  C5  UNL     1      17.175 -41.092   4.463  1.00  0.00     0.001 C 
HETATM    6  C6  UNL     1      15.765 -40.610   4.366  1.00  0.00     0.006 C 
HETATM    7  C7  UNL     1      15.541 -39.176   4.635  1.00  0.00    -0.001 C 
HETATM    8  C8  UNL     1      16.672 -38.321   4.992  1.00  0.00    -0.002 C 
HETATM    9  C9  UNL     1      17.020 -37.250   3.946  1.00  0.00     0.006 C 
HETATM   10  C10 UNL     1      15.847 -36.424   3.553  1.00  0.00     0.006 C 
HETATM   11  C11 UNL     1      14.536 -37.155   3.745  1.00  0.00     0.002 C 
HETATM   12  C12 UNL     1      13.370 -36.508   3.136  1.00  0.00    -0.043 C 
HETATM   13  C13 UNL     1      13.306 -36.412   1.658  1.00  0.00     0.015 C 
HETATM   14  C14 UNL     1      13.299 -35.070   3.676  1.00  0.00     0.015 C 
HETATM   15  C15 UNL     1      12.109 -37.191   3.627  1.00  0.00     0.009 C 
HETATM   16  C16 UNL     1      12.400 -38.510   4.285  1.00  0.00     0.002 C 
HETATM   17  C17 UNL     1      13.390 -39.281   3.460  1.00  0.00     0.010 C 
HETATM   18  C18 UNL     1      14.760 -38.590   3.438  1.00  0.00    -0.036 C 
HETATM   19  C19 UNL     1      15.449 -38.893   2.171  1.00  0.00     0.016 C 
ENDROOT
TORSDOF 0
ENDMDL
