MODEL 1
REMARK VINA RESULT: -6.078033893      0.000      0.000
REMARK  3 active torsions:
REMARK  status: ('A' for Active; 'I' for Inactive)
REMARK       I    between atoms: C1_2  and  N2_4 
REMARK    1  A    between atoms: N2_4  and  C2_6 
REMARK    2  A    between atoms: C2_6  and  O2_7 
REMARK    3  A    between atoms: C3_11  and  C4_12 
ROOT
HETATM    1  C2  UNL     1      25.878  18.839  46.576  1.00  0.00     0.347 C 
HETATM    2  N3  UNL     1      26.262  19.194  45.269  1.00  0.00    -0.308 N 
ATOM      3  H3  UNL     1      25.925  20.063  44.857  1.00  0.00     0.167 HD
HETATM    4  C3  UNL     1      27.015  18.445  44.618  1.00  0.00     0.181 C 
HETATM    5  N5  UNL     1      27.445  17.252  45.255  1.00  0.00    -0.260 N 
ATOM      6  H5  UNL     1      27.881  16.433  44.832  1.00  0.00     0.180 HD
HETATM    7  S1  UNL     1      27.053  17.517  46.924  1.00  0.00     0.307 S 
HETATM    8  O4  UNL     1      28.174  18.112  47.679  1.00  0.00    -0.198 OA
HETATM    9  O5  UNL     1      26.416  16.355  47.559  1.00  0.00    -0.198 OA
ENDROOT
BRANCH   1  10
HETATM   10  N2  UNL     1      24.528  18.318  46.604  1.00  0.00    -0.281 N 
HETATM   11  C1  UNL     1      23.416  19.044  46.116  1.00  0.00     0.333 C 
HETATM   12  N1  UNL     1      22.107  18.513  46.155  1.00  0.00    -0.040 NA
HETATM   13  O1  UNL     1      23.576  20.186  45.635  1.00  0.00    -0.251 OA
ATOM     14  H2  UNL     1      24.372  17.387  46.992  1.00  0.00     0.169 HD
ENDBRANCH   1  10
BRANCH   1  15
HETATM   15  O2  UNL     1      25.973  19.839  47.521  1.00  0.00    -0.340 OA
ATOM     16  H2  UNL     1      25.460  20.580  47.222  1.00  0.00     0.215 HD
ENDBRANCH   1  15
BRANCH   4  17
HETATM   17  C4  UNL     1      27.455  18.764  43.238  1.00  0.00     0.299 C 
HETATM   18  N4  UNL     1      27.756  17.763  42.298  1.00  0.00    -0.054 NA
HETATM   19  O3  UNL     1      27.574  19.962  42.858  1.00  0.00    -0.268 OA
ENDBRANCH   4  17
TORSDOF 3
ENDMDL
MODEL 2
REMARK VINA RESULT: -5.948159276      2.293      3.719
REMARK  3 active torsions:
REMARK  status: ('A' for Active; 'I' for Inactive)
REMARK       I    between atoms: C1_2  and  N2_4 
REMARK    1  A    between atoms: N2_4  and  C2_6 
REMARK    2  A    between atoms: C2_6  and  O2_7 
REMARK    3  A    between atoms: C3_11  and  C4_12 
ROOT
HETATM    1  C2  UNL     1      25.143  19.279  45.447  1.00  0.00     0.347 C 
HETATM    2  N3  UNL     1      25.659  18.083  45.982  1.00  0.00    -0.308 N 
ATOM      3  H3  UNL     1      25.136  17.576  46.696  1.00  0.00     0.167 HD
HETATM    4  C3  UNL     1      26.755  17.646  45.583  1.00  0.00     0.181 C 
HETATM    5  N5  UNL     1      27.427  18.404  44.589  1.00  0.00    -0.260 N 
ATOM      6  H5  UNL     1      28.399  18.330  44.289  1.00  0.00     0.180 HD
HETATM    7  S1  UNL     1      26.204  19.486  44.005  1.00  0.00     0.307 S 
HETATM    8  O4  UNL     1      25.477  18.940  42.841  1.00  0.00    -0.198 OA
HETATM    9  O5  UNL     1      26.680  20.869  43.855  1.00  0.00    -0.198 OA
ENDROOT
BRANCH   1  10
HETATM   10  N2  UNL     1      25.330  20.386  46.359  1.00  0.00    -0.281 N 
HETATM   11  C1  UNL     1      24.777  20.409  47.662  1.00  0.00     0.333 C 
HETATM   12  N1  UNL     1      24.974  21.503  48.534  1.00  0.00    -0.040 NA
HETATM   13  O1  UNL     1      24.095  19.445  48.069  1.00  0.00    -0.251 OA
ATOM     14  H2  UNL     1      25.884  21.186  46.050  1.00  0.00     0.169 HD
ENDBRANCH   1  10
BRANCH   1  15
HETATM   15  O2  UNL     1      23.815  19.246  45.077  1.00  0.00    -0.340 OA
ATOM     16  H2  UNL     1      23.772  19.222  44.128  1.00  0.00     0.215 HD
ENDBRANCH   1  15
BRANCH   4  17
HETATM   17  C4  UNL     1      27.350  16.393  46.107  1.00  0.00     0.299 C 
HETATM   18  N4  UNL     1      28.193  16.378  47.232  1.00  0.00    -0.054 NA
HETATM   19  O3  UNL     1      27.114  15.284  45.551  1.00  0.00    -0.268 OA
ENDBRANCH   4  17
TORSDOF 3
ENDMDL
MODEL 3
REMARK VINA RESULT: -5.796430939      2.492      3.901
REMARK  3 active torsions:
REMARK  status: ('A' for Active; 'I' for Inactive)
REMARK       I    between atoms: C1_2  and  N2_4 
REMARK    1  A    between atoms: N2_4  and  C2_6 
REMARK    2  A    between atoms: C2_6  and  O2_7 
REMARK    3  A    between atoms: C3_11  and  C4_12 
ROOT
HETATM    1  C2  UNL     1      24.304  18.989  46.557  1.00  0.00     0.347 C 
HETATM    2  N3  UNL     1      25.318  18.079  46.912  1.00  0.00    -0.308 N 
ATOM      3  H3  UNL     1      25.428  17.791  47.884  1.00  0.00     0.167 HD
HETATM    4  C3  UNL     1      26.080  17.626  46.037  1.00  0.00     0.181 C 
HETATM    5  N5  UNL     1      25.868  18.071  44.706  1.00  0.00    -0.260 N 
ATOM      6  H5  UNL     1      26.493  17.982  43.904  1.00  0.00     0.180 HD
HETATM    7  S1  UNL     1      24.296  18.801  44.764  1.00  0.00     0.307 S 
HETATM    8  O4  UNL     1      23.219  17.848  44.427  1.00  0.00    -0.198 OA
HETATM    9  O5  UNL     1      24.233  20.093  44.067  1.00  0.00    -0.198 OA
ENDROOT
BRANCH   1  10
HETATM   10  N2  UNL     1      24.669  20.345  46.908  1.00  0.00    -0.281 N 
HETATM   11  C1  UNL     1      24.864  20.765  48.246  1.00  0.00     0.333 C 
HETATM   12  N1  UNL     1      25.219  22.095  48.562  1.00  0.00    -0.040 NA
HETATM   13  O1  UNL     1      24.723  19.951  49.184  1.00  0.00    -0.251 OA
ATOM     14  H2  UNL     1      24.789  21.027  46.160  1.00  0.00     0.169 HD
ENDBRANCH   1  10
BRANCH   1  15
HETATM   15  O2  UNL     1      23.055  18.730  47.082  1.00  0.00    -0.340 OA
ATOM     16  H2  UNL     1      22.520  19.506  46.971  1.00  0.00     0.215 HD
ENDBRANCH   1  15
BRANCH   4  17
HETATM   17  C4  UNL     1      27.165  16.665  46.347  1.00  0.00     0.299 C 
HETATM   18  N4  UNL     1      28.016  16.828  47.455  1.00  0.00    -0.054 NA
HETATM   19  O3  UNL     1      27.363  15.655  45.616  1.00  0.00    -0.268 OA
ENDBRANCH   4  17
TORSDOF 3
ENDMDL
MODEL 4
REMARK VINA RESULT: -5.732515276      1.634      4.339
REMARK  3 active torsions:
REMARK  status: ('A' for Active; 'I' for Inactive)
REMARK       I    between atoms: C1_2  and  N2_4 
REMARK    1  A    between atoms: N2_4  and  C2_6 
REMARK    2  A    between atoms: C2_6  and  O2_7 
REMARK    3  A    between atoms: C3_11  and  C4_12 
ROOT
HETATM    1  C2  UNL     1      26.820  17.791  45.066  1.00  0.00     0.347 C 
HETATM    2  N3  UNL     1      25.466  18.024  44.760  1.00  0.00    -0.308 N 
ATOM      3  H3  UNL     1      25.087  17.721  43.863  1.00  0.00     0.167 HD
HETATM    4  C3  UNL     1      24.732  18.600  45.586  1.00  0.00     0.181 C 
HETATM    5  N5  UNL     1      25.328  18.993  46.812  1.00  0.00    -0.260 N 
ATOM      6  H5  UNL     1      24.964  19.639  47.512  1.00  0.00     0.180 HD
HETATM    7  S1  UNL     1      26.823  18.115  46.840  1.00  0.00     0.307 S 
HETATM    8  O4  UNL     1      26.699  16.812  47.525  1.00  0.00    -0.198 OA
HETATM    9  O5  UNL     1      27.968  18.935  47.256  1.00  0.00    -0.198 OA
ENDROOT
BRANCH   1  10
HETATM   10  N2  UNL     1      27.682  18.738  44.392  1.00  0.00    -0.281 N 
HETATM   11  C1  UNL     1      27.825  18.777  42.985  1.00  0.00     0.333 C 
HETATM   12  N1  UNL     1      28.674  19.712  42.350  1.00  0.00    -0.040 NA
HETATM   13  O1  UNL     1      27.193  17.972  42.268  1.00  0.00    -0.251 OA
ATOM     14  H2  UNL     1      28.209  19.406  44.955  1.00  0.00     0.169 HD
ENDBRANCH   1  10
BRANCH   1  15
HETATM   15  O2  UNL     1      27.285  16.520  44.800  1.00  0.00    -0.340 OA
ATOM     16  H2  UNL     1      27.091  16.318  43.893  1.00  0.00     0.215 HD
ENDBRANCH   1  15
BRANCH   4  17
HETATM   17  C4  UNL     1      23.299  18.873  45.322  1.00  0.00     0.299 C 
HETATM   18  N4  UNL     1      22.880  19.853  44.405  1.00  0.00    -0.054 NA
HETATM   19  O3  UNL     1      22.397  18.223  45.920  1.00  0.00    -0.268 OA
ENDBRANCH   4  17
TORSDOF 3
ENDMDL
MODEL 5
REMARK VINA RESULT: -5.675836541      2.174      4.022
REMARK  3 active torsions:
REMARK  status: ('A' for Active; 'I' for Inactive)
REMARK       I    between atoms: C1_2  and  N2_4 
REMARK    1  A    between atoms: N2_4  and  C2_6 
REMARK    2  A    between atoms: C2_6  and  O2_7 
REMARK    3  A    between atoms: C3_11  and  C4_12 
ROOT
HETATM    1  C2  UNL     1      26.940  17.796  46.895  1.00  0.00     0.347 C 
HETATM    2  N3  UNL     1      27.223  17.699  45.520  1.00  0.00    -0.308 N 
ATOM      3  H3  UNL     1      27.870  16.987  45.181  1.00  0.00     0.167 HD
HETATM    4  C3  UNL     1      26.683  18.484  44.717  1.00  0.00     0.181 C 
HETATM    5  N5  UNL     1      25.795  19.449  45.258  1.00  0.00    -0.260 N 
ATOM      6  H5  UNL     1      25.425  20.287  44.810  1.00  0.00     0.180 HD
HETATM    7  S1  UNL     1      25.489  18.867  46.863  1.00  0.00     0.307 S 
HETATM    8  O4  UNL     1      24.299  17.996  46.930  1.00  0.00    -0.198 OA
HETATM    9  O5  UNL     1      25.552  19.923  47.883  1.00  0.00    -0.198 OA
ENDROOT
BRANCH   1  10
HETATM   10  N2  UNL     1      28.017  18.448  47.609  1.00  0.00    -0.281 N 
HETATM   11  C1  UNL     1      29.167  17.757  48.058  1.00  0.00     0.333 C 
HETATM   12  N1  UNL     1      30.206  18.416  48.754  1.00  0.00    -0.040 NA
HETATM   13  O1  UNL     1      29.286  16.531  47.842  1.00  0.00    -0.251 OA
ATOM     14  H2  UNL     1      27.943  19.448  47.797  1.00  0.00     0.169 HD
ENDBRANCH   1  10
BRANCH   1  15
HETATM   15  O2  UNL     1      26.656  16.608  47.534  1.00  0.00    -0.340 OA
ATOM     16  H2  UNL     1      25.725  16.439  47.448  1.00  0.00     0.215 HD
ENDBRANCH   1  15
BRANCH   4  17
HETATM   17  C4  UNL     1      26.941  18.431  43.258  1.00  0.00     0.299 C 
HETATM   18  N4  UNL     1      26.217  19.213  42.340  1.00  0.00    -0.054 NA
HETATM   19  O3  UNL     1      27.833  17.672  42.786  1.00  0.00    -0.268 OA
ENDBRANCH   4  17
TORSDOF 3
ENDMDL
