MODEL 1
REMARK VINA RESULT: -6.270895077      0.000      0.000
REMARK  5 active torsions:
REMARK  status: ('A' for Active; 'I' for Inactive)
REMARK    1  A    between atoms: O1_2  and  C2_3 
REMARK    2  A    between atoms: C2_3  and  C3_5 
REMARK    3  A    between atoms: C4_6  and  N1_7 
REMARK       I    between atoms: N1_7  and  C5_9 
REMARK    4  A    between atoms: C6_16  and  N5_17 
REMARK    5  A    between atoms: N6_20  and  O4_21 
ROOT
HETATM    1  C3  UNL     1      26.500  17.842  46.603  1.00  0.00     0.201 A 
HETATM    2  C4  UNL     1      27.318  18.244  47.636  1.00  0.00     0.160 A 
HETATM    3  N3  UNL     1      26.818  18.807  48.754  1.00  0.00    -0.269 N 
ATOM      4  H3  UNL     1      27.442  19.097  49.508  1.00  0.00     0.189 HD
HETATM    5  N4  UNL     1      25.509  18.981  48.865  1.00  0.00    -0.129 N 
ATOM      6  H4  UNL     1      25.127  19.408  49.708  1.00  0.00     0.205 HD
HETATM    7  C6  UNL     1      24.672  18.598  47.869  1.00  0.00     0.717 A 
HETATM    8  N6  UNL     1      25.180  18.036  46.758  1.00  0.00    -0.042 N 
ENDROOT
BRANCH   2   9
HETATM    9  N1  UNL     1      28.574  18.066  47.502  1.00  0.00    -0.294 N 
HETATM   10  C5  UNL     1      29.433  17.486  48.454  1.00  0.00     0.334 C 
HETATM   11  N2  UNL     1      30.161  16.290  48.226  1.00  0.00    -0.040 NA
HETATM   12  O3  UNL     1      29.574  18.048  49.568  1.00  0.00    -0.251 OA
ATOM     13  H1  UNL     1      28.994  18.371  46.624  1.00  0.00     0.172 HD
ENDBRANCH   2   9
BRANCH   1  14
HETATM   14  C2  UNL     1      27.013  17.232  45.388  1.00  0.00     0.316 C 
HETATM   15  O2  UNL     1      27.529  16.085  45.373  1.00  0.00    -0.257 OA
BRANCH  14  16
HETATM   16  O1  UNL     1      26.941  17.924  44.187  1.00  0.00    -0.321 OA
HETATM   17  C1  UNL     1      27.182  19.326  44.183  1.00  0.00     0.213 C 
ENDBRANCH  14  16
ENDBRANCH   1  14
BRANCH   8  18
HETATM   18  O4  UNL     1      24.326  17.651  45.754  1.00  0.00    -0.269 OA
ATOM     19  H4  UNL     1      24.215  18.218  44.999  1.00  0.00     0.245 HD
ENDBRANCH   8  18
BRANCH   7  20
HETATM   20  N5  UNL     1      23.394  18.764  47.974  1.00  0.00    -0.231 N 
ATOM     21  H52 UNL     1      22.762  18.038  47.636  1.00  0.00     0.174 HD
ATOM     22  H51 UNL     1      23.008  19.611  48.389  1.00  0.00     0.174 HD
ENDBRANCH   7  20
TORSDOF 5
ENDMDL
MODEL 2
REMARK VINA RESULT: -6.213772696      2.024      3.935
REMARK  5 active torsions:
REMARK  status: ('A' for Active; 'I' for Inactive)
REMARK    1  A    between atoms: O1_2  and  C2_3 
REMARK    2  A    between atoms: C2_3  and  C3_5 
REMARK    3  A    between atoms: C4_6  and  N1_7 
REMARK       I    between atoms: N1_7  and  C5_9 
REMARK    4  A    between atoms: C6_16  and  N5_17 
REMARK    5  A    between atoms: N6_20  and  O4_21 
ROOT
HETATM    1  C3  UNL     1      26.876  18.371  47.236  1.00  0.00     0.201 A 
HETATM    2  C4  UNL     1      26.535  18.795  45.970  1.00  0.00     0.160 A 
HETATM    3  N3  UNL     1      25.532  19.671  45.766  1.00  0.00    -0.269 N 
ATOM      4  H3  UNL     1      25.296  19.973  44.820  1.00  0.00     0.189 HD
HETATM    5  N4  UNL     1      24.855  20.139  46.805  1.00  0.00    -0.129 N 
ATOM      6  H4  UNL     1      24.094  20.801  46.654  1.00  0.00     0.205 HD
HETATM    7  C6  UNL     1      25.161  19.745  48.066  1.00  0.00     0.717 A 
HETATM    8  N6  UNL     1      26.164  18.870  48.259  1.00  0.00    -0.042 N 
ENDROOT
BRANCH   2   9
HETATM    9  N1  UNL     1      27.203  18.328  44.989  1.00  0.00    -0.294 N 
HETATM   10  C5  UNL     1      27.121  18.761  43.653  1.00  0.00     0.334 C 
HETATM   11  N2  UNL     1      28.212  19.329  42.945  1.00  0.00    -0.040 NA
HETATM   12  O3  UNL     1      26.030  18.643  43.041  1.00  0.00    -0.251 OA
ATOM     13  H1  UNL     1      27.857  17.572  45.191  1.00  0.00     0.172 HD
ENDBRANCH   2   9
BRANCH   1  14
HETATM   14  C2  UNL     1      27.953  17.427  47.484  1.00  0.00     0.316 C 
HETATM   15  O2  UNL     1      27.950  16.260  47.016  1.00  0.00    -0.257 OA
BRANCH  14  16
HETATM   16  O1  UNL     1      29.035  17.809  48.264  1.00  0.00    -0.321 OA
HETATM   17  C1  UNL     1      30.139  16.921  48.395  1.00  0.00     0.213 C 
ENDBRANCH  14  16
ENDBRANCH   1  14
BRANCH   8  18
HETATM   18  O4  UNL     1      26.468  18.476  49.540  1.00  0.00    -0.269 OA
ATOM     19  H4  UNL     1      27.374  18.300  49.766  1.00  0.00     0.245 HD
ENDBRANCH   8  18
BRANCH   7  20
HETATM   20  N5  UNL     1      24.504  20.199  49.082  1.00  0.00    -0.231 N 
ATOM     21  H52 UNL     1      24.263  21.190  49.125  1.00  0.00     0.174 HD
ATOM     22  H51 UNL     1      24.221  19.581  49.842  1.00  0.00     0.174 HD
ENDBRANCH   7  20
TORSDOF 5
ENDMDL
MODEL 3
REMARK VINA RESULT: -6.204045883      2.448      4.029
REMARK  5 active torsions:
REMARK  status: ('A' for Active; 'I' for Inactive)
REMARK    1  A    between atoms: O1_2  and  C2_3 
REMARK    2  A    between atoms: C2_3  and  C3_5 
REMARK    3  A    between atoms: C4_6  and  N1_7 
REMARK       I    between atoms: N1_7  and  C5_9 
REMARK    4  A    between atoms: C6_16  and  N5_17 
REMARK    5  A    between atoms: N6_20  and  O4_21 
ROOT
HETATM    1  C3  UNL     1      26.133  17.449  45.775  1.00  0.00     0.201 A 
HETATM    2  C4  UNL     1      26.314  18.073  44.560  1.00  0.00     0.160 A 
HETATM    3  N3  UNL     1      25.342  18.820  44.000  1.00  0.00    -0.269 N 
ATOM      4  H3  UNL     1      25.496  19.275  43.100  1.00  0.00     0.189 HD
HETATM    5  N4  UNL     1      24.184  18.959  44.629  1.00  0.00    -0.129 N 
ATOM      6  H4  UNL     1      23.446  19.523  44.208  1.00  0.00     0.205 HD
HETATM    7  C6  UNL     1      23.969  18.360  45.827  1.00  0.00     0.717 A 
HETATM    8  N6  UNL     1      24.945  17.617  46.378  1.00  0.00    -0.042 N 
ENDROOT
BRANCH   2   9
HETATM    9  N1  UNL     1      27.437  17.921  43.977  1.00  0.00    -0.294 N 
HETATM   10  C5  UNL     1      27.767  18.377  42.687  1.00  0.00     0.334 C 
HETATM   11  N2  UNL     1      28.792  19.324  42.430  1.00  0.00    -0.040 NA
HETATM   12  O3  UNL     1      27.130  17.929  41.702  1.00  0.00    -0.251 OA
ATOM     13  H1  UNL     1      28.164  17.424  44.492  1.00  0.00     0.172 HD
ENDBRANCH   2   9
BRANCH   1  14
HETATM   14  C2  UNL     1      27.164  16.638  46.401  1.00  0.00     0.316 C 
HETATM   15  O2  UNL     1      27.548  15.542  45.919  1.00  0.00    -0.257 OA
BRANCH  14  16
HETATM   16  O1  UNL     1      27.761  17.072  47.577  1.00  0.00    -0.321 OA
HETATM   17  C1  UNL     1      28.086  18.450  47.719  1.00  0.00     0.213 C 
ENDBRANCH  14  16
ENDBRANCH   1  14
BRANCH   8  18
HETATM   18  O4  UNL     1      24.720  17.013  47.591  1.00  0.00    -0.269 OA
ATOM     19  H4  UNL     1      23.834  16.974  47.931  1.00  0.00     0.245 HD
ENDBRANCH   8  18
BRANCH   7  20
HETATM   20  N5  UNL     1      22.842  18.494  46.445  1.00  0.00    -0.231 N 
ATOM     21  H52 UNL     1      22.219  19.263  46.195  1.00  0.00     0.174 HD
ATOM     22  H51 UNL     1      22.565  17.843  47.178  1.00  0.00     0.174 HD
ENDBRANCH   7  20
TORSDOF 5
ENDMDL
MODEL 4
REMARK VINA RESULT: -6.112729856      2.655      4.380
REMARK  5 active torsions:
REMARK  status: ('A' for Active; 'I' for Inactive)
REMARK    1  A    between atoms: O1_2  and  C2_3 
REMARK    2  A    between atoms: C2_3  and  C3_5 
REMARK    3  A    between atoms: C4_6  and  N1_7 
REMARK       I    between atoms: N1_7  and  C5_9 
REMARK    4  A    between atoms: C6_16  and  N5_17 
REMARK    5  A    between atoms: N6_20  and  O4_21 
ROOT
HETATM    1  C3  UNL     1      24.349  18.577  45.039  1.00  0.00     0.201 A 
HETATM    2  C4  UNL     1      25.595  17.992  45.098  1.00  0.00     0.160 A 
HETATM    3  N3  UNL     1      26.471  18.094  44.079  1.00  0.00    -0.269 N 
ATOM      4  H3  UNL     1      27.389  17.654  44.143  1.00  0.00     0.189 HD
HETATM    5  N4  UNL     1      26.129  18.773  42.993  1.00  0.00    -0.129 N 
ATOM      6  H4  UNL     1      26.789  18.852  42.220  1.00  0.00     0.205 HD
HETATM    7  C6  UNL     1      24.912  19.363  42.899  1.00  0.00     0.717 A 
HETATM    8  N6  UNL     1      24.045  19.255  43.921  1.00  0.00    -0.042 N 
ENDROOT
BRANCH   2   9
HETATM    9  N1  UNL     1      25.897  17.344  46.155  1.00  0.00    -0.294 N 
HETATM   10  C5  UNL     1      27.042  16.548  46.337  1.00  0.00     0.334 C 
HETATM   11  N2  UNL     1      28.035  16.817  47.314  1.00  0.00    -0.040 NA
HETATM   12  O3  UNL     1      27.206  15.541  45.604  1.00  0.00    -0.251 OA
ATOM     13  H1  UNL     1      25.248  17.410  46.940  1.00  0.00     0.172 HD
ENDBRANCH   2   9
BRANCH   1  14
HETATM   14  C2  UNL     1      23.386  18.482  46.124  1.00  0.00     0.316 C 
HETATM   15  O2  UNL     1      22.178  18.186  45.932  1.00  0.00    -0.257 OA
BRANCH  14  16
HETATM   16  O1  UNL     1      23.793  18.724  47.428  1.00  0.00    -0.321 OA
HETATM   17  C1  UNL     1      24.332  19.998  47.759  1.00  0.00     0.213 C 
ENDBRANCH  14  16
ENDBRANCH   1  14
BRANCH   8  18
HETATM   18  O4  UNL     1      22.813  19.855  43.818  1.00  0.00    -0.269 OA
ATOM     19  H4  UNL     1      22.676  20.516  43.149  1.00  0.00     0.245 HD
ENDBRANCH   8  18
BRANCH   7  20
HETATM   20  N5  UNL     1      24.575  20.026  41.842  1.00  0.00    -0.231 N 
ATOM     21  H52 UNL     1      24.421  21.033  41.907  1.00  0.00     0.174 HD
ATOM     22  H51 UNL     1      24.460  19.559  40.944  1.00  0.00     0.174 HD
ENDBRANCH   7  20
TORSDOF 5
ENDMDL
MODEL 5
REMARK VINA RESULT: -6.101723237      2.054      4.239
REMARK  5 active torsions:
REMARK  status: ('A' for Active; 'I' for Inactive)
REMARK    1  A    between atoms: O1_2  and  C2_3 
REMARK    2  A    between atoms: C2_3  and  C3_5 
REMARK    3  A    between atoms: C4_6  and  N1_7 
REMARK       I    between atoms: N1_7  and  C5_9 
REMARK    4  A    between atoms: C6_16  and  N5_17 
REMARK    5  A    between atoms: N6_20  and  O4_21 
ROOT
HETATM    1  C3  UNL     1      26.006  18.118  46.393  1.00  0.00     0.201 A 
HETATM    2  C4  UNL     1      24.658  18.355  46.227  1.00  0.00     0.160 A 
HETATM    3  N3  UNL     1      23.875  18.725  47.259  1.00  0.00    -0.269 N 
ATOM      4  H3  UNL     1      22.880  18.898  47.115  1.00  0.00     0.189 HD
HETATM    5  N4  UNL     1      24.409  18.864  48.464  1.00  0.00    -0.129 N 
ATOM      6  H4  UNL     1      23.820  19.143  49.248  1.00  0.00     0.205 HD
HETATM    7  C6  UNL     1      25.731  18.639  48.667  1.00  0.00     0.717 A 
HETATM    8  N6  UNL     1      26.505  18.270  47.630  1.00  0.00    -0.042 N 
ENDROOT
BRANCH   2   9
HETATM    9  N1  UNL     1      24.171  18.214  45.057  1.00  0.00    -0.294 N 
HETATM   10  C5  UNL     1      23.654  19.242  44.248  1.00  0.00     0.334 C 
HETATM   11  N2  UNL     1      24.201  19.596  42.987  1.00  0.00    -0.040 NA
HETATM   12  O3  UNL     1      22.653  19.887  44.649  1.00  0.00    -0.251 OA
ATOM     13  H1  UNL     1      24.155  17.269  44.673  1.00  0.00     0.172 HD
ENDBRANCH   2   9
BRANCH   1  14
HETATM   14  C2  UNL     1      26.873  17.718  45.297  1.00  0.00     0.316 C 
HETATM   15  O2  UNL     1      27.367  16.565  45.212  1.00  0.00    -0.257 OA
BRANCH  14  16
HETATM   16  O1  UNL     1      27.180  18.629  44.296  1.00  0.00    -0.321 OA
HETATM   17  C1  UNL     1      27.495  18.146  42.996  1.00  0.00     0.213 C 
ENDBRANCH  14  16
ENDBRANCH   1  14
BRANCH   8  18
HETATM   18  O4  UNL     1      27.843  18.043  47.843  1.00  0.00    -0.269 OA
ATOM     19  H4  UNL     1      28.182  18.075  48.731  1.00  0.00     0.245 HD
ENDBRANCH   8  18
BRANCH   7  20
HETATM   20  N5  UNL     1      26.257  18.773  49.840  1.00  0.00    -0.231 N 
ATOM     21  H52 UNL     1      25.654  18.947  50.645  1.00  0.00     0.174 HD
ATOM     22  H51 UNL     1      27.265  18.708  49.974  1.00  0.00     0.174 HD
ENDBRANCH   7  20
TORSDOF 5
ENDMDL
