MODEL 1
REMARK VINA RESULT: -6.736655993      0.000      0.000
REMARK  5 active torsions:
REMARK  status: ('A' for Active; 'I' for Inactive)
REMARK    1  A    between atoms: C2_2  and  C3_3 
REMARK    2  A    between atoms: C4_4  and  C5_5 
REMARK    3  A    between atoms: C5_5  and  O1_6 
REMARK    4  A    between atoms: O1_6  and  C6_7 
REMARK    5  A    between atoms: C13_16  and  O4_17 
ROOT
HETATM    1  C6  UNL     1      -5.013   3.800  13.439  1.00  0.00     0.296 C 
HETATM    2  O2  UNL     1      -5.358   2.604  12.828  1.00  0.00    -0.323 OA
HETATM    3  C7  UNL     1      -4.243   1.782  12.856  1.00  0.00     0.161 C 
HETATM    4  C8  UNL     1      -4.336   1.019  14.186  1.00  0.00     0.078 C 
HETATM    5  C9  UNL     1      -4.349   0.726  11.774  1.00  0.00     0.078 C 
HETATM    6  O3  UNL     1      -3.044   2.405  12.841  1.00  0.00    -0.343 OA
HETATM    7  C10 UNL     1      -2.934   3.616  12.250  1.00  0.00     0.087 C 
HETATM    8  C11 UNL     1      -2.544   3.547  10.780  1.00  0.00     0.048 C 
HETATM    9  C12 UNL     1      -1.774   4.348  12.944  1.00  0.00     0.048 C 
HETATM   10  C13 UNL     1      -4.138   4.517  12.432  1.00  0.00     0.207 C 
ENDROOT
BRANCH   1  11
HETATM   11  O1  UNL     1      -6.081   4.544  13.863  1.00  0.00    -0.347 OA
BRANCH  11  12
HETATM   12  C5  UNL     1      -6.107   4.830  15.201  1.00  0.00     0.265 C 
BRANCH  12  13
HETATM   13  C4  UNL     1      -6.490   3.586  15.907  1.00  0.00    -0.076 C 
HETATM   14  C3  UNL     1      -6.800   2.562  16.463  1.00  0.00    -0.077 C 
BRANCH  14  15
HETATM   15  C2  UNL     1      -7.148   1.332  17.116  1.00  0.00     0.054 C 
HETATM   16  C1  UNL     1      -6.202   0.443  17.405  1.00  0.00     0.020 C 
ENDBRANCH  14  15
ENDBRANCH  12  13
ENDBRANCH  11  12
ENDBRANCH   1  11
BRANCH  10  17
HETATM   17  O4  UNL     1      -4.786   4.548  11.175  1.00  0.00    -0.388 OA
ATOM     18  H4  UNL     1      -4.978   5.448  10.937  1.00  0.00     0.210 HD
ENDBRANCH  10  17
TORSDOF 5
ENDMDL
MODEL 2
REMARK VINA RESULT: -6.399690963      2.546      5.339
REMARK  5 active torsions:
REMARK  status: ('A' for Active; 'I' for Inactive)
REMARK    1  A    between atoms: C2_2  and  C3_3 
REMARK    2  A    between atoms: C4_4  and  C5_5 
REMARK    3  A    between atoms: C5_5  and  O1_6 
REMARK    4  A    between atoms: O1_6  and  C6_7 
REMARK    5  A    between atoms: C13_16  and  O4_17 
ROOT
HETATM    1  C6  UNL     1      -3.411   3.165  14.455  1.00  0.00     0.296 C 
HETATM    2  O2  UNL     1      -3.182   2.068  13.638  1.00  0.00    -0.323 OA
HETATM    3  C7  UNL     1      -4.414   1.587  13.226  1.00  0.00     0.161 C 
HETATM    4  C8  UNL     1      -4.740   2.358  11.939  1.00  0.00     0.078 C 
HETATM    5  C9  UNL     1      -4.291   0.135  12.810  1.00  0.00     0.078 C 
HETATM    6  O3  UNL     1      -5.444   1.785  14.077  1.00  0.00    -0.343 OA
HETATM    7  C10 UNL     1      -5.201   1.874  15.405  1.00  0.00     0.087 C 
HETATM    8  C11 UNL     1      -5.288   0.540  16.134  1.00  0.00     0.048 C 
HETATM    9  C12 UNL     1      -6.318   2.741  16.008  1.00  0.00     0.048 C 
HETATM   10  C13 UNL     1      -3.911   2.583  15.762  1.00  0.00     0.207 C 
ENDROOT
BRANCH   1  11
HETATM   11  O1  UNL     1      -2.331   3.992  14.604  1.00  0.00    -0.347 OA
BRANCH  11  12
HETATM   12  C5  UNL     1      -2.086   4.838  13.555  1.00  0.00     0.265 C 
BRANCH  12  13
HETATM   13  C4  UNL     1      -2.025   6.211  14.107  1.00  0.00    -0.076 C 
HETATM   14  C3  UNL     1      -1.993   7.325  14.567  1.00  0.00    -0.077 C 
BRANCH  14  15
HETATM   15  C2  UNL     1      -1.956   8.641  15.139  1.00  0.00     0.054 C 
HETATM   16  C1  UNL     1      -0.818   9.328  15.151  1.00  0.00     0.020 C 
ENDBRANCH  14  15
ENDBRANCH  12  13
ENDBRANCH  11  12
ENDBRANCH   1  11
BRANCH  10  17
HETATM   17  O4  UNL     1      -3.026   1.570  16.201  1.00  0.00    -0.388 OA
ATOM     18  H4  UNL     1      -3.389   0.717  15.993  1.00  0.00     0.210 HD
ENDBRANCH  10  17
TORSDOF 5
ENDMDL
MODEL 3
REMARK VINA RESULT: -6.317167458      1.996      4.381
REMARK  5 active torsions:
REMARK  status: ('A' for Active; 'I' for Inactive)
REMARK    1  A    between atoms: C2_2  and  C3_3 
REMARK    2  A    between atoms: C4_4  and  C5_5 
REMARK    3  A    between atoms: C5_5  and  O1_6 
REMARK    4  A    between atoms: O1_6  and  C6_7 
REMARK    5  A    between atoms: C13_16  and  O4_17 
ROOT
HETATM    1  C6  UNL     1      -4.427   3.667  11.991  1.00  0.00     0.296 C 
HETATM    2  O2  UNL     1      -5.092   3.316  13.157  1.00  0.00    -0.323 OA
HETATM    3  C7  UNL     1      -4.249   2.497  13.889  1.00  0.00     0.161 C 
HETATM    4  C8  UNL     1      -3.417   3.447  14.762  1.00  0.00     0.078 C 
HETATM    5  C9  UNL     1      -5.057   1.657  14.859  1.00  0.00     0.078 C 
HETATM    6  O3  UNL     1      -3.378   1.750  13.176  1.00  0.00    -0.343 OA
HETATM    7  C10 UNL     1      -3.699   1.379  11.916  1.00  0.00     0.087 C 
HETATM    8  C11 UNL     1      -4.405   0.033  11.835  1.00  0.00     0.048 C 
HETATM    9  C12 UNL     1      -2.376   1.190  11.155  1.00  0.00     0.048 C 
HETATM   10  C13 UNL     1      -4.464   2.422  11.129  1.00  0.00     0.207 C 
ENDROOT
BRANCH   1  11
HETATM   11  O1  UNL     1      -4.929   4.777  11.368  1.00  0.00    -0.347 OA
BRANCH  11  12
HETATM   12  C5  UNL     1      -4.008   5.734  11.035  1.00  0.00     0.265 C 
BRANCH  12  13
HETATM   13  C4  UNL     1      -3.497   6.308  12.301  1.00  0.00    -0.076 C 
HETATM   14  C3  UNL     1      -3.090   6.760  13.343  1.00  0.00    -0.077 C 
BRANCH  14  15
HETATM   15  C2  UNL     1      -2.599   7.274  14.589  1.00  0.00     0.054 C 
HETATM   16  C1  UNL     1      -1.844   8.369  14.605  1.00  0.00     0.020 C 
ENDBRANCH  14  15
ENDBRANCH  12  13
ENDBRANCH  11  12
ENDBRANCH   1  11
BRANCH  10  17
HETATM   17  O4  UNL     1      -5.792   1.940  11.046  1.00  0.00    -0.388 OA
ATOM     18  H4  UNL     1      -5.782   0.998  10.917  1.00  0.00     0.210 HD
ENDBRANCH  10  17
TORSDOF 5
ENDMDL
MODEL 4
REMARK VINA RESULT: -6.308077820      2.887      5.266
REMARK  5 active torsions:
REMARK  status: ('A' for Active; 'I' for Inactive)
REMARK    1  A    between atoms: C2_2  and  C3_3 
REMARK    2  A    between atoms: C4_4  and  C5_5 
REMARK    3  A    between atoms: C5_5  and  O1_6 
REMARK    4  A    between atoms: O1_6  and  C6_7 
REMARK    5  A    between atoms: C13_16  and  O4_17 
ROOT
HETATM    1  C6  UNL     1      -4.444   3.588  11.474  1.00  0.00     0.296 C 
HETATM    2  O2  UNL     1      -5.025   3.507  12.731  1.00  0.00    -0.323 OA
HETATM    3  C7  UNL     1      -4.124   2.872  13.569  1.00  0.00     0.161 C 
HETATM    4  C8  UNL     1      -3.251   3.994  14.150  1.00  0.00     0.078 C 
HETATM    5  C9  UNL     1      -4.853   2.270  14.754  1.00  0.00     0.078 C 
HETATM    6  O3  UNL     1      -3.290   1.985  12.984  1.00  0.00    -0.343 OA
HETATM    7  C10 UNL     1      -3.687   1.341  11.863  1.00  0.00     0.087 C 
HETATM    8  C11 UNL     1      -4.376   0.011  12.132  1.00  0.00     0.048 C 
HETATM    9  C12 UNL     1      -2.415   0.987  11.075  1.00  0.00     0.048 C 
HETATM   10  C13 UNL     1      -4.519   2.182  10.916  1.00  0.00     0.207 C 
ENDROOT
BRANCH   1  11
HETATM   11  O1  UNL     1      -5.003   4.531  10.655  1.00  0.00    -0.347 OA
BRANCH  11  12
HETATM   12  C5  UNL     1      -4.751   5.833  10.995  1.00  0.00     0.265 C 
BRANCH  12  13
HETATM   13  C4  UNL     1      -5.790   6.663  10.344  1.00  0.00    -0.076 C 
HETATM   14  C3  UNL     1      -6.648   7.322   9.809  1.00  0.00    -0.077 C 
BRANCH  14  15
HETATM   15  C2  UNL     1      -7.686   8.094   9.189  1.00  0.00     0.054 C 
HETATM   16  C1  UNL     1      -8.502   7.523   8.308  1.00  0.00     0.020 C 
ENDBRANCH  14  15
ENDBRANCH  12  13
ENDBRANCH  11  12
ENDBRANCH   1  11
BRANCH  10  17
HETATM   17  O4  UNL     1      -5.841   1.693  11.032  1.00  0.00    -0.388 OA
ATOM     18  H4  UNL     1      -6.340   2.256  11.613  1.00  0.00     0.210 HD
ENDBRANCH  10  17
TORSDOF 5
ENDMDL
MODEL 5
REMARK VINA RESULT: -6.036564093      1.430      3.025
REMARK  5 active torsions:
REMARK  status: ('A' for Active; 'I' for Inactive)
REMARK    1  A    between atoms: C2_2  and  C3_3 
REMARK    2  A    between atoms: C4_4  and  C5_5 
REMARK    3  A    between atoms: C5_5  and  O1_6 
REMARK    4  A    between atoms: O1_6  and  C6_7 
REMARK    5  A    between atoms: C13_16  and  O4_17 
ROOT
HETATM    1  C6  UNL     1      -3.742   3.260  12.772  1.00  0.00     0.296 C 
HETATM    2  O2  UNL     1      -2.382   3.116  12.540  1.00  0.00    -0.323 OA
HETATM    3  C7  UNL     1      -2.219   2.755  11.213  1.00  0.00     0.161 C 
HETATM    4  C8  UNL     1      -2.114   4.079  10.442  1.00  0.00     0.078 C 
HETATM    5  C9  UNL     1      -0.881   2.068  11.024  1.00  0.00     0.078 C 
HETATM    6  O3  UNL     1      -3.232   2.054  10.658  1.00  0.00    -0.343 OA
HETATM    7  C10 UNL     1      -4.007   1.274  11.445  1.00  0.00     0.087 C 
HETATM    8  C11 UNL     1      -3.516  -0.162  11.559  1.00  0.00     0.048 C 
HETATM    9  C12 UNL     1      -5.383   1.181  10.765  1.00  0.00     0.048 C 
HETATM   10  C13 UNL     1      -4.283   1.845  12.821  1.00  0.00     0.207 C 
ENDROOT
BRANCH   1  11
HETATM   11  O1  UNL     1      -4.050   4.001  13.880  1.00  0.00    -0.347 OA
BRANCH  11  12
HETATM   12  C5  UNL     1      -5.357   4.394  13.983  1.00  0.00     0.265 C 
BRANCH  12  13
HETATM   13  C4  UNL     1      -5.941   3.668  15.134  1.00  0.00    -0.076 C 
HETATM   14  C3  UNL     1      -6.408   3.059  16.066  1.00  0.00    -0.077 C 
BRANCH  14  15
HETATM   15  C2  UNL     1      -6.938   2.327  17.180  1.00  0.00     0.054 C 
HETATM   16  C1  UNL     1      -7.255   1.043  17.041  1.00  0.00     0.020 C 
ENDBRANCH  14  15
ENDBRANCH  12  13
ENDBRANCH  11  12
ENDBRANCH   1  11
BRANCH  10  17
HETATM   17  O4  UNL     1      -3.509   1.072  13.718  1.00  0.00    -0.388 OA
ATOM     18  H4  UNL     1      -3.048   0.393  13.239  1.00  0.00     0.210 HD
ENDBRANCH  10  17
TORSDOF 5
ENDMDL
