MODEL 1
REMARK VINA RESULT: -7.046989266      0.000      0.000
REMARK  5 active torsions:
REMARK  status: ('A' for Active; 'I' for Inactive)
REMARK    1  A    between atoms: N4_12  and  N5_13 
REMARK    2  A    between atoms: N5_13  and  N6_14 
REMARK    3  A    between atoms: N5_13  and  C6_17 
REMARK    4  A    between atoms: C6_17  and  C8_19 
REMARK    5  A    between atoms: C8_19  and  O1_20 
ROOT
HETATM    1  C1  UNL     1      -4.544 -24.433 -32.441  1.00  0.00     0.092 C 
HETATM    2  C2  UNL     1      -5.991 -24.346 -32.276  1.00  0.00     0.118 A 
HETATM    3  N1  UNL     1      -6.675 -23.707 -33.273  1.00  0.00    -0.179 N 
ATOM      4  H1  UNL     1      -6.169 -23.316 -34.069  1.00  0.00     0.185 HD
HETATM    5  C3  UNL     1      -8.002 -23.593 -33.208  1.00  0.00     0.679 A 
HETATM    6  N2  UNL     1      -8.682 -23.002 -34.127  1.00  0.00    -0.234 N 
ATOM      7  H21 UNL     1      -9.697 -22.915 -34.076  1.00  0.00     0.174 HD
ATOM      8  H22 UNL     1      -8.187 -22.609 -34.927  1.00  0.00     0.174 HD
HETATM    9  N3  UNL     1      -8.657 -24.114 -32.147  1.00  0.00    -0.182 N 
HETATM   10  C4  UNL     1     -10.100 -23.986 -32.080  1.00  0.00     0.176 C 
HETATM   11  C5  UNL     1      -7.965 -24.737 -31.182  1.00  0.00     0.229 A 
HETATM   12  N4  UNL     1      -6.622 -24.867 -31.222  1.00  0.00    -0.222 N 
ENDROOT
BRANCH  12  13
HETATM   13  N5  UNL     1      -5.884 -25.503 -30.234  1.00  0.00    -0.225 N 
BRANCH  13  14
HETATM   14  N6  UNL     1      -5.119 -24.720 -29.357  1.00  0.00    -0.328 N 
ATOM     15  H62 UNL     1      -4.109 -24.685 -29.495  1.00  0.00     0.178 HD
ATOM     16  H61 UNL     1      -5.599 -24.199 -28.622  1.00  0.00     0.178 HD
ENDBRANCH  13  14
BRANCH  13  17
HETATM   17  C6  UNL     1      -5.847 -26.939 -30.081  1.00  0.00     0.146 C 
HETATM   18  C7  UNL     1      -7.081 -27.592 -30.723  1.00  0.00     0.038 C 
BRANCH  17  19
HETATM   19  C8  UNL     1      -5.858 -27.335 -28.599  1.00  0.00     0.192 C 
BRANCH  19  20
HETATM   20  O1  UNL     1      -4.576 -27.180 -28.130  1.00  0.00    -0.399 OA
ATOM     21  H1  UNL     1      -4.529 -27.626 -27.292  1.00  0.00     0.209 HD
ENDBRANCH  19  20
ENDBRANCH  17  19
ENDBRANCH  13  17
ENDBRANCH  12  13
TORSDOF 5
ENDMDL
MODEL 2
REMARK VINA RESULT: -7.006834209      1.902      3.130
REMARK  5 active torsions:
REMARK  status: ('A' for Active; 'I' for Inactive)
REMARK    1  A    between atoms: N4_12  and  N5_13 
REMARK    2  A    between atoms: N5_13  and  N6_14 
REMARK    3  A    between atoms: N5_13  and  C6_17 
REMARK    4  A    between atoms: C6_17  and  C8_19 
REMARK    5  A    between atoms: C8_19  and  O1_20 
ROOT
HETATM    1  C1  UNL     1      -7.745 -22.550 -33.367  1.00  0.00     0.092 C 
HETATM    2  C2  UNL     1      -8.380 -23.752 -32.839  1.00  0.00     0.118 A 
HETATM    3  N1  UNL     1      -9.745 -23.721 -32.743  1.00  0.00    -0.179 N 
ATOM      4  H1  UNL     1     -10.257 -22.885 -33.025  1.00  0.00     0.185 HD
HETATM    5  C3  UNL     1     -10.407 -24.782 -32.281  1.00  0.00     0.679 A 
HETATM    6  N2  UNL     1     -11.690 -24.795 -32.179  1.00  0.00    -0.234 N 
ATOM      7  H21 UNL     1     -12.196 -25.606 -31.825  1.00  0.00     0.174 HD
ATOM      8  H22 UNL     1     -12.212 -23.965 -32.459  1.00  0.00     0.174 HD
HETATM    9  N3  UNL     1      -9.715 -25.882 -31.910  1.00  0.00    -0.182 N 
HETATM   10  C4  UNL     1     -10.439 -27.032 -31.406  1.00  0.00     0.176 C 
HETATM   11  C5  UNL     1      -8.377 -25.888 -32.013  1.00  0.00     0.229 A 
HETATM   12  N4  UNL     1      -7.681 -24.829 -32.477  1.00  0.00    -0.222 N 
ENDROOT
BRANCH  12  13
HETATM   13  N5  UNL     1      -6.298 -24.811 -32.590  1.00  0.00    -0.225 N 
BRANCH  13  14
HETATM   14  N6  UNL     1      -5.717 -25.227 -33.796  1.00  0.00    -0.328 N 
ATOM     15  H62 UNL     1      -4.734 -25.500 -33.792  1.00  0.00     0.178 HD
ATOM     16  H61 UNL     1      -6.299 -25.261 -34.634  1.00  0.00     0.178 HD
ENDBRANCH  13  14
BRANCH  13  17
HETATM   17  C6  UNL     1      -5.426 -24.406 -31.512  1.00  0.00     0.146 C 
HETATM   18  C7  UNL     1      -4.067 -23.933 -32.053  1.00  0.00     0.038 C 
BRANCH  17  19
HETATM   19  C8  UNL     1      -5.140 -25.578 -30.564  1.00  0.00     0.192 C 
BRANCH  19  20
HETATM   20  O1  UNL     1      -5.351 -25.124 -29.285  1.00  0.00    -0.399 OA
ATOM     21  H1  UNL     1      -5.491 -25.888 -28.737  1.00  0.00     0.209 HD
ENDBRANCH  19  20
ENDBRANCH  17  19
ENDBRANCH  13  17
ENDBRANCH  12  13
TORSDOF 5
ENDMDL
MODEL 3
REMARK VINA RESULT: -6.483461510      2.770      4.200
REMARK  5 active torsions:
REMARK  status: ('A' for Active; 'I' for Inactive)
REMARK    1  A    between atoms: N4_12  and  N5_13 
REMARK    2  A    between atoms: N5_13  and  N6_14 
REMARK    3  A    between atoms: N5_13  and  C6_17 
REMARK    4  A    between atoms: C6_17  and  C8_19 
REMARK    5  A    between atoms: C8_19  and  O1_20 
ROOT
HETATM    1  C1  UNL     1      -6.494 -27.127 -29.853  1.00  0.00     0.092 C 
HETATM    2  C2  UNL     1      -6.320 -25.969 -30.722  1.00  0.00     0.118 A 
HETATM    3  N1  UNL     1      -5.031 -25.650 -31.053  1.00  0.00    -0.179 N 
ATOM      4  H1  UNL     1      -4.259 -26.206 -30.687  1.00  0.00     0.185 HD
HETATM    5  C3  UNL     1      -4.784 -24.612 -31.852  1.00  0.00     0.679 A 
HETATM    6  N2  UNL     1      -3.586 -24.281 -32.189  1.00  0.00    -0.234 N 
ATOM      7  H21 UNL     1      -3.397 -23.487 -32.800  1.00  0.00     0.174 HD
ATOM      8  H22 UNL     1      -2.806 -24.831 -31.830  1.00  0.00     0.174 HD
HETATM    9  N3  UNL     1      -5.817 -23.883 -32.327  1.00  0.00    -0.182 N 
HETATM   10  C4  UNL     1      -5.542 -22.755 -33.194  1.00  0.00     0.176 C 
HETATM   11  C5  UNL     1      -7.072 -24.216 -31.989  1.00  0.00     0.229 A 
HETATM   12  N4  UNL     1      -7.353 -25.261 -31.182  1.00  0.00    -0.222 N 
ENDROOT
BRANCH  12  13
HETATM   13  N5  UNL     1      -8.642 -25.622 -30.816  1.00  0.00    -0.225 N 
BRANCH  13  14
HETATM   14  N6  UNL     1      -9.025 -25.476 -29.475  1.00  0.00    -0.328 N 
ATOM     15  H62 UNL     1      -9.567 -24.652 -29.213  1.00  0.00     0.178 HD
ATOM     16  H61 UNL     1      -8.765 -26.205 -28.810  1.00  0.00     0.178 HD
ENDBRANCH  13  14
BRANCH  13  17
HETATM   17  C6  UNL     1      -9.602 -26.164 -31.749  1.00  0.00     0.146 C 
HETATM   18  C7  UNL     1     -10.616 -25.093 -32.179  1.00  0.00     0.038 C 
BRANCH  17  19
HETATM   19  C8  UNL     1     -10.407 -27.303 -31.110  1.00  0.00     0.192 C 
BRANCH  19  20
HETATM   20  O1  UNL     1     -11.704 -27.176 -31.546  1.00  0.00    -0.399 OA
ATOM     21  H1  UNL     1     -11.668 -26.971 -32.473  1.00  0.00     0.209 HD
ENDBRANCH  19  20
ENDBRANCH  17  19
ENDBRANCH  13  17
ENDBRANCH  12  13
TORSDOF 5
ENDMDL
MODEL 4
REMARK VINA RESULT: -6.482933595      2.518      3.335
REMARK  5 active torsions:
REMARK  status: ('A' for Active; 'I' for Inactive)
REMARK    1  A    between atoms: N4_12  and  N5_13 
REMARK    2  A    between atoms: N5_13  and  N6_14 
REMARK    3  A    between atoms: N5_13  and  C6_17 
REMARK    4  A    between atoms: C6_17  and  C8_19 
REMARK    5  A    between atoms: C8_19  and  O1_20 
ROOT
HETATM    1  C1  UNL     1      -5.645 -26.010 -30.084  1.00  0.00     0.092 C 
HETATM    2  C2  UNL     1      -6.227 -25.053 -31.018  1.00  0.00     0.118 A 
HETATM    3  N1  UNL     1      -5.344 -24.248 -31.685  1.00  0.00    -0.179 N 
ATOM      4  H1  UNL     1      -4.343 -24.332 -31.508  1.00  0.00     0.185 HD
HETATM    5  C3  UNL     1      -5.791 -23.352 -32.565  1.00  0.00     0.679 A 
HETATM    6  N2  UNL     1      -4.994 -22.579 -33.216  1.00  0.00    -0.234 N 
ATOM      7  H21 UNL     1      -5.335 -21.893 -33.889  1.00  0.00     0.174 HD
ATOM      8  H22 UNL     1      -3.991 -22.655 -33.048  1.00  0.00     0.174 HD
HETATM    9  N3  UNL     1      -7.120 -23.250 -32.788  1.00  0.00    -0.182 N 
HETATM   10  C4  UNL     1      -7.600 -22.274 -33.745  1.00  0.00     0.176 C 
HETATM   11  C5  UNL     1      -7.965 -24.051 -32.122  1.00  0.00     0.229 A 
HETATM   12  N4  UNL     1      -7.542 -24.967 -31.225  1.00  0.00    -0.222 N 
ENDROOT
BRANCH  12  13
HETATM   13  N5  UNL     1      -8.397 -25.803 -30.522  1.00  0.00    -0.225 N 
BRANCH  13  14
HETATM   14  N6  UNL     1      -8.817 -25.412 -29.241  1.00  0.00    -0.328 N 
ATOM     15  H62 UNL     1      -9.705 -24.918 -29.153  1.00  0.00     0.178 HD
ATOM     16  H61 UNL     1      -8.230 -25.650 -28.441  1.00  0.00     0.178 HD
ENDBRANCH  13  14
BRANCH  13  17
HETATM   17  C6  UNL     1      -8.859 -27.071 -31.037  1.00  0.00     0.146 C 
HETATM   18  C7  UNL     1      -7.913 -27.597 -32.129  1.00  0.00     0.038 C 
BRANCH  17  19
HETATM   19  C8  UNL     1     -10.243 -26.933 -31.682  1.00  0.00     0.192 C 
BRANCH  19  20
HETATM   20  O1  UNL     1     -11.109 -27.711 -30.952  1.00  0.00    -0.399 OA
ATOM     21  H1  UNL     1     -10.617 -28.064 -30.220  1.00  0.00     0.209 HD
ENDBRANCH  19  20
ENDBRANCH  17  19
ENDBRANCH  13  17
ENDBRANCH  12  13
TORSDOF 5
ENDMDL
MODEL 5
REMARK VINA RESULT: -6.481749810      2.584      3.759
REMARK  5 active torsions:
REMARK  status: ('A' for Active; 'I' for Inactive)
REMARK    1  A    between atoms: N4_12  and  N5_13 
REMARK    2  A    between atoms: N5_13  and  N6_14 
REMARK    3  A    between atoms: N5_13  and  C6_17 
REMARK    4  A    between atoms: C6_17  and  C8_19 
REMARK    5  A    between atoms: C8_19  and  O1_20 
ROOT
HETATM    1  C1  UNL     1      -9.791 -23.782 -32.145  1.00  0.00     0.092 C 
HETATM    2  C2  UNL     1      -8.347 -23.987 -32.144  1.00  0.00     0.118 A 
HETATM    3  N1  UNL     1      -7.620 -23.161 -32.958  1.00  0.00    -0.179 N 
ATOM      4  H1  UNL     1      -8.094 -22.458 -33.526  1.00  0.00     0.185 HD
HETATM    5  C3  UNL     1      -6.292 -23.273 -33.009  1.00  0.00     0.679 A 
HETATM    6  N2  UNL     1      -5.572 -22.513 -33.757  1.00  0.00    -0.234 N 
ATOM      7  H21 UNL     1      -4.557 -22.599 -33.797  1.00  0.00     0.174 HD
ATOM      8  H22 UNL     1      -6.035 -21.806 -34.329  1.00  0.00     0.174 HD
HETATM    9  N3  UNL     1      -5.679 -24.209 -32.252  1.00  0.00    -0.182 N 
HETATM   10  C4  UNL     1      -4.236 -24.328 -32.313  1.00  0.00     0.176 C 
HETATM   11  C5  UNL     1      -6.414 -25.007 -31.462  1.00  0.00     0.229 A 
HETATM   12  N4  UNL     1      -7.759 -24.917 -31.390  1.00  0.00    -0.222 N 
ENDROOT
BRANCH  12  13
HETATM   13  N5  UNL     1      -8.539 -25.733 -30.585  1.00  0.00    -0.225 N 
BRANCH  13  14
HETATM   14  N6  UNL     1      -8.911 -25.266 -29.315  1.00  0.00    -0.328 N 
ATOM     15  H62 UNL     1      -8.952 -24.259 -29.162  1.00  0.00     0.178 HD
ATOM     16  H61 UNL     1      -9.145 -25.948 -28.593  1.00  0.00     0.178 HD
ENDBRANCH  13  14
BRANCH  13  17
HETATM   17  C6  UNL     1      -8.969 -27.054 -30.983  1.00  0.00     0.146 C 
HETATM   18  C7  UNL     1      -7.988 -27.669 -31.994  1.00  0.00     0.038 C 
BRANCH  17  19
HETATM   19  C8  UNL     1     -10.338 -27.003 -31.671  1.00  0.00     0.192 C 
BRANCH  19  20
HETATM   20  O1  UNL     1     -11.201 -27.757 -30.912  1.00  0.00    -0.399 OA
ATOM     21  H1  UNL     1     -11.676 -27.156 -30.350  1.00  0.00     0.209 HD
ENDBRANCH  19  20
ENDBRANCH  17  19
ENDBRANCH  13  17
ENDBRANCH  12  13
TORSDOF 5
ENDMDL
