MODEL 1
REMARK VINA RESULT: -7.360466253      0.000      0.000
REMARK  7 active torsions:
REMARK  status: ('A' for Active; 'I' for Inactive)
REMARK    1  A    between atoms: C3_3  and  C4_4 
REMARK    2  A    between atoms: C4_4  and  C5_5 
REMARK    3  A    between atoms: C5_5  and  C6_6 
REMARK    4  A    between atoms: C9_12  and  N3_13 
REMARK    5  A    between atoms: N3_13  and  C10_15 
REMARK    6  A    between atoms: N6_23  and  C13_24 
REMARK    7  A    between atoms: C13_24  and  C14_25 
ROOT
HETATM    1  C1  UNL     1      -0.363  11.179  14.944  1.00  0.00     0.113 C 
HETATM    2  C2  UNL     1      -0.953   9.852  14.709  1.00  0.00    -0.097 C 
HETATM    3  C3  UNL     1      -1.420   8.756  14.508  1.00  0.00    -0.015 C 
ENDROOT
BRANCH   3   4
HETATM    4  C4  UNL     1      -1.949   7.461  14.261  1.00  0.00    -0.009 C 
BRANCH   4   5
HETATM    5  C5  UNL     1      -2.386   6.350  14.035  1.00  0.00    -0.044 C 
BRANCH   5   6
HETATM    6  C6  UNL     1      -2.887   5.029  13.770  1.00  0.00     0.125 A 
HETATM    7  C7  UNL     1      -2.208   4.131  12.974  1.00  0.00     0.154 A 
HETATM    8  C8  UNL     1      -0.968   4.511  12.392  1.00  0.00     0.120 C 
HETATM    9  N2  UNL     1      -2.691   2.882  12.729  1.00  0.00    -0.180 N 
HETATM   10  N1  UNL     1       0.059   4.835  11.927  1.00  0.00    -0.190 NA
HETATM   11  C9  UNL     1      -3.858   2.527  13.279  1.00  0.00     0.690 A 
ATOM     12  H2  UNL     1      -2.173   2.230  12.138  1.00  0.00     0.185 HD
HETATM   13  N6  UNL     1      -4.575   3.368  14.073  1.00  0.00    -0.145 N 
HETATM   14  C17 UNL     1      -4.095   4.584  14.306  1.00  0.00     0.283 A 
HETATM   15  O2  UNL     1      -4.735   5.382  15.034  1.00  0.00    -0.266 OA
BRANCH  11  16
HETATM   16  N3  UNL     1      -4.347   1.225  13.014  1.00  0.00    -0.172 N 
ATOM     17  H3  UNL     1      -4.447   0.558  13.780  1.00  0.00     0.186 HD
BRANCH  16  18
HETATM   18  C10 UNL     1      -4.666   0.874  11.825  1.00  0.00     0.167 A 
HETATM   19  N4  UNL     1      -5.402   1.573  10.945  1.00  0.00    -0.223 N 
HETATM   20  O1  UNL     1      -5.495   0.873   9.856  1.00  0.00    -0.155 OA
ATOM     21  H4  UNL     1      -5.815   2.493  11.104  1.00  0.00     0.198 HD
HETATM   22  N5  UNL     1      -4.865  -0.252   9.960  1.00  0.00    -0.242 N 
HETATM   23  C11 UNL     1      -4.331  -0.295  11.176  1.00  0.00     0.076 A 
ATOM     24  H5  UNL     1      -4.792  -0.972   9.242  1.00  0.00     0.196 HD
HETATM   25  C12 UNL     1      -3.520  -1.384  11.754  1.00  0.00     0.074 C 
ENDBRANCH  16  18
ENDBRANCH  11  16
BRANCH  13  26
HETATM   26  C13 UNL     1      -5.815   2.930  14.631  1.00  0.00     0.155 C 
BRANCH  26  27
HETATM   27  C14 UNL     1      -5.646   2.311  16.013  1.00  0.00     0.005 A 
HETATM   28  C15 UNL     1      -6.759   2.633  16.971  1.00  0.00     0.007 A 
HETATM   29  C16 UNL     1      -6.559   1.236  16.468  1.00  0.00     0.007 A 
ENDBRANCH  26  27
ENDBRANCH  13  26
ENDBRANCH   5   6
ENDBRANCH   4   5
ENDBRANCH   3   4
TORSDOF 7
ENDMDL
MODEL 2
REMARK VINA RESULT: -6.741138042      3.152      6.077
REMARK  7 active torsions:
REMARK  status: ('A' for Active; 'I' for Inactive)
REMARK    1  A    between atoms: C3_3  and  C4_4 
REMARK    2  A    between atoms: C4_4  and  C5_5 
REMARK    3  A    between atoms: C5_5  and  C6_6 
REMARK    4  A    between atoms: C9_12  and  N3_13 
REMARK    5  A    between atoms: N3_13  and  C10_15 
REMARK    6  A    between atoms: N6_23  and  C13_24 
REMARK    7  A    between atoms: C13_24  and  C14_25 
ROOT
HETATM    1  C1  UNL     1       1.153   3.965   5.060  1.00  0.00     0.113 C 
HETATM    2  C2  UNL     1       0.527   3.866   6.387  1.00  0.00    -0.097 C 
HETATM    3  C3  UNL     1       0.016   3.804   7.481  1.00  0.00    -0.015 C 
ENDROOT
BRANCH   3   4
HETATM    4  C4  UNL     1      -0.574   3.751   8.771  1.00  0.00    -0.009 C 
BRANCH   4   5
HETATM    5  C5  UNL     1      -1.075   3.727   9.878  1.00  0.00    -0.044 C 
BRANCH   5   6
HETATM    6  C6  UNL     1      -1.661   3.713  11.190  1.00  0.00     0.125 A 
HETATM    7  C7  UNL     1      -2.492   2.696  11.614  1.00  0.00     0.154 A 
HETATM    8  C8  UNL     1      -2.783   1.619  10.732  1.00  0.00     0.120 C 
HETATM    9  N2  UNL     1      -3.043   2.691  12.858  1.00  0.00    -0.180 N 
HETATM   10  N1  UNL     1      -3.005   0.731   9.999  1.00  0.00    -0.190 NA
HETATM   11  C9  UNL     1      -2.767   3.707  13.685  1.00  0.00     0.690 A 
ATOM     12  H2  UNL     1      -3.654   1.930  13.155  1.00  0.00     0.185 HD
HETATM   13  N6  UNL     1      -1.956   4.739  13.326  1.00  0.00    -0.145 N 
HETATM   14  C17 UNL     1      -1.422   4.734  12.109  1.00  0.00     0.283 A 
HETATM   15  O2  UNL     1      -0.671   5.673  11.750  1.00  0.00    -0.266 OA
BRANCH  11  16
HETATM   16  N3  UNL     1      -3.348   3.688  14.976  1.00  0.00    -0.172 N 
ATOM     17  H3  UNL     1      -3.413   4.554  15.513  1.00  0.00     0.186 HD
BRANCH  16  18
HETATM   18  C10 UNL     1      -3.794   2.599  15.477  1.00  0.00     0.167 A 
HETATM   19  N4  UNL     1      -3.072   1.553  15.910  1.00  0.00    -0.223 N 
HETATM   20  O1  UNL     1      -3.897   0.650  16.346  1.00  0.00    -0.155 OA
ATOM     21  H4  UNL     1      -2.054   1.479  15.899  1.00  0.00     0.198 HD
HETATM   22  N5  UNL     1      -5.126   1.033  16.226  1.00  0.00    -0.242 N 
HETATM   23  C11 UNL     1      -5.110   2.248  15.686  1.00  0.00     0.076 A 
ATOM     24  H5  UNL     1      -5.954   0.502  16.497  1.00  0.00     0.196 HD
HETATM   25  C12 UNL     1      -6.276   3.092  15.361  1.00  0.00     0.074 C 
ENDBRANCH  16  18
ENDBRANCH  11  16
BRANCH  13  26
HETATM   26  C13 UNL     1      -1.699   5.794  14.254  1.00  0.00     0.155 C 
BRANCH  26  27
HETATM   27  C14 UNL     1      -2.571   7.018  14.002  1.00  0.00     0.005 A 
HETATM   28  C15 UNL     1      -2.316   8.160  14.946  1.00  0.00     0.007 A 
HETATM   29  C16 UNL     1      -1.969   8.273  13.494  1.00  0.00     0.007 A 
ENDBRANCH  26  27
ENDBRANCH  13  26
ENDBRANCH   5   6
ENDBRANCH   4   5
ENDBRANCH   3   4
TORSDOF 7
ENDMDL
MODEL 3
REMARK VINA RESULT: -6.637269366      3.358      5.967
REMARK  7 active torsions:
REMARK  status: ('A' for Active; 'I' for Inactive)
REMARK    1  A    between atoms: C3_3  and  C4_4 
REMARK    2  A    between atoms: C4_4  and  C5_5 
REMARK    3  A    between atoms: C5_5  and  C6_6 
REMARK    4  A    between atoms: C9_12  and  N3_13 
REMARK    5  A    between atoms: N3_13  and  C10_15 
REMARK    6  A    between atoms: N6_23  and  C13_24 
REMARK    7  A    between atoms: C13_24  and  C14_25 
ROOT
HETATM    1  C1  UNL     1      -1.276   5.522   4.239  1.00  0.00     0.113 C 
HETATM    2  C2  UNL     1      -1.516   5.326   5.677  1.00  0.00    -0.097 C 
HETATM    3  C3  UNL     1      -1.726   5.150   6.854  1.00  0.00    -0.015 C 
ENDROOT
BRANCH   3   4
HETATM    4  C4  UNL     1      -1.988   4.928   8.232  1.00  0.00    -0.009 C 
BRANCH   4   5
HETATM    5  C5  UNL     1      -2.208   4.757   9.415  1.00  0.00    -0.044 C 
BRANCH   5   6
HETATM    6  C6  UNL     1      -2.468   4.572  10.816  1.00  0.00     0.125 A 
HETATM    7  C7  UNL     1      -2.513   3.322  11.396  1.00  0.00     0.154 A 
HETATM    8  C8  UNL     1      -2.292   2.170  10.592  1.00  0.00     0.120 C 
HETATM    9  N2  UNL     1      -2.760   3.156  12.725  1.00  0.00    -0.180 N 
HETATM   10  N1  UNL     1      -2.098   1.229   9.920  1.00  0.00    -0.190 NA
HETATM   11  C9  UNL     1      -2.967   4.242  13.478  1.00  0.00     0.690 A 
ATOM     12  H2  UNL     1      -2.787   2.223  13.137  1.00  0.00     0.185 HD
HETATM   13  N6  UNL     1      -2.936   5.502  12.965  1.00  0.00    -0.145 N 
HETATM   14  C17 UNL     1      -2.693   5.653  11.667  1.00  0.00     0.283 A 
HETATM   15  O2  UNL     1      -2.660   6.803  11.166  1.00  0.00    -0.266 OA
BRANCH  11  16
HETATM   16  N3  UNL     1      -3.224   4.053  14.858  1.00  0.00    -0.172 N 
ATOM     17  H3  UNL     1      -3.065   4.822  15.510  1.00  0.00     0.186 HD
BRANCH  16  18
HETATM   18  C10 UNL     1      -3.652   2.930  15.296  1.00  0.00     0.167 A 
HETATM   19  N4  UNL     1      -2.916   1.917  15.782  1.00  0.00    -0.223 N 
HETATM   20  O1  UNL     1      -3.726   0.961  16.120  1.00  0.00    -0.155 OA
ATOM     21  H4  UNL     1      -1.899   1.902  15.870  1.00  0.00     0.198 HD
HETATM   22  N5  UNL     1      -4.958   1.276  15.886  1.00  0.00    -0.242 N 
HETATM   23  C11 UNL     1      -4.960   2.501  15.370  1.00  0.00     0.076 A 
ATOM     24  H5  UNL     1      -5.776   0.694  16.066  1.00  0.00     0.196 HD
HETATM   25  C12 UNL     1      -6.136   3.285  14.944  1.00  0.00     0.074 C 
ENDBRANCH  16  18
ENDBRANCH  11  16
BRANCH  13  26
HETATM   26  C13 UNL     1      -3.165   6.622  13.822  1.00  0.00     0.155 C 
BRANCH  26  27
HETATM   27  C14 UNL     1      -1.868   7.268  14.294  1.00  0.00     0.005 A 
HETATM   28  C15 UNL     1      -1.683   8.686  13.828  1.00  0.00     0.007 A 
HETATM   29  C16 UNL     1      -1.900   8.376  15.277  1.00  0.00     0.007 A 
ENDBRANCH  26  27
ENDBRANCH  13  26
ENDBRANCH   5   6
ENDBRANCH   4   5
ENDBRANCH   3   4
TORSDOF 7
ENDMDL
MODEL 4
REMARK VINA RESULT: -6.551375277      4.823      5.661
REMARK  7 active torsions:
REMARK  status: ('A' for Active; 'I' for Inactive)
REMARK    1  A    between atoms: C3_3  and  C4_4 
REMARK    2  A    between atoms: C4_4  and  C5_5 
REMARK    3  A    between atoms: C5_5  and  C6_6 
REMARK    4  A    between atoms: C9_12  and  N3_13 
REMARK    5  A    between atoms: N3_13  and  C10_15 
REMARK    6  A    between atoms: N6_23  and  C13_24 
REMARK    7  A    between atoms: C13_24  and  C14_25 
ROOT
HETATM    1  C1  UNL     1     -10.310   9.812   6.889  1.00  0.00     0.113 C 
HETATM    2  C2  UNL     1      -9.234   9.054   7.546  1.00  0.00    -0.097 C 
HETATM    3  C3  UNL     1      -8.355   8.438   8.103  1.00  0.00    -0.015 C 
ENDROOT
BRANCH   3   4
HETATM    4  C4  UNL     1      -7.328   7.727   8.777  1.00  0.00    -0.009 C 
BRANCH   4   5
HETATM    5  C5  UNL     1      -6.455   7.127   9.373  1.00  0.00    -0.044 C 
BRANCH   5   6
HETATM    6  C6  UNL     1      -5.417   6.431  10.083  1.00  0.00     0.125 A 
HETATM    7  C7  UNL     1      -4.304   5.924   9.447  1.00  0.00     0.154 A 
HETATM    8  C8  UNL     1      -4.165   6.090   8.041  1.00  0.00     0.120 C 
HETATM    9  N2  UNL     1      -3.325   5.266  10.128  1.00  0.00    -0.180 N 
HETATM   10  N1  UNL     1      -4.059   6.244   6.883  1.00  0.00    -0.190 NA
HETATM   11  C9  UNL     1      -3.458   5.112  11.450  1.00  0.00     0.690 A 
ATOM     12  H2  UNL     1      -2.507   4.899   9.640  1.00  0.00     0.185 HD
HETATM   13  N6  UNL     1      -4.533   5.589  12.135  1.00  0.00    -0.145 N 
HETATM   14  C17 UNL     1      -5.482   6.230  11.461  1.00  0.00     0.283 A 
HETATM   15  O2  UNL     1      -6.485   6.681  12.066  1.00  0.00    -0.266 OA
BRANCH  11  16
HETATM   16  N3  UNL     1      -2.433   4.425  12.145  1.00  0.00    -0.172 N 
ATOM     17  H3  UNL     1      -1.843   4.934  12.804  1.00  0.00     0.186 HD
BRANCH  16  18
HETATM   18  C10 UNL     1      -2.237   3.176  11.954  1.00  0.00     0.167 A 
HETATM   19  N4  UNL     1      -2.987   2.160  12.412  1.00  0.00    -0.223 N 
HETATM   20  O1  UNL     1      -2.453   1.051  12.000  1.00  0.00    -0.155 OA
ATOM     21  H4  UNL     1      -3.828   2.244  12.984  1.00  0.00     0.198 HD
HETATM   22  N5  UNL     1      -1.390   1.268  11.296  1.00  0.00    -0.242 N 
HETATM   23  C11 UNL     1      -1.216   2.585  11.241  1.00  0.00     0.076 A 
ATOM     24  H5  UNL     1      -0.797   0.561  10.863  1.00  0.00     0.196 HD
HETATM   25  C12 UNL     1      -0.134   3.310  10.547  1.00  0.00     0.074 C 
ENDBRANCH  16  18
ENDBRANCH  11  16
BRANCH  13  26
HETATM   26  C13 UNL     1      -4.617   5.393  13.548  1.00  0.00     0.155 C 
BRANCH  26  27
HETATM   27  C14 UNL     1      -5.514   4.220  13.921  1.00  0.00     0.005 A 
HETATM   28  C15 UNL     1      -4.995   3.386  15.059  1.00  0.00     0.007 A 
HETATM   29  C16 UNL     1      -6.234   4.211  15.216  1.00  0.00     0.007 A 
ENDBRANCH  26  27
ENDBRANCH  13  26
ENDBRANCH   5   6
ENDBRANCH   4   5
ENDBRANCH   3   4
TORSDOF 7
ENDMDL
MODEL 5
REMARK VINA RESULT: -6.507089608      2.746      4.724
REMARK  7 active torsions:
REMARK  status: ('A' for Active; 'I' for Inactive)
REMARK    1  A    between atoms: C3_3  and  C4_4 
REMARK    2  A    between atoms: C4_4  and  C5_5 
REMARK    3  A    between atoms: C5_5  and  C6_6 
REMARK    4  A    between atoms: C9_12  and  N3_13 
REMARK    5  A    between atoms: N3_13  and  C10_15 
REMARK    6  A    between atoms: N6_23  and  C13_24 
REMARK    7  A    between atoms: C13_24  and  C14_25 
ROOT
HETATM    1  C1  UNL     1       1.461   8.778   8.354  1.00  0.00     0.113 C 
HETATM    2  C2  UNL     1       0.527   7.932   9.111  1.00  0.00    -0.097 C 
HETATM    3  C3  UNL     1      -0.246   7.251   9.745  1.00  0.00    -0.015 C 
ENDROOT
BRANCH   3   4
HETATM    4  C4  UNL     1      -1.157   6.470  10.504  1.00  0.00    -0.009 C 
BRANCH   4   5
HETATM    5  C5  UNL     1      -1.923   5.787  11.154  1.00  0.00    -0.044 C 
BRANCH   5   6
HETATM    6  C6  UNL     1      -2.816   4.969  11.929  1.00  0.00     0.125 A 
HETATM    7  C7  UNL     1      -3.202   5.310  13.208  1.00  0.00     0.154 A 
HETATM    8  C8  UNL     1      -2.707   6.509  13.791  1.00  0.00     0.120 C 
HETATM    9  N2  UNL     1      -4.048   4.529  13.934  1.00  0.00    -0.180 N 
HETATM   10  N1  UNL     1      -2.301   7.507  14.255  1.00  0.00    -0.190 NA
HETATM   11  C9  UNL     1      -4.511   3.401  13.383  1.00  0.00     0.690 A 
ATOM     12  H2  UNL     1      -4.324   4.798  14.879  1.00  0.00     0.185 HD
HETATM   13  N6  UNL     1      -4.168   3.011  12.125  1.00  0.00    -0.145 N 
HETATM   14  C17 UNL     1      -3.341   3.780  11.425  1.00  0.00     0.283 A 
HETATM   15  O2  UNL     1      -3.007   3.444  10.262  1.00  0.00    -0.266 OA
BRANCH  11  16
HETATM   16  N3  UNL     1      -5.390   2.599  14.151  1.00  0.00    -0.172 N 
ATOM     17  H3  UNL     1      -6.393   2.627  13.962  1.00  0.00     0.186 HD
BRANCH  16  18
HETATM   18  C10 UNL     1      -4.942   1.841  15.079  1.00  0.00     0.167 A 
HETATM   19  N4  UNL     1      -3.701   1.339  15.185  1.00  0.00    -0.223 N 
HETATM   20  O1  UNL     1      -3.652   0.622  16.266  1.00  0.00    -0.155 OA
ATOM     21  H4  UNL     1      -2.933   1.493  14.532  1.00  0.00     0.198 HD
HETATM   22  N5  UNL     1      -4.787   0.616  16.885  1.00  0.00    -0.242 N 
HETATM   23  C11 UNL     1      -5.626   1.366  16.177  1.00  0.00     0.076 A 
ATOM     24  H5  UNL     1      -4.999   0.127  17.754  1.00  0.00     0.196 HD
HETATM   25  C12 UNL     1      -7.038   1.657  16.490  1.00  0.00     0.074 C 
ENDBRANCH  16  18
ENDBRANCH  11  16
BRANCH  13  26
HETATM   26  C13 UNL     1      -4.696   1.795  11.592  1.00  0.00     0.155 C 
BRANCH  26  27
HETATM   27  C14 UNL     1      -3.683   0.658  11.618  1.00  0.00     0.005 A 
HETATM   28  C15 UNL     1      -4.299  -0.713  11.670  1.00  0.00     0.007 A 
HETATM   29  C16 UNL     1      -3.551  -0.253  10.456  1.00  0.00     0.007 A 
ENDBRANCH  26  27
ENDBRANCH  13  26
ENDBRANCH   5   6
ENDBRANCH   4   5
ENDBRANCH   3   4
TORSDOF 7
ENDMDL
