MODEL 1
REMARK VINA RESULT: -7.485218943      0.000      0.000
REMARK  11 active torsions:
REMARK  status: ('A' for Active; 'I' for Inactive)
REMARK    1  A    between atoms: C2_2  and  C3_3 
REMARK    2  A    between atoms: C4_4  and  C5_5 
REMARK    3  A    between atoms: C8_8  and  N1_9 
REMARK    4  A    between atoms: C10_11  and  C11_12 
REMARK    5  A    between atoms: C12_17  and  C13_18 
REMARK    6  A    between atoms: N3_21  and  C16_22 
REMARK    7  A    between atoms: C29_36  and  O2_37 
REMARK    8  A    between atoms: O2_37  and  C30_38 
REMARK    9  A    between atoms: C30_38  and  C31_39 
REMARK   10  A    between atoms: C31_39  and  C32_40 
REMARK   11  A    between atoms: C32_40  and  O3_41 
ROOT
HETATM    1  N1  UNL     1     -28.588   6.848 -17.107  1.00  0.00    -0.309 N 
HETATM    2  C9  UNL     1     -29.071   6.978 -18.384  1.00  0.00     0.129 A 
HETATM    3  C10 UNL     1     -29.909   5.935 -18.689  1.00  0.00     0.091 A 
HETATM    4  N2  UNL     1     -29.916   5.188 -17.580  1.00  0.00    -0.343 N 
ATOM      5  H2  UNL     1     -30.447   4.325 -17.472  1.00  0.00     0.167 HD
HETATM    6  C12 UNL     1     -29.117   5.732 -16.610  1.00  0.00     0.092 A 
ENDROOT
BRANCH   6   7
HETATM    7  C13 UNL     1     -28.955   5.100 -15.313  1.00  0.00     0.057 C 
HETATM    8  C14 UNL     1     -30.197   4.602 -14.639  1.00  0.00     0.032 C 
HETATM    9  C15 UNL     1     -29.714   3.544 -13.628  1.00  0.00     0.118 C 
HETATM   10  N3  UNL     1     -28.328   3.603 -13.395  1.00  0.00    -0.408 N 
HETATM   11  C26 UNL     1     -27.704   4.841 -13.260  1.00  0.00     0.118 C 
HETATM   12  C27 UNL     1     -28.213   5.897 -14.264  1.00  0.00     0.032 C 
BRANCH  10  13
HETATM   13  C16 UNL     1     -27.588   2.426 -13.519  1.00  0.00     0.082 C 
HETATM   14  C17 UNL     1     -26.217   2.480 -12.953  1.00  0.00     0.062 C 
HETATM   15  C18 UNL     1     -25.501   1.144 -13.059  1.00  0.00     0.056 C 
HETATM   16  C19 UNL     1     -25.264   0.790 -14.527  1.00  0.00     0.045 C 
HETATM   17  C20 UNL     1     -24.132   1.279 -12.428  1.00  0.00     0.045 C 
HETATM   18  O1  UNL     1     -26.160   0.108 -12.475  1.00  0.00    -0.375 OA
HETATM   19  C21 UNL     1     -26.766   0.386 -11.277  1.00  0.00     0.131 A 
HETATM   20  C22 UNL     1     -28.023  -0.435 -11.023  1.00  0.00     0.044 A 
HETATM   21  C23 UNL     1     -28.054   1.056 -11.449  1.00  0.00    -0.014 A 
HETATM   22  C24 UNL     1     -28.683   1.927 -10.416  1.00  0.00     0.018 C 
HETATM   23  C25 UNL     1     -28.338   1.275 -12.909  1.00  0.00     0.036 C 
ENDBRANCH  10  13
ENDBRANCH   6   7
BRANCH   1  24
HETATM   24  C8  UNL     1     -27.700   7.755 -16.475  1.00  0.00     0.043 A 
HETATM   25  C7  UNL     1     -26.443   7.319 -16.162  1.00  0.00     0.031 A 
HETATM   26  C6  UNL     1     -25.544   8.177 -15.558  1.00  0.00     0.026 A 
HETATM   27  C5  UNL     1     -25.927   9.477 -15.276  1.00  0.00     0.051 A 
HETATM   28  C29 UNL     1     -27.188   9.945 -15.580  1.00  0.00     0.089 A 
HETATM   29  C28 UNL     1     -28.048   9.048 -16.182  1.00  0.00     0.068 A 
BRANCH  27  30
HETATM   30  C4  UNL     1     -24.949  10.340 -14.641  1.00  0.00    -0.064 C 
HETATM   31  C3  UNL     1     -24.121  11.054 -14.122  1.00  0.00    -0.101 C 
BRANCH  31  32
HETATM   32  C2  UNL     1     -23.128  11.900 -13.498  1.00  0.00     0.090 C 
HETATM   33  C1  UNL     1     -23.684  12.616 -12.286  1.00  0.00     0.018 C 
ENDBRANCH  31  32
ENDBRANCH  27  30
BRANCH  28  34
HETATM   34  O2  UNL     1     -27.526  11.258 -15.277  1.00  0.00    -0.349 OA
BRANCH  34  35
HETATM   35  C30 UNL     1     -27.591  12.161 -16.363  1.00  0.00     0.178 C 
BRANCH  35  36
HETATM   36  C31 UNL     1     -26.208  12.515 -16.876  1.00  0.00     0.053 C 
BRANCH  36  37
HETATM   37  C32 UNL     1     -25.623  13.677 -16.108  1.00  0.00     0.166 C 
BRANCH  37  38
HETATM   38  O3  UNL     1     -26.105  13.676 -14.821  1.00  0.00    -0.401 OA
ATOM     39  H3  UNL     1     -26.937  14.133 -14.787  1.00  0.00     0.209 HD
ENDBRANCH  37  38
ENDBRANCH  36  37
ENDBRANCH  35  36
ENDBRANCH  34  35
ENDBRANCH  28  34
ENDBRANCH   1  24
BRANCH   3  40
HETATM   40  C11 UNL     1     -30.642   5.687 -19.958  1.00  0.00     0.404 C 
HETATM   41  F1  UNL     1     -31.899   5.153 -19.740  1.00  0.00    -0.207 F 
HETATM   42  F2  UNL     1     -29.951   4.761 -20.714  1.00  0.00    -0.207 F 
ENDBRANCH   3  40
TORSDOF 11
ENDMDL
MODEL 2
REMARK VINA RESULT: -7.371184770      3.401     10.154
REMARK  11 active torsions:
REMARK  status: ('A' for Active; 'I' for Inactive)
REMARK    1  A    between atoms: C2_2  and  C3_3 
REMARK    2  A    between atoms: C4_4  and  C5_5 
REMARK    3  A    between atoms: C8_8  and  N1_9 
REMARK    4  A    between atoms: C10_11  and  C11_12 
REMARK    5  A    between atoms: C12_17  and  C13_18 
REMARK    6  A    between atoms: N3_21  and  C16_22 
REMARK    7  A    between atoms: C29_36  and  O2_37 
REMARK    8  A    between atoms: O2_37  and  C30_38 
REMARK    9  A    between atoms: C30_38  and  C31_39 
REMARK   10  A    between atoms: C31_39  and  C32_40 
REMARK   11  A    between atoms: C32_40  and  O3_41 
ROOT
HETATM    1  N1  UNL     1     -26.199   0.099 -13.466  1.00  0.00    -0.309 N 
HETATM    2  C9  UNL     1     -25.715  -0.946 -14.209  1.00  0.00     0.129 A 
HETATM    3  C10 UNL     1     -25.216  -0.496 -15.405  1.00  0.00     0.091 A 
HETATM    4  N2  UNL     1     -25.412   0.826 -15.361  1.00  0.00    -0.343 N 
ATOM      5  H2  UNL     1     -25.150   1.472 -16.106  1.00  0.00     0.167 HD
HETATM    6  C12 UNL     1     -26.008   1.202 -14.188  1.00  0.00     0.092 A 
ENDROOT
BRANCH   6   7
HETATM    7  C13 UNL     1     -26.330   2.589 -13.904  1.00  0.00     0.057 C 
HETATM    8  C14 UNL     1     -25.247   3.428 -13.296  1.00  0.00     0.032 C 
HETATM    9  C15 UNL     1     -25.638   4.885 -13.611  1.00  0.00     0.118 C 
HETATM   10  N3  UNL     1     -26.974   5.015 -14.032  1.00  0.00    -0.408 N 
HETATM   11  C26 UNL     1     -27.973   4.287 -13.390  1.00  0.00     0.118 C 
HETATM   12  C27 UNL     1     -27.560   2.837 -13.061  1.00  0.00     0.032 C 
BRANCH  10  13
HETATM   13  C16 UNL     1     -27.227   5.704 -15.219  1.00  0.00     0.082 C 
HETATM   14  C17 UNL     1     -28.502   6.464 -15.248  1.00  0.00     0.062 C 
HETATM   15  C18 UNL     1     -28.672   7.246 -16.540  1.00  0.00     0.056 C 
HETATM   16  C19 UNL     1     -28.806   6.287 -17.721  1.00  0.00     0.045 C 
HETATM   17  C20 UNL     1     -29.973   8.017 -16.469  1.00  0.00     0.045 C 
HETATM   18  O1  UNL     1     -27.658   8.111 -16.809  1.00  0.00    -0.375 OA
HETATM   19  C21 UNL     1     -27.162   8.802 -15.733  1.00  0.00     0.131 A 
HETATM   20  C22 UNL     1     -25.682   9.142 -15.855  1.00  0.00     0.044 A 
HETATM   21  C23 UNL     1     -26.222   8.006 -14.947  1.00  0.00    -0.014 A 
HETATM   22  C24 UNL     1     -25.930   8.246 -13.505  1.00  0.00     0.018 C 
HETATM   23  C25 UNL     1     -26.084   6.629 -15.534  1.00  0.00     0.036 C 
ENDBRANCH  10  13
ENDBRANCH   6   7
BRANCH   1  24
HETATM   24  C8  UNL     1     -26.781  -0.017 -12.177  1.00  0.00     0.043 A 
HETATM   25  C7  UNL     1     -28.104  -0.346 -12.092  1.00  0.00     0.031 A 
HETATM   26  C6  UNL     1     -28.704  -0.483 -10.855  1.00  0.00     0.026 A 
HETATM   27  C5  UNL     1     -27.954  -0.283  -9.708  1.00  0.00     0.051 A 
HETATM   28  C29 UNL     1     -26.617   0.051  -9.763  1.00  0.00     0.089 A 
HETATM   29  C28 UNL     1     -26.067   0.174 -11.023  1.00  0.00     0.068 A 
BRANCH  27  30
HETATM   30  C4  UNL     1     -28.627  -0.436  -8.433  1.00  0.00    -0.064 C 
HETATM   31  C3  UNL     1     -29.193  -0.547  -7.368  1.00  0.00    -0.101 C 
BRANCH  31  32
HETATM   32  C2  UNL     1     -29.861  -0.677  -6.092  1.00  0.00     0.090 C 
HETATM   33  C1  UNL     1     -30.692  -1.939  -6.020  1.00  0.00     0.018 C 
ENDBRANCH  31  32
ENDBRANCH  27  30
BRANCH  28  34
HETATM   34  O2  UNL     1     -25.906   0.241  -8.586  1.00  0.00    -0.349 OA
BRANCH  34  35
HETATM   35  C30 UNL     1     -25.164  -0.865  -8.109  1.00  0.00     0.178 C 
BRANCH  35  36
HETATM   36  C31 UNL     1     -24.880  -0.746  -6.625  1.00  0.00     0.053 C 
BRANCH  36  37
HETATM   37  C32 UNL     1     -25.379   0.570  -6.078  1.00  0.00     0.166 C 
BRANCH  37  38
HETATM   38  O3  UNL     1     -24.513   1.579  -6.424  1.00  0.00    -0.401 OA
ATOM     39  H3  UNL     1     -24.906   2.422  -6.231  1.00  0.00     0.209 HD
ENDBRANCH  37  38
ENDBRANCH  36  37
ENDBRANCH  35  36
ENDBRANCH  34  35
ENDBRANCH  28  34
ENDBRANCH   1  24
BRANCH   3  40
HETATM   40  C11 UNL     1     -24.601  -1.288 -16.501  1.00  0.00     0.404 C 
HETATM   41  F1  UNL     1     -23.969  -0.487 -17.435  1.00  0.00    -0.207 F 
HETATM   42  F2  UNL     1     -25.587  -1.976 -17.180  1.00  0.00    -0.207 F 
ENDBRANCH   3  40
TORSDOF 11
ENDMDL
MODEL 3
REMARK VINA RESULT: -7.309128429      4.097      7.354
REMARK  11 active torsions:
REMARK  status: ('A' for Active; 'I' for Inactive)
REMARK    1  A    between atoms: C2_2  and  C3_3 
REMARK    2  A    between atoms: C4_4  and  C5_5 
REMARK    3  A    between atoms: C8_8  and  N1_9 
REMARK    4  A    between atoms: C10_11  and  C11_12 
REMARK    5  A    between atoms: C12_17  and  C13_18 
REMARK    6  A    between atoms: N3_21  and  C16_22 
REMARK    7  A    between atoms: C29_36  and  O2_37 
REMARK    8  A    between atoms: O2_37  and  C30_38 
REMARK    9  A    between atoms: C30_38  and  C31_39 
REMARK   10  A    between atoms: C31_39  and  C32_40 
REMARK   11  A    between atoms: C32_40  and  O3_41 
ROOT
HETATM    1  N1  UNL     1     -26.405   0.436 -13.302  1.00  0.00    -0.309 N 
HETATM    2  C9  UNL     1     -26.216  -0.416 -14.358  1.00  0.00     0.129 A 
HETATM    3  C10 UNL     1     -26.297  -1.722 -13.943  1.00  0.00     0.091 A 
HETATM    4  N2  UNL     1     -26.534  -1.631 -12.630  1.00  0.00    -0.343 N 
ATOM      5  H2  UNL     1     -26.649  -2.432 -12.009  1.00  0.00     0.167 HD
HETATM    6  C12 UNL     1     -26.603  -0.325 -12.227  1.00  0.00     0.092 A 
ENDROOT
BRANCH   6   7
HETATM    7  C13 UNL     1     -26.847   0.034 -10.842  1.00  0.00     0.057 C 
HETATM    8  C14 UNL     1     -28.002   0.950 -10.569  1.00  0.00     0.032 C 
HETATM    9  C15 UNL     1     -28.360   0.722  -9.087  1.00  0.00     0.118 C 
HETATM   10  N3  UNL     1     -27.353   0.041  -8.380  1.00  0.00    -0.408 N 
HETATM   11  C26 UNL     1     -26.017   0.370  -8.595  1.00  0.00     0.118 C 
HETATM   12  C27 UNL     1     -25.678   0.617 -10.080  1.00  0.00     0.032 C 
BRANCH  10  13
HETATM   13  C16 UNL     1     -27.714  -1.088  -7.644  1.00  0.00     0.082 C 
HETATM   14  C17 UNL     1     -28.683  -1.994  -8.311  1.00  0.00     0.062 C 
HETATM   15  C18 UNL     1     -28.971  -3.235  -7.482  1.00  0.00     0.056 C 
HETATM   16  C19 UNL     1     -29.684  -2.848  -6.187  1.00  0.00     0.045 C 
HETATM   17  C20 UNL     1     -29.934  -4.115  -8.251  1.00  0.00     0.045 C 
HETATM   18  O1  UNL     1     -27.868  -3.960  -7.158  1.00  0.00    -0.375 OA
HETATM   19  C21 UNL     1     -26.926  -4.087  -8.147  1.00  0.00     0.131 A 
HETATM   20  C22 UNL     1     -25.501  -4.204  -7.621  1.00  0.00     0.044 A 
HETATM   21  C23 UNL     1     -26.070  -2.906  -8.252  1.00  0.00    -0.014 A 
HETATM   22  C24 UNL     1     -25.343  -2.514  -9.493  1.00  0.00     0.018 C 
HETATM   23  C25 UNL     1     -26.488  -1.865  -7.252  1.00  0.00     0.036 C 
ENDBRANCH  10  13
ENDBRANCH   6   7
BRANCH   1  24
HETATM   24  C8  UNL     1     -26.389   1.852 -13.383  1.00  0.00     0.043 A 
HETATM   25  C7  UNL     1     -25.179   2.485 -13.421  1.00  0.00     0.031 A 
HETATM   26  C6  UNL     1     -25.121   3.862 -13.514  1.00  0.00     0.026 A 
HETATM   27  C5  UNL     1     -26.297   4.591 -13.570  1.00  0.00     0.051 A 
HETATM   28  C29 UNL     1     -27.533   3.980 -13.534  1.00  0.00     0.089 A 
HETATM   29  C28 UNL     1     -27.535   2.603 -13.440  1.00  0.00     0.068 A 
BRANCH  27  30
HETATM   30  C4  UNL     1     -26.186   6.034 -13.667  1.00  0.00    -0.064 C 
HETATM   31  C3  UNL     1     -26.099   7.237 -13.765  1.00  0.00    -0.101 C 
BRANCH  31  32
HETATM   32  C2  UNL     1     -25.989   8.674 -13.885  1.00  0.00     0.090 C 
HETATM   33  C1  UNL     1     -25.783   9.102 -15.322  1.00  0.00     0.018 C 
ENDBRANCH  31  32
ENDBRANCH  27  30
BRANCH  28  34
HETATM   34  O2  UNL     1     -28.685   4.754 -13.593  1.00  0.00    -0.349 OA
BRANCH  34  35
HETATM   35  C30 UNL     1     -29.490   4.602 -14.746  1.00  0.00     0.178 C 
BRANCH  35  36
HETATM   36  C31 UNL     1     -29.514   5.870 -15.579  1.00  0.00     0.053 C 
BRANCH  36  37
HETATM   37  C32 UNL     1     -29.507   5.552 -17.055  1.00  0.00     0.166 C 
BRANCH  37  38
HETATM   38  O3  UNL     1     -30.497   6.263 -17.690  1.00  0.00    -0.401 OA
ATOM     39  H3  UNL     1     -30.897   5.727 -18.366  1.00  0.00     0.209 HD
ENDBRANCH  37  38
ENDBRANCH  36  37
ENDBRANCH  35  36
ENDBRANCH  34  35
ENDBRANCH  28  34
ENDBRANCH   1  24
BRANCH   3  40
HETATM   40  C11 UNL     1     -26.153  -2.956 -14.758  1.00  0.00     0.404 C 
HETATM   41  F1  UNL     1     -25.164  -2.837 -15.718  1.00  0.00    -0.207 F 
HETATM   42  F2  UNL     1     -27.331  -3.196 -15.439  1.00  0.00    -0.207 F 
ENDBRANCH   3  40
TORSDOF 11
ENDMDL
MODEL 4
REMARK VINA RESULT: -7.295875851      1.450      1.842
REMARK  11 active torsions:
REMARK  status: ('A' for Active; 'I' for Inactive)
REMARK    1  A    between atoms: C2_2  and  C3_3 
REMARK    2  A    between atoms: C4_4  and  C5_5 
REMARK    3  A    between atoms: C8_8  and  N1_9 
REMARK    4  A    between atoms: C10_11  and  C11_12 
REMARK    5  A    between atoms: C12_17  and  C13_18 
REMARK    6  A    between atoms: N3_21  and  C16_22 
REMARK    7  A    between atoms: C29_36  and  O2_37 
REMARK    8  A    between atoms: O2_37  and  C30_38 
REMARK    9  A    between atoms: C30_38  and  C31_39 
REMARK   10  A    between atoms: C31_39  and  C32_40 
REMARK   11  A    between atoms: C32_40  and  O3_41 
ROOT
HETATM    1  N1  UNL     1     -29.214   6.779 -17.348  1.00  0.00    -0.309 N 
HETATM    2  C9  UNL     1     -29.723   6.743 -18.621  1.00  0.00     0.129 A 
HETATM    3  C10 UNL     1     -30.294   5.521 -18.875  1.00  0.00     0.091 A 
HETATM    4  N2  UNL     1     -30.116   4.837 -17.740  1.00  0.00    -0.343 N 
ATOM      5  H2  UNL     1     -30.428   3.877 -17.592  1.00  0.00     0.167 HD
HETATM    6  C12 UNL     1     -29.461   5.589 -16.803  1.00  0.00     0.092 A 
ENDROOT
BRANCH   6   7
HETATM    7  C13 UNL     1     -29.144   5.064 -15.488  1.00  0.00     0.057 C 
HETATM    8  C14 UNL     1     -30.297   4.654 -14.623  1.00  0.00     0.032 C 
HETATM    9  C15 UNL     1     -29.704   3.672 -13.594  1.00  0.00     0.118 C 
HETATM   10  N3  UNL     1     -28.300   3.717 -13.541  1.00  0.00    -0.408 N 
HETATM   11  C26 UNL     1     -27.646   4.946 -13.592  1.00  0.00     0.118 C 
HETATM   12  C27 UNL     1     -28.265   5.927 -14.611  1.00  0.00     0.032 C 
BRANCH  10  13
HETATM   13  C16 UNL     1     -27.598   2.516 -13.656  1.00  0.00     0.082 C 
HETATM   14  C17 UNL     1     -26.231   2.526 -13.077  1.00  0.00     0.062 C 
HETATM   15  C18 UNL     1     -25.559   1.166 -13.173  1.00  0.00     0.056 C 
HETATM   16  C19 UNL     1     -25.319   0.802 -14.638  1.00  0.00     0.045 C 
HETATM   17  C20 UNL     1     -24.192   1.258 -12.528  1.00  0.00     0.045 C 
HETATM   18  O1  UNL     1     -26.257   0.154 -12.594  1.00  0.00    -0.375 OA
HETATM   19  C21 UNL     1     -26.865   0.455 -11.402  1.00  0.00     0.131 A 
HETATM   20  C22 UNL     1     -28.152  -0.324 -11.159  1.00  0.00     0.044 A 
HETATM   21  C23 UNL     1     -28.129   1.166 -11.588  1.00  0.00    -0.014 A 
HETATM   22  C24 UNL     1     -28.739   2.060 -10.563  1.00  0.00     0.018 C 
HETATM   23  C25 UNL     1     -28.392   1.392 -13.051  1.00  0.00     0.036 C 
ENDBRANCH  10  13
ENDBRANCH   6   7
BRANCH   1  24
HETATM   24  C8  UNL     1     -28.560   7.893 -16.763  1.00  0.00     0.043 A 
HETATM   25  C7  UNL     1     -29.329   8.910 -16.270  1.00  0.00     0.031 A 
HETATM   26  C6  UNL     1     -28.730  10.006 -15.679  1.00  0.00     0.026 A 
HETATM   27  C5  UNL     1     -27.349  10.064 -15.593  1.00  0.00     0.051 A 
HETATM   28  C29 UNL     1     -26.548   9.054 -16.082  1.00  0.00     0.089 A 
HETATM   29  C28 UNL     1     -27.196   7.981 -16.662  1.00  0.00     0.068 A 
BRANCH  27  30
HETATM   30  C4  UNL     1     -26.767  11.234 -14.966  1.00  0.00    -0.064 C 
HETATM   31  C3  UNL     1     -26.266  12.202 -14.438  1.00  0.00    -0.101 C 
BRANCH  31  32
HETATM   32  C2  UNL     1     -25.671  13.355 -13.799  1.00  0.00     0.090 C 
HETATM   33  C1  UNL     1     -24.940  12.978 -12.529  1.00  0.00     0.018 C 
ENDBRANCH  31  32
ENDBRANCH  27  30
BRANCH  28  34
HETATM   34  O2  UNL     1     -25.167   9.156 -15.972  1.00  0.00    -0.349 OA
BRANCH  34  35
HETATM   35  C30 UNL     1     -24.456   9.427 -17.164  1.00  0.00     0.178 C 
BRANCH  35  36
HETATM   36  C31 UNL     1     -24.076  10.892 -17.263  1.00  0.00     0.053 C 
BRANCH  36  37
HETATM   37  C32 UNL     1     -24.778  11.560 -18.422  1.00  0.00     0.166 C 
BRANCH  37  38
HETATM   38  O3  UNL     1     -24.138  11.251 -19.598  1.00  0.00    -0.401 OA
ATOM     39  H3  UNL     1     -24.276  10.335 -19.810  1.00  0.00     0.209 HD
ENDBRANCH  37  38
ENDBRANCH  36  37
ENDBRANCH  35  36
ENDBRANCH  34  35
ENDBRANCH  28  34
ENDBRANCH   1  24
BRANCH   3  40
HETATM   40  C11 UNL     1     -30.958   5.059 -20.122  1.00  0.00     0.404 C 
HETATM   41  F1  UNL     1     -32.334   5.182 -20.059  1.00  0.00    -0.207 F 
HETATM   42  F2  UNL     1     -30.695   3.715 -20.311  1.00  0.00    -0.207 F 
ENDBRANCH   3  40
TORSDOF 11
ENDMDL
MODEL 5
REMARK VINA RESULT: -7.142367323      0.804      1.032
REMARK  11 active torsions:
REMARK  status: ('A' for Active; 'I' for Inactive)
REMARK    1  A    between atoms: C2_2  and  C3_3 
REMARK    2  A    between atoms: C4_4  and  C5_5 
REMARK    3  A    between atoms: C8_8  and  N1_9 
REMARK    4  A    between atoms: C10_11  and  C11_12 
REMARK    5  A    between atoms: C12_17  and  C13_18 
REMARK    6  A    between atoms: N3_21  and  C16_22 
REMARK    7  A    between atoms: C29_36  and  O2_37 
REMARK    8  A    between atoms: O2_37  and  C30_38 
REMARK    9  A    between atoms: C30_38  and  C31_39 
REMARK   10  A    between atoms: C31_39  and  C32_40 
REMARK   11  A    between atoms: C32_40  and  O3_41 
ROOT
HETATM    1  N1  UNL     1     -28.700   6.623 -17.311  1.00  0.00    -0.309 N 
HETATM    2  C9  UNL     1     -29.208   6.645 -18.584  1.00  0.00     0.129 A 
HETATM    3  C10 UNL     1     -30.003   5.548 -18.803  1.00  0.00     0.091 A 
HETATM    4  N2  UNL     1     -29.960   4.879 -17.646  1.00  0.00    -0.343 N 
ATOM      5  H2  UNL     1     -30.451   4.002 -17.470  1.00  0.00     0.167 HD
HETATM    6  C12 UNL     1     -29.172   5.521 -16.730  1.00  0.00     0.092 A 
ENDROOT
BRANCH   6   7
HETATM    7  C13 UNL     1     -28.961   4.988 -15.397  1.00  0.00     0.057 C 
HETATM    8  C14 UNL     1     -30.181   4.583 -14.625  1.00  0.00     0.032 C 
HETATM    9  C15 UNL     1     -29.677   3.592 -13.559  1.00  0.00     0.118 C 
HETATM   10  N3  UNL     1     -28.280   3.624 -13.398  1.00  0.00    -0.408 N 
HETATM   11  C26 UNL     1     -27.615   4.848 -13.392  1.00  0.00     0.118 C 
HETATM   12  C27 UNL     1     -28.145   5.838 -14.450  1.00  0.00     0.032 C 
BRANCH  10  13
HETATM   13  C16 UNL     1     -27.582   2.418 -13.465  1.00  0.00     0.082 C 
HETATM   14  C17 UNL     1     -26.205   2.454 -12.911  1.00  0.00     0.062 C 
HETATM   15  C18 UNL     1     -25.536   1.090 -12.952  1.00  0.00     0.056 C 
HETATM   16  C19 UNL     1     -25.322   0.652 -14.400  1.00  0.00     0.045 C 
HETATM   17  C20 UNL     1     -24.157   1.211 -12.337  1.00  0.00     0.045 C 
HETATM   18  O1  UNL     1     -26.224   0.110 -12.310  1.00  0.00    -0.375 OA
HETATM   19  C21 UNL     1     -26.811   0.471 -11.124  1.00  0.00     0.131 A 
HETATM   20  C22 UNL     1     -28.093  -0.293 -10.819  1.00  0.00     0.044 A 
HETATM   21  C23 UNL     1     -28.077   1.174 -11.323  1.00  0.00    -0.014 A 
HETATM   22  C24 UNL     1     -28.668   2.119 -10.333  1.00  0.00     0.018 C 
HETATM   23  C25 UNL     1     -28.365   1.327 -12.790  1.00  0.00     0.036 C 
ENDBRANCH  10  13
ENDBRANCH   6   7
BRANCH   1  24
HETATM   24  C8  UNL     1     -27.844   7.609 -16.757  1.00  0.00     0.043 A 
HETATM   25  C7  UNL     1     -26.494   7.435 -16.878  1.00  0.00     0.031 A 
HETATM   26  C6  UNL     1     -25.626   8.380 -16.365  1.00  0.00     0.026 A 
HETATM   27  C5  UNL     1     -26.137   9.501 -15.730  1.00  0.00     0.051 A 
HETATM   28  C29 UNL     1     -27.494   9.703 -15.594  1.00  0.00     0.089 A 
HETATM   29  C28 UNL     1     -28.317   8.729 -16.124  1.00  0.00     0.068 A 
BRANCH  27  30
HETATM   30  C4  UNL     1     -25.188  10.464 -15.207  1.00  0.00    -0.064 C 
HETATM   31  C3  UNL     1     -24.408  11.275 -14.761  1.00  0.00    -0.101 C 
BRANCH  31  32
HETATM   32  C2  UNL     1     -23.480  12.251 -14.234  1.00  0.00     0.090 C 
HETATM   33  C1  UNL     1     -23.278  12.086 -12.744  1.00  0.00     0.018 C 
ENDBRANCH  31  32
ENDBRANCH  27  30
BRANCH  28  34
HETATM   34  O2  UNL     1     -27.959  10.842 -14.950  1.00  0.00    -0.349 OA
BRANCH  34  35
HETATM   35  C30 UNL     1     -28.572  11.823 -15.763  1.00  0.00     0.178 C 
BRANCH  35  36
HETATM   36  C31 UNL     1     -27.543  12.639 -16.521  1.00  0.00     0.053 C 
BRANCH  36  37
HETATM   37  C32 UNL     1     -27.456  12.203 -17.964  1.00  0.00     0.166 C 
BRANCH  37  38
HETATM   38  O3  UNL     1     -28.416  11.255 -18.224  1.00  0.00    -0.401 OA
ATOM     39  H3  UNL     1     -28.192  10.776 -19.014  1.00  0.00     0.209 HD
ENDBRANCH  37  38
ENDBRANCH  36  37
ENDBRANCH  35  36
ENDBRANCH  34  35
ENDBRANCH  28  34
ENDBRANCH   1  24
BRANCH   3  40
HETATM   40  C11 UNL     1     -30.744   5.183 -20.039  1.00  0.00     0.404 C 
HETATM   41  F1  UNL     1     -32.112   5.325 -19.890  1.00  0.00    -0.207 F 
HETATM   42  F2  UNL     1     -30.520   3.852 -20.331  1.00  0.00    -0.207 F 
ENDBRANCH   3  40
TORSDOF 11
ENDMDL
