MODEL 1
REMARK VINA RESULT: -7.793378288      0.000      0.000
REMARK  4 active torsions:
REMARK  status: ('A' for Active; 'I' for Inactive)
REMARK    1  A    between atoms: N1_2  and  O1_3 
REMARK    2  A    between atoms: N1_2  and  N2_5 
REMARK    3  A    between atoms: N2_5  and  O2_6 
REMARK    4  A    between atoms: N2_5  and  C2_8 
ROOT
HETATM    1  C2  UNL     1     -31.025  85.823  34.594  1.00  0.00     0.210 A 
HETATM    2  N3  UNL     1     -31.502  84.816  33.848  1.00  0.00    -0.326 N 
ATOM      3  H3  UNL     1     -31.641  83.861  34.177  1.00  0.00     0.168 HD
HETATM    4  C3  UNL     1     -31.771  85.250  32.600  1.00  0.00     0.079 A 
HETATM    5  C4  UNL     1     -32.258  84.687  31.455  1.00  0.00     0.039 A 
HETATM    6  C5  UNL     1     -32.428  85.407  30.302  1.00  0.00     0.077 A 
HETATM    7  C6  UNL     1     -32.089  86.741  30.322  1.00  0.00     0.246 A 
HETATM    8  O3  UNL     1     -32.219  87.452  29.308  1.00  0.00    -0.268 OA
HETATM    9  N4  UNL     1     -31.602  87.310  31.461  1.00  0.00    -0.307 N 
ATOM     10  H4  UNL     1     -31.354  88.299  31.465  1.00  0.00     0.170 HD
HETATM   11  C7  UNL     1     -31.445  86.580  32.580  1.00  0.00     0.139 A 
HETATM   12  N5  UNL     1     -30.986  86.916  33.818  1.00  0.00    -0.309 N 
HETATM   13  C8  UNL     1     -30.535  88.238  34.218  1.00  0.00     0.161 C 
ENDROOT
BRANCH   1  14
HETATM   14  N2  UNL     1     -30.635  85.762  35.930  1.00  0.00    -0.013 NA
BRANCH  14  15
HETATM   15  N1  UNL     1     -30.120  84.580  36.362  1.00  0.00    -0.195 N 
HETATM   16  C1  UNL     1     -30.854  83.874  37.342  1.00  0.00     0.204 C 
BRANCH  15  17
HETATM   17  O1  UNL     1     -28.818  84.433  36.356  1.00  0.00    -0.275 OA
ATOM     18  H1  UNL     1     -28.400  84.241  35.524  1.00  0.00     0.246 HD
ENDBRANCH  15  17
ENDBRANCH  14  15
BRANCH  14  19
HETATM   19  O2  UNL     1     -31.739  86.022  36.706  1.00  0.00    -0.285 OA
ATOM     20  H2  UNL     1     -32.341  86.525  36.170  1.00  0.00     0.239 HD
ENDBRANCH  14  19
ENDBRANCH   1  14
TORSDOF 4
ENDMDL
MODEL 2
REMARK VINA RESULT: -7.750870029      1.546      5.605
REMARK  4 active torsions:
REMARK  status: ('A' for Active; 'I' for Inactive)
REMARK    1  A    between atoms: N1_2  and  O1_3 
REMARK    2  A    between atoms: N1_2  and  N2_5 
REMARK    3  A    between atoms: N2_5  and  O2_6 
REMARK    4  A    between atoms: N2_5  and  C2_8 
ROOT
HETATM    1  C2  UNL     1     -31.929  85.909  32.448  1.00  0.00     0.210 A 
HETATM    2  N3  UNL     1     -31.647  86.970  33.218  1.00  0.00    -0.326 N 
ATOM      3  H3  UNL     1     -31.820  87.942  32.959  1.00  0.00     0.168 HD
HETATM    4  C3  UNL     1     -31.104  86.567  34.385  1.00  0.00     0.079 A 
HETATM    5  C4  UNL     1     -30.639  87.185  35.510  1.00  0.00     0.039 A 
HETATM    6  C5  UNL     1     -30.126  86.484  36.570  1.00  0.00     0.077 A 
HETATM    7  C6  UNL     1     -30.089  85.112  36.474  1.00  0.00     0.246 A 
HETATM    8  O3  UNL     1     -29.636  84.415  37.402  1.00  0.00    -0.268 OA
HETATM    9  N4  UNL     1     -30.551  84.488  35.354  1.00  0.00    -0.307 N 
ATOM     10  H4  UNL     1     -30.519  83.470  35.294  1.00  0.00     0.170 HD
HETATM   11  C7  UNL     1     -31.050  85.200  34.327  1.00  0.00     0.139 A 
HETATM   12  N5  UNL     1     -31.562  84.811  33.126  1.00  0.00    -0.309 N 
HETATM   13  C8  UNL     1     -31.686  83.438  32.668  1.00  0.00     0.161 C 
ENDROOT
BRANCH   1  14
HETATM   14  N2  UNL     1     -32.496  85.926  31.177  1.00  0.00    -0.013 NA
BRANCH  14  15
HETATM   15  N1  UNL     1     -31.657  85.689  30.132  1.00  0.00    -0.195 N 
HETATM   16  C1  UNL     1     -30.355  86.236  30.211  1.00  0.00     0.204 C 
BRANCH  15  17
HETATM   17  O1  UNL     1     -32.179  85.537  28.941  1.00  0.00    -0.275 OA
ATOM     18  H1  UNL     1     -33.097  85.296  28.889  1.00  0.00     0.246 HD
ENDBRANCH  15  17
ENDBRANCH  14  15
BRANCH  14  19
HETATM   19  O2  UNL     1     -33.045  87.169  30.973  1.00  0.00    -0.285 OA
ATOM     20  H2  UNL     1     -32.717  87.732  31.665  1.00  0.00     0.239 HD
ENDBRANCH  14  19
ENDBRANCH   1  14
TORSDOF 4
ENDMDL
MODEL 3
REMARK VINA RESULT: -7.098097817      1.086      1.086
REMARK  4 active torsions:
REMARK  status: ('A' for Active; 'I' for Inactive)
REMARK    1  A    between atoms: N1_2  and  O1_3 
REMARK    2  A    between atoms: N1_2  and  N2_5 
REMARK    3  A    between atoms: N2_5  and  O2_6 
REMARK    4  A    between atoms: N2_5  and  C2_8 
ROOT
HETATM    1  C2  UNL     1     -31.301  86.069  34.836  1.00  0.00     0.210 A 
HETATM    2  N3  UNL     1     -31.741  84.965  34.216  1.00  0.00    -0.326 N 
ATOM      3  H3  UNL     1     -32.027  84.106  34.687  1.00  0.00     0.168 HD
HETATM    4  C3  UNL     1     -31.750  85.153  32.881  1.00  0.00     0.079 A 
HETATM    5  C4  UNL     1     -32.088  84.402  31.792  1.00  0.00     0.039 A 
HETATM    6  C5  UNL     1     -31.988  84.883  30.512  1.00  0.00     0.077 A 
HETATM    7  C6  UNL     1     -31.527  86.169  30.345  1.00  0.00     0.246 A 
HETATM    8  O3  UNL     1     -31.412  86.668  29.209  1.00  0.00    -0.268 OA
HETATM    9  N4  UNL     1     -31.188  86.925  31.427  1.00  0.00    -0.307 N 
ATOM     10  H4  UNL     1     -30.847  87.877  31.292  1.00  0.00     0.170 HD
HETATM   11  C7  UNL     1     -31.296  86.428  32.673  1.00  0.00     0.139 A 
HETATM   12  N5  UNL     1     -31.023  86.978  33.889  1.00  0.00    -0.309 N 
HETATM   13  C8  UNL     1     -30.519  88.323  34.111  1.00  0.00     0.161 C 
ENDROOT
BRANCH   1  14
HETATM   14  N2  UNL     1     -31.152  86.255  36.208  1.00  0.00    -0.013 NA
BRANCH  14  15
HETATM   15  N1  UNL     1     -29.893  86.126  36.708  1.00  0.00    -0.195 N 
HETATM   16  C1  UNL     1     -29.456  84.820  37.026  1.00  0.00     0.204 C 
BRANCH  15  17
HETATM   17  O1  UNL     1     -29.399  87.118  37.405  1.00  0.00    -0.275 OA
ATOM     18  H1  UNL     1     -28.967  87.819  36.929  1.00  0.00     0.246 HD
ENDBRANCH  15  17
ENDBRANCH  14  15
BRANCH  14  19
HETATM   19  O2  UNL     1     -31.933  85.325  36.850  1.00  0.00    -0.285 OA
ATOM     20  H2  UNL     1     -31.341  84.717  37.277  1.00  0.00     0.239 HD
ENDBRANCH  14  19
ENDBRANCH   1  14
TORSDOF 4
ENDMDL
MODEL 4
REMARK VINA RESULT: -6.486475628      1.857      5.563
REMARK  4 active torsions:
REMARK  status: ('A' for Active; 'I' for Inactive)
REMARK    1  A    between atoms: N1_2  and  O1_3 
REMARK    2  A    between atoms: N1_2  and  N2_5 
REMARK    3  A    between atoms: N2_5  and  O2_6 
REMARK    4  A    between atoms: N2_5  and  C2_8 
ROOT
HETATM    1  C2  UNL     1     -31.867  85.251  32.490  1.00  0.00     0.210 A 
HETATM    2  N3  UNL     1     -31.807  86.496  32.984  1.00  0.00    -0.326 N 
ATOM      3  H3  UNL     1     -32.119  87.334  32.493  1.00  0.00     0.168 HD
HETATM    4  C3  UNL     1     -31.275  86.479  34.223  1.00  0.00     0.079 A 
HETATM    5  C4  UNL     1     -30.983  87.416  35.172  1.00  0.00     0.039 A 
HETATM    6  C5  UNL     1     -30.427  87.084  36.380  1.00  0.00     0.077 A 
HETATM    7  C6  UNL     1     -30.163  85.755  36.621  1.00  0.00     0.246 A 
HETATM    8  O3  UNL     1     -29.658  85.385  37.698  1.00  0.00    -0.268 OA
HETATM    9  N4  UNL     1     -30.451  84.814  35.679  1.00  0.00    -0.307 N 
ATOM     10  H4  UNL     1     -30.251  83.832  35.868  1.00  0.00     0.170 HD
HETATM   11  C7  UNL     1     -30.997  85.167  34.500  1.00  0.00     0.139 A 
HETATM   12  N5  UNL     1     -31.368  84.423  33.420  1.00  0.00    -0.309 N 
HETATM   13  C8  UNL     1     -31.242  82.980  33.308  1.00  0.00     0.161 C 
ENDROOT
BRANCH   1  14
HETATM   14  N2  UNL     1     -32.353  84.869  31.242  1.00  0.00    -0.013 NA
BRANCH  14  15
HETATM   15  N1  UNL     1     -31.902  85.574  30.169  1.00  0.00    -0.195 N 
HETATM   16  C1  UNL     1     -32.512  85.312  28.921  1.00  0.00     0.204 C 
BRANCH  15  17
HETATM   17  O1  UNL     1     -30.651  85.959  30.164  1.00  0.00    -0.275 OA
ATOM     18  H1  UNL     1     -30.223  86.078  31.004  1.00  0.00     0.246 HD
ENDBRANCH  15  17
ENDBRANCH  14  15
BRANCH  14  19
HETATM   19  O2  UNL     1     -33.721  85.004  31.260  1.00  0.00    -0.285 OA
ATOM     20  H2  UNL     1     -34.050  84.389  31.905  1.00  0.00     0.239 HD
ENDBRANCH  14  19
ENDBRANCH   1  14
TORSDOF 4
ENDMDL
MODEL 5
REMARK VINA RESULT: -6.411803952      1.576      5.395
REMARK  4 active torsions:
REMARK  status: ('A' for Active; 'I' for Inactive)
REMARK    1  A    between atoms: N1_2  and  O1_3 
REMARK    2  A    between atoms: N1_2  and  N2_5 
REMARK    3  A    between atoms: N2_5  and  O2_6 
REMARK    4  A    between atoms: N2_5  and  C2_8 
ROOT
HETATM    1  C2  UNL     1     -31.014  86.067  31.894  1.00  0.00     0.210 A 
HETATM    2  N3  UNL     1     -30.755  84.755  31.986  1.00  0.00    -0.326 N 
ATOM      3  H3  UNL     1     -30.541  84.145  31.196  1.00  0.00     0.168 HD
HETATM    4  C3  UNL     1     -30.819  84.358  33.273  1.00  0.00     0.079 A 
HETATM    5  C4  UNL     1     -30.652  83.177  33.940  1.00  0.00     0.039 A 
HETATM    6  C5  UNL     1     -30.785  83.081  35.300  1.00  0.00     0.077 A 
HETATM    7  C6  UNL     1     -31.099  84.225  35.997  1.00  0.00     0.246 A 
HETATM    8  O3  UNL     1     -31.235  84.207  37.235  1.00  0.00    -0.268 OA
HETATM    9  N4  UNL     1     -31.267  85.407  35.339  1.00  0.00    -0.307 N 
ATOM     10  H4  UNL     1     -31.500  86.249  35.865  1.00  0.00     0.170 HD
HETATM   11  C7  UNL     1     -31.131  85.474  34.002  1.00  0.00     0.139 A 
HETATM   12  N5  UNL     1     -31.248  86.519  33.135  1.00  0.00    -0.309 N 
HETATM   13  C8  UNL     1     -31.570  87.887  33.505  1.00  0.00     0.161 C 
ENDROOT
BRANCH   1  14
HETATM   14  N2  UNL     1     -31.041  86.835  30.733  1.00  0.00    -0.013 NA
BRANCH  14  15
HETATM   15  N1  UNL     1     -32.219  86.872  30.053  1.00  0.00    -0.195 N 
HETATM   16  C1  UNL     1     -32.677  85.660  29.487  1.00  0.00     0.204 C 
BRANCH  15  17
HETATM   17  O1  UNL     1     -32.552  87.986  29.452  1.00  0.00    -0.275 OA
ATOM     18  H1  UNL     1     -33.474  88.133  29.275  1.00  0.00     0.246 HD
ENDBRANCH  15  17
ENDBRANCH  14  15
BRANCH  14  19
HETATM   19  O2  UNL     1     -30.099  86.331  29.869  1.00  0.00    -0.285 OA
ATOM     20  H2  UNL     1     -29.570  85.718  30.366  1.00  0.00     0.239 HD
ENDBRANCH  14  19
ENDBRANCH   1  14
TORSDOF 4
ENDMDL
