MODEL 1
REMARK VINA RESULT: -8.074722245      0.000      0.000
REMARK  7 active torsions:
REMARK  status: ('A' for Active; 'I' for Inactive)
REMARK       I    between atoms: C2_2  and  N1_4 
REMARK    1  A    between atoms: N1_4  and  C3_6 
REMARK    2  A    between atoms: C3_6  and  C4_7 
REMARK    3  A    between atoms: C4_7  and  C5_8 
REMARK    4  A    between atoms: C10_16  and  S1_17 
REMARK    5  A    between atoms: S1_17  and  C11_20 
REMARK    6  A    between atoms: C13_22  and  O4_23 
REMARK    7  A    between atoms: C14_27  and  C15_28 
ROOT
HETATM    1  C5  UNL     1     -96.851 -18.796  45.021  1.00  0.00    -0.029 A 
HETATM    2  C6  UNL     1     -96.699 -18.482  43.688  1.00  0.00     0.096 A 
HETATM    3  N2  UNL     1     -97.957 -18.455  43.167  1.00  0.00    -0.365 N 
ATOM      4  H2  UNL     1     -98.194 -18.254  42.196  1.00  0.00     0.165 HD
HETATM    5  C7  UNL     1     -98.829 -18.734  44.137  1.00  0.00     0.044 A 
HETATM    6  C8  UNL     1    -100.222 -18.880  44.131  1.00  0.00     0.051 A 
HETATM    7  C9  UNL     1    -100.922 -19.235  45.263  1.00  0.00     0.035 A 
HETATM    8 BR1  UNL     1    -102.795 -19.431  45.161  1.00  0.00    -0.049 Br
HETATM    9  C10 UNL     1    -100.238 -19.450  46.429  1.00  0.00     0.082 A 
HETATM   10  C18 UNL     1     -98.843 -19.308  46.480  1.00  0.00     0.039 A 
HETATM   11  C19 UNL     1     -98.181 -18.958  45.328  1.00  0.00    -0.000 A 
ENDROOT
BRANCH   9  12
HETATM   12  S1  UNL     1    -100.974 -20.143  47.840  1.00  0.00     0.210 S 
HETATM   13  O2  UNL     1     -99.723 -20.770  48.617  1.00  0.00    -0.217 OA
HETATM   14  O3  UNL     1    -101.685 -21.342  47.423  1.00  0.00    -0.217 OA
BRANCH  12  15
HETATM   15  C11 UNL     1    -101.625 -19.079  48.999  1.00  0.00     0.095 A 
HETATM   16  C12 UNL     1    -100.894 -18.177  49.732  1.00  0.00     0.082 A 
HETATM   17  C13 UNL     1    -101.683 -17.659  50.710  1.00  0.00     0.141 A 
HETATM   18  N3  UNL     1    -102.884 -18.239  50.573  1.00  0.00    -0.336 N 
HETATM   19  C14 UNL     1    -102.933 -19.109  49.559  1.00  0.00     0.058 A 
ATOM     20  H3  UNL     1    -103.680 -18.037  51.179  1.00  0.00     0.168 HD
BRANCH  17  21
HETATM   21  O4  UNL     1    -101.345 -16.717  51.677  1.00  0.00    -0.346 OA
ATOM     22  H4  UNL     1    -101.114 -16.866  52.586  1.00  0.00     0.219 HD
ENDBRANCH  17  21
BRANCH  19  23
HETATM   23  C15 UNL     1    -104.095 -19.778  48.942  1.00  0.00    -0.059 C 
HETATM   24  C16 UNL     1    -105.020 -18.889  48.183  1.00  0.00     0.045 C 
HETATM   25  C17 UNL     1    -104.577 -21.053  49.497  1.00  0.00     0.045 C 
ENDBRANCH  19  23
ENDBRANCH  12  15
ENDBRANCH   9  12
BRANCH   1  26
HETATM   26  C4  UNL     1     -95.759 -18.904  46.061  1.00  0.00     0.060 C 
BRANCH  26  27
HETATM   27  C3  UNL     1     -95.397 -17.454  46.420  1.00  0.00     0.127 C 
BRANCH  27  28
HETATM   28  N1  UNL     1     -94.208 -17.079  45.691  1.00  0.00    -0.361 N 
HETATM   29  C2  UNL     1     -93.582 -15.830  45.889  1.00  0.00     0.213 C 
HETATM   30  C1  UNL     1     -92.349 -15.495  45.100  1.00  0.00     0.117 C 
HETATM   31  O1  UNL     1     -94.006 -14.968  46.698  1.00  0.00    -0.274 OA
ATOM     32  H1  UNL     1     -93.810 -17.734  45.017  1.00  0.00     0.162 HD
ENDBRANCH  27  28
ENDBRANCH  26  27
ENDBRANCH   1  26
TORSDOF 7
ENDMDL
MODEL 2
REMARK VINA RESULT: -8.045252524      3.224      6.230
REMARK  7 active torsions:
REMARK  status: ('A' for Active; 'I' for Inactive)
REMARK       I    between atoms: C2_2  and  N1_4 
REMARK    1  A    between atoms: N1_4  and  C3_6 
REMARK    2  A    between atoms: C3_6  and  C4_7 
REMARK    3  A    between atoms: C4_7  and  C5_8 
REMARK    4  A    between atoms: C10_16  and  S1_17 
REMARK    5  A    between atoms: S1_17  and  C11_20 
REMARK    6  A    between atoms: C13_22  and  O4_23 
REMARK    7  A    between atoms: C14_27  and  C15_28 
ROOT
HETATM    1  C5  UNL     1    -101.518 -19.436  45.166  1.00  0.00    -0.029 A 
HETATM    2  C6  UNL     1    -101.373 -19.309  43.802  1.00  0.00     0.096 A 
HETATM    3  N2  UNL     1    -100.065 -18.993  43.595  1.00  0.00    -0.365 N 
ATOM      4  H2  UNL     1     -99.630 -18.828  42.688  1.00  0.00     0.165 HD
HETATM    5  C7  UNL     1     -99.446 -18.935  44.775  1.00  0.00     0.044 A 
HETATM    6  C8  UNL     1     -98.130 -18.610  45.128  1.00  0.00     0.051 A 
HETATM    7  C9  UNL     1     -97.720 -18.558  46.442  1.00  0.00     0.035 A 
HETATM    8 BR1  UNL     1     -95.935 -18.089  46.829  1.00  0.00    -0.049 Br
HETATM    9  C10 UNL     1     -98.623 -18.835  47.433  1.00  0.00     0.082 A 
HETATM   10  C18 UNL     1     -99.949 -19.172  47.122  1.00  0.00     0.039 A 
HETATM   11  C19 UNL     1    -100.320 -19.207  45.800  1.00  0.00    -0.000 A 
ENDROOT
BRANCH   9  12
HETATM   12  S1  UNL     1     -98.293 -18.555  49.114  1.00  0.00     0.210 S 
HETATM   13  O2  UNL     1     -97.572 -17.125  49.097  1.00  0.00    -0.217 OA
HETATM   14  O3  UNL     1     -97.194 -19.427  49.499  1.00  0.00    -0.217 OA
BRANCH  12  15
HETATM   15  C11 UNL     1     -99.618 -18.280  50.147  1.00  0.00     0.095 A 
HETATM   16  C12 UNL     1    -100.088 -17.041  50.507  1.00  0.00     0.082 A 
HETATM   17  C13 UNL     1    -100.996 -17.185  51.507  1.00  0.00     0.141 A 
HETATM   18  N3  UNL     1    -101.081 -18.500  51.753  1.00  0.00    -0.336 N 
HETATM   19  C14 UNL     1    -100.281 -19.232  50.971  1.00  0.00     0.058 A 
ATOM     20  H3  UNL     1    -101.693 -18.902  52.464  1.00  0.00     0.168 HD
BRANCH  17  21
HETATM   21  O4  UNL     1    -101.712 -16.190  52.166  1.00  0.00    -0.346 OA
ATOM     22  H4  UNL     1    -102.467 -16.290  52.734  1.00  0.00     0.219 HD
ENDBRANCH  17  21
BRANCH  19  23
HETATM   23  C15 UNL     1    -100.235 -20.693  50.770  1.00  0.00    -0.059 C 
HETATM   24  C16 UNL     1    -101.360 -21.268  49.979  1.00  0.00     0.045 C 
HETATM   25  C17 UNL     1     -99.486 -21.534  51.718  1.00  0.00     0.045 C 
ENDBRANCH  19  23
ENDBRANCH  12  15
ENDBRANCH   9  12
BRANCH   1  26
HETATM   26  C4  UNL     1    -102.772 -19.826  45.916  1.00  0.00     0.060 C 
BRANCH  26  27
HETATM   27  C3  UNL     1    -102.523 -21.262  46.403  1.00  0.00     0.127 C 
BRANCH  27  28
HETATM   28  N1  UNL     1    -103.690 -21.717  47.122  1.00  0.00    -0.361 N 
HETATM   29  C2  UNL     1    -104.070 -23.075  47.132  1.00  0.00     0.213 C 
HETATM   30  C1  UNL     1    -105.296 -23.488  47.894  1.00  0.00     0.117 C 
HETATM   31  O1  UNL     1    -103.433 -23.973  46.527  1.00  0.00    -0.274 OA
ATOM     32  H1  UNL     1    -104.254 -21.039  47.635  1.00  0.00     0.162 HD
ENDBRANCH  27  28
ENDBRANCH  26  27
ENDBRANCH   1  26
TORSDOF 7
ENDMDL
MODEL 3
REMARK VINA RESULT: -7.977690261      1.507      2.012
REMARK  7 active torsions:
REMARK  status: ('A' for Active; 'I' for Inactive)
REMARK       I    between atoms: C2_2  and  N1_4 
REMARK    1  A    between atoms: N1_4  and  C3_6 
REMARK    2  A    between atoms: C3_6  and  C4_7 
REMARK    3  A    between atoms: C4_7  and  C5_8 
REMARK    4  A    between atoms: C10_16  and  S1_17 
REMARK    5  A    between atoms: S1_17  and  C11_20 
REMARK    6  A    between atoms: C13_22  and  O4_23 
REMARK    7  A    between atoms: C14_27  and  C15_28 
ROOT
HETATM    1  C5  UNL     1     -97.206 -18.846  45.204  1.00  0.00    -0.029 A 
HETATM    2  C6  UNL     1     -97.026 -18.492  43.885  1.00  0.00     0.096 A 
HETATM    3  N2  UNL     1     -98.273 -18.442  43.341  1.00  0.00    -0.365 N 
ATOM      4  H2  UNL     1     -98.490 -18.210  42.373  1.00  0.00     0.165 HD
HETATM    5  C7  UNL     1     -99.165 -18.747  44.285  1.00  0.00     0.044 A 
HETATM    6  C8  UNL     1    -100.559 -18.886  44.247  1.00  0.00     0.051 A 
HETATM    7  C9  UNL     1    -101.282 -19.272  45.354  1.00  0.00     0.035 A 
HETATM    8 BR1  UNL     1    -103.153 -19.455  45.209  1.00  0.00    -0.049 Br
HETATM    9  C10 UNL     1    -100.622 -19.526  46.526  1.00  0.00     0.082 A 
HETATM   10  C18 UNL     1     -99.228 -19.393  46.608  1.00  0.00     0.039 A 
HETATM   11  C19 UNL     1     -98.542 -19.011  45.481  1.00  0.00    -0.000 A 
ENDROOT
BRANCH   9  12
HETATM   12  S1  UNL     1    -101.389 -20.259  47.899  1.00  0.00     0.210 S 
HETATM   13  O2  UNL     1    -100.162 -20.957  48.656  1.00  0.00    -0.217 OA
HETATM   14  O3  UNL     1    -102.131 -21.418  47.425  1.00  0.00    -0.217 OA
BRANCH  12  15
HETATM   15  C11 UNL     1    -102.018 -19.229  49.101  1.00  0.00     0.095 A 
HETATM   16  C12 UNL     1    -101.272 -18.354  49.850  1.00  0.00     0.082 A 
HETATM   17  C13 UNL     1    -102.043 -17.863  50.855  1.00  0.00     0.141 A 
HETATM   18  N3  UNL     1    -103.250 -18.433  50.718  1.00  0.00    -0.336 N 
HETATM   19  C14 UNL     1    -103.317 -19.272  49.678  1.00  0.00     0.058 A 
ATOM     20  H3  UNL     1    -104.035 -18.247  51.342  1.00  0.00     0.168 HD
BRANCH  17  21
HETATM   21  O4  UNL     1    -101.687 -16.952  51.845  1.00  0.00    -0.346 OA
ATOM     22  H4  UNL     1    -101.097 -16.211  51.775  1.00  0.00     0.219 HD
ENDBRANCH  17  21
BRANCH  19  23
HETATM   23  C15 UNL     1    -104.491 -19.917  49.060  1.00  0.00    -0.059 C 
HETATM   24  C16 UNL     1    -105.380 -19.014  48.274  1.00  0.00     0.045 C 
HETATM   25  C17 UNL     1    -105.017 -21.168  49.630  1.00  0.00     0.045 C 
ENDBRANCH  19  23
ENDBRANCH  12  15
ENDBRANCH   9  12
BRANCH   1  26
HETATM   26  C4  UNL     1     -96.134 -18.992  46.262  1.00  0.00     0.060 C 
BRANCH  26  27
HETATM   27  C3  UNL     1     -95.835 -17.560  46.736  1.00  0.00     0.127 C 
BRANCH  27  28
HETATM   28  N1  UNL     1     -96.772 -17.213  47.779  1.00  0.00    -0.361 N 
HETATM   29  C2  UNL     1     -96.535 -17.550  49.128  1.00  0.00     0.213 C 
HETATM   30  C1  UNL     1     -97.547 -17.166  50.168  1.00  0.00     0.117 C 
HETATM   31  O1  UNL     1     -95.511 -18.167  49.514  1.00  0.00    -0.274 OA
ATOM     32  H1  UNL     1     -97.626 -16.711  47.534  1.00  0.00     0.162 HD
ENDBRANCH  27  28
ENDBRANCH  26  27
ENDBRANCH   1  26
TORSDOF 7
ENDMDL
MODEL 4
REMARK VINA RESULT: -7.942766010      2.917      4.223
REMARK  7 active torsions:
REMARK  status: ('A' for Active; 'I' for Inactive)
REMARK       I    between atoms: C2_2  and  N1_4 
REMARK    1  A    between atoms: N1_4  and  C3_6 
REMARK    2  A    between atoms: C3_6  and  C4_7 
REMARK    3  A    between atoms: C4_7  and  C5_8 
REMARK    4  A    between atoms: C10_16  and  S1_17 
REMARK    5  A    between atoms: S1_17  and  C11_20 
REMARK    6  A    between atoms: C13_22  and  O4_23 
REMARK    7  A    between atoms: C14_27  and  C15_28 
ROOT
HETATM    1  C5  UNL     1     -97.967 -19.012  45.501  1.00  0.00    -0.029 A 
HETATM    2  C6  UNL     1     -96.702 -19.141  46.030  1.00  0.00     0.096 A 
HETATM    3  N2  UNL     1     -96.867 -19.734  47.245  1.00  0.00    -0.365 N 
ATOM      4  H2  UNL     1     -96.119 -19.969  47.897  1.00  0.00     0.165 HD
HETATM    5  C7  UNL     1     -98.167 -19.958  47.440  1.00  0.00     0.044 A 
HETATM    6  C8  UNL     1     -98.873 -20.494  48.525  1.00  0.00     0.051 A 
HETATM    7  C9  UNL     1    -100.248 -20.578  48.529  1.00  0.00     0.035 A 
HETATM    8 BR1  UNL     1    -101.119 -21.292  50.041  1.00  0.00    -0.049 Br
HETATM    9  C10 UNL     1    -100.946 -20.129  47.440  1.00  0.00     0.082 A 
HETATM   10  C18 UNL     1    -100.277 -19.592  46.330  1.00  0.00     0.039 A 
HETATM   11  C19 UNL     1     -98.905 -19.520  46.367  1.00  0.00    -0.000 A 
ENDROOT
BRANCH   9  12
HETATM   12  S1  UNL     1    -102.672 -19.950  47.436  1.00  0.00     0.210 S 
HETATM   13  O2  UNL     1    -102.966 -19.414  45.956  1.00  0.00    -0.217 OA
HETATM   14  O3  UNL     1    -102.996 -18.778  48.236  1.00  0.00    -0.217 OA
BRANCH  12  15
HETATM   15  C11 UNL     1    -103.617 -21.365  47.503  1.00  0.00     0.095 A 
HETATM   16  C12 UNL     1    -103.377 -22.502  46.773  1.00  0.00     0.082 A 
HETATM   17  C13 UNL     1    -104.439 -23.341  46.897  1.00  0.00     0.141 A 
HETATM   18  N3  UNL     1    -105.318 -22.720  47.698  1.00  0.00    -0.336 N 
HETATM   19  C14 UNL     1    -104.895 -21.520  48.110  1.00  0.00     0.058 A 
ATOM     20  H3  UNL     1    -106.217 -23.121  47.966  1.00  0.00     0.168 HD
BRANCH  17  21
HETATM   21  O4  UNL     1    -104.614 -24.596  46.324  1.00  0.00    -0.346 OA
ATOM     22  H4  UNL     1    -105.339 -25.199  46.443  1.00  0.00     0.219 HD
ENDBRANCH  17  21
BRANCH  19  23
HETATM   23  C15 UNL     1    -105.444 -20.630  49.150  1.00  0.00    -0.059 C 
HETATM   24  C16 UNL     1    -106.258 -19.484  48.652  1.00  0.00     0.045 C 
HETATM   25  C17 UNL     1    -104.787 -20.558  50.466  1.00  0.00     0.045 C 
ENDBRANCH  19  23
ENDBRANCH  12  15
ENDBRANCH   9  12
BRANCH   1  26
HETATM   26  C4  UNL     1     -98.333 -18.455  44.144  1.00  0.00     0.060 C 
BRANCH  26  27
HETATM   27  C3  UNL     1     -97.318 -19.069  43.166  1.00  0.00     0.127 C 
BRANCH  27  28
HETATM   28  N1  UNL     1     -96.563 -18.002  42.551  1.00  0.00    -0.361 N 
HETATM   29  C2  UNL     1     -95.161 -17.921  42.675  1.00  0.00     0.213 C 
HETATM   30  C1  UNL     1     -94.430 -16.787  42.016  1.00  0.00     0.117 C 
HETATM   31  O1  UNL     1     -94.477 -18.756  43.317  1.00  0.00    -0.274 OA
ATOM     32  H1  UNL     1     -97.057 -17.288  42.014  1.00  0.00     0.162 HD
ENDBRANCH  27  28
ENDBRANCH  26  27
ENDBRANCH   1  26
TORSDOF 7
ENDMDL
MODEL 5
REMARK VINA RESULT: -7.902262150      3.191      5.084
REMARK  7 active torsions:
REMARK  status: ('A' for Active; 'I' for Inactive)
REMARK       I    between atoms: C2_2  and  N1_4 
REMARK    1  A    between atoms: N1_4  and  C3_6 
REMARK    2  A    between atoms: C3_6  and  C4_7 
REMARK    3  A    between atoms: C4_7  and  C5_8 
REMARK    4  A    between atoms: C10_16  and  S1_17 
REMARK    5  A    between atoms: S1_17  and  C11_20 
REMARK    6  A    between atoms: C13_22  and  O4_23 
REMARK    7  A    between atoms: C14_27  and  C15_28 
ROOT
HETATM    1  C5  UNL     1     -99.749 -19.319  46.637  1.00  0.00    -0.029 A 
HETATM    2  C6  UNL     1     -98.610 -18.985  47.336  1.00  0.00     0.096 A 
HETATM    3  N2  UNL     1     -98.977 -18.945  48.646  1.00  0.00    -0.365 N 
ATOM      4  H2  UNL     1     -98.363 -18.723  49.429  1.00  0.00     0.165 HD
HETATM    5  C7  UNL     1    -100.274 -19.244  48.738  1.00  0.00     0.044 A 
HETATM    6  C8  UNL     1    -101.148 -19.298  49.831  1.00  0.00     0.051 A 
HETATM    7  C9  UNL     1    -102.489 -19.579  49.678  1.00  0.00     0.035 A 
HETATM    8 BR1  UNL     1    -103.599 -19.609  51.202  1.00  0.00    -0.049 Br
HETATM    9  C10 UNL     1    -102.981 -19.816  48.423  1.00  0.00     0.082 A 
HETATM   10  C18 UNL     1    -102.137 -19.778  47.302  1.00  0.00     0.039 A 
HETATM   11  C19 UNL     1    -100.808 -19.489  47.495  1.00  0.00    -0.000 A 
ENDROOT
BRANCH   9  12
HETATM   12  S1  UNL     1    -104.679 -19.926  48.082  1.00  0.00     0.210 S 
HETATM   13  O2  UNL     1    -104.711 -20.013  46.483  1.00  0.00    -0.217 OA
HETATM   14  O3  UNL     1    -105.261 -18.613  48.311  1.00  0.00    -0.217 OA
BRANCH  12  15
HETATM   15  C11 UNL     1    -105.489 -21.353  48.538  1.00  0.00     0.095 A 
HETATM   16  C12 UNL     1    -106.592 -21.400  49.354  1.00  0.00     0.082 A 
HETATM   17  C13 UNL     1    -106.839 -22.693  49.691  1.00  0.00     0.141 A 
HETATM   18  N3  UNL     1    -105.895 -23.427  49.084  1.00  0.00    -0.336 N 
HETATM   19  C14 UNL     1    -105.041 -22.691  48.365  1.00  0.00     0.058 A 
ATOM     20  H3  UNL     1    -105.835 -24.443  49.163  1.00  0.00     0.168 HD
BRANCH  17  21
HETATM   21  O4  UNL     1    -107.856 -23.190  50.500  1.00  0.00    -0.346 OA
ATOM     22  H4  UNL     1    -108.441 -23.918  50.325  1.00  0.00     0.219 HD
ENDBRANCH  17  21
BRANCH  19  23
HETATM   23  C15 UNL     1    -104.018 -23.115  47.390  1.00  0.00    -0.059 C 
HETATM   24  C16 UNL     1    -104.531 -23.854  46.201  1.00  0.00     0.045 C 
HETATM   25  C17 UNL     1    -102.624 -23.289  47.829  1.00  0.00     0.045 C 
ENDBRANCH  19  23
ENDBRANCH  12  15
ENDBRANCH   9  12
BRANCH   1  26
HETATM   26  C4  UNL     1     -99.869 -19.539  45.146  1.00  0.00     0.060 C 
BRANCH  26  27
HETATM   27  C3  UNL     1     -99.234 -18.297  44.500  1.00  0.00     0.127 C 
BRANCH  27  28
HETATM   28  N1  UNL     1     -98.231 -18.728  43.554  1.00  0.00    -0.361 N 
HETATM   29  C2  UNL     1     -96.858 -18.715  43.876  1.00  0.00     0.213 C 
HETATM   30  C1  UNL     1     -95.860 -19.172  42.851  1.00  0.00     0.117 C 
HETATM   31  O1  UNL     1     -96.415 -18.333  44.987  1.00  0.00    -0.274 OA
ATOM     32  H1  UNL     1     -98.523 -19.051  42.631  1.00  0.00     0.162 HD
ENDBRANCH  27  28
ENDBRANCH  26  27
ENDBRANCH   1  26
TORSDOF 7
ENDMDL
