MODEL 1
REMARK VINA RESULT: -8.477399735      0.000      0.000
REMARK  11 active torsions:
REMARK  status: ('A' for Active; 'I' for Inactive)
REMARK    1  A    between atoms: O1_2  and  C2_3 
REMARK    2  A    between atoms: C10_13  and  N2_14 
REMARK    3  A    between atoms: N2_14  and  C11_16 
REMARK    4  A    between atoms: C12_19  and  N4_20 
REMARK    5  A    between atoms: N4_20  and  C13_22 
REMARK    6  A    between atoms: C16_26  and  N5_27 
REMARK    7  A    between atoms: N5_27  and  C17_29 
REMARK    8  A    between atoms: C17_29  and  C18_30 
REMARK    9  A    between atoms: C18_30  and  C19_31 
REMARK   10  A    between atoms: C19_31  and  C20_32 
REMARK   11  A    between atoms: C20_32  and  N6_34 
ROOT
HETATM    1  C11 UNL     1     -90.142 -17.361  10.319  1.00  0.00     0.131 C 
HETATM    2  N3  UNL     1     -89.351 -16.512  11.003  1.00  0.00    -0.324 N 
ATOM      3  H3  UNL     1     -88.472 -16.274  10.543  1.00  0.00     0.169 HD
HETATM    4  C12 UNL     1     -89.545 -15.931  12.199  1.00  0.00     0.149 C 
HETATM    5  C16 UNL     1     -90.505 -16.317  13.148  1.00  0.00     0.145 C 
HETATM    6  N7  UNL     1     -91.673 -16.946  12.926  1.00  0.00    -0.348 N 
ATOM      7  H7  UNL     1     -92.341 -16.913  13.697  1.00  0.00     0.167 HD
HETATM    8  C22 UNL     1     -92.093 -17.623  11.815  1.00  0.00     0.117 C 
HETATM    9  C23 UNL     1     -91.460 -17.748  10.600  1.00  0.00     0.093 C 
HETATM   10 CL2  UNL     1     -92.313 -18.440   9.241  1.00  0.00    -0.079 Cl
ENDROOT
BRANCH   1  11
HETATM   11  N2  UNL     1     -89.685 -17.926   9.262  1.00  0.00    -0.338 N 
ATOM     12  H2  UNL     1     -89.879 -18.916   9.117  1.00  0.00     0.167 HD
BRANCH  11  13
HETATM   13  C10 UNL     1     -88.921 -17.235   8.283  1.00  0.00     0.074 A 
HETATM   14  C2  UNL     1     -89.542 -16.704   7.163  1.00  0.00     0.097 A 
HETATM   15  C3  UNL     1     -88.831 -16.029   6.195  1.00  0.00     0.069 A 
HETATM   16  C4  UNL     1     -87.446 -15.858   6.317  1.00  0.00     0.045 A 
HETATM   17  N1  UNL     1     -86.514 -15.261   5.554  1.00  0.00    -0.365 N 
HETATM   18  C7  UNL     1     -86.830 -16.399   7.451  1.00  0.00     0.000 A 
HETATM   19  C5  UNL     1     -85.314 -15.399   6.159  1.00  0.00     0.089 A 
ATOM     20  H1  UNL     1     -86.684 -14.785   4.668  1.00  0.00     0.165 HD
HETATM   21  C6  UNL     1     -85.483 -16.101   7.340  1.00  0.00     0.031 A 
HETATM   22  C8  UNL     1     -87.541 -17.074   8.421  1.00  0.00    -0.020 A 
HETATM   23  C9  UNL     1     -86.874 -17.637   9.606  1.00  0.00     0.052 C 
BRANCH  14  24
HETATM   24  O1  UNL     1     -90.910 -16.859   7.018  1.00  0.00    -0.354 OA
HETATM   25  C1  UNL     1     -91.726 -15.776   6.674  1.00  0.00     0.210 C 
ENDBRANCH  14  24
ENDBRANCH  11  13
ENDBRANCH   1  11
BRANCH   4  26
HETATM   26  N4  UNL     1     -88.854 -14.945  12.585  1.00  0.00    -0.351 N 
ATOM     27  H4  UNL     1     -89.382 -14.083  12.719  1.00  0.00     0.163 HD
BRANCH  26  28
HETATM   28  C13 UNL     1     -87.464 -14.837  12.865  1.00  0.00     0.102 C 
HETATM   29  C14 UNL     1     -86.712 -14.229  11.660  1.00  0.00     0.056 C 
HETATM   30  C15 UNL     1     -87.131 -13.963  14.048  1.00  0.00     0.056 C 
HETATM   31 CL1  UNL     1     -86.742 -16.455  13.070  1.00  0.00    -0.096 Cl
ENDBRANCH  26  28
ENDBRANCH   4  26
BRANCH   5  32
HETATM   32  N5  UNL     1     -90.269 -16.057  14.369  1.00  0.00    -0.373 N 
ATOM     33  H5  UNL     1     -90.496 -15.119  14.700  1.00  0.00     0.161 HD
BRANCH  32  34
HETATM   34  C17 UNL     1     -89.710 -16.973  15.319  1.00  0.00     0.121 C 
BRANCH  34  35
HETATM   35  C18 UNL     1     -88.666 -16.321  16.201  1.00  0.00     0.022 C 
BRANCH  35  36
HETATM   36  C19 UNL     1     -88.361 -17.144  17.417  1.00  0.00     0.034 C 
BRANCH  36  37
HETATM   37  C20 UNL     1     -88.110 -16.332  18.654  1.00  0.00     0.179 C 
HETATM   38  C21 UNL     1     -87.412 -15.057  18.224  1.00  0.00     0.039 C 
BRANCH  37  39
HETATM   39  N6  UNL     1     -89.291 -16.084  19.424  1.00  0.00    -0.075 N 
ATOM     40  H63 UNL     1     -90.111 -16.483  18.966  1.00  0.00     0.274 HD
ATOM     41  H62 UNL     1     -89.288 -16.639  20.280  1.00  0.00     0.274 HD
ATOM     42  H61 UNL     1     -89.440 -15.097  19.633  1.00  0.00     0.274 HD
ENDBRANCH  37  39
ENDBRANCH  36  37
ENDBRANCH  35  36
ENDBRANCH  34  35
ENDBRANCH  32  34
ENDBRANCH   5  32
TORSDOF 11
ENDMDL
MODEL 2
REMARK VINA RESULT: -8.343305524      1.924      7.513
REMARK  11 active torsions:
REMARK  status: ('A' for Active; 'I' for Inactive)
REMARK    1  A    between atoms: O1_2  and  C2_3 
REMARK    2  A    between atoms: C10_13  and  N2_14 
REMARK    3  A    between atoms: N2_14  and  C11_16 
REMARK    4  A    between atoms: C12_19  and  N4_20 
REMARK    5  A    between atoms: N4_20  and  C13_22 
REMARK    6  A    between atoms: C16_26  and  N5_27 
REMARK    7  A    between atoms: N5_27  and  C17_29 
REMARK    8  A    between atoms: C17_29  and  C18_30 
REMARK    9  A    between atoms: C18_30  and  C19_31 
REMARK   10  A    between atoms: C19_31  and  C20_32 
REMARK   11  A    between atoms: C20_32  and  N6_34 
ROOT
HETATM    1  C11 UNL     1     -90.825 -16.269  11.277  1.00  0.00     0.131 C 
HETATM    2  N3  UNL     1     -89.574 -16.598  10.903  1.00  0.00    -0.324 N 
ATOM      3  H3  UNL     1     -88.858 -16.463  11.617  1.00  0.00     0.169 HD
HETATM    4  C12 UNL     1     -89.126 -17.079   9.730  1.00  0.00     0.149 C 
HETATM    5  C16 UNL     1     -89.837 -17.071   8.520  1.00  0.00     0.145 C 
HETATM    6  N7  UNL     1     -91.171 -17.060   8.351  1.00  0.00    -0.348 N 
ATOM      7  H7  UNL     1     -91.495 -17.311   7.416  1.00  0.00     0.167 HD
HETATM    8  C22 UNL     1     -92.155 -16.761   9.252  1.00  0.00     0.117 C 
HETATM    9  C23 UNL     1     -92.029 -16.489  10.595  1.00  0.00     0.093 C 
HETATM   10 CL2  UNL     1     -93.455 -16.396  11.600  1.00  0.00    -0.079 Cl
ENDROOT
BRANCH   1  11
HETATM   11  N2  UNL     1     -91.004 -15.670  12.398  1.00  0.00    -0.338 N 
ATOM     12  H2  UNL     1     -91.917 -15.259  12.589  1.00  0.00     0.167 HD
BRANCH  11  13
HETATM   13  C10 UNL     1     -89.988 -15.553  13.385  1.00  0.00     0.074 A 
HETATM   14  C2  UNL     1     -88.943 -14.661  13.205  1.00  0.00     0.097 A 
HETATM   15  C3  UNL     1     -87.942 -14.523  14.142  1.00  0.00     0.069 A 
HETATM   16  C4  UNL     1     -87.954 -15.289  15.315  1.00  0.00     0.045 A 
HETATM   17  N1  UNL     1     -87.136 -15.368  16.379  1.00  0.00    -0.365 N 
HETATM   18  C7  UNL     1     -89.014 -16.186  15.486  1.00  0.00     0.000 A 
HETATM   19  C5  UNL     1     -87.634 -16.289  17.233  1.00  0.00     0.089 A 
ATOM     20  H1  UNL     1     -86.284 -14.825  16.518  1.00  0.00     0.165 HD
HETATM   21  C6  UNL     1     -88.800 -16.812  16.701  1.00  0.00     0.031 A 
HETATM   22  C8  UNL     1     -90.016 -16.324  14.548  1.00  0.00    -0.020 A 
HETATM   23  C9  UNL     1     -91.122 -17.276  14.745  1.00  0.00     0.052 C 
BRANCH  14  24
HETATM   24  O1  UNL     1     -88.907 -13.892  12.054  1.00  0.00    -0.354 OA
HETATM   25  C1  UNL     1     -88.015 -12.822  11.928  1.00  0.00     0.210 C 
ENDBRANCH  14  24
ENDBRANCH  11  13
ENDBRANCH   1  11
BRANCH   4  26
HETATM   26  N4  UNL     1     -87.982 -17.605   9.615  1.00  0.00    -0.351 N 
ATOM     27  H4  UNL     1     -87.926 -18.354   8.924  1.00  0.00     0.163 HD
BRANCH  26  28
HETATM   28  C13 UNL     1     -86.759 -17.328  10.286  1.00  0.00     0.102 C 
HETATM   29  C14 UNL     1     -85.591 -18.094   9.626  1.00  0.00     0.056 C 
HETATM   30  C15 UNL     1     -86.360 -15.873  10.281  1.00  0.00     0.056 C 
HETATM   31 CL1  UNL     1     -86.811 -17.948  11.958  1.00  0.00    -0.096 Cl
ENDBRANCH  26  28
ENDBRANCH   4  26
BRANCH   5  32
HETATM   32  N5  UNL     1     -89.167 -17.073   7.439  1.00  0.00    -0.373 N 
ATOM     33  H5  UNL     1     -88.397 -17.737   7.367  1.00  0.00     0.161 HD
BRANCH  32  34
HETATM   34  C17 UNL     1     -89.407 -16.217   6.316  1.00  0.00     0.121 C 
BRANCH  34  35
HETATM   35  C18 UNL     1     -88.167 -15.453   5.900  1.00  0.00     0.022 C 
BRANCH  35  36
HETATM   36  C19 UNL     1     -86.933 -15.964   6.585  1.00  0.00     0.034 C 
BRANCH  36  37
HETATM   37  C20 UNL     1     -85.671 -15.270   6.162  1.00  0.00     0.179 C 
HETATM   38  C21 UNL     1     -84.539 -15.849   6.988  1.00  0.00     0.039 C 
BRANCH  37  39
HETATM   39  N6  UNL     1     -85.423 -15.345   4.754  1.00  0.00    -0.075 N 
ATOM     40  H63 UNL     1     -86.247 -15.688   4.259  1.00  0.00     0.274 HD
ATOM     41  H62 UNL     1     -85.358 -14.412   4.349  1.00  0.00     0.274 HD
ATOM     42  H61 UNL     1     -84.602 -15.901   4.515  1.00  0.00     0.274 HD
ENDBRANCH  37  39
ENDBRANCH  36  37
ENDBRANCH  35  36
ENDBRANCH  34  35
ENDBRANCH  32  34
ENDBRANCH   5  32
TORSDOF 11
ENDMDL
MODEL 3
REMARK VINA RESULT: -8.168938096      1.274      2.277
REMARK  11 active torsions:
REMARK  status: ('A' for Active; 'I' for Inactive)
REMARK    1  A    between atoms: O1_2  and  C2_3 
REMARK    2  A    between atoms: C10_13  and  N2_14 
REMARK    3  A    between atoms: N2_14  and  C11_16 
REMARK    4  A    between atoms: C12_19  and  N4_20 
REMARK    5  A    between atoms: N4_20  and  C13_22 
REMARK    6  A    between atoms: C16_26  and  N5_27 
REMARK    7  A    between atoms: N5_27  and  C17_29 
REMARK    8  A    between atoms: C17_29  and  C18_30 
REMARK    9  A    between atoms: C18_30  and  C19_31 
REMARK   10  A    between atoms: C19_31  and  C20_32 
REMARK   11  A    between atoms: C20_32  and  N6_34 
ROOT
HETATM    1  C11 UNL     1     -89.984 -17.306  10.525  1.00  0.00     0.131 C 
HETATM    2  N3  UNL     1     -89.195 -16.522  11.285  1.00  0.00    -0.324 N 
ATOM      3  H3  UNL     1     -88.277 -16.318  10.889  1.00  0.00     0.169 HD
HETATM    4  C12 UNL     1     -89.435 -15.968  12.485  1.00  0.00     0.149 C 
HETATM    5  C16 UNL     1     -90.473 -16.329  13.358  1.00  0.00     0.145 C 
HETATM    6  N7  UNL     1     -91.656 -16.887  13.042  1.00  0.00    -0.348 N 
ATOM      7  H7  UNL     1     -92.369 -16.841  13.770  1.00  0.00     0.167 HD
HETATM    8  C22 UNL     1     -92.039 -17.506  11.885  1.00  0.00     0.117 C 
HETATM    9  C23 UNL     1     -91.335 -17.628  10.708  1.00  0.00     0.093 C 
HETATM   10 CL2  UNL     1     -92.134 -18.232   9.277  1.00  0.00    -0.079 Cl
ENDROOT
BRANCH   1  11
HETATM   11  N2  UNL     1     -89.490 -17.862   9.479  1.00  0.00    -0.338 N 
ATOM     12  H2  UNL     1     -89.908 -18.730   9.147  1.00  0.00     0.167 HD
BRANCH  11  13
HETATM   13  C10 UNL     1     -88.385 -17.325   8.764  1.00  0.00     0.074 A 
HETATM   14  C2  UNL     1     -87.107 -17.407   9.294  1.00  0.00     0.097 A 
HETATM   15  C3  UNL     1     -86.015 -16.896   8.627  1.00  0.00     0.069 A 
HETATM   16  C4  UNL     1     -86.168 -16.274   7.381  1.00  0.00     0.045 A 
HETATM   17  N1  UNL     1     -85.310 -15.699   6.520  1.00  0.00    -0.365 N 
HETATM   18  C7  UNL     1     -87.463 -16.197   6.856  1.00  0.00     0.000 A 
HETATM   19  C5  UNL     1     -86.011 -15.252   5.454  1.00  0.00     0.089 A 
ATOM     20  H1  UNL     1     -84.302 -15.614   6.649  1.00  0.00     0.165 HD
HETATM   21  C6  UNL     1     -87.350 -15.549   5.639  1.00  0.00     0.031 A 
HETATM   22  C8  UNL     1     -88.556 -16.709   7.523  1.00  0.00    -0.020 A 
HETATM   23  C9  UNL     1     -89.911 -16.616   6.955  1.00  0.00     0.052 C 
BRANCH  14  24
HETATM   24  O1  UNL     1     -86.928 -18.017  10.523  1.00  0.00    -0.354 OA
HETATM   25  C1  UNL     1     -85.650 -18.357  10.981  1.00  0.00     0.210 C 
ENDBRANCH  14  24
ENDBRANCH  11  13
ENDBRANCH   1  11
BRANCH   4  26
HETATM   26  N4  UNL     1     -88.719 -15.033  12.947  1.00  0.00    -0.351 N 
ATOM     27  H4  UNL     1     -89.241 -14.218  13.268  1.00  0.00     0.163 HD
BRANCH  26  28
HETATM   28  C13 UNL     1     -87.309 -14.928  13.094  1.00  0.00     0.102 C 
HETATM   29  C14 UNL     1     -86.952 -13.898  14.189  1.00  0.00     0.056 C 
HETATM   30  C15 UNL     1     -86.625 -16.212  13.489  1.00  0.00     0.056 C 
HETATM   31 CL1  UNL     1     -86.575 -14.269  11.607  1.00  0.00    -0.096 Cl
ENDBRANCH  26  28
ENDBRANCH   4  26
BRANCH   5  32
HETATM   32  N5  UNL     1     -90.303 -16.119  14.600  1.00  0.00    -0.373 N 
ATOM     33  H5  UNL     1     -90.615 -15.221  14.970  1.00  0.00     0.161 HD
BRANCH  32  34
HETATM   34  C17 UNL     1     -89.709 -17.040  15.523  1.00  0.00     0.121 C 
BRANCH  34  35
HETATM   35  C18 UNL     1     -88.584 -16.412  16.318  1.00  0.00     0.022 C 
BRANCH  35  36
HETATM   36  C19 UNL     1     -88.295 -17.169  17.581  1.00  0.00     0.034 C 
BRANCH  36  37
HETATM   37  C20 UNL     1     -88.107 -16.294  18.786  1.00  0.00     0.179 C 
HETATM   38  C21 UNL     1     -87.440 -15.016  18.316  1.00  0.00     0.039 C 
BRANCH  37  39
HETATM   39  N6  UNL     1     -89.318 -16.052  19.510  1.00  0.00    -0.075 N 
ATOM     40  H63 UNL     1     -90.125 -16.093  18.888  1.00  0.00     0.274 HD
ATOM     41  H62 UNL     1     -89.535 -16.839  20.122  1.00  0.00     0.274 HD
ATOM     42  H61 UNL     1     -89.311 -15.177  20.034  1.00  0.00     0.274 HD
ENDBRANCH  37  39
ENDBRANCH  36  37
ENDBRANCH  35  36
ENDBRANCH  34  35
ENDBRANCH  32  34
ENDBRANCH   5  32
TORSDOF 11
ENDMDL
MODEL 4
REMARK VINA RESULT: -8.089178432      1.556      2.456
REMARK  11 active torsions:
REMARK  status: ('A' for Active; 'I' for Inactive)
REMARK    1  A    between atoms: O1_2  and  C2_3 
REMARK    2  A    between atoms: C10_13  and  N2_14 
REMARK    3  A    between atoms: N2_14  and  C11_16 
REMARK    4  A    between atoms: C12_19  and  N4_20 
REMARK    5  A    between atoms: N4_20  and  C13_22 
REMARK    6  A    between atoms: C16_26  and  N5_27 
REMARK    7  A    between atoms: N5_27  and  C17_29 
REMARK    8  A    between atoms: C17_29  and  C18_30 
REMARK    9  A    between atoms: C18_30  and  C19_31 
REMARK   10  A    between atoms: C19_31  and  C20_32 
REMARK   11  A    between atoms: C20_32  and  N6_34 
ROOT
HETATM    1  C11 UNL     1     -89.964 -17.115  10.052  1.00  0.00     0.131 C 
HETATM    2  N3  UNL     1     -89.416 -16.127  10.785  1.00  0.00    -0.324 N 
ATOM      3  H3  UNL     1     -88.622 -15.655  10.350  1.00  0.00     0.169 HD
HETATM    4  C12 UNL     1     -89.757 -15.668  12.001  1.00  0.00     0.149 C 
HETATM    5  C16 UNL     1     -90.595 -16.325  12.915  1.00  0.00     0.145 C 
HETATM    6  N7  UNL     1     -91.567 -17.216  12.646  1.00  0.00    -0.348 N 
ATOM      7  H7  UNL     1     -92.226 -17.386  13.406  1.00  0.00     0.167 HD
HETATM    8  C22 UNL     1     -91.796 -17.925  11.500  1.00  0.00     0.117 C 
HETATM    9  C23 UNL     1     -91.144 -17.832  10.292  1.00  0.00     0.093 C 
HETATM   10 CL2  UNL     1     -91.787 -18.654   8.891  1.00  0.00    -0.079 Cl
ENDROOT
BRANCH   1  11
HETATM   11  N2  UNL     1     -89.373 -17.499   8.980  1.00  0.00    -0.338 N 
ATOM     12  H2  UNL     1     -89.901 -18.050   8.304  1.00  0.00     0.167 HD
BRANCH  11  13
HETATM   13  C10 UNL     1     -88.016 -17.190   8.690  1.00  0.00     0.074 A 
HETATM   14  C2  UNL     1     -87.012 -17.576   9.566  1.00  0.00     0.097 A 
HETATM   15  C3  UNL     1     -85.688 -17.293   9.315  1.00  0.00     0.069 A 
HETATM   16  C4  UNL     1     -85.314 -16.601   8.156  1.00  0.00     0.045 A 
HETATM   17  N1  UNL     1     -84.132 -16.194   7.658  1.00  0.00    -0.365 N 
HETATM   18  C7  UNL     1     -86.335 -16.216   7.279  1.00  0.00     0.000 A 
HETATM   19  C5  UNL     1     -84.358 -15.559   6.488  1.00  0.00     0.089 A 
ATOM     20  H1  UNL     1     -83.221 -16.341   8.092  1.00  0.00     0.165 HD
HETATM   21  C6  UNL     1     -85.718 -15.559   6.230  1.00  0.00     0.031 A 
HETATM   22  C8  UNL     1     -87.661 -16.500   7.530  1.00  0.00    -0.020 A 
HETATM   23  C9  UNL     1     -88.721 -16.085   6.596  1.00  0.00     0.052 C 
BRANCH  14  24
HETATM   24  O1  UNL     1     -87.355 -18.261  10.718  1.00  0.00    -0.354 OA
HETATM   25  C1  UNL     1     -86.523 -18.243  11.843  1.00  0.00     0.210 C 
ENDBRANCH  14  24
ENDBRANCH  11  13
ENDBRANCH   1  11
BRANCH   4  26
HETATM   26  N4  UNL     1     -89.338 -14.558  12.440  1.00  0.00    -0.351 N 
ATOM     27  H4  UNL     1     -90.047 -13.991  12.905  1.00  0.00     0.163 HD
BRANCH  26  28
HETATM   28  C13 UNL     1     -88.045 -13.969  12.396  1.00  0.00     0.102 C 
HETATM   29  C14 UNL     1     -87.403 -13.961  13.801  1.00  0.00     0.056 C 
HETATM   30  C15 UNL     1     -87.066 -14.678  11.494  1.00  0.00     0.056 C 
HETATM   31 CL1  UNL     1     -88.161 -12.246  11.948  1.00  0.00    -0.096 Cl
ENDBRANCH  26  28
ENDBRANCH   4  26
BRANCH   5  32
HETATM   32  N5  UNL     1     -90.440 -16.069  14.151  1.00  0.00    -0.373 N 
ATOM     33  H5  UNL     1     -90.747 -15.154  14.481  1.00  0.00     0.161 HD
BRANCH  32  34
HETATM   34  C17 UNL     1     -89.870 -16.961  15.116  1.00  0.00     0.121 C 
BRANCH  34  35
HETATM   35  C18 UNL     1     -88.921 -16.254  16.061  1.00  0.00     0.022 C 
BRANCH  35  36
HETATM   36  C19 UNL     1     -88.549 -17.112  17.234  1.00  0.00     0.034 C 
BRANCH  36  37
HETATM   37  C20 UNL     1     -88.132 -16.335  18.449  1.00  0.00     0.179 C 
HETATM   38  C21 UNL     1     -87.471 -15.059  17.964  1.00  0.00     0.039 C 
BRANCH  37  39
HETATM   39  N6  UNL     1     -89.204 -16.090  19.365  1.00  0.00    -0.075 N 
ATOM     40  H63 UNL     1     -90.099 -16.070  18.877  1.00  0.00     0.274 HD
ATOM     41  H62 UNL     1     -89.356 -16.899  19.967  1.00  0.00     0.274 HD
ATOM     42  H61 UNL     1     -89.077 -15.244  19.921  1.00  0.00     0.274 HD
ENDBRANCH  37  39
ENDBRANCH  36  37
ENDBRANCH  35  36
ENDBRANCH  34  35
ENDBRANCH  32  34
ENDBRANCH   5  32
TORSDOF 11
ENDMDL
MODEL 5
REMARK VINA RESULT: -7.757414646      3.017      5.741
REMARK  11 active torsions:
REMARK  status: ('A' for Active; 'I' for Inactive)
REMARK    1  A    between atoms: O1_2  and  C2_3 
REMARK    2  A    between atoms: C10_13  and  N2_14 
REMARK    3  A    between atoms: N2_14  and  C11_16 
REMARK    4  A    between atoms: C12_19  and  N4_20 
REMARK    5  A    between atoms: N4_20  and  C13_22 
REMARK    6  A    between atoms: C16_26  and  N5_27 
REMARK    7  A    between atoms: N5_27  and  C17_29 
REMARK    8  A    between atoms: C17_29  and  C18_30 
REMARK    9  A    between atoms: C18_30  and  C19_31 
REMARK   10  A    between atoms: C19_31  and  C20_32 
REMARK   11  A    between atoms: C20_32  and  N6_34 
ROOT
HETATM    1  C11 UNL     1     -88.410 -16.949   8.536  1.00  0.00     0.131 C 
HETATM    2  N3  UNL     1     -88.739 -16.682   9.815  1.00  0.00    -0.324 N 
ATOM      3  H3  UNL     1     -87.955 -16.658  10.467  1.00  0.00     0.169 HD
HETATM    4  C12 UNL     1     -89.943 -16.442  10.360  1.00  0.00     0.149 C 
HETATM    5  C16 UNL     1     -91.181 -16.708   9.754  1.00  0.00     0.145 C 
HETATM    6  N7  UNL     1     -91.455 -16.776   8.438  1.00  0.00    -0.348 N 
ATOM      7  H7  UNL     1     -92.444 -16.726   8.194  1.00  0.00     0.167 HD
HETATM    8  C22 UNL     1     -90.596 -16.902   7.382  1.00  0.00     0.117 C 
HETATM    9  C23 UNL     1     -89.220 -16.893   7.394  1.00  0.00     0.093 C 
HETATM   10 CL2  UNL     1     -88.338 -16.804   5.888  1.00  0.00    -0.079 Cl
ENDROOT
BRANCH   1  11
HETATM   11  N2  UNL     1     -87.209 -17.310   8.263  1.00  0.00    -0.338 N 
ATOM     12  H2  UNL     1     -87.069 -18.048   7.574  1.00  0.00     0.167 HD
BRANCH  11  13
HETATM   13  C10 UNL     1     -86.066 -16.730   8.877  1.00  0.00     0.074 A 
HETATM   14  C2  UNL     1     -85.694 -17.113  10.157  1.00  0.00     0.097 A 
HETATM   15  C3  UNL     1     -84.593 -16.570  10.780  1.00  0.00     0.069 A 
HETATM   16  C4  UNL     1     -83.809 -15.607  10.132  1.00  0.00     0.045 A 
HETATM   17  N1  UNL     1     -82.708 -14.919  10.481  1.00  0.00    -0.365 N 
HETATM   18  C7  UNL     1     -84.194 -15.228   8.841  1.00  0.00     0.000 A 
HETATM   19  C5  UNL     1     -82.369 -14.107   9.456  1.00  0.00     0.089 A 
ATOM     20  H1  UNL     1     -82.212 -14.997  11.369  1.00  0.00     0.165 HD
HETATM   21  C6  UNL     1     -83.276 -14.280   8.425  1.00  0.00     0.031 A 
HETATM   22  C8  UNL     1     -85.297 -15.772   8.216  1.00  0.00    -0.020 A 
HETATM   23  C9  UNL     1     -85.687 -15.358   6.858  1.00  0.00     0.052 C 
BRANCH  14  24
HETATM   24  O1  UNL     1     -86.452 -18.064  10.819  1.00  0.00    -0.354 OA
HETATM   25  C1  UNL     1     -86.026 -18.603  12.038  1.00  0.00     0.210 C 
ENDBRANCH  14  24
ENDBRANCH  11  13
ENDBRANCH   1  11
BRANCH   4  26
HETATM   26  N4  UNL     1     -90.069 -15.931  11.510  1.00  0.00    -0.351 N 
ATOM     27  H4  UNL     1     -90.757 -15.181  11.569  1.00  0.00     0.163 HD
BRANCH  26  28
HETATM   28  C13 UNL     1     -89.411 -16.228  12.736  1.00  0.00     0.102 C 
HETATM   29  C14 UNL     1     -90.138 -15.553  13.920  1.00  0.00     0.056 C 
HETATM   30  C15 UNL     1     -89.345 -17.697  13.069  1.00  0.00     0.056 C 
HETATM   31 CL1  UNL     1     -87.775 -15.516  12.753  1.00  0.00    -0.096 Cl
ENDBRANCH  26  28
ENDBRANCH   4  26
BRANCH   5  32
HETATM   32  N5  UNL     1     -92.180 -16.915  10.512  1.00  0.00    -0.373 N 
ATOM     33  H5  UNL     1     -92.224 -16.387  11.384  1.00  0.00     0.161 HD
BRANCH  32  34
HETATM   34  C17 UNL     1     -93.249 -17.830  10.242  1.00  0.00     0.121 C 
BRANCH  34  35
HETATM   35  C18 UNL     1     -93.118 -19.116  11.030  1.00  0.00     0.022 C 
BRANCH  35  36
HETATM   36  C19 UNL     1     -93.167 -20.327  10.145  1.00  0.00     0.034 C 
BRANCH  36  37
HETATM   37  C20 UNL     1     -92.296 -20.227   8.927  1.00  0.00     0.179 C 
HETATM   38  C21 UNL     1     -90.855 -20.284   9.397  1.00  0.00     0.039 C 
BRANCH  37  39
HETATM   39  N6  UNL     1     -92.592 -21.211   7.931  1.00  0.00    -0.075 N 
ATOM     40  H63 UNL     1     -91.768 -21.774   7.722  1.00  0.00     0.274 HD
ATOM     41  H62 UNL     1     -93.201 -21.937   8.310  1.00  0.00     0.274 HD
ATOM     42  H61 UNL     1     -92.987 -20.818   7.076  1.00  0.00     0.274 HD
ENDBRANCH  37  39
ENDBRANCH  36  37
ENDBRANCH  35  36
ENDBRANCH  34  35
ENDBRANCH  32  34
ENDBRANCH   5  32
TORSDOF 11
ENDMDL
