MODEL 1
REMARK VINA RESULT: -7.417130532      0.000      0.000
REMARK  8 active torsions:
REMARK  status: ('A' for Active; 'I' for Inactive)
REMARK    1  A    between atoms: C3_3  and  C4_5 
REMARK    2  A    between atoms: C11_12  and  O1_13 
REMARK    3  A    between atoms: C17_20  and  O2_21 
REMARK    4  A    between atoms: C18_23  and  C19_25 
REMARK    5  A    between atoms: C19_25  and  C21_27 
REMARK    6  A    between atoms: C21_27  and  C22_29 
REMARK    7  A    between atoms: C22_29  and  C23_30 
REMARK    8  A    between atoms: C23_30  and  N1_31 
ROOT
HETATM    1  C4  UNL     1     -91.664 -18.309  10.780  1.00  0.00    -0.032 C 
HETATM    2  C5  UNL     1     -92.589 -17.402  11.221  1.00  0.00    -0.017 C 
HETATM    3  C6  UNL     1     -91.912 -16.361  12.066  1.00  0.00     0.034 C 
HETATM    4  C7  UNL     1     -90.844 -17.295  12.602  1.00  0.00     0.010 C 
HETATM    5  C8  UNL     1     -90.364 -17.790  11.296  1.00  0.00    -0.009 C 
HETATM    6  C9  UNL     1     -89.985 -16.735  10.273  1.00  0.00     0.021 C 
HETATM    7  C10 UNL     1     -89.303 -18.741  11.598  1.00  0.00     0.046 C 
HETATM    8  C11 UNL     1     -88.203 -18.095  12.480  1.00  0.00     0.125 C 
HETATM    9  C12 UNL     1     -88.679 -17.594  13.774  1.00  0.00     0.045 C 
HETATM   10  C13 UNL     1     -89.981 -16.768  13.641  1.00  0.00    -0.032 C 
HETATM   11  C14 UNL     1     -90.795 -16.941  14.926  1.00  0.00     0.016 C 
HETATM   12  C15 UNL     1     -89.720 -15.294  13.550  1.00  0.00     0.012 C 
HETATM   13  C16 UNL     1     -89.104 -14.879  14.836  1.00  0.00     0.034 C 
HETATM   14  C17 UNL     1     -88.050 -15.736  15.399  1.00  0.00     0.138 C 
HETATM   15  C18 UNL     1     -87.735 -17.067  14.785  1.00  0.00     0.060 C 
HETATM   16 BR1  UNL     1     -87.680 -18.303  16.355  1.00  0.00    -0.081 Br
ENDROOT
BRANCH  15  17
HETATM   17  C19 UNL     1     -86.262 -17.092  14.464  1.00  0.00     0.073 C 
HETATM   18  C20 UNL     1     -85.382 -17.524  15.645  1.00  0.00     0.020 C 
BRANCH  17  19
HETATM   19  C21 UNL     1     -85.708 -15.770  14.114  1.00  0.00     0.134 C 
HETATM   20  O3  UNL     1     -86.022 -15.086  13.202  1.00  0.00    -0.297 OA
BRANCH  19  21
HETATM   21  C22 UNL     1     -84.615 -15.173  14.986  1.00  0.00     0.106 C 
BRANCH  21  22
HETATM   22  C23 UNL     1     -84.701 -13.677  15.021  1.00  0.00     0.237 C 
BRANCH  22  23
HETATM   23  N1  UNL     1     -85.811 -13.118  15.699  1.00  0.00    -0.079 N 
ATOM     24  H13 UNL     1     -86.132 -13.764  16.419  1.00  0.00     0.274 HD
ATOM     25  H12 UNL     1     -85.501 -12.335  16.274  1.00  0.00     0.274 HD
ATOM     26  H11 UNL     1     -86.602 -12.827  15.123  1.00  0.00     0.274 HD
ENDBRANCH  22  23
ENDBRANCH  21  22
ENDBRANCH  19  21
ENDBRANCH  17  19
ENDBRANCH  15  17
BRANCH  14  27
HETATM   27  O2  UNL     1     -88.369 -15.815  16.782  1.00  0.00    -0.394 OA
ATOM     28  H2  UNL     1     -88.791 -16.661  16.874  1.00  0.00     0.210 HD
ENDBRANCH  14  27
BRANCH   8  29
HETATM   29  O1  UNL     1     -87.496 -17.316  11.657  1.00  0.00    -0.395 OA
ATOM     30  H1  UNL     1     -87.895 -16.456  11.718  1.00  0.00     0.210 HD
ENDBRANCH   8  29
BRANCH   1  31
HETATM   31  C3  UNL     1     -92.064 -19.397   9.962  1.00  0.00     0.036 C 
HETATM   32  C2  UNL     1     -91.512 -19.725   8.821  1.00  0.00    -0.007 C 
HETATM   33  C1  UNL     1     -92.071 -20.894   8.037  1.00  0.00     0.038 C 
HETATM   34 CL1  UNL     1     -93.443 -20.412  10.443  1.00  0.00    -0.084 Cl
ENDBRANCH   1  31
TORSDOF 8
ENDMDL
MODEL 2
REMARK VINA RESULT: -7.338960776      4.255      5.901
REMARK  8 active torsions:
REMARK  status: ('A' for Active; 'I' for Inactive)
REMARK    1  A    between atoms: C3_3  and  C4_5 
REMARK    2  A    between atoms: C11_12  and  O1_13 
REMARK    3  A    between atoms: C17_20  and  O2_21 
REMARK    4  A    between atoms: C18_23  and  C19_25 
REMARK    5  A    between atoms: C19_25  and  C21_27 
REMARK    6  A    between atoms: C21_27  and  C22_29 
REMARK    7  A    between atoms: C22_29  and  C23_30 
REMARK    8  A    between atoms: C23_30  and  N1_31 
ROOT
HETATM    1  C4  UNL     1     -88.016 -22.886  15.751  1.00  0.00    -0.032 C 
HETATM    2  C5  UNL     1     -87.461 -22.975  14.503  1.00  0.00    -0.017 C 
HETATM    3  C6  UNL     1     -86.532 -21.817  14.280  1.00  0.00     0.034 C 
HETATM    4  C7  UNL     1     -87.315 -20.846  15.143  1.00  0.00     0.010 C 
HETATM    5  C8  UNL     1     -87.369 -21.686  16.357  1.00  0.00    -0.009 C 
HETATM    6  C9  UNL     1     -86.045 -22.228  16.861  1.00  0.00     0.021 C 
HETATM    7  C10 UNL     1     -88.115 -20.913  17.341  1.00  0.00     0.046 C 
HETATM    8  C11 UNL     1     -87.478 -19.515  17.558  1.00  0.00     0.125 C 
HETATM    9  C12 UNL     1     -87.414 -18.683  16.352  1.00  0.00     0.045 C 
HETATM   10  C13 UNL     1     -86.879 -19.463  15.128  1.00  0.00    -0.032 C 
HETATM   11  C14 UNL     1     -87.525 -18.883  13.866  1.00  0.00     0.016 C 
HETATM   12  C15 UNL     1     -85.406 -19.274  14.924  1.00  0.00     0.012 C 
HETATM   13  C16 UNL     1     -85.187 -17.838  14.619  1.00  0.00     0.034 C 
HETATM   14  C17 UNL     1     -85.908 -16.847  15.432  1.00  0.00     0.138 C 
HETATM   15  C18 UNL     1     -86.955 -17.277  16.416  1.00  0.00     0.060 C 
HETATM   16 BR1  UNL     1     -88.488 -16.056  16.029  1.00  0.00    -0.081 Br
ENDROOT
BRANCH  15  17
HETATM   17  C19 UNL     1     -86.587 -16.710  17.762  1.00  0.00     0.073 C 
HETATM   18  C20 UNL     1     -87.713 -15.901  18.418  1.00  0.00     0.020 C 
BRANCH  17  19
HETATM   19  C21 UNL     1     -85.475 -15.740  17.715  1.00  0.00     0.134 C 
HETATM   20  O3  UNL     1     -84.325 -15.982  17.590  1.00  0.00    -0.297 OA
BRANCH  19  21
HETATM   21  C22 UNL     1     -85.786 -14.256  17.830  1.00  0.00     0.106 C 
BRANCH  21  22
HETATM   22  C23 UNL     1     -85.144 -13.477  16.722  1.00  0.00     0.237 C 
BRANCH  22  23
HETATM   23  N1  UNL     1     -85.959 -13.163  15.608  1.00  0.00    -0.079 N 
ATOM     24  H13 UNL     1     -85.920 -13.924  14.931  1.00  0.00     0.274 HD
ATOM     25  H12 UNL     1     -86.941 -13.205  15.881  1.00  0.00     0.274 HD
ATOM     26  H11 UNL     1     -85.773 -12.276  15.138  1.00  0.00     0.274 HD
ENDBRANCH  22  23
ENDBRANCH  21  22
ENDBRANCH  19  21
ENDBRANCH  17  19
ENDBRANCH  15  17
BRANCH  14  27
HETATM   27  O2  UNL     1     -86.381 -15.899  14.485  1.00  0.00    -0.394 OA
ATOM     28  H2  UNL     1     -87.202 -15.593  14.854  1.00  0.00     0.210 HD
ENDBRANCH  14  27
BRANCH   8  29
HETATM   29  O1  UNL     1     -86.393 -19.730  18.306  1.00  0.00    -0.395 OA
ATOM     30  H1  UNL     1     -85.747 -20.100  17.715  1.00  0.00     0.210 HD
ENDBRANCH   8  29
BRANCH   1  31
HETATM   31  C3  UNL     1     -88.938 -23.870  16.195  1.00  0.00     0.036 C 
HETATM   32  C2  UNL     1     -88.695 -25.154  16.258  1.00  0.00    -0.007 C 
HETATM   33  C1  UNL     1     -89.791 -26.092  16.719  1.00  0.00     0.038 C 
HETATM   34 CL1  UNL     1     -90.582 -23.396  16.677  1.00  0.00    -0.084 Cl
ENDBRANCH   1  31
TORSDOF 8
ENDMDL
MODEL 3
REMARK VINA RESULT: -7.273109127      3.743      5.162
REMARK  8 active torsions:
REMARK  status: ('A' for Active; 'I' for Inactive)
REMARK    1  A    between atoms: C3_3  and  C4_5 
REMARK    2  A    between atoms: C11_12  and  O1_13 
REMARK    3  A    between atoms: C17_20  and  O2_21 
REMARK    4  A    between atoms: C18_23  and  C19_25 
REMARK    5  A    between atoms: C19_25  and  C21_27 
REMARK    6  A    between atoms: C21_27  and  C22_29 
REMARK    7  A    between atoms: C22_29  and  C23_30 
REMARK    8  A    between atoms: C23_30  and  N1_31 
ROOT
HETATM    1  C4  UNL     1     -86.498 -16.758   9.481  1.00  0.00    -0.032 C 
HETATM    2  C5  UNL     1     -85.813 -17.941   9.544  1.00  0.00    -0.017 C 
HETATM    3  C6  UNL     1     -85.610 -18.330  10.980  1.00  0.00     0.034 C 
HETATM    4  C7  UNL     1     -85.532 -16.906  11.497  1.00  0.00     0.010 C 
HETATM    5  C8  UNL     1     -86.798 -16.429  10.904  1.00  0.00    -0.009 C 
HETATM    6  C9  UNL     1     -88.034 -17.260  11.196  1.00  0.00     0.021 C 
HETATM    7  C10 UNL     1     -86.912 -15.029  11.288  1.00  0.00     0.046 C 
HETATM    8  C11 UNL     1     -86.822 -14.858  12.827  1.00  0.00     0.125 C 
HETATM    9  C12 UNL     1     -85.570 -15.341  13.419  1.00  0.00     0.045 C 
HETATM   10  C13 UNL     1     -85.170 -16.739  12.891  1.00  0.00    -0.032 C 
HETATM   11  C14 UNL     1     -83.642 -16.838  12.894  1.00  0.00     0.016 C 
HETATM   12  C15 UNL     1     -85.626 -17.846  13.793  1.00  0.00     0.012 C 
HETATM   13  C16 UNL     1     -84.913 -17.680  15.084  1.00  0.00     0.034 C 
HETATM   14  C17 UNL     1     -84.818 -16.325  15.645  1.00  0.00     0.138 C 
HETATM   15  C18 UNL     1     -85.272 -15.134  14.855  1.00  0.00     0.060 C 
HETATM   16 BR1  UNL     1     -83.759 -13.843  15.044  1.00  0.00    -0.081 Br
ENDROOT
BRANCH  15  17
HETATM   17  C19 UNL     1     -86.277 -14.381  15.688  1.00  0.00     0.073 C 
HETATM   18  C20 UNL     1     -85.641 -13.484  16.758  1.00  0.00     0.020 C 
BRANCH  17  19
HETATM   19  C21 UNL     1     -87.165 -15.254  16.481  1.00  0.00     0.134 C 
HETATM   20  O3  UNL     1     -88.001 -15.980  16.070  1.00  0.00    -0.297 OA
BRANCH  19  21
HETATM   21  C22 UNL     1     -87.028 -15.263  17.995  1.00  0.00     0.106 C 
BRANCH  21  22
HETATM   22  C23 UNL     1     -87.854 -16.352  18.611  1.00  0.00     0.237 C 
BRANCH  22  23
HETATM   23  N1  UNL     1     -89.043 -15.955  19.271  1.00  0.00    -0.079 N 
ATOM     24  H13 UNL     1     -89.087 -16.397  20.189  1.00  0.00     0.274 HD
ATOM     25  H12 UNL     1     -88.974 -14.973  19.537  1.00  0.00     0.274 HD
ATOM     26  H11 UNL     1     -89.919 -16.113  18.773  1.00  0.00     0.274 HD
ENDBRANCH  22  23
ENDBRANCH  21  22
ENDBRANCH  19  21
ENDBRANCH  17  19
ENDBRANCH  15  17
BRANCH  14  27
HETATM   27  O2  UNL     1     -83.470 -16.225  16.087  1.00  0.00    -0.394 OA
ATOM     28  H2  UNL     1     -83.226 -17.120  16.290  1.00  0.00     0.210 HD
ENDBRANCH  14  27
BRANCH   8  29
HETATM   29  O1  UNL     1     -88.006 -15.256  13.300  1.00  0.00    -0.395 OA
ATOM     30  H1  UNL     1     -88.208 -16.060  12.836  1.00  0.00     0.210 HD
ENDBRANCH   8  29
BRANCH   1  31
HETATM   31  C3  UNL     1     -86.809 -16.179   8.222  1.00  0.00     0.036 C 
HETATM   32  C2  UNL     1     -87.935 -16.344   7.575  1.00  0.00    -0.007 C 
HETATM   33  C1  UNL     1     -88.111 -15.692   6.220  1.00  0.00     0.038 C 
HETATM   34 CL1  UNL     1     -85.606 -15.174   7.384  1.00  0.00    -0.084 Cl
ENDBRANCH   1  31
TORSDOF 8
ENDMDL
MODEL 4
REMARK VINA RESULT: -7.258179441      3.671      5.073
REMARK  8 active torsions:
REMARK  status: ('A' for Active; 'I' for Inactive)
REMARK    1  A    between atoms: C3_3  and  C4_5 
REMARK    2  A    between atoms: C11_12  and  O1_13 
REMARK    3  A    between atoms: C17_20  and  O2_21 
REMARK    4  A    between atoms: C18_23  and  C19_25 
REMARK    5  A    between atoms: C19_25  and  C21_27 
REMARK    6  A    between atoms: C21_27  and  C22_29 
REMARK    7  A    between atoms: C22_29  and  C23_30 
REMARK    8  A    between atoms: C23_30  and  N1_31 
ROOT
HETATM    1  C4  UNL     1     -86.232 -15.845   8.057  1.00  0.00    -0.032 C 
HETATM    2  C5  UNL     1     -85.050 -15.177   8.226  1.00  0.00    -0.017 C 
HETATM    3  C6  UNL     1     -84.650 -15.217   9.673  1.00  0.00     0.034 C 
HETATM    4  C7  UNL     1     -86.070 -15.231  10.205  1.00  0.00     0.010 C 
HETATM    5  C8  UNL     1     -86.550 -16.381   9.412  1.00  0.00    -0.009 C 
HETATM    6  C9  UNL     1     -85.715 -17.646   9.486  1.00  0.00     0.021 C 
HETATM    7  C10 UNL     1     -87.947 -16.562   9.781  1.00  0.00     0.046 C 
HETATM    8  C11 UNL     1     -88.106 -16.733  11.315  1.00  0.00     0.125 C 
HETATM    9  C12 UNL     1     -87.621 -15.596  12.106  1.00  0.00     0.045 C 
HETATM   10  C13 UNL     1     -86.228 -15.109  11.642  1.00  0.00    -0.032 C 
HETATM   11  C14 UNL     1     -86.132 -13.603  11.901  1.00  0.00     0.016 C 
HETATM   12  C15 UNL     1     -85.112 -15.707  12.446  1.00  0.00     0.012 C 
HETATM   13  C16 UNL     1     -85.270 -15.222  13.840  1.00  0.00     0.034 C 
HETATM   14  C17 UNL     1     -86.621 -15.226  14.419  1.00  0.00     0.138 C 
HETATM   15  C18 UNL     1     -87.817 -15.545  13.572  1.00  0.00     0.060 C 
HETATM   16 BR1  UNL     1     -89.109 -14.089  14.022  1.00  0.00    -0.081 Br
ENDROOT
BRANCH  15  17
HETATM   17  C19 UNL     1     -88.562 -16.678  14.230  1.00  0.00     0.073 C 
HETATM   18  C20 UNL     1     -90.020 -16.341  14.568  1.00  0.00     0.020 C 
BRANCH  17  19
HETATM   19  C21 UNL     1     -88.008 -17.072  15.540  1.00  0.00     0.134 C 
HETATM   20  O3  UNL     1     -87.029 -17.706  15.737  1.00  0.00    -0.297 OA
BRANCH  19  21
HETATM   21  C22 UNL     1     -88.730 -16.641  16.806  1.00  0.00     0.106 C 
BRANCH  21  22
HETATM   22  C23 UNL     1     -87.785 -16.011  17.785  1.00  0.00     0.237 C 
BRANCH  22  23
HETATM   23  N1  UNL     1     -87.814 -14.599  17.882  1.00  0.00    -0.079 N 
ATOM     24  H13 UNL     1     -86.872 -14.229  17.757  1.00  0.00     0.274 HD
ATOM     25  H12 UNL     1     -88.278 -14.210  17.061  1.00  0.00     0.274 HD
ATOM     26  H11 UNL     1     -88.228 -14.205  18.727  1.00  0.00     0.274 HD
ENDBRANCH  22  23
ENDBRANCH  21  22
ENDBRANCH  19  21
ENDBRANCH  17  19
ENDBRANCH  15  17
BRANCH  14  27
HETATM   27  O2  UNL     1     -86.719 -13.972  15.082  1.00  0.00    -0.394 OA
ATOM     28  H2  UNL     1     -85.897 -13.893  15.551  1.00  0.00     0.210 HD
ENDBRANCH  14  27
BRANCH   8  29
HETATM   29  O1  UNL     1     -87.702 -17.978  11.580  1.00  0.00    -0.395 OA
ATOM     30  H1  UNL     1     -88.433 -18.392  12.024  1.00  0.00     0.210 HD
ENDBRANCH   8  29
BRANCH   1  31
HETATM   31  C3  UNL     1     -86.821 -15.942   6.769  1.00  0.00     0.036 C 
HETATM   32  C2  UNL     1     -88.086 -16.180   6.535  1.00  0.00    -0.007 C 
HETATM   33  C1  UNL     1     -88.566 -16.292   5.103  1.00  0.00     0.038 C 
HETATM   34 CL1  UNL     1     -85.810 -15.780   5.314  1.00  0.00    -0.084 Cl
ENDBRANCH   1  31
TORSDOF 8
ENDMDL
MODEL 5
REMARK VINA RESULT: -7.257930172      4.258      5.520
REMARK  8 active torsions:
REMARK  status: ('A' for Active; 'I' for Inactive)
REMARK    1  A    between atoms: C3_3  and  C4_5 
REMARK    2  A    between atoms: C11_12  and  O1_13 
REMARK    3  A    between atoms: C17_20  and  O2_21 
REMARK    4  A    between atoms: C18_23  and  C19_25 
REMARK    5  A    between atoms: C19_25  and  C21_27 
REMARK    6  A    between atoms: C21_27  and  C22_29 
REMARK    7  A    between atoms: C22_29  and  C23_30 
REMARK    8  A    between atoms: C23_30  and  N1_31 
ROOT
HETATM    1  C4  UNL     1     -86.187 -16.551   9.053  1.00  0.00    -0.032 C 
HETATM    2  C5  UNL     1     -86.010 -17.886   9.297  1.00  0.00    -0.017 C 
HETATM    3  C6  UNL     1     -85.818 -18.108  10.770  1.00  0.00     0.034 C 
HETATM    4  C7  UNL     1     -85.140 -16.775  11.021  1.00  0.00     0.010 C 
HETATM    5  C8  UNL     1     -86.180 -15.924  10.406  1.00  0.00    -0.009 C 
HETATM    6  C9  UNL     1     -87.601 -16.139  10.892  1.00  0.00     0.021 C 
HETATM    7  C10 UNL     1     -85.701 -14.555  10.539  1.00  0.00     0.046 C 
HETATM    8  C11 UNL     1     -85.385 -14.210  12.018  1.00  0.00     0.125 C 
HETATM    9  C12 UNL     1     -84.360 -15.060  12.634  1.00  0.00     0.045 C 
HETATM   10  C13 UNL     1     -84.592 -16.562  12.347  1.00  0.00    -0.032 C 
HETATM   11  C14 UNL     1     -83.231 -17.262  12.304  1.00  0.00     0.016 C 
HETATM   12  C15 UNL     1     -85.340 -17.250  13.450  1.00  0.00     0.012 C 
HETATM   13  C16 UNL     1     -84.482 -17.195  14.660  1.00  0.00     0.034 C 
HETATM   14  C17 UNL     1     -83.810 -15.924  14.966  1.00  0.00     0.138 C 
HETATM   15  C18 UNL     1     -83.851 -14.781  13.996  1.00  0.00     0.060 C 
HETATM   16 BR1  UNL     1     -81.946 -14.190  13.889  1.00  0.00    -0.081 Br
ENDROOT
BRANCH  15  17
HETATM   17  C19 UNL     1     -84.390 -13.575  14.722  1.00  0.00     0.073 C 
HETATM   18  C20 UNL     1     -83.379 -12.931  15.679  1.00  0.00     0.020 C 
BRANCH  17  19
HETATM   19  C21 UNL     1     -85.530 -13.877  15.611  1.00  0.00     0.134 C 
HETATM   20  O3  UNL     1     -86.580 -14.320  15.295  1.00  0.00    -0.297 OA
BRANCH  19  21
HETATM   21  C22 UNL     1     -85.393 -13.614  17.101  1.00  0.00     0.106 C 
BRANCH  21  22
HETATM   22  C23 UNL     1     -86.278 -14.523  17.900  1.00  0.00     0.237 C 
BRANCH  22  23
HETATM   23  N1  UNL     1     -87.572 -14.039  18.213  1.00  0.00    -0.079 N 
ATOM     24  H13 UNL     1     -87.661 -13.074  17.896  1.00  0.00     0.274 HD
ATOM     25  H12 UNL     1     -88.261 -14.497  17.617  1.00  0.00     0.274 HD
ATOM     26  H11 UNL     1     -87.864 -14.107  19.188  1.00  0.00     0.274 HD
ENDBRANCH  22  23
ENDBRANCH  21  22
ENDBRANCH  19  21
ENDBRANCH  17  19
ENDBRANCH  15  17
BRANCH  14  27
HETATM   27  O2  UNL     1     -82.489 -16.307  15.327  1.00  0.00    -0.394 OA
ATOM     28  H2  UNL     1     -82.029 -15.483  15.434  1.00  0.00     0.210 HD
ENDBRANCH  14  27
BRANCH   8  29
HETATM   29  O1  UNL     1     -86.571 -14.028  12.603  1.00  0.00    -0.395 OA
ATOM     30  H1  UNL     1     -86.416 -13.403  13.302  1.00  0.00     0.210 HD
ENDBRANCH   8  29
BRANCH   1  31
HETATM   31  C3  UNL     1     -86.385 -16.088   7.726  1.00  0.00     0.036 C 
HETATM   32  C2  UNL     1     -87.534 -16.064   7.100  1.00  0.00    -0.007 C 
HETATM   33  C1  UNL     1     -87.586 -15.575   5.668  1.00  0.00     0.038 C 
HETATM   34 CL1  UNL     1     -84.999 -15.521   6.765  1.00  0.00    -0.084 Cl
ENDBRANCH   1  31
TORSDOF 8
ENDMDL
