MODEL 1
REMARK VINA RESULT: -9.025790525      0.000      0.000
REMARK  8 active torsions:
REMARK  status: ('A' for Active; 'I' for Inactive)
REMARK    1  A    between atoms: O1_2  and  C2_3 
REMARK    2  A    between atoms: C4_5  and  C5_6 
REMARK    3  A    between atoms: C5_6  and  C6_7 
REMARK    4  A    between atoms: C7_8  and  C8_9 
REMARK    5  A    between atoms: C9_12  and  C10_13 
REMARK    6  A    between atoms: C14_19  and  N3_20 
REMARK    7  A    between atoms: C15_25  and  C16_26 
REMARK    8  A    between atoms: C22_36  and  C23_37 
ROOT
HETATM    1  C6  UNL     1      95.836  15.358  10.329  1.00  0.00    -0.010 A 
HETATM    2  C7  UNL     1      94.561  14.804  10.224  1.00  0.00     0.069 A 
HETATM    3  N5  UNL     1      94.381  14.522   8.921  1.00  0.00    -0.353 N 
ATOM      4  H5  UNL     1      93.531  14.100   8.546  1.00  0.00     0.166 HD
HETATM    5  C19 UNL     1      95.432  14.852   8.173  1.00  0.00     0.047 A 
HETATM    6  C20 UNL     1      95.704  14.752   6.825  1.00  0.00     0.047 A 
HETATM    7  C21 UNL     1      96.908  15.193   6.352  1.00  0.00     0.090 A 
HETATM    8  N6  UNL     1      97.838  15.726   7.156  1.00  0.00    -0.364 N 
ATOM      9  H6  UNL     1      98.728  16.050   6.777  1.00  0.00     0.165 HD
HETATM   10  C22 UNL     1      97.569  15.831   8.511  1.00  0.00     0.057 A 
HETATM   11  C28 UNL     1      96.384  15.401   9.058  1.00  0.00     0.027 A 
ENDROOT
BRANCH   2  12
HETATM   12  C8  UNL     1      93.515  14.620  11.219  1.00  0.00     0.088 A 
HETATM   13  N1  UNL     1      92.966  13.395  11.414  1.00  0.00    -0.338 N 
HETATM   14  C9  UNL     1      92.032  13.433  12.357  1.00  0.00     0.120 A 
ATOM     15  H1  UNL     1      93.235  12.554  10.903  1.00  0.00     0.167 HD
HETATM   16  N4  UNL     1      91.995  14.734  12.769  1.00  0.00    -0.340 N 
HETATM   17  C15 UNL     1      92.905  15.468  12.064  1.00  0.00     0.064 A 
ATOM     18  H4  UNL     1      91.380  15.103  13.495  1.00  0.00     0.167 HD
BRANCH  14  19
HETATM   19  C10 UNL     1      91.124  12.427  12.900  1.00  0.00     0.052 A 
HETATM   20  C11 UNL     1      89.778  12.499  12.545  1.00  0.00     0.020 A 
HETATM   21  C12 UNL     1      88.837  11.590  12.973  1.00  0.00     0.018 A 
HETATM   22  C13 UNL     1      89.271  10.574  13.788  1.00  0.00     0.089 A 
HETATM   23  N2  UNL     1      90.548  10.502  14.128  1.00  0.00    -0.352 N 
HETATM   24  C14 UNL     1      91.525  11.411  13.709  1.00  0.00     0.112 A 
ATOM     25  H2  UNL     1      90.839   9.734  14.734  1.00  0.00     0.166 HD
BRANCH  24  26
HETATM   26  N3  UNL     1      92.663  11.178  14.083  1.00  0.00    -0.385 N 
ATOM     27  H32 UNL     1      93.267  10.713  13.405  1.00  0.00     0.157 HD
ATOM     28  H31 UNL     1      93.074  11.428  14.982  1.00  0.00     0.157 HD
ENDBRANCH  24  26
ENDBRANCH  14  19
BRANCH  17  29
HETATM   29  C16 UNL     1      92.930  16.968  12.181  1.00  0.00    -0.059 C 
HETATM   30  C17 UNL     1      93.783  17.465  13.294  1.00  0.00     0.045 C 
HETATM   31  C18 UNL     1      92.806  17.759  10.964  1.00  0.00     0.045 C 
ENDBRANCH  17  29
ENDBRANCH   2  12
BRANCH   1  32
HETATM   32  C5  UNL     1      96.458  15.665  11.621  1.00  0.00     0.080 C 
BRANCH  32  33
HETATM   33  C4  UNL     1      96.564  14.368  12.381  1.00  0.00    -0.048 A 
HETATM   34  C3  UNL     1      95.753  14.088  13.447  1.00  0.00     0.063 A 
HETATM   35  C2  UNL     1      95.853  12.867  14.118  1.00  0.00     0.141 A 
HETATM   36  N8  UNL     1      96.757  11.997  13.688  1.00  0.00    -0.347 N 
HETATM   37  C30 UNL     1      97.588  12.194  12.653  1.00  0.00     0.090 A 
ATOM     38  H8  UNL     1      96.826  11.107  14.183  1.00  0.00     0.167 HD
HETATM   39  C29 UNL     1      97.472  13.415  11.999  1.00  0.00     0.024 A 
BRANCH  35  40
HETATM   40  O1  UNL     1      95.047  12.579  15.183  1.00  0.00    -0.341 OA
HETATM   41  C1  UNL     1      94.502  13.616  15.983  1.00  0.00     0.211 C 
ENDBRANCH  35  40
ENDBRANCH  32  33
ENDBRANCH   1  32
BRANCH  10  42
HETATM   42  C23 UNL     1      98.557  16.516   9.310  1.00  0.00     0.010 A 
HETATM   43  C24 UNL     1      98.423  17.874   9.659  1.00  0.00     0.101 A 
HETATM   44  N7  UNL     1      99.399  18.475  10.384  1.00  0.00    -0.372 N 
HETATM   45  C25 UNL     1     100.509  17.849  10.803  1.00  0.00     0.130 A 
ATOM     46  H7  UNL     1      99.283  19.460  10.624  1.00  0.00     0.164 HD
HETATM   47  C26 UNL     1     100.657  16.520  10.473  1.00  0.00     0.132 A 
HETATM   48  F1  UNL     1     101.760  15.818  10.864  1.00  0.00    -0.205 F 
HETATM   49  C27 UNL     1      99.676  15.869   9.728  1.00  0.00     0.058 A 
ENDBRANCH  10  42
TORSDOF 8
ENDMDL
MODEL 2
REMARK VINA RESULT: -8.782246600      3.243      5.286
REMARK  8 active torsions:
REMARK  status: ('A' for Active; 'I' for Inactive)
REMARK    1  A    between atoms: O1_2  and  C2_3 
REMARK    2  A    between atoms: C4_5  and  C5_6 
REMARK    3  A    between atoms: C5_6  and  C6_7 
REMARK    4  A    between atoms: C7_8  and  C8_9 
REMARK    5  A    between atoms: C9_12  and  C10_13 
REMARK    6  A    between atoms: C14_19  and  N3_20 
REMARK    7  A    between atoms: C15_25  and  C16_26 
REMARK    8  A    between atoms: C22_36  and  C23_37 
ROOT
HETATM    1  C6  UNL     1      95.462  14.787  10.674  1.00  0.00    -0.010 A 
HETATM    2  C7  UNL     1      94.386  13.928  10.885  1.00  0.00     0.069 A 
HETATM    3  N5  UNL     1      94.845  12.937  11.672  1.00  0.00    -0.353 N 
ATOM      4  H5  UNL     1      94.270  12.160  11.996  1.00  0.00     0.166 HD
HETATM    5  C19 UNL     1      96.132  13.083  11.983  1.00  0.00     0.047 A 
HETATM    6  C20 UNL     1      97.011  12.342  12.745  1.00  0.00     0.047 A 
HETATM    7  C21 UNL     1      98.304  12.768  12.874  1.00  0.00     0.090 A 
HETATM    8  N6  UNL     1      98.750  13.883  12.280  1.00  0.00    -0.364 N 
ATOM      9  H6  UNL     1      99.721  14.177  12.391  1.00  0.00     0.165 HD
HETATM   10  C22 UNL     1      97.872  14.630  11.512  1.00  0.00     0.057 A 
HETATM   11  C28 UNL     1      96.557  14.268  11.345  1.00  0.00     0.027 A 
ENDROOT
BRANCH   2  12
HETATM   12  C8  UNL     1      93.037  13.934  10.338  1.00  0.00     0.088 A 
HETATM   13  N1  UNL     1      92.713  13.113   9.308  1.00  0.00    -0.338 N 
HETATM   14  C9  UNL     1      91.443  13.268   8.953  1.00  0.00     0.120 A 
ATOM     15  H1  UNL     1      93.360  12.462   8.864  1.00  0.00     0.167 HD
HETATM   16  N4  UNL     1      90.952  14.225   9.794  1.00  0.00    -0.340 N 
HETATM   17  C15 UNL     1      91.935  14.640  10.644  1.00  0.00     0.064 A 
ATOM     18  H4  UNL     1      89.995  14.577   9.788  1.00  0.00     0.167 HD
BRANCH  14  19
HETATM   19  C10 UNL     1      90.626  12.680   7.895  1.00  0.00     0.052 A 
HETATM   20  C11 UNL     1      90.058  11.428   8.125  1.00  0.00     0.020 A 
HETATM   21  C12 UNL     1      89.248  10.790   7.213  1.00  0.00     0.018 A 
HETATM   22  C13 UNL     1      89.003  11.440   6.029  1.00  0.00     0.089 A 
HETATM   23  N2  UNL     1      89.540  12.629   5.806  1.00  0.00    -0.352 N 
HETATM   24  C14 UNL     1      90.367  13.299   6.713  1.00  0.00     0.112 A 
ATOM     25  H2  UNL     1      89.338  13.085   4.916  1.00  0.00     0.166 HD
BRANCH  24  26
HETATM   26  N3  UNL     1      90.748  14.406   6.367  1.00  0.00    -0.385 N 
ATOM     27  H32 UNL     1      90.015  15.085   6.165  1.00  0.00     0.157 HD
ATOM     28  H31 UNL     1      91.715  14.723   6.292  1.00  0.00     0.157 HD
ENDBRANCH  24  26
ENDBRANCH  14  19
BRANCH  17  29
HETATM   29  C16 UNL     1      91.716  15.829  11.541  1.00  0.00    -0.059 C 
HETATM   30  C17 UNL     1      91.913  15.530  12.986  1.00  0.00     0.045 C 
HETATM   31  C18 UNL     1      92.050  17.152  11.031  1.00  0.00     0.045 C 
ENDBRANCH  17  29
ENDBRANCH   2  12
BRANCH   1  32
HETATM   32  C5  UNL     1      95.321  16.071   9.979  1.00  0.00     0.080 C 
BRANCH  32  33
HETATM   33  C4  UNL     1      95.320  15.777   8.500  1.00  0.00    -0.048 A 
HETATM   34  C3  UNL     1      96.479  15.572   7.805  1.00  0.00     0.063 A 
HETATM   35  C2  UNL     1      96.449  15.274   6.440  1.00  0.00     0.141 A 
HETATM   36  N8  UNL     1      95.264  15.200   5.849  1.00  0.00    -0.347 N 
HETATM   37  C30 UNL     1      94.083  15.387   6.459  1.00  0.00     0.090 A 
ATOM     38  H8  UNL     1      95.249  14.983   4.852  1.00  0.00     0.167 HD
HETATM   39  C29 UNL     1      94.136  15.682   7.817  1.00  0.00     0.024 A 
BRANCH  35  40
HETATM   40  O1  UNL     1      97.603  15.067   5.738  1.00  0.00    -0.341 OA
HETATM   41  C1  UNL     1      98.865  15.113   6.384  1.00  0.00     0.211 C 
ENDBRANCH  35  40
ENDBRANCH  32  33
ENDBRANCH   1  32
BRANCH  10  42
HETATM   42  C23 UNL     1      98.433  15.755  10.805  1.00  0.00     0.010 A 
HETATM   43  C24 UNL     1      99.378  15.592   9.774  1.00  0.00     0.101 A 
HETATM   44  N7  UNL     1      99.898  16.688   9.166  1.00  0.00    -0.372 N 
HETATM   45  C25 UNL     1      99.564  17.946   9.488  1.00  0.00     0.130 A 
ATOM     46  H7  UNL     1     100.582  16.547   8.422  1.00  0.00     0.164 HD
HETATM   47  C26 UNL     1      98.641  18.126  10.493  1.00  0.00     0.132 A 
HETATM   48  F1  UNL     1      98.253  19.378  10.874  1.00  0.00    -0.205 F 
HETATM   49  C27 UNL     1      98.086  17.025  11.141  1.00  0.00     0.058 A 
ENDBRANCH  10  42
TORSDOF 8
ENDMDL
MODEL 3
REMARK VINA RESULT: -8.766671072      2.294      3.685
REMARK  8 active torsions:
REMARK  status: ('A' for Active; 'I' for Inactive)
REMARK    1  A    between atoms: O1_2  and  C2_3 
REMARK    2  A    between atoms: C4_5  and  C5_6 
REMARK    3  A    between atoms: C5_6  and  C6_7 
REMARK    4  A    between atoms: C7_8  and  C8_9 
REMARK    5  A    between atoms: C9_12  and  C10_13 
REMARK    6  A    between atoms: C14_19  and  N3_20 
REMARK    7  A    between atoms: C15_25  and  C16_26 
REMARK    8  A    between atoms: C22_36  and  C23_37 
ROOT
HETATM    1  C6  UNL     1      96.881  15.983  10.175  1.00  0.00    -0.010 A 
HETATM    2  C7  UNL     1      95.539  15.846   9.822  1.00  0.00     0.069 A 
HETATM    3  N5  UNL     1      95.522  15.623   8.494  1.00  0.00    -0.353 N 
ATOM      4  H5  UNL     1      94.667  15.479   7.957  1.00  0.00     0.166 HD
HETATM    5  C19 UNL     1      96.741  15.610   7.959  1.00  0.00     0.047 A 
HETATM    6  C20 UNL     1      97.210  15.421   6.676  1.00  0.00     0.047 A 
HETATM    7  C21 UNL     1      98.556  15.468   6.444  1.00  0.00     0.090 A 
HETATM    8  N6  UNL     1      99.441  15.696   7.424  1.00  0.00    -0.364 N 
ATOM      9  H6  UNL     1     100.441  15.728   7.223  1.00  0.00     0.165 HD
HETATM   10  C22 UNL     1      98.976  15.889   8.714  1.00  0.00     0.057 A 
HETATM   11  C28 UNL     1      97.638  15.846   9.023  1.00  0.00     0.027 A 
ENDROOT
BRANCH   2  12
HETATM   12  C8  UNL     1      94.324  15.998  10.607  1.00  0.00     0.088 A 
HETATM   13  N1  UNL     1      94.193  17.037  11.471  1.00  0.00    -0.338 N 
HETATM   14  C9  UNL     1      93.021  16.999  12.092  1.00  0.00     0.120 A 
ATOM     15  H1  UNL     1      94.903  17.753  11.622  1.00  0.00     0.167 HD
HETATM   16  N4  UNL     1      92.392  15.892  11.599  1.00  0.00    -0.340 N 
HETATM   17  C15 UNL     1      93.197  15.271  10.688  1.00  0.00     0.064 A 
ATOM     18  H4  UNL     1      91.460  15.576  11.870  1.00  0.00     0.167 HD
BRANCH  14  19
HETATM   19  C10 UNL     1      92.417  17.829  13.129  1.00  0.00     0.052 A 
HETATM   20  C11 UNL     1      91.034  18.013  13.100  1.00  0.00     0.020 A 
HETATM   21  C12 UNL     1      90.353  18.750  14.042  1.00  0.00     0.018 A 
HETATM   22  C13 UNL     1      91.093  19.324  15.046  1.00  0.00     0.089 A 
HETATM   23  N2  UNL     1      92.406  19.153  15.077  1.00  0.00    -0.352 N 
HETATM   24  C14 UNL     1      93.123  18.409  14.135  1.00  0.00     0.112 A 
ATOM     25  H2  UNL     1      92.926  19.591  15.837  1.00  0.00     0.166 HD
BRANCH  24  26
HETATM   26  N3  UNL     1      94.324  18.320  14.332  1.00  0.00    -0.385 N 
ATOM     27  H32 UNL     1      94.602  18.068  15.280  1.00  0.00     0.157 HD
ATOM     28  H31 UNL     1      95.067  18.440  13.643  1.00  0.00     0.157 HD
ENDBRANCH  24  26
ENDBRANCH  14  19
BRANCH  17  29
HETATM   29  C16 UNL     1      92.827  13.918  10.141  1.00  0.00    -0.059 C 
HETATM   30  C17 UNL     1      92.350  13.956   8.731  1.00  0.00     0.045 C 
HETATM   31  C18 UNL     1      93.561  12.755  10.619  1.00  0.00     0.045 C 
ENDBRANCH  17  29
ENDBRANCH   2  12
BRANCH   1  32
HETATM   32  C5  UNL     1      97.321  16.094  11.570  1.00  0.00     0.080 C 
BRANCH  32  33
HETATM   33  C4  UNL     1      97.132  14.739  12.203  1.00  0.00    -0.048 A 
HETATM   34  C3  UNL     1      96.033  14.444  12.962  1.00  0.00     0.063 A 
HETATM   35  C2  UNL     1      95.869  13.173  13.516  1.00  0.00     0.141 A 
HETATM   36  N8  UNL     1      96.812  12.269  13.281  1.00  0.00    -0.347 N 
HETATM   37  C30 UNL     1      97.917  12.478  12.549  1.00  0.00     0.090 A 
ATOM     38  H8  UNL     1      96.686  11.342  13.690  1.00  0.00     0.167 HD
HETATM   39  C29 UNL     1      98.061  13.750  12.007  1.00  0.00     0.024 A 
BRANCH  35  40
HETATM   40  O1  UNL     1      94.774  12.870  14.275  1.00  0.00    -0.341 OA
HETATM   41  C1  UNL     1      93.635  13.715  14.276  1.00  0.00     0.211 C 
ENDBRANCH  35  40
ENDBRANCH  32  33
ENDBRANCH   1  32
BRANCH  10  42
HETATM   42  C23 UNL     1      99.961  16.243   9.707  1.00  0.00     0.010 A 
HETATM   43  C24 UNL     1     100.166  17.577  10.112  1.00  0.00     0.101 A 
HETATM   44  N7  UNL     1     101.130  17.856  11.024  1.00  0.00    -0.372 N 
HETATM   45  C25 UNL     1     101.920  16.926  11.581  1.00  0.00     0.130 A 
ATOM     46  H7  UNL     1     101.262  18.829  11.303  1.00  0.00     0.164 HD
HETATM   47  C26 UNL     1     101.735  15.616  11.198  1.00  0.00     0.132 A 
HETATM   48  F1  UNL     1     102.502  14.617  11.722  1.00  0.00    -0.205 F 
HETATM   49  C27 UNL     1     100.755  15.291  10.263  1.00  0.00     0.058 A 
ENDBRANCH  10  42
TORSDOF 8
ENDMDL
MODEL 4
REMARK VINA RESULT: -8.753044554      2.296      3.803
REMARK  8 active torsions:
REMARK  status: ('A' for Active; 'I' for Inactive)
REMARK    1  A    between atoms: O1_2  and  C2_3 
REMARK    2  A    between atoms: C4_5  and  C5_6 
REMARK    3  A    between atoms: C5_6  and  C6_7 
REMARK    4  A    between atoms: C7_8  and  C8_9 
REMARK    5  A    between atoms: C9_12  and  C10_13 
REMARK    6  A    between atoms: C14_19  and  N3_20 
REMARK    7  A    between atoms: C15_25  and  C16_26 
REMARK    8  A    between atoms: C22_36  and  C23_37 
ROOT
HETATM    1  C6  UNL     1      96.835  16.017  10.177  1.00  0.00    -0.010 A 
HETATM    2  C7  UNL     1      95.489  15.895   9.838  1.00  0.00     0.069 A 
HETATM    3  N5  UNL     1      95.456  15.663   8.512  1.00  0.00    -0.353 N 
ATOM      4  H5  UNL     1      94.595  15.527   7.984  1.00  0.00     0.166 HD
HETATM    5  C19 UNL     1      96.670  15.632   7.966  1.00  0.00     0.047 A 
HETATM    6  C20 UNL     1      97.125  15.429   6.680  1.00  0.00     0.047 A 
HETATM    7  C21 UNL     1      98.469  15.457   6.434  1.00  0.00     0.090 A 
HETATM    8  N6  UNL     1      99.366  15.681   7.405  1.00  0.00    -0.364 N 
ATOM      9  H6  UNL     1     100.364  15.699   7.194  1.00  0.00     0.165 HD
HETATM   10  C22 UNL     1      98.915  15.887   8.698  1.00  0.00     0.057 A 
HETATM   11  C28 UNL     1      97.580  15.864   9.020  1.00  0.00     0.027 A 
ENDROOT
BRANCH   2  12
HETATM   12  C8  UNL     1      94.283  16.067  10.634  1.00  0.00     0.088 A 
HETATM   13  N1  UNL     1      94.173  17.113  11.491  1.00  0.00    -0.338 N 
HETATM   14  C9  UNL     1      93.007  17.093  12.124  1.00  0.00     0.120 A 
ATOM     15  H1  UNL     1      94.893  17.821  11.631  1.00  0.00     0.167 HD
HETATM   16  N4  UNL     1      92.359  15.991  11.644  1.00  0.00    -0.340 N 
HETATM   17  C15 UNL     1      93.148  15.354  10.730  1.00  0.00     0.064 A 
ATOM     18  H4  UNL     1      91.427  15.688  11.926  1.00  0.00     0.167 HD
BRANCH  14  19
HETATM   19  C10 UNL     1      92.422  17.938  13.161  1.00  0.00     0.052 A 
HETATM   20  C11 UNL     1      93.287  18.597  14.035  1.00  0.00     0.020 A 
HETATM   21  C12 UNL     1      92.851  19.441  15.031  1.00  0.00     0.018 A 
HETATM   22  C13 UNL     1      91.496  19.624  15.150  1.00  0.00     0.089 A 
HETATM   23  N2  UNL     1      90.671  19.001  14.323  1.00  0.00    -0.352 N 
HETATM   24  C14 UNL     1      91.086  18.139  13.303  1.00  0.00     0.112 A 
ATOM     25  H2  UNL     1      89.670  19.160  14.437  1.00  0.00     0.166 HD
BRANCH  24  26
HETATM   26  N3  UNL     1      90.198  17.675  12.605  1.00  0.00    -0.385 N 
ATOM     27  H32 UNL     1      90.390  17.644  11.604  1.00  0.00     0.157 HD
ATOM     28  H31 UNL     1      89.308  17.292  12.924  1.00  0.00     0.157 HD
ENDBRANCH  24  26
ENDBRANCH  14  19
BRANCH  17  29
HETATM   29  C16 UNL     1      92.757  14.003  10.195  1.00  0.00    -0.059 C 
HETATM   30  C17 UNL     1      92.209  14.045   8.812  1.00  0.00     0.045 C 
HETATM   31  C18 UNL     1      93.519  12.840  10.629  1.00  0.00     0.045 C 
ENDBRANCH  17  29
ENDBRANCH   2  12
BRANCH   1  32
HETATM   32  C5  UNL     1      97.290  16.131  11.567  1.00  0.00     0.080 C 
BRANCH  32  33
HETATM   33  C4  UNL     1      97.105  14.778  12.207  1.00  0.00    -0.048 A 
HETATM   34  C3  UNL     1      96.005  14.482  12.963  1.00  0.00     0.063 A 
HETATM   35  C2  UNL     1      95.844  13.213  13.522  1.00  0.00     0.141 A 
HETATM   36  N8  UNL     1      96.791  12.312  13.295  1.00  0.00    -0.347 N 
HETATM   37  C30 UNL     1      97.898  12.523  12.567  1.00  0.00     0.090 A 
ATOM     38  H8  UNL     1      96.669  11.387  13.708  1.00  0.00     0.167 HD
HETATM   39  C29 UNL     1      98.039  13.793  12.019  1.00  0.00     0.024 A 
BRANCH  35  40
HETATM   40  O1  UNL     1      94.747  12.908  14.278  1.00  0.00    -0.341 OA
HETATM   41  C1  UNL     1      93.626  13.776  14.314  1.00  0.00     0.211 C 
ENDBRANCH  35  40
ENDBRANCH  32  33
ENDBRANCH   1  32
BRANCH  10  42
HETATM   42  C23 UNL     1      99.915  16.235   9.679  1.00  0.00     0.010 A 
HETATM   43  C24 UNL     1     100.130  17.567  10.084  1.00  0.00     0.101 A 
HETATM   44  N7  UNL     1     101.106  17.840  10.985  1.00  0.00    -0.372 N 
HETATM   45  C25 UNL     1     101.899  16.906  11.530  1.00  0.00     0.130 A 
ATOM     46  H7  UNL     1     101.246  18.812  11.264  1.00  0.00     0.164 HD
HETATM   47  C26 UNL     1     101.703  15.598  11.147  1.00  0.00     0.132 A 
HETATM   48  F1  UNL     1     102.472  14.594  11.660  1.00  0.00    -0.205 F 
HETATM   49  C27 UNL     1     100.711  15.279  10.223  1.00  0.00     0.058 A 
ENDBRANCH  10  42
TORSDOF 8
ENDMDL
MODEL 5
REMARK VINA RESULT: -8.685024145      2.418      3.819
REMARK  8 active torsions:
REMARK  status: ('A' for Active; 'I' for Inactive)
REMARK    1  A    between atoms: O1_2  and  C2_3 
REMARK    2  A    between atoms: C4_5  and  C5_6 
REMARK    3  A    between atoms: C5_6  and  C6_7 
REMARK    4  A    between atoms: C7_8  and  C8_9 
REMARK    5  A    between atoms: C9_12  and  C10_13 
REMARK    6  A    between atoms: C14_19  and  N3_20 
REMARK    7  A    between atoms: C15_25  and  C16_26 
REMARK    8  A    between atoms: C22_36  and  C23_37 
ROOT
HETATM    1  C6  UNL     1      96.914  15.984  10.139  1.00  0.00    -0.010 A 
HETATM    2  C7  UNL     1      95.566  15.873   9.803  1.00  0.00     0.069 A 
HETATM    3  N5  UNL     1      95.527  15.651   8.477  1.00  0.00    -0.353 N 
ATOM      4  H5  UNL     1      94.662  15.523   7.950  1.00  0.00     0.166 HD
HETATM    5  C19 UNL     1      96.738  15.615   7.925  1.00  0.00     0.047 A 
HETATM    6  C20 UNL     1      97.187  15.418   6.636  1.00  0.00     0.047 A 
HETATM    7  C21 UNL     1      98.530  15.440   6.386  1.00  0.00     0.090 A 
HETATM    8  N6  UNL     1      99.432  15.651   7.354  1.00  0.00    -0.364 N 
ATOM      9  H6  UNL     1     100.430  15.664   7.140  1.00  0.00     0.165 HD
HETATM   10  C22 UNL     1      98.988  15.851   8.651  1.00  0.00     0.057 A 
HETATM   11  C28 UNL     1      97.653  15.834   8.977  1.00  0.00     0.027 A 
ENDROOT
BRANCH   2  12
HETATM   12  C8  UNL     1      94.364  16.047  10.605  1.00  0.00     0.088 A 
HETATM   13  N1  UNL     1      94.273  17.074  11.487  1.00  0.00    -0.338 N 
HETATM   14  C9  UNL     1      93.107  17.060  12.121  1.00  0.00     0.120 A 
ATOM     15  H1  UNL     1      95.005  17.767  11.642  1.00  0.00     0.167 HD
HETATM   16  N4  UNL     1      92.440  15.981  11.616  1.00  0.00    -0.340 N 
HETATM   17  C15 UNL     1      93.217  15.352  10.687  1.00  0.00     0.064 A 
ATOM     18  H4  UNL     1      91.503  15.688  11.893  1.00  0.00     0.167 HD
BRANCH  14  19
HETATM   19  C10 UNL     1      92.539  17.891  13.178  1.00  0.00     0.052 A 
HETATM   20  C11 UNL     1      91.161  18.105  13.175  1.00  0.00     0.020 A 
HETATM   21  C12 UNL     1      90.512  18.846  14.136  1.00  0.00     0.018 A 
HETATM   22  C13 UNL     1      91.281  19.390  15.135  1.00  0.00     0.089 A 
HETATM   23  N2  UNL     1      92.590  19.189  15.142  1.00  0.00    -0.352 N 
HETATM   24  C14 UNL     1      93.275  18.442  14.179  1.00  0.00     0.112 A 
ATOM     25  H2  UNL     1      93.132  19.606  15.899  1.00  0.00     0.166 HD
BRANCH  24  26
HETATM   26  N3  UNL     1      94.477  18.324  14.355  1.00  0.00    -0.385 N 
ATOM     27  H32 UNL     1      95.035  18.174  13.514  1.00  0.00     0.157 HD
ATOM     28  H31 UNL     1      94.975  18.391  15.242  1.00  0.00     0.157 HD
ENDBRANCH  24  26
ENDBRANCH  14  19
BRANCH  17  29
HETATM   29  C16 UNL     1      92.801  14.020  10.121  1.00  0.00    -0.059 C 
HETATM   30  C17 UNL     1      92.321  14.094   8.714  1.00  0.00     0.045 C 
HETATM   31  C18 UNL     1      93.499  12.827  10.580  1.00  0.00     0.045 C 
ENDBRANCH  17  29
ENDBRANCH   2  12
BRANCH   1  32
HETATM   32  C5  UNL     1      97.374  16.085  11.528  1.00  0.00     0.080 C 
BRANCH  32  33
HETATM   33  C4  UNL     1      97.174  14.732  12.162  1.00  0.00    -0.048 A 
HETATM   34  C3  UNL     1      96.060  14.439  12.898  1.00  0.00     0.063 A 
HETATM   35  C2  UNL     1      95.885  13.168  13.452  1.00  0.00     0.141 A 
HETATM   36  N8  UNL     1      96.834  12.265  13.240  1.00  0.00    -0.347 N 
HETATM   37  C30 UNL     1      97.954  12.474  12.531  1.00  0.00     0.090 A 
ATOM     38  H8  UNL     1      96.701  11.340  13.649  1.00  0.00     0.167 HD
HETATM   39  C29 UNL     1      98.108  13.744  11.988  1.00  0.00     0.024 A 
BRANCH  35  40
HETATM   40  O1  UNL     1      94.775  12.866  14.189  1.00  0.00    -0.341 OA
HETATM   41  C1  UNL     1      93.688  13.774  14.270  1.00  0.00     0.211 C 
ENDBRANCH  35  40
ENDBRANCH  32  33
ENDBRANCH   1  32
BRANCH  10  42
HETATM   42  C23 UNL     1      99.993  16.186   9.630  1.00  0.00     0.010 A 
HETATM   43  C24 UNL     1     100.834  15.211  10.200  1.00  0.00     0.101 A 
HETATM   44  N7  UNL     1     101.739  15.578  11.141  1.00  0.00    -0.372 N 
HETATM   45  C25 UNL     1     101.891  16.837  11.577  1.00  0.00     0.130 A 
ATOM     46  H7  UNL     1     102.337  14.855  11.541  1.00  0.00     0.164 HD
HETATM   47  C26 UNL     1     101.078  17.806  11.031  1.00  0.00     0.132 A 
HETATM   48  F1  UNL     1     101.176  19.108  11.426  1.00  0.00    -0.205 F 
HETATM   49  C27 UNL     1     100.136  17.466  10.062  1.00  0.00     0.058 A 
ENDBRANCH  10  42
TORSDOF 8
ENDMDL
