MODEL 1
REMARK VINA RESULT: -7.784048539      0.000      0.000
REMARK  7 active torsions:
REMARK  status: ('A' for Active; 'I' for Inactive)
REMARK    1  A    between atoms: C2_2  and  C3_3 
REMARK    2  A    between atoms: C3_3  and  C4_4 
REMARK    3  A    between atoms: C3_3  and  C6_7 
REMARK    4  A    between atoms: C9_11  and  O1_12 
REMARK    5  A    between atoms: C14_20  and  C15_21 
REMARK    6  A    between atoms: C18_24  and  O2_25 
REMARK    7  A    between atoms: C20_27  and  O3_28 
ROOT
HETATM    1  C4  UNL     1     -86.174 -11.361  11.417  1.00  0.00     0.133 C 
HETATM    2  C5  UNL     1     -87.425 -10.664  11.808  1.00  0.00     0.059 C 
HETATM    3  N1  UNL     1     -88.393 -10.119  12.133  1.00  0.00    -0.197 NA
ENDROOT
BRANCH   1   4
HETATM    4  C3  UNL     1     -86.565 -12.763  10.989  1.00  0.00     0.032 C 
BRANCH   4   5
HETATM    5  C2  UNL     1     -85.727 -13.012   9.720  1.00  0.00     0.006 C 
HETATM    6  C1  UNL     1     -86.664 -13.490   8.598  1.00  0.00     0.006 C 
ENDBRANCH   4   5
BRANCH   4   7
HETATM    7  C6  UNL     1     -86.184 -13.684  12.080  1.00  0.00    -0.038 A 
HETATM    8  C7  UNL     1     -84.859 -14.077  12.265  1.00  0.00     0.030 A 
HETATM    9  C8  UNL     1     -84.543 -14.889  13.325  1.00  0.00     0.046 A 
HETATM   10 BR1  UNL     1     -82.740 -15.422  13.576  1.00  0.00    -0.048 Br
HETATM   11  C9  UNL     1     -85.486 -15.335  14.222  1.00  0.00     0.110 A 
HETATM   12  C10 UNL     1     -86.813 -14.947  14.042  1.00  0.00     0.079 A 
HETATM   13  N2  UNL     1     -87.910 -15.230  14.760  1.00  0.00    -0.348 N 
HETATM   14  C13 UNL     1     -87.142 -14.120  12.961  1.00  0.00     0.011 A 
HETATM   15  C11 UNL     1     -88.977 -14.621  14.196  1.00  0.00     0.111 A 
ATOM     16  H2  UNL     1     -87.935 -15.813  15.597  1.00  0.00     0.166 HD
HETATM   17  C12 UNL     1     -88.539 -13.939  13.086  1.00  0.00     0.015 A 
HETATM   18  C23 UNL     1     -90.393 -14.323  14.387  1.00  0.00     0.269 C 
HETATM   19  C14 UNL     1     -89.688 -13.383  12.410  1.00  0.00     0.155 C 
HETATM   20  N3  UNL     1     -90.774 -13.431  13.362  1.00  0.00    -0.343 N 
ATOM     21  H3  UNL     1     -91.652 -12.915  13.304  1.00  0.00     0.163 HD
HETATM   22  O4  UNL     1     -91.168 -14.765  15.295  1.00  0.00    -0.266 OA
BRANCH  11  23
HETATM   23  O1  UNL     1     -85.154 -16.158  15.294  1.00  0.00    -0.357 OA
ATOM     24  H1  UNL     1     -85.622 -16.122  16.121  1.00  0.00     0.217 HD
ENDBRANCH  11  23
BRANCH  19  25
HETATM   25  C15 UNL     1     -90.208 -14.272  11.281  1.00  0.00    -0.028 A 
HETATM   26  C16 UNL     1     -89.387 -14.701  10.284  1.00  0.00     0.012 A 
HETATM   27  C17 UNL     1     -89.938 -15.513   9.285  1.00  0.00     0.040 A 
HETATM   28  C18 UNL     1     -91.256 -15.872   9.296  1.00  0.00     0.101 A 
HETATM   29  C20 UNL     1     -92.053 -15.407  10.338  1.00  0.00     0.102 A 
HETATM   30  C22 UNL     1     -91.541 -14.598  11.350  1.00  0.00     0.049 A 
BRANCH  28  31
HETATM   31  O2  UNL     1     -91.793 -16.669   8.311  1.00  0.00    -0.353 OA
HETATM   32  C19 UNL     1     -91.732 -18.050   8.217  1.00  0.00     0.210 C 
ENDBRANCH  28  31
BRANCH  29  33
HETATM   33  O3  UNL     1     -93.380 -15.787  10.321  1.00  0.00    -0.353 OA
HETATM   34  C21 UNL     1     -93.928 -16.838  11.070  1.00  0.00     0.210 C 
ENDBRANCH  29  33
ENDBRANCH  19  25
ENDBRANCH   4   7
ENDBRANCH   1   4
TORSDOF 7
ENDMDL
MODEL 2
REMARK VINA RESULT: -7.463445190      2.794      4.838
REMARK  7 active torsions:
REMARK  status: ('A' for Active; 'I' for Inactive)
REMARK    1  A    between atoms: C2_2  and  C3_3 
REMARK    2  A    between atoms: C3_3  and  C4_4 
REMARK    3  A    between atoms: C3_3  and  C6_7 
REMARK    4  A    between atoms: C9_11  and  O1_12 
REMARK    5  A    between atoms: C14_20  and  C15_21 
REMARK    6  A    between atoms: C18_24  and  O2_25 
REMARK    7  A    between atoms: C20_27  and  O3_28 
ROOT
HETATM    1  C4  UNL     1     -86.467 -16.082  14.617  1.00  0.00     0.133 C 
HETATM    2  C5  UNL     1     -87.198 -17.374  14.637  1.00  0.00     0.059 C 
HETATM    3  N1  UNL     1     -87.754 -18.390  14.638  1.00  0.00    -0.197 NA
ENDROOT
BRANCH   1   4
HETATM    4  C3  UNL     1     -87.456 -15.024  14.165  1.00  0.00     0.032 C 
BRANCH   4   5
HETATM    5  C2  UNL     1     -88.460 -14.929  15.329  1.00  0.00     0.006 C 
HETATM    6  C1  UNL     1     -89.781 -14.352  14.794  1.00  0.00     0.006 C 
ENDBRANCH   4   5
BRANCH   4   7
HETATM    7  C6  UNL     1     -86.708 -13.762  13.990  1.00  0.00    -0.038 A 
HETATM    8  C7  UNL     1     -86.313 -12.997  15.087  1.00  0.00     0.030 A 
HETATM    9  C8  UNL     1     -85.571 -11.862  14.881  1.00  0.00     0.046 A 
HETATM   10 BR1  UNL     1     -85.034 -10.823  16.374  1.00  0.00    -0.048 Br
HETATM   11  C9  UNL     1     -85.196 -11.441  13.626  1.00  0.00     0.110 A 
HETATM   12  C10 UNL     1     -85.588 -12.201  12.524  1.00  0.00     0.079 A 
HETATM   13  N2  UNL     1     -85.357 -12.022  11.215  1.00  0.00    -0.348 N 
HETATM   14  C13 UNL     1     -86.347 -13.360  12.728  1.00  0.00     0.011 A 
HETATM   15  C11 UNL     1     -85.939 -13.027  10.522  1.00  0.00     0.111 A 
ATOM     16  H2  UNL     1     -84.827 -11.252  10.807  1.00  0.00     0.166 HD
HETATM   17  C12 UNL     1     -86.561 -13.858  11.422  1.00  0.00     0.015 A 
HETATM   18  C23 UNL     1     -86.058 -13.620   9.193  1.00  0.00     0.269 C 
HETATM   19  C14 UNL     1     -87.285 -14.867  10.685  1.00  0.00     0.155 C 
HETATM   20  N3  UNL     1     -86.758 -14.836   9.341  1.00  0.00    -0.343 N 
ATOM     21  H3  UNL     1     -86.871 -15.560   8.630  1.00  0.00     0.163 HD
HETATM   22  O4  UNL     1     -85.625 -13.156   8.090  1.00  0.00    -0.266 OA
BRANCH  11  23
HETATM   23  O1  UNL     1     -84.443 -10.288  13.428  1.00  0.00    -0.357 OA
ATOM     24  H1  UNL     1     -83.556 -10.317  13.087  1.00  0.00     0.217 HD
ENDBRANCH  11  23
BRANCH  19  25
HETATM   25  C15 UNL     1     -88.755 -14.511  10.465  1.00  0.00    -0.028 A 
HETATM   26  C16 UNL     1     -89.336 -13.473  11.126  1.00  0.00     0.012 A 
HETATM   27  C17 UNL     1     -90.688 -13.208  10.871  1.00  0.00     0.040 A 
HETATM   28  C18 UNL     1     -91.413 -13.958   9.989  1.00  0.00     0.101 A 
HETATM   29  C20 UNL     1     -90.771 -15.008   9.339  1.00  0.00     0.102 A 
HETATM   30  C22 UNL     1     -89.428 -15.302   9.566  1.00  0.00     0.049 A 
BRANCH  28  31
HETATM   31  O2  UNL     1     -92.741 -13.694   9.742  1.00  0.00    -0.353 OA
HETATM   32  C19 UNL     1     -93.746 -13.484  10.672  1.00  0.00     0.210 C 
ENDBRANCH  28  31
BRANCH  29  33
HETATM   33  O3  UNL     1     -91.531 -15.747   8.454  1.00  0.00    -0.353 OA
HETATM   34  C21 UNL     1     -91.630 -17.146   8.448  1.00  0.00     0.210 C 
ENDBRANCH  29  33
ENDBRANCH  19  25
ENDBRANCH   4   7
ENDBRANCH   1   4
TORSDOF 7
ENDMDL
MODEL 3
REMARK VINA RESULT: -7.384302853      3.119      5.927
REMARK  7 active torsions:
REMARK  status: ('A' for Active; 'I' for Inactive)
REMARK    1  A    between atoms: C2_2  and  C3_3 
REMARK    2  A    between atoms: C3_3  and  C4_4 
REMARK    3  A    between atoms: C3_3  and  C6_7 
REMARK    4  A    between atoms: C9_11  and  O1_12 
REMARK    5  A    between atoms: C14_20  and  C15_21 
REMARK    6  A    between atoms: C18_24  and  O2_25 
REMARK    7  A    between atoms: C20_27  and  O3_28 
ROOT
HETATM    1  C4  UNL     1     -90.763 -14.009  10.659  1.00  0.00     0.133 C 
HETATM    2  C5  UNL     1     -90.745 -13.218  11.916  1.00  0.00     0.059 C 
HETATM    3  N1  UNL     1     -90.728 -12.584  12.884  1.00  0.00    -0.197 NA
ENDROOT
BRANCH   1   4
HETATM    4  C3  UNL     1     -89.580 -14.958  10.718  1.00  0.00     0.032 C 
BRANCH   4   5
HETATM    5  C2  UNL     1     -90.127 -16.271  10.127  1.00  0.00     0.006 C 
HETATM    6  C1  UNL     1     -91.647 -16.129   9.935  1.00  0.00     0.006 C 
ENDBRANCH   4   5
BRANCH   4   7
HETATM    7  C6  UNL     1     -88.510 -14.388   9.873  1.00  0.00    -0.038 A 
HETATM    8  C7  UNL     1     -88.598 -14.408   8.482  1.00  0.00     0.030 A 
HETATM    9  C8  UNL     1     -87.608 -13.817   7.739  1.00  0.00     0.046 A 
HETATM   10 BR1  UNL     1     -87.728 -13.845   5.846  1.00  0.00    -0.048 Br
HETATM   11  C9  UNL     1     -86.521 -13.198   8.313  1.00  0.00     0.110 A 
HETATM   12  C10 UNL     1     -86.427 -13.175   9.705  1.00  0.00     0.079 A 
HETATM   13  N2  UNL     1     -85.492 -12.643  10.507  1.00  0.00    -0.348 N 
HETATM   14  C13 UNL     1     -87.434 -13.778  10.468  1.00  0.00     0.011 A 
HETATM   15  C11 UNL     1     -85.834 -12.869  11.795  1.00  0.00     0.111 A 
ATOM     16  H2  UNL     1     -84.657 -12.147  10.195  1.00  0.00     0.166 HD
HETATM   17  C12 UNL     1     -87.016 -13.570  11.803  1.00  0.00     0.015 A 
HETATM   18  C23 UNL     1     -85.480 -12.551  13.175  1.00  0.00     0.269 C 
HETATM   19  C14 UNL     1     -87.328 -13.921  13.169  1.00  0.00     0.155 C 
HETATM   20  N3  UNL     1     -86.500 -13.075  13.998  1.00  0.00    -0.343 N 
ATOM     21  H3  UNL     1     -86.629 -12.891  14.993  1.00  0.00     0.163 HD
HETATM   22  O4  UNL     1     -84.456 -11.923  13.593  1.00  0.00    -0.266 OA
BRANCH  11  23
HETATM   23  O1  UNL     1     -85.523 -12.601   7.550  1.00  0.00    -0.357 OA
ATOM     24  H1  UNL     1     -85.241 -11.705   7.700  1.00  0.00     0.217 HD
ENDBRANCH  11  23
BRANCH  19  25
HETATM   25  C15 UNL     1     -86.849 -15.320  13.555  1.00  0.00    -0.028 A 
HETATM   26  C16 UNL     1     -85.576 -15.726  13.297  1.00  0.00     0.012 A 
HETATM   27  C17 UNL     1     -85.212 -17.023  13.680  1.00  0.00     0.040 A 
HETATM   28  C18 UNL     1     -86.095 -17.866  14.294  1.00  0.00     0.101 A 
HETATM   29  C20 UNL     1     -87.385 -17.402  14.534  1.00  0.00     0.102 A 
HETATM   30  C22 UNL     1     -87.784 -16.118  14.168  1.00  0.00     0.049 A 
BRANCH  28  31
HETATM   31  O2  UNL     1     -85.733 -19.140  14.667  1.00  0.00    -0.353 OA
HETATM   32  C19 UNL     1     -85.963 -20.319  13.977  1.00  0.00     0.210 C 
ENDBRANCH  28  31
BRANCH  29  33
HETATM   33  O3  UNL     1     -88.254 -18.277  15.155  1.00  0.00    -0.353 OA
HETATM   34  C21 UNL     1     -88.622 -18.224  16.507  1.00  0.00     0.210 C 
ENDBRANCH  29  33
ENDBRANCH  19  25
ENDBRANCH   4   7
ENDBRANCH   1   4
TORSDOF 7
ENDMDL
MODEL 4
REMARK VINA RESULT: -7.317634410      3.254      5.383
REMARK  7 active torsions:
REMARK  status: ('A' for Active; 'I' for Inactive)
REMARK    1  A    between atoms: C2_2  and  C3_3 
REMARK    2  A    between atoms: C3_3  and  C4_4 
REMARK    3  A    between atoms: C3_3  and  C6_7 
REMARK    4  A    between atoms: C9_11  and  O1_12 
REMARK    5  A    between atoms: C14_20  and  C15_21 
REMARK    6  A    between atoms: C18_24  and  O2_25 
REMARK    7  A    between atoms: C20_27  and  O3_28 
ROOT
HETATM    1  C4  UNL     1     -85.443 -16.761  14.269  1.00  0.00     0.133 C 
HETATM    2  C5  UNL     1     -84.036 -16.473  13.894  1.00  0.00     0.059 C 
HETATM    3  N1  UNL     1     -82.935 -16.241  13.621  1.00  0.00    -0.197 NA
ENDROOT
BRANCH   1   4
HETATM    4  C3  UNL     1     -86.321 -15.892  13.388  1.00  0.00     0.032 C 
BRANCH   4   5
HETATM    5  C2  UNL     1     -87.747 -16.407  13.659  1.00  0.00     0.006 C 
HETATM    6  C1  UNL     1     -87.663 -17.605  14.621  1.00  0.00     0.006 C 
ENDBRANCH   4   5
BRANCH   4   7
HETATM    7  C6  UNL     1     -86.156 -14.493  13.836  1.00  0.00    -0.038 A 
HETATM    8  C7  UNL     1     -86.364 -14.131  15.166  1.00  0.00     0.030 A 
HETATM    9  C8  UNL     1     -86.144 -12.832  15.549  1.00  0.00     0.046 A 
HETATM   10 BR1  UNL     1     -86.426 -12.340  17.359  1.00  0.00    -0.048 Br
HETATM   11  C9  UNL     1     -85.723 -11.862  14.668  1.00  0.00     0.110 A 
HETATM   12  C10 UNL     1     -85.515 -12.218  13.336  1.00  0.00     0.079 A 
HETATM   13  N2  UNL     1     -85.108 -11.483  12.290  1.00  0.00    -0.348 N 
HETATM   14  C13 UNL     1     -85.739 -13.542  12.939  1.00  0.00     0.011 A 
HETATM   15  C11 UNL     1     -85.050 -12.270  11.192  1.00  0.00     0.111 A 
ATOM     16  H2  UNL     1     -84.878 -10.489  12.319  1.00  0.00     0.166 HD
HETATM   17  C12 UNL     1     -85.440 -13.536  11.557  1.00  0.00     0.015 A 
HETATM   18  C23 UNL     1     -84.623 -12.306   9.797  1.00  0.00     0.269 C 
HETATM   19  C14 UNL     1     -85.497 -14.355  10.369  1.00  0.00     0.155 C 
HETATM   20  N3  UNL     1     -84.759 -13.639   9.354  1.00  0.00    -0.343 N 
ATOM     21  H3  UNL     1     -84.402 -14.025   8.480  1.00  0.00     0.163 HD
HETATM   22  O4  UNL     1     -84.202 -11.339   9.084  1.00  0.00    -0.266 OA
BRANCH  11  23
HETATM   23  O1  UNL     1     -85.502 -10.547  15.067  1.00  0.00    -0.357 OA
ATOM     24  H1  UNL     1     -85.221  -9.875  14.457  1.00  0.00     0.217 HD
ENDBRANCH  11  23
BRANCH  19  25
HETATM   25  C15 UNL     1     -86.896 -14.431   9.758  1.00  0.00    -0.028 A 
HETATM   26  C16 UNL     1     -87.978 -14.763  10.513  1.00  0.00     0.012 A 
HETATM   27  C17 UNL     1     -89.228 -14.812   9.882  1.00  0.00     0.040 A 
HETATM   28  C18 UNL     1     -89.372 -14.538   8.552  1.00  0.00     0.101 A 
HETATM   29  C20 UNL     1     -88.233 -14.203   7.825  1.00  0.00     0.102 A 
HETATM   30  C22 UNL     1     -86.973 -14.144   8.417  1.00  0.00     0.049 A 
BRANCH  28  31
HETATM   31  O2  UNL     1     -90.601 -14.588   7.936  1.00  0.00    -0.353 OA
HETATM   32  C19 UNL     1     -91.810 -14.123   8.427  1.00  0.00     0.210 C 
ENDBRANCH  28  31
BRANCH  29  33
HETATM   33  O3  UNL     1     -88.412 -13.931   6.482  1.00  0.00    -0.353 OA
HETATM   34  C21 UNL     1     -87.938 -12.790   5.821  1.00  0.00     0.210 C 
ENDBRANCH  29  33
ENDBRANCH  19  25
ENDBRANCH   4   7
ENDBRANCH   1   4
TORSDOF 7
ENDMDL
MODEL 5
REMARK VINA RESULT: -7.230584303      1.425      1.767
REMARK  7 active torsions:
REMARK  status: ('A' for Active; 'I' for Inactive)
REMARK    1  A    between atoms: C2_2  and  C3_3 
REMARK    2  A    between atoms: C3_3  and  C4_4 
REMARK    3  A    between atoms: C3_3  and  C6_7 
REMARK    4  A    between atoms: C9_11  and  O1_12 
REMARK    5  A    between atoms: C14_20  and  C15_21 
REMARK    6  A    between atoms: C18_24  and  O2_25 
REMARK    7  A    between atoms: C20_27  and  O3_28 
ROOT
HETATM    1  C4  UNL     1     -85.389 -11.872  11.077  1.00  0.00     0.133 C 
HETATM    2  C5  UNL     1     -84.708 -11.685   9.771  1.00  0.00     0.059 C 
HETATM    3  N1  UNL     1     -84.186 -11.520   8.751  1.00  0.00    -0.197 NA
ENDROOT
BRANCH   1   4
HETATM    4  C3  UNL     1     -86.273 -13.098  10.941  1.00  0.00     0.032 C 
BRANCH   4   5
HETATM    5  C2  UNL     1     -85.826 -13.735   9.612  1.00  0.00     0.006 C 
HETATM    6  C1  UNL     1     -87.063 -14.307   8.900  1.00  0.00     0.006 C 
ENDBRANCH   4   5
BRANCH   4   7
HETATM    7  C6  UNL     1     -85.986 -13.982  12.090  1.00  0.00    -0.038 A 
HETATM    8  C7  UNL     1     -84.691 -14.425  12.356  1.00  0.00     0.030 A 
HETATM    9  C8  UNL     1     -84.462 -15.199  13.465  1.00  0.00     0.046 A 
HETATM   10 BR1  UNL     1     -82.700 -15.801  13.826  1.00  0.00    -0.048 Br
HETATM   11  C9  UNL     1     -85.465 -15.559  14.336  1.00  0.00     0.110 A 
HETATM   12  C10 UNL     1     -86.762 -15.120  14.076  1.00  0.00     0.079 A 
HETATM   13  N2  UNL     1     -87.903 -15.318  14.753  1.00  0.00    -0.348 N 
HETATM   14  C13 UNL     1     -87.003 -14.331  12.944  1.00  0.00     0.011 A 
HETATM   15  C11 UNL     1     -88.914 -14.689  14.113  1.00  0.00     0.111 A 
ATOM     16  H2  UNL     1     -87.994 -15.859  15.614  1.00  0.00     0.166 HD
HETATM   17  C12 UNL     1     -88.393 -14.082  12.995  1.00  0.00     0.015 A 
HETATM   18  C23 UNL     1     -90.321 -14.318  14.222  1.00  0.00     0.269 C 
HETATM   19  C14 UNL     1     -89.483 -13.507  12.240  1.00  0.00     0.155 C 
HETATM   20  N3  UNL     1     -90.612 -13.460  13.141  1.00  0.00    -0.343 N 
ATOM     21  H3  UNL     1     -91.461 -12.908  13.017  1.00  0.00     0.163 HD
HETATM   22  O4  UNL     1     -91.156 -14.681  15.111  1.00  0.00    -0.266 OA
BRANCH  11  23
HETATM   23  O1  UNL     1     -85.221 -16.343  15.460  1.00  0.00    -0.357 OA
ATOM     24  H1  UNL     1     -85.582 -16.129  16.312  1.00  0.00     0.217 HD
ENDBRANCH  11  23
BRANCH  19  25
HETATM   25  C15 UNL     1     -89.993 -14.425  11.129  1.00  0.00    -0.028 A 
HETATM   26  C16 UNL     1     -89.622 -15.733  11.068  1.00  0.00     0.012 A 
HETATM   27  C17 UNL     1     -90.132 -16.510  10.020  1.00  0.00     0.040 A 
HETATM   28  C18 UNL     1     -90.975 -15.987   9.082  1.00  0.00     0.101 A 
HETATM   29  C20 UNL     1     -91.324 -14.644   9.190  1.00  0.00     0.102 A 
HETATM   30  C22 UNL     1     -90.838 -13.839  10.218  1.00  0.00     0.049 A 
BRANCH  28  31
HETATM   31  O2  UNL     1     -91.473 -16.754   8.053  1.00  0.00    -0.353 OA
HETATM   32  C19 UNL     1     -91.929 -18.061   8.120  1.00  0.00     0.210 C 
ENDBRANCH  28  31
BRANCH  29  33
HETATM   33  O3  UNL     1     -92.179 -14.145   8.227  1.00  0.00    -0.353 OA
HETATM   34  C21 UNL     1     -91.837 -13.186   7.263  1.00  0.00     0.210 C 
ENDBRANCH  29  33
ENDBRANCH  19  25
ENDBRANCH   4   7
ENDBRANCH   1   4
TORSDOF 7
ENDMDL
