MODEL 1
REMARK VINA RESULT: -7.418809947      0.000      0.000
REMARK  9 active torsions:
REMARK  status: ('A' for Active; 'I' for Inactive)
REMARK    1  A    between atoms: S1_2  and  N1_4 
REMARK    2  A    between atoms: S1_2  and  C7_14 
REMARK    3  A    between atoms: N1_4  and  C1_6 
REMARK    4  A    between atoms: C1_6  and  C2_7 
REMARK    5  A    between atoms: C2_7  and  N2_8 
REMARK    6  A    between atoms: C10_17  and  N3_18 
REMARK    7  A    between atoms: N3_18  and  C11_19 
REMARK    8  A    between atoms: C12_20  and  N4_21 
REMARK    9  A    between atoms: N4_21  and  C13_23 
ROOT
HETATM    1  C11 UNL     1      12.500  50.658  82.567  1.00  0.00     0.148 A 
HETATM    2  C12 UNL     1      11.417  50.026  81.928  1.00  0.00     0.091 A 
HETATM    3  C18 UNL     1      11.563  49.583  80.639  1.00  0.00     0.121 A 
HETATM    4  N6  UNL     1      12.704  49.730  79.959  1.00  0.00    -0.363 N 
ATOM      5  H6  UNL     1      12.766  49.385  79.002  1.00  0.00     0.165 HD
HETATM    6  C19 UNL     1      13.760  50.319  80.512  1.00  0.00     0.045 A 
HETATM    7  C20 UNL     1      14.961  50.485  79.835  1.00  0.00     0.030 A 
HETATM    8  C21 UNL     1      16.014  51.099  80.462  1.00  0.00     0.002 A 
HETATM    9  C22 UNL     1      15.938  51.569  81.758  1.00  0.00     0.001 A 
HETATM   10  C23 UNL     1      14.743  51.400  82.422  1.00  0.00     0.017 A 
HETATM   11  C24 UNL     1      13.676  50.777  81.785  1.00  0.00     0.034 A 
ENDROOT
BRANCH   1  12
HETATM   12  N3  UNL     1      12.402  51.048  83.671  1.00  0.00    -0.403 NA
BRANCH  12  13
HETATM   13  C10 UNL     1      12.303  51.491  84.926  1.00  0.00     0.107 A 
HETATM   14  C9  UNL     1      11.672  50.710  85.917  1.00  0.00     0.046 A 
HETATM   15  C8  UNL     1      11.568  51.152  87.201  1.00  0.00     0.028 A 
HETATM   16  C7  UNL     1      12.067  52.369  87.588  1.00  0.00     0.079 A 
HETATM   17  C26 UNL     1      12.681  53.130  86.623  1.00  0.00     0.028 A 
HETATM   18  C25 UNL     1      12.808  52.730  85.334  1.00  0.00     0.046 A 
BRANCH  16  19
HETATM   19  S1  UNL     1      11.909  52.890  89.226  1.00  0.00     0.259 S 
HETATM   20  O1  UNL     1      12.027  51.714  90.163  1.00  0.00    -0.201 OA
HETATM   21  O2  UNL     1      10.622  53.592  89.511  1.00  0.00    -0.201 OA
BRANCH  19  22
HETATM   22  N1  UNL     1      13.263  53.943  89.627  1.00  0.00    -0.311 N 
ATOM     23  H1  UNL     1      14.170  53.934  89.160  1.00  0.00     0.172 HD
BRANCH  22  24
HETATM   24  C1  UNL     1      12.905  54.804  90.695  1.00  0.00     0.176 C 
BRANCH  24  25
HETATM   25  C2  UNL     1      13.431  54.405  92.021  1.00  0.00     0.078 C 
BRANCH  25  26
HETATM   26  N2  UNL     1      12.540  54.495  93.094  1.00  0.00    -0.388 N 
HETATM   27  C3  UNL     1      13.049  54.751  94.390  1.00  0.00     0.148 C 
HETATM   28  C4  UNL     1      12.603  53.613  95.322  1.00  0.00     0.187 C 
HETATM   29  O3  UNL     1      12.889  52.420  94.686  1.00  0.00    -0.388 OA
HETATM   30  C5  UNL     1      12.045  52.159  93.604  1.00  0.00     0.187 C 
HETATM   31  C6  UNL     1      11.492  53.481  93.091  1.00  0.00     0.148 C 
ENDBRANCH  25  26
ENDBRANCH  24  25
ENDBRANCH  22  24
ENDBRANCH  19  22
ENDBRANCH  16  19
ENDBRANCH  12  13
ENDBRANCH   1  12
BRANCH   2  32
HETATM   32  N4  UNL     1      10.214  49.883  82.671  1.00  0.00    -0.339 N 
ATOM     33  H4  UNL     1      10.099  49.127  83.346  1.00  0.00     0.167 HD
BRANCH  32  34
HETATM   34  C13 UNL     1       9.258  50.754  82.462  1.00  0.00     0.105 A 
HETATM   35  C14 UNL     1       8.138  50.420  81.734  1.00  0.00     0.048 A 
HETATM   36  C15 UNL     1       7.113  51.333  81.509  1.00  0.00     0.005 A 
HETATM   37  C16 UNL     1       7.208  52.610  82.023  1.00  0.00     0.017 A 
HETATM   38  C17 UNL     1       8.338  52.919  82.747  1.00  0.00     0.089 A 
HETATM   39  N5  UNL     1       9.329  52.000  82.952  1.00  0.00    -0.352 N 
ATOM     40  H5  UNL     1      10.149  52.272  83.495  1.00  0.00     0.166 HD
ENDBRANCH  32  34
ENDBRANCH   2  32
TORSDOF 9
ENDMDL
MODEL 2
REMARK VINA RESULT: -7.416695717      2.080      2.734
REMARK  9 active torsions:
REMARK  status: ('A' for Active; 'I' for Inactive)
REMARK    1  A    between atoms: S1_2  and  N1_4 
REMARK    2  A    between atoms: S1_2  and  C7_14 
REMARK    3  A    between atoms: N1_4  and  C1_6 
REMARK    4  A    between atoms: C1_6  and  C2_7 
REMARK    5  A    between atoms: C2_7  and  N2_8 
REMARK    6  A    between atoms: C10_17  and  N3_18 
REMARK    7  A    between atoms: N3_18  and  C11_19 
REMARK    8  A    between atoms: C12_20  and  N4_21 
REMARK    9  A    between atoms: N4_21  and  C13_23 
ROOT
HETATM    1  C11 UNL     1      12.284  50.521  82.541  1.00  0.00     0.148 A 
HETATM    2  C12 UNL     1      11.700  49.698  81.560  1.00  0.00     0.091 A 
HETATM    3  C18 UNL     1      12.437  49.336  80.462  1.00  0.00     0.121 A 
HETATM    4  N6  UNL     1      13.698  49.738  80.285  1.00  0.00    -0.363 N 
ATOM      5  H6  UNL     1      14.207  49.444  79.452  1.00  0.00     0.165 HD
HETATM    6  C19 UNL     1      14.302  50.517  81.178  1.00  0.00     0.045 A 
HETATM    7  C20 UNL     1      15.611  50.952  81.027  1.00  0.00     0.030 A 
HETATM    8  C21 UNL     1      16.176  51.752  81.985  1.00  0.00     0.002 A 
HETATM    9  C22 UNL     1      15.494  52.155  83.117  1.00  0.00     0.001 A 
HETATM   10  C23 UNL     1      14.195  51.719  83.259  1.00  0.00     0.017 A 
HETATM   11  C24 UNL     1      13.623  50.908  82.286  1.00  0.00     0.034 A 
ENDROOT
BRANCH   1  12
HETATM   12  N3  UNL     1      11.675  50.848  83.491  1.00  0.00    -0.403 NA
BRANCH  12  13
HETATM   13  C10 UNL     1      10.982  51.230  84.567  1.00  0.00     0.107 A 
HETATM   14  C9  UNL     1      10.406  52.516  84.632  1.00  0.00     0.046 A 
HETATM   15  C8  UNL     1       9.696  52.915  85.723  1.00  0.00     0.028 A 
HETATM   16  C7  UNL     1       9.510  52.092  86.803  1.00  0.00     0.079 A 
HETATM   17  C26 UNL     1      10.070  50.839  86.740  1.00  0.00     0.028 A 
HETATM   18  C25 UNL     1      10.784  50.400  85.675  1.00  0.00     0.046 A 
BRANCH  16  19
HETATM   19  S1  UNL     1       8.605  52.641  88.166  1.00  0.00     0.259 S 
HETATM   20  O1  UNL     1       8.364  51.505  89.128  1.00  0.00    -0.201 OA
HETATM   21  O2  UNL     1       7.284  53.242  87.807  1.00  0.00    -0.201 OA
BRANCH  19  22
HETATM   22  N1  UNL     1       9.568  53.813  89.061  1.00  0.00    -0.311 N 
ATOM     23  H1  UNL     1       9.551  54.822  88.911  1.00  0.00     0.172 HD
BRANCH  22  24
HETATM   24  C1  UNL     1      10.370  53.146  90.022  1.00  0.00     0.176 C 
BRANCH  24  25
HETATM   25  C2  UNL     1      11.824  53.170  89.745  1.00  0.00     0.078 C 
BRANCH  25  26
HETATM   26  N2  UNL     1      12.482  54.378  89.989  1.00  0.00    -0.388 N 
HETATM   27  C3  UNL     1      13.583  54.738  89.175  1.00  0.00     0.148 C 
HETATM   28  C4  UNL     1      14.806  54.960  90.080  1.00  0.00     0.187 C 
HETATM   29  O3  UNL     1      14.896  53.874  90.930  1.00  0.00    -0.388 OA
HETATM   30  C5  UNL     1      13.900  53.861  91.910  1.00  0.00     0.187 C 
HETATM   31  C6  UNL     1      12.710  54.662  91.402  1.00  0.00     0.148 C 
ENDBRANCH  25  26
ENDBRANCH  24  25
ENDBRANCH  22  24
ENDBRANCH  19  22
ENDBRANCH  16  19
ENDBRANCH  12  13
ENDBRANCH   1  12
BRANCH   2  32
HETATM   32  N4  UNL     1      10.357  49.284  81.771  1.00  0.00    -0.339 N 
ATOM     33  H4  UNL     1      10.136  48.521  82.410  1.00  0.00     0.167 HD
BRANCH  32  34
HETATM   34  C13 UNL     1       9.413  49.914  81.117  1.00  0.00     0.105 A 
HETATM   35  C14 UNL     1       8.785  49.334  80.038  1.00  0.00     0.048 A 
HETATM   36  C15 UNL     1       7.778  49.989  79.338  1.00  0.00     0.005 A 
HETATM   37  C16 UNL     1       7.386  51.255  79.726  1.00  0.00     0.017 A 
HETATM   38  C17 UNL     1       8.029  51.813  80.807  1.00  0.00     0.089 A 
HETATM   39  N5  UNL     1       9.016  51.144  81.475  1.00  0.00    -0.352 N 
ATOM     40  H5  UNL     1       9.465  51.595  82.273  1.00  0.00     0.166 HD
ENDBRANCH  32  34
ENDBRANCH   2  32
TORSDOF 9
ENDMDL
MODEL 3
REMARK VINA RESULT: -7.413740507      0.732      1.226
REMARK  9 active torsions:
REMARK  status: ('A' for Active; 'I' for Inactive)
REMARK    1  A    between atoms: S1_2  and  N1_4 
REMARK    2  A    between atoms: S1_2  and  C7_14 
REMARK    3  A    between atoms: N1_4  and  C1_6 
REMARK    4  A    between atoms: C1_6  and  C2_7 
REMARK    5  A    between atoms: C2_7  and  N2_8 
REMARK    6  A    between atoms: C10_17  and  N3_18 
REMARK    7  A    between atoms: N3_18  and  C11_19 
REMARK    8  A    between atoms: C12_20  and  N4_21 
REMARK    9  A    between atoms: N4_21  and  C13_23 
ROOT
HETATM    1  C11 UNL     1      12.503  50.695  82.657  1.00  0.00     0.148 A 
HETATM    2  C12 UNL     1      11.498  50.094  81.878  1.00  0.00     0.091 A 
HETATM    3  C18 UNL     1      11.761  49.778  80.570  1.00  0.00     0.121 A 
HETATM    4  N6  UNL     1      12.945  50.022  80.002  1.00  0.00    -0.363 N 
ATOM      5  H6  UNL     1      13.094  49.770  79.025  1.00  0.00     0.165 HD
HETATM    6  C19 UNL     1      13.932  50.588  80.689  1.00  0.00     0.045 A 
HETATM    7  C20 UNL     1      15.175  50.854  80.131  1.00  0.00     0.030 A 
HETATM    8  C21 UNL     1      16.152  51.437  80.894  1.00  0.00     0.002 A 
HETATM    9  C22 UNL     1      15.957  51.782  82.218  1.00  0.00     0.001 A 
HETATM   10  C23 UNL     1      14.722  51.515  82.764  1.00  0.00     0.017 A 
HETATM   11  C24 UNL     1      13.732  50.923  81.988  1.00  0.00     0.034 A 
ENDROOT
BRANCH   1  12
HETATM   12  N3  UNL     1      12.305  50.977  83.781  1.00  0.00    -0.403 NA
BRANCH  12  13
HETATM   13  C10 UNL     1      12.074  51.287  85.059  1.00  0.00     0.107 A 
HETATM   14  C9  UNL     1      12.365  52.577  85.551  1.00  0.00     0.046 A 
HETATM   15  C8  UNL     1      12.131  52.903  86.852  1.00  0.00     0.028 A 
HETATM   16  C7  UNL     1      11.605  52.000  87.739  1.00  0.00     0.079 A 
HETATM   17  C26 UNL     1      11.321  50.744  87.260  1.00  0.00     0.028 A 
HETATM   18  C25 UNL     1      11.537  50.375  85.974  1.00  0.00     0.046 A 
BRANCH  16  19
HETATM   19  S1  UNL     1      11.328  52.457  89.380  1.00  0.00     0.259 S 
HETATM   20  O1  UNL     1      12.106  51.564  90.312  1.00  0.00    -0.201 OA
HETATM   21  O2  UNL     1       9.889  52.415  89.779  1.00  0.00    -0.201 OA
BRANCH  19  22
HETATM   22  N1  UNL     1      11.971  54.076  89.642  1.00  0.00    -0.311 N 
ATOM     23  H1  UNL     1      11.547  54.937  89.296  1.00  0.00     0.172 HD
BRANCH  22  24
HETATM   24  C1  UNL     1      13.163  54.005  90.406  1.00  0.00     0.176 C 
BRANCH  24  25
HETATM   25  C2  UNL     1      13.209  54.909  91.576  1.00  0.00     0.078 C 
BRANCH  25  26
HETATM   26  N2  UNL     1      13.374  54.301  92.824  1.00  0.00    -0.388 N 
HETATM   27  C3  UNL     1      13.614  52.908  92.884  1.00  0.00     0.148 C 
HETATM   28  C4  UNL     1      12.522  52.262  93.752  1.00  0.00     0.187 C 
HETATM   29  O3  UNL     1      11.303  52.740  93.309  1.00  0.00    -0.388 OA
HETATM   30  C5  UNL     1      11.084  54.079  93.643  1.00  0.00     0.187 C 
HETATM   31  C6  UNL     1      12.433  54.755  93.842  1.00  0.00     0.148 C 
ENDBRANCH  25  26
ENDBRANCH  24  25
ENDBRANCH  22  24
ENDBRANCH  19  22
ENDBRANCH  16  19
ENDBRANCH  12  13
ENDBRANCH   1  12
BRANCH   2  32
HETATM   32  N4  UNL     1      10.247  49.846  82.505  1.00  0.00    -0.339 N 
ATOM     33  H4  UNL     1      10.099  49.012  83.072  1.00  0.00     0.167 HD
BRANCH  32  34
HETATM   34  C13 UNL     1       9.290  50.724  82.331  1.00  0.00     0.105 A 
HETATM   35  C14 UNL     1       8.207  50.447  81.528  1.00  0.00     0.048 A 
HETATM   36  C15 UNL     1       7.182  51.367  81.338  1.00  0.00     0.005 A 
HETATM   37  C16 UNL     1       7.239  52.595  81.967  1.00  0.00     0.017 A 
HETATM   38  C17 UNL     1       8.332  52.848  82.764  1.00  0.00     0.089 A 
HETATM   39  N5  UNL     1       9.324  51.923  82.931  1.00  0.00    -0.352 N 
ATOM     40  H5  UNL     1      10.116  52.152  83.532  1.00  0.00     0.166 HD
ENDBRANCH  32  34
ENDBRANCH   2  32
TORSDOF 9
ENDMDL
MODEL 4
REMARK VINA RESULT: -7.395524434      0.950      1.440
REMARK  9 active torsions:
REMARK  status: ('A' for Active; 'I' for Inactive)
REMARK    1  A    between atoms: S1_2  and  N1_4 
REMARK    2  A    between atoms: S1_2  and  C7_14 
REMARK    3  A    between atoms: N1_4  and  C1_6 
REMARK    4  A    between atoms: C1_6  and  C2_7 
REMARK    5  A    between atoms: C2_7  and  N2_8 
REMARK    6  A    between atoms: C10_17  and  N3_18 
REMARK    7  A    between atoms: N3_18  and  C11_19 
REMARK    8  A    between atoms: C12_20  and  N4_21 
REMARK    9  A    between atoms: N4_21  and  C13_23 
ROOT
HETATM    1  C11 UNL     1      12.562  50.918  82.842  1.00  0.00     0.148 A 
HETATM    2  C12 UNL     1      11.466  50.329  82.185  1.00  0.00     0.091 A 
HETATM    3  C18 UNL     1      11.610  49.907  80.888  1.00  0.00     0.121 A 
HETATM    4  N6  UNL     1      12.759  50.036  80.219  1.00  0.00    -0.363 N 
ATOM      5  H6  UNL     1      12.817  49.708  79.255  1.00  0.00     0.165 HD
HETATM    6  C19 UNL     1      13.827  50.585  80.789  1.00  0.00     0.045 A 
HETATM    7  C20 UNL     1      15.036  50.733  80.123  1.00  0.00     0.030 A 
HETATM    8  C21 UNL     1      16.100  51.306  80.768  1.00  0.00     0.002 A 
HETATM    9  C22 UNL     1      16.028  51.753  82.073  1.00  0.00     0.001 A 
HETATM   10  C23 UNL     1      14.825  51.603  82.726  1.00  0.00     0.017 A 
HETATM   11  C24 UNL     1      13.746  51.022  82.070  1.00  0.00     0.034 A 
ENDROOT
BRANCH   1  12
HETATM   12  N3  UNL     1      12.467  51.290  83.953  1.00  0.00    -0.403 NA
BRANCH  12  13
HETATM   13  C10 UNL     1      12.351  51.702  85.218  1.00  0.00     0.107 A 
HETATM   14  C9  UNL     1      11.616  50.948  86.156  1.00  0.00     0.046 A 
HETATM   15  C8  UNL     1      11.494  51.360  87.449  1.00  0.00     0.028 A 
HETATM   16  C7  UNL     1      12.075  52.518  87.895  1.00  0.00     0.079 A 
HETATM   17  C26 UNL     1      12.791  53.253  86.981  1.00  0.00     0.028 A 
HETATM   18  C25 UNL     1      12.940  52.882  85.686  1.00  0.00     0.046 A 
BRANCH  16  19
HETATM   19  S1  UNL     1      11.891  53.002  89.542  1.00  0.00     0.259 S 
HETATM   20  O1  UNL     1      12.102  51.825  90.460  1.00  0.00    -0.201 OA
HETATM   21  O2  UNL     1      10.558  53.603  89.846  1.00  0.00    -0.201 OA
BRANCH  19  22
HETATM   22  N1  UNL     1      13.167  54.145  89.951  1.00  0.00    -0.311 N 
ATOM     23  H1  UNL     1      13.533  54.863  89.325  1.00  0.00     0.172 HD
BRANCH  22  24
HETATM   24  C1  UNL     1      13.610  53.920  91.279  1.00  0.00     0.176 C 
BRANCH  24  25
HETATM   25  C2  UNL     1      12.892  54.696  92.316  1.00  0.00     0.078 C 
BRANCH  25  26
HETATM   26  N2  UNL     1      12.304  53.958  93.347  1.00  0.00    -0.388 N 
HETATM   27  C3  UNL     1      10.920  53.672  93.286  1.00  0.00     0.148 C 
HETATM   28  C4  UNL     1      10.251  54.224  94.555  1.00  0.00     0.187 C 
HETATM   29  O3  UNL     1      10.685  55.525  94.720  1.00  0.00    -0.388 OA
HETATM   30  C5  UNL     1      12.020  55.612  95.122  1.00  0.00     0.187 C 
HETATM   31  C6  UNL     1      12.741  54.345  94.685  1.00  0.00     0.148 C 
ENDBRANCH  25  26
ENDBRANCH  24  25
ENDBRANCH  22  24
ENDBRANCH  19  22
ENDBRANCH  16  19
ENDBRANCH  12  13
ENDBRANCH   1  12
BRANCH   2  32
HETATM   32  N4  UNL     1      10.256  50.203  82.917  1.00  0.00    -0.339 N 
ATOM     33  H4  UNL     1      10.162  49.517  83.666  1.00  0.00     0.167 HD
BRANCH  32  34
HETATM   34  C13 UNL     1       9.263  50.998  82.601  1.00  0.00     0.105 A 
HETATM   35  C14 UNL     1       9.236  52.307  83.027  1.00  0.00     0.048 A 
HETATM   36  C15 UNL     1       8.192  53.163  82.694  1.00  0.00     0.005 A 
HETATM   37  C16 UNL     1       7.149  52.702  81.917  1.00  0.00     0.017 A 
HETATM   38  C17 UNL     1       7.199  51.389  81.504  1.00  0.00     0.089 A 
HETATM   39  N5  UNL     1       8.239  50.572  81.847  1.00  0.00    -0.352 N 
ATOM     40  H5  UNL     1       8.237  49.606  81.518  1.00  0.00     0.166 HD
ENDBRANCH  32  34
ENDBRANCH   2  32
TORSDOF 9
ENDMDL
MODEL 5
REMARK VINA RESULT: -7.294045580      1.138      4.196
REMARK  9 active torsions:
REMARK  status: ('A' for Active; 'I' for Inactive)
REMARK    1  A    between atoms: S1_2  and  N1_4 
REMARK    2  A    between atoms: S1_2  and  C7_14 
REMARK    3  A    between atoms: N1_4  and  C1_6 
REMARK    4  A    between atoms: C1_6  and  C2_7 
REMARK    5  A    between atoms: C2_7  and  N2_8 
REMARK    6  A    between atoms: C10_17  and  N3_18 
REMARK    7  A    between atoms: N3_18  and  C11_19 
REMARK    8  A    between atoms: C12_20  and  N4_21 
REMARK    9  A    between atoms: N4_21  and  C13_23 
ROOT
HETATM    1  C11 UNL     1      10.561  51.028  82.163  1.00  0.00     0.148 A 
HETATM    2  C12 UNL     1      11.492  50.271  81.428  1.00  0.00     0.091 A 
HETATM    3  C18 UNL     1      11.213  49.946  80.126  1.00  0.00     0.121 A 
HETATM    4  N6  UNL     1      10.082  50.321  79.523  1.00  0.00    -0.363 N 
ATOM      5  H6  UNL     1       9.918  50.055  78.553  1.00  0.00     0.165 HD
HETATM    6  C19 UNL     1       9.166  51.037  80.168  1.00  0.00     0.045 A 
HETATM    7  C20 UNL     1       7.981  51.445  79.572  1.00  0.00     0.030 A 
HETATM    8  C21 UNL     1       7.078  52.183  80.291  1.00  0.00     0.002 A 
HETATM    9  C22 UNL     1       7.293  52.548  81.606  1.00  0.00     0.001 A 
HETATM   10  C23 UNL     1       8.471  52.139  82.190  1.00  0.00     0.017 A 
HETATM   11  C24 UNL     1       9.386  51.390  81.459  1.00  0.00     0.034 A 
ENDROOT
BRANCH   1  12
HETATM   12  N3  UNL     1      10.774  51.321  83.281  1.00  0.00    -0.403 NA
BRANCH  12  13
HETATM   13  C10 UNL     1      11.025  51.645  84.552  1.00  0.00     0.107 A 
HETATM   14  C9  UNL     1      10.278  51.071  85.602  1.00  0.00     0.046 A 
HETATM   15  C8  UNL     1      10.528  51.394  86.901  1.00  0.00     0.028 A 
HETATM   16  C7  UNL     1      11.509  52.287  87.247  1.00  0.00     0.079 A 
HETATM   17  C26 UNL     1      12.236  52.845  86.225  1.00  0.00     0.028 A 
HETATM   18  C25 UNL     1      12.024  52.553  84.919  1.00  0.00     0.046 A 
BRANCH  16  19
HETATM   19  S1  UNL     1      11.788  52.668  88.908  1.00  0.00     0.259 S 
HETATM   20  O1  UNL     1      12.268  51.447  89.652  1.00  0.00    -0.201 OA
HETATM   21  O2  UNL     1      10.584  53.205  89.610  1.00  0.00    -0.201 OA
BRANCH  19  22
HETATM   22  N1  UNL     1      13.108  53.828  89.017  1.00  0.00    -0.311 N 
ATOM     23  H1  UNL     1      13.906  53.869  88.383  1.00  0.00     0.172 HD
BRANCH  22  24
HETATM   24  C1  UNL     1      12.897  54.698  90.116  1.00  0.00     0.176 C 
BRANCH  24  25
HETATM   25  C2  UNL     1      13.499  54.248  91.392  1.00  0.00     0.078 C 
BRANCH  25  26
HETATM   26  N2  UNL     1      12.667  54.277  92.515  1.00  0.00    -0.388 N 
HETATM   27  C3  UNL     1      13.173  54.794  93.731  1.00  0.00     0.148 C 
HETATM   28  C4  UNL     1      13.040  53.710  94.814  1.00  0.00     0.187 C 
HETATM   29  O3  UNL     1      13.550  52.538  94.291  1.00  0.00    -0.388 OA
HETATM   30  C5  UNL     1      12.730  51.970  93.313  1.00  0.00     0.187 C 
HETATM   31  C6  UNL     1      11.872  53.069  92.703  1.00  0.00     0.148 C 
ENDBRANCH  25  26
ENDBRANCH  24  25
ENDBRANCH  22  24
ENDBRANCH  19  22
ENDBRANCH  16  19
ENDBRANCH  12  13
ENDBRANCH   1  12
BRANCH   2  32
HETATM   32  N4  UNL     1      12.687  49.884  82.091  1.00  0.00    -0.339 N 
ATOM     33  H4  UNL     1      12.681  49.151  82.801  1.00  0.00     0.167 HD
BRANCH  32  34
HETATM   34  C13 UNL     1      13.797  50.497  81.761  1.00  0.00     0.105 A 
HETATM   35  C14 UNL     1      14.558  51.148  82.705  1.00  0.00     0.048 A 
HETATM   36  C15 UNL     1      15.740  51.799  82.370  1.00  0.00     0.005 A 
HETATM   37  C16 UNL     1      16.175  51.799  81.060  1.00  0.00     0.017 A 
HETATM   38  C17 UNL     1      15.396  51.140  80.135  1.00  0.00     0.089 A 
HETATM   39  N5  UNL     1      14.238  50.510  80.495  1.00  0.00    -0.352 N 
ATOM     40  H5  UNL     1      13.692  50.033  79.777  1.00  0.00     0.166 HD
ENDBRANCH  32  34
ENDBRANCH   2  32
TORSDOF 9
ENDMDL
