MODEL 1
REMARK VINA RESULT: -7.885037187      0.000      0.000
REMARK  8 active torsions:
REMARK  status: ('A' for Active; 'I' for Inactive)
REMARK    1  A    between atoms: O1_2  and  C2_3 
REMARK    2  A    between atoms: C4_5  and  N1_6 
REMARK    3  A    between atoms: C12_15  and  N3_16 
REMARK    4  A    between atoms: C14_21  and  N5_22 
REMARK    5  A    between atoms: N5_22  and  C15_24 
REMARK    6  A    between atoms: C15_24  and  C16_25 
REMARK    7  A    between atoms: C16_25  and  N6_26 
REMARK    8  A    between atoms: N6_26  and  C17_29 
ROOT
HETATM    1  N3  UNL     1      12.049  53.653  89.257  1.00  0.00    -0.339 N 
ATOM      2  H3  UNL     1      12.104  54.546  88.768  1.00  0.00     0.167 HD
HETATM    3  C13 UNL     1      11.997  52.694  88.457  1.00  0.00     0.140 A 
HETATM    4  N4  UNL     1      12.024  53.011  87.124  1.00  0.00    -0.175 N 
ATOM      5  H4  UNL     1      12.083  53.996  86.864  1.00  0.00     0.186 HD
HETATM    6  C14 UNL     1      11.976  52.101  86.145  1.00  0.00     0.679 A 
HETATM    7  N7  UNL     1      11.899  50.790  86.430  1.00  0.00    -0.201 N 
ATOM      8  H7  UNL     1      11.865  50.098  85.681  1.00  0.00     0.183 HD
HETATM    9  C23 UNL     1      11.869  50.403  87.718  1.00  0.00     0.129 A 
HETATM   10  C24 UNL     1      11.918  51.359  88.742  1.00  0.00     0.071 A 
HETATM   11 BR1  UNL     1      11.873  50.822  90.564  1.00  0.00    -0.046 Br
ENDROOT
BRANCH   1  12
HETATM   12  C12 UNL     1      12.052  53.823  90.610  1.00  0.00     0.067 A 
HETATM   13  C2  UNL     1      13.225  54.041  91.302  1.00  0.00     0.097 A 
HETATM   14  C3  UNL     1      13.273  54.205  92.668  1.00  0.00     0.068 A 
HETATM   15  C4  UNL     1      12.094  54.150  93.386  1.00  0.00     0.033 A 
HETATM   16  C10 UNL     1      10.916  53.933  92.707  1.00  0.00     0.032 A 
HETATM   17  C11 UNL     1      10.888  53.772  91.349  1.00  0.00     0.035 A 
BRANCH  13  18
HETATM   18  O1  UNL     1      14.460  54.108  90.634  1.00  0.00    -0.354 OA
HETATM   19  C1  UNL     1      15.015  55.294  90.161  1.00  0.00     0.210 C 
ENDBRANCH  13  18
BRANCH  15  20
HETATM   20  N1  UNL     1      12.051  54.301  94.793  1.00  0.00    -0.377 N 
HETATM   21  C5  UNL     1      12.577  53.224  95.599  1.00  0.00     0.153 C 
HETATM   22  C6  UNL     1      12.305  53.359  97.056  1.00  0.00     0.291 C 
HETATM   23  N2  UNL     1      11.237  54.278  97.389  1.00  0.00     0.087 N 
HETATM   24  C7  UNL     1       9.937  53.841  96.979  1.00  0.00     0.310 C 
HETATM   25  C8  UNL     1      11.590  55.566  96.842  1.00  0.00     0.291 C 
HETATM   26  C9  UNL     1      11.492  55.515  95.336  1.00  0.00     0.153 C 
ENDBRANCH  15  20
ENDBRANCH   1  12
BRANCH   6  27
HETATM   27  N5  UNL     1      12.002  52.432  84.892  1.00  0.00    -0.224 N 
ATOM     28  H5  UNL     1      12.661  53.161  84.617  1.00  0.00     0.177 HD
BRANCH  27  29
HETATM   29  C15 UNL     1      11.196  51.870  83.864  1.00  0.00     0.165 C 
BRANCH  29  30
HETATM   30  C16 UNL     1      12.019  51.136  82.821  1.00  0.00     0.253 C 
BRANCH  30  31
HETATM   31  N6  UNL     1      13.420  51.311  83.105  1.00  0.00    -0.069 N 
ATOM     32  H62 UNL     1      13.639  52.296  83.250  1.00  0.00     0.277 HD
ATOM     33  H61 UNL     1      13.650  50.949  84.030  1.00  0.00     0.277 HD
BRANCH  31  34
HETATM   34  C17 UNL     1      14.275  50.740  82.107  1.00  0.00     0.186 C 
HETATM   35  C18 UNL     1      13.639  50.734  80.732  1.00  0.00     0.033 C 
HETATM   36  C19 UNL     1      14.590  49.942  79.834  1.00  0.00     0.002 C 
HETATM   37  C20 UNL     1      15.818  50.789  79.569  1.00  0.00     0.000 C 
HETATM   38  C21 UNL     1      15.945  51.855  80.608  1.00  0.00     0.002 C 
HETATM   39  C22 UNL     1      15.629  51.378  82.010  1.00  0.00     0.033 C 
ENDBRANCH  31  34
ENDBRANCH  30  31
ENDBRANCH  29  30
ENDBRANCH  27  29
ENDBRANCH   6  27
TORSDOF 8
ENDMDL
MODEL 2
REMARK VINA RESULT: -7.671361159      1.698      2.290
REMARK  8 active torsions:
REMARK  status: ('A' for Active; 'I' for Inactive)
REMARK    1  A    between atoms: O1_2  and  C2_3 
REMARK    2  A    between atoms: C4_5  and  N1_6 
REMARK    3  A    between atoms: C12_15  and  N3_16 
REMARK    4  A    between atoms: C14_21  and  N5_22 
REMARK    5  A    between atoms: N5_22  and  C15_24 
REMARK    6  A    between atoms: C15_24  and  C16_25 
REMARK    7  A    between atoms: C16_25  and  N6_26 
REMARK    8  A    between atoms: N6_26  and  C17_29 
ROOT
HETATM    1  N3  UNL     1      13.443  53.791  90.977  1.00  0.00    -0.339 N 
ATOM      2  H3  UNL     1      14.366  54.154  90.737  1.00  0.00     0.167 HD
HETATM    3  C13 UNL     1      12.774  53.526  89.955  1.00  0.00     0.140 A 
HETATM    4  N4  UNL     1      13.383  53.765  88.750  1.00  0.00    -0.175 N 
ATOM      5  H4  UNL     1      14.332  54.139  88.756  1.00  0.00     0.186 HD
HETATM    6  C14 UNL     1      12.803  53.535  87.568  1.00  0.00     0.679 A 
HETATM    7  N7  UNL     1      11.554  53.041  87.501  1.00  0.00    -0.201 N 
ATOM      8  H7  UNL     1      11.114  52.865  86.598  1.00  0.00     0.183 HD
HETATM    9  C23 UNL     1      10.893  52.782  88.644  1.00  0.00     0.129 A 
HETATM   10  C24 UNL     1      11.504  53.026  89.881  1.00  0.00     0.071 A 
HETATM   11 BR1  UNL     1      10.578  52.665  91.500  1.00  0.00    -0.046 Br
ENDROOT
BRANCH   1  12
HETATM   12  C12 UNL     1      13.268  53.723  92.327  1.00  0.00     0.067 A 
HETATM   13  C2  UNL     1      13.547  52.568  93.028  1.00  0.00     0.097 A 
HETATM   14  C3  UNL     1      13.373  52.453  94.389  1.00  0.00     0.068 A 
HETATM   15  C4  UNL     1      12.895  53.542  95.092  1.00  0.00     0.033 A 
HETATM   16  C10 UNL     1      12.611  54.701  94.404  1.00  0.00     0.032 A 
HETATM   17  C11 UNL     1      12.791  54.796  93.051  1.00  0.00     0.035 A 
BRANCH  13  18
HETATM   18  O1  UNL     1      14.036  51.423  92.376  1.00  0.00    -0.354 OA
HETATM   19  C1  UNL     1      13.517  50.146  92.569  1.00  0.00     0.210 C 
ENDBRANCH  13  18
BRANCH  15  20
HETATM   20  N1  UNL     1      12.679  53.512  96.491  1.00  0.00    -0.377 N 
HETATM   21  C5  UNL     1      13.266  52.421  97.235  1.00  0.00     0.153 C 
HETATM   22  C6  UNL     1      12.822  52.339  98.654  1.00  0.00     0.291 C 
HETATM   23  N2  UNL     1      11.603  53.062  98.950  1.00  0.00     0.087 N 
HETATM   24  C7  UNL     1      10.431  52.512  98.337  1.00  0.00     0.310 C 
HETATM   25  C8  UNL     1      11.823  54.443  98.592  1.00  0.00     0.291 C 
HETATM   26  C9  UNL     1      11.895  54.565  97.088  1.00  0.00     0.153 C 
ENDBRANCH  15  20
ENDBRANCH   1  12
BRANCH   6  27
HETATM   27  N5  UNL     1      13.404  53.771  86.444  1.00  0.00    -0.224 N 
ATOM     28  H5  UNL     1      14.281  54.291  86.487  1.00  0.00     0.177 HD
BRANCH  27  29
HETATM   29  C15 UNL     1      12.953  53.370  85.156  1.00  0.00     0.165 C 
BRANCH  29  30
HETATM   30  C16 UNL     1      14.009  52.594  84.391  1.00  0.00     0.253 C 
BRANCH  30  31
HETATM   31  N6  UNL     1      13.389  51.489  83.706  1.00  0.00    -0.069 N 
ATOM     32  H62 UNL     1      13.103  50.767  84.368  1.00  0.00     0.277 HD
ATOM     33  H61 UNL     1      12.475  51.755  83.342  1.00  0.00     0.277 HD
BRANCH  31  34
HETATM   34  C17 UNL     1      14.207  50.934  82.669  1.00  0.00     0.186 C 
HETATM   35  C18 UNL     1      13.509  50.919  81.325  1.00  0.00     0.033 C 
HETATM   36  C19 UNL     1      14.430  50.143  80.382  1.00  0.00     0.002 C 
HETATM   37  C20 UNL     1      15.630  51.012  80.062  1.00  0.00     0.000 C 
HETATM   38  C21 UNL     1      15.787  52.078  81.096  1.00  0.00     0.002 C 
HETATM   39  C22 UNL     1      15.544  51.595  82.511  1.00  0.00     0.033 C 
ENDBRANCH  31  34
ENDBRANCH  30  31
ENDBRANCH  29  30
ENDBRANCH  27  29
ENDBRANCH   6  27
TORSDOF 8
ENDMDL
MODEL 3
REMARK VINA RESULT: -7.576035972      0.933      1.355
REMARK  8 active torsions:
REMARK  status: ('A' for Active; 'I' for Inactive)
REMARK    1  A    between atoms: O1_2  and  C2_3 
REMARK    2  A    between atoms: C4_5  and  N1_6 
REMARK    3  A    between atoms: C12_15  and  N3_16 
REMARK    4  A    between atoms: C14_21  and  N5_22 
REMARK    5  A    between atoms: N5_22  and  C15_24 
REMARK    6  A    between atoms: C15_24  and  C16_25 
REMARK    7  A    between atoms: C16_25  and  N6_26 
REMARK    8  A    between atoms: N6_26  and  C17_29 
ROOT
HETATM    1  N3  UNL     1      11.485  53.446  88.583  1.00  0.00    -0.339 N 
ATOM      2  H3  UNL     1      11.431  54.339  88.092  1.00  0.00     0.167 HD
HETATM    3  C13 UNL     1      11.576  52.488  87.785  1.00  0.00     0.140 A 
HETATM    4  N4  UNL     1      11.586  52.805  86.451  1.00  0.00    -0.175 N 
ATOM      5  H4  UNL     1      11.520  53.789  86.190  1.00  0.00     0.186 HD
HETATM    6  C14 UNL     1      11.679  51.897  85.475  1.00  0.00     0.679 A 
HETATM    7  N7  UNL     1      11.771  50.587  85.762  1.00  0.00    -0.201 N 
ATOM      8  H7  UNL     1      11.843  49.896  85.015  1.00  0.00     0.183 HD
HETATM    9  C23 UNL     1      11.767  50.201  87.050  1.00  0.00     0.129 A 
HETATM   10  C24 UNL     1      11.669  51.155  88.072  1.00  0.00     0.071 A 
HETATM   11 BR1  UNL     1      11.660  50.618  89.894  1.00  0.00    -0.046 Br
ENDROOT
BRANCH   1  12
HETATM   12  C12 UNL     1      11.438  53.616  89.935  1.00  0.00     0.067 A 
HETATM   13  C2  UNL     1      12.583  53.854  90.666  1.00  0.00     0.097 A 
HETATM   14  C3  UNL     1      12.582  54.019  92.033  1.00  0.00     0.068 A 
HETATM   15  C4  UNL     1      11.381  53.942  92.710  1.00  0.00     0.033 A 
HETATM   16  C10 UNL     1      10.230  53.704  91.993  1.00  0.00     0.032 A 
HETATM   17  C11 UNL     1      10.251  53.543  90.634  1.00  0.00     0.035 A 
BRANCH  13  18
HETATM   18  O1  UNL     1      13.838  53.945  90.041  1.00  0.00    -0.354 OA
HETATM   19  C1  UNL     1      14.677  55.050  90.153  1.00  0.00     0.210 C 
ENDBRANCH  13  18
BRANCH  15  20
HETATM   20  N1  UNL     1      11.286  54.092  94.116  1.00  0.00    -0.377 N 
HETATM   21  C5  UNL     1       9.974  54.306  94.679  1.00  0.00     0.153 C 
HETATM   22  C6  UNL     1       9.977  54.665  96.124  1.00  0.00     0.291 C 
HETATM   23  N2  UNL     1      11.249  55.146  96.624  1.00  0.00     0.087 N 
HETATM   24  C7  UNL     1      11.644  56.417  96.097  1.00  0.00     0.310 C 
HETATM   25  C8  UNL     1      12.227  54.113  96.380  1.00  0.00     0.291 C 
HETATM   26  C9  UNL     1      12.496  54.019  94.897  1.00  0.00     0.153 C 
ENDBRANCH  15  20
ENDBRANCH   1  12
BRANCH   6  27
HETATM   27  N5  UNL     1      11.686  52.228  84.221  1.00  0.00    -0.224 N 
ATOM     28  H5  UNL     1      12.352  52.944  83.934  1.00  0.00     0.177 HD
BRANCH  27  29
HETATM   29  C15 UNL     1      10.848  51.682  83.210  1.00  0.00     0.165 C 
BRANCH  29  30
HETATM   30  C16 UNL     1      11.635  51.207  82.002  1.00  0.00     0.253 C 
BRANCH  30  31
HETATM   31  N6  UNL     1      12.501  50.124  82.389  1.00  0.00    -0.069 N 
ATOM     32  H62 UNL     1      12.512  50.013  83.403  1.00  0.00     0.277 HD
ATOM     33  H61 UNL     1      12.096  49.226  82.126  1.00  0.00     0.277 HD
BRANCH  31  34
HETATM   34  C17 UNL     1      13.833  50.251  81.876  1.00  0.00     0.186 C 
HETATM   35  C18 UNL     1      13.867  50.908  80.511  1.00  0.00     0.033 C 
HETATM   36  C19 UNL     1      15.317  50.805  80.034  1.00  0.00     0.002 C 
HETATM   37  C20 UNL     1      16.156  51.781  80.833  1.00  0.00     0.000 C 
HETATM   38  C21 UNL     1      15.456  52.147  82.101  1.00  0.00     0.002 C 
HETATM   39  C22 UNL     1      14.782  50.975  82.784  1.00  0.00     0.033 C 
ENDBRANCH  31  34
ENDBRANCH  30  31
ENDBRANCH  29  30
ENDBRANCH  27  29
ENDBRANCH   6  27
TORSDOF 8
ENDMDL
MODEL 4
REMARK VINA RESULT: -7.447168612      1.786      2.356
REMARK  8 active torsions:
REMARK  status: ('A' for Active; 'I' for Inactive)
REMARK    1  A    between atoms: O1_2  and  C2_3 
REMARK    2  A    between atoms: C4_5  and  N1_6 
REMARK    3  A    between atoms: C12_15  and  N3_16 
REMARK    4  A    between atoms: C14_21  and  N5_22 
REMARK    5  A    between atoms: N5_22  and  C15_24 
REMARK    6  A    between atoms: C15_24  and  C16_25 
REMARK    7  A    between atoms: C16_25  and  N6_26 
REMARK    8  A    between atoms: N6_26  and  C17_29 
ROOT
HETATM    1  N3  UNL     1      11.809  52.704  90.879  1.00  0.00    -0.339 N 
ATOM      2  H3  UNL     1      11.123  51.981  90.662  1.00  0.00     0.167 HD
HETATM    3  C13 UNL     1      12.354  53.145  89.844  1.00  0.00     0.140 A 
HETATM    4  N4  UNL     1      11.944  52.594  88.658  1.00  0.00    -0.175 N 
ATOM      5  H4  UNL     1      11.228  51.867  88.686  1.00  0.00     0.186 HD
HETATM    6  C14 UNL     1      12.429  52.955  87.466  1.00  0.00     0.679 A 
HETATM    7  N7  UNL     1      13.372  53.909  87.369  1.00  0.00    -0.201 N 
ATOM      8  H7  UNL     1      13.740  54.184  86.458  1.00  0.00     0.183 HD
HETATM    9  C23 UNL     1      13.824  54.495  88.492  1.00  0.00     0.129 A 
HETATM   10  C24 UNL     1      13.314  54.113  89.740  1.00  0.00     0.071 A 
HETATM   11 BR1  UNL     1      13.948  54.934  91.332  1.00  0.00    -0.046 Br
ENDROOT
BRANCH   1  12
HETATM   12  C12 UNL     1      11.886  52.934  92.220  1.00  0.00     0.067 A 
HETATM   13  C2  UNL     1      12.803  52.271  93.009  1.00  0.00     0.097 A 
HETATM   14  C3  UNL     1      12.907  52.465  94.368  1.00  0.00     0.068 A 
HETATM   15  C4  UNL     1      12.054  53.365  94.977  1.00  0.00     0.033 A 
HETATM   16  C10 UNL     1      11.133  54.034  94.202  1.00  0.00     0.032 A 
HETATM   17  C11 UNL     1      11.046  53.827  92.852  1.00  0.00     0.035 A 
BRANCH  13  18
HETATM   18  O1  UNL     1      13.701  51.343  92.454  1.00  0.00    -0.354 OA
HETATM   19  C1  UNL     1      13.759  50.006  92.835  1.00  0.00     0.210 C 
ENDBRANCH  13  18
BRANCH  15  20
HETATM   20  N1  UNL     1      12.085  53.622  96.370  1.00  0.00    -0.377 N 
HETATM   21  C5  UNL     1      12.747  52.655  97.214  1.00  0.00     0.153 C 
HETATM   22  C6  UNL     1      12.556  52.882  98.673  1.00  0.00     0.291 C 
HETATM   23  N2  UNL     1      11.438  53.738  99.010  1.00  0.00     0.087 N 
HETATM   24  C7  UNL     1      10.156  53.171  98.722  1.00  0.00     0.310 C 
HETATM   25  C8  UNL     1      11.648  55.003  98.348  1.00  0.00     0.291 C 
HETATM   26  C9  UNL     1      11.461  54.827  96.860  1.00  0.00     0.153 C 
ENDBRANCH  15  20
ENDBRANCH   1  12
BRANCH   6  27
HETATM   27  N5  UNL     1      12.021  52.415  86.360  1.00  0.00    -0.224 N 
ATOM     28  H5  UNL     1      11.375  51.629  86.438  1.00  0.00     0.177 HD
BRANCH  27  29
HETATM   29  C15 UNL     1      12.393  52.819  85.048  1.00  0.00     0.165 C 
BRANCH  29  30
HETATM   30  C16 UNL     1      12.967  51.675  84.233  1.00  0.00     0.253 C 
BRANCH  30  31
HETATM   31  N6  UNL     1      14.276  52.036  83.754  1.00  0.00    -0.069 N 
ATOM     32  H62 UNL     1      14.308  53.022  83.498  1.00  0.00     0.277 HD
ATOM     33  H61 UNL     1      14.952  52.038  84.517  1.00  0.00     0.277 HD
BRANCH  31  34
HETATM   34  C17 UNL     1      14.731  51.214  82.673  1.00  0.00     0.186 C 
HETATM   35  C18 UNL     1      13.710  51.104  81.559  1.00  0.00     0.033 C 
HETATM   36  C19 UNL     1      14.265  50.065  80.583  1.00  0.00     0.002 C 
HETATM   37  C20 UNL     1      15.428  50.683  79.834  1.00  0.00     0.000 C 
HETATM   38  C21 UNL     1      15.964  51.856  80.588  1.00  0.00     0.002 C 
HETATM   39  C22 UNL     1      16.045  51.632  82.084  1.00  0.00     0.033 C 
ENDBRANCH  31  34
ENDBRANCH  30  31
ENDBRANCH  29  30
ENDBRANCH  27  29
ENDBRANCH   6  27
TORSDOF 8
ENDMDL
MODEL 5
REMARK VINA RESULT: -7.364199383      1.399      1.617
REMARK  8 active torsions:
REMARK  status: ('A' for Active; 'I' for Inactive)
REMARK    1  A    between atoms: O1_2  and  C2_3 
REMARK    2  A    between atoms: C4_5  and  N1_6 
REMARK    3  A    between atoms: C12_15  and  N3_16 
REMARK    4  A    between atoms: C14_21  and  N5_22 
REMARK    5  A    between atoms: N5_22  and  C15_24 
REMARK    6  A    between atoms: C15_24  and  C16_25 
REMARK    7  A    between atoms: C16_25  and  N6_26 
REMARK    8  A    between atoms: N6_26  and  C17_29 
ROOT
HETATM    1  N3  UNL     1      12.594  52.860  89.529  1.00  0.00    -0.339 N 
ATOM      2  H3  UNL     1      13.525  52.700  89.143  1.00  0.00     0.167 HD
HETATM    3  C13 UNL     1      11.732  52.947  88.627  1.00  0.00     0.140 A 
HETATM    4  N4  UNL     1      12.184  52.816  87.339  1.00  0.00    -0.175 N 
ATOM      5  H4  UNL     1      13.181  52.659  87.192  1.00  0.00     0.186 HD
HETATM    6  C14 UNL     1      11.389  52.884  86.266  1.00  0.00     0.679 A 
HETATM    7  N7  UNL     1      10.067  53.089  86.402  1.00  0.00    -0.201 N 
ATOM      8  H7  UNL     1       9.464  53.139  85.581  1.00  0.00     0.183 HD
HETATM    9  C23 UNL     1       9.553  53.226  87.637  1.00  0.00     0.129 A 
HETATM   10  C24 UNL     1      10.388  53.155  88.760  1.00  0.00     0.071 A 
HETATM   11 BR1  UNL     1       9.670  53.351  90.508  1.00  0.00    -0.046 Br
ENDROOT
BRANCH   1  12
HETATM   12  C12 UNL     1      12.621  52.921  90.890  1.00  0.00     0.067 A 
HETATM   13  C2  UNL     1      12.972  54.081  91.549  1.00  0.00     0.097 A 
HETATM   14  C3  UNL     1      13.023  54.181  92.921  1.00  0.00     0.068 A 
HETATM   15  C4  UNL     1      12.709  53.071  93.680  1.00  0.00     0.033 A 
HETATM   16  C10 UNL     1      12.357  51.906  93.036  1.00  0.00     0.032 A 
HETATM   17  C11 UNL     1      12.312  51.826  91.671  1.00  0.00     0.035 A 
BRANCH  13  18
HETATM   18  O1  UNL     1      13.302  55.247  90.838  1.00  0.00    -0.354 OA
HETATM   19  C1  UNL     1      14.579  55.518  90.353  1.00  0.00     0.210 C 
ENDBRANCH  13  18
BRANCH  15  20
HETATM   20  N1  UNL     1      12.741  53.082  95.096  1.00  0.00    -0.377 N 
HETATM   21  C5  UNL     1      13.705  52.227  95.750  1.00  0.00     0.153 C 
HETATM   22  C6  UNL     1      13.538  52.131  97.226  1.00  0.00     0.291 C 
HETATM   23  N2  UNL     1      12.238  52.542  97.715  1.00  0.00     0.087 N 
HETATM   24  C7  UNL     1      11.165  51.676  97.331  1.00  0.00     0.310 C 
HETATM   25  C8  UNL     1      12.030  53.907  97.293  1.00  0.00     0.291 C 
HETATM   26  C9  UNL     1      11.820  53.942  95.798  1.00  0.00     0.153 C 
ENDBRANCH  15  20
ENDBRANCH   1  12
BRANCH   6  27
HETATM   27  N5  UNL     1      11.845  52.758  85.059  1.00  0.00    -0.224 N 
ATOM     28  H5  UNL     1      12.487  53.478  84.727  1.00  0.00     0.177 HD
BRANCH  27  29
HETATM   29  C15 UNL     1      11.532  51.706  84.155  1.00  0.00     0.165 C 
BRANCH  29  30
HETATM   30  C16 UNL     1      12.699  50.760  83.943  1.00  0.00     0.253 C 
BRANCH  30  31
HETATM   31  N6  UNL     1      13.842  51.503  83.480  1.00  0.00    -0.069 N 
ATOM     32  H62 UNL     1      13.582  52.463  83.253  1.00  0.00     0.277 HD
ATOM     33  H61 UNL     1      14.491  51.683  84.246  1.00  0.00     0.277 HD
BRANCH  31  34
HETATM   34  C17 UNL     1      14.514  50.883  82.378  1.00  0.00     0.186 C 
HETATM   35  C18 UNL     1      13.718  50.967  81.092  1.00  0.00     0.033 C 
HETATM   36  C19 UNL     1      14.477  50.114  80.073  1.00  0.00     0.002 C 
HETATM   37  C20 UNL     1      15.735  50.855  79.670  1.00  0.00     0.000 C 
HETATM   38  C21 UNL     1      16.085  51.879  80.699  1.00  0.00     0.002 C 
HETATM   39  C22 UNL     1      15.899  51.399  82.123  1.00  0.00     0.033 C 
ENDBRANCH  31  34
ENDBRANCH  30  31
ENDBRANCH  29  30
ENDBRANCH  27  29
ENDBRANCH   6  27
TORSDOF 8
ENDMDL
