MODEL 1
REMARK VINA RESULT: -8.756859875      0.000      0.000
REMARK  11 active torsions:
REMARK  status: ('A' for Active; 'I' for Inactive)
REMARK    1  A    between atoms: S1_2  and  N1_4 
REMARK    2  A    between atoms: S1_2  and  C7_14 
REMARK    3  A    between atoms: N1_4  and  C1_6 
REMARK    4  A    between atoms: C1_6  and  C2_7 
REMARK    5  A    between atoms: C2_7  and  N2_8 
REMARK    6  A    between atoms: C12_19  and  N3_20 
REMARK    7  A    between atoms: N3_20  and  C13_22 
REMARK    8  A    between atoms: C14_25  and  N5_26 
REMARK    9  A    between atoms: N5_26  and  C15_28 
REMARK   10  A    between atoms: C25_40  and  N7_41 
REMARK   11  A    between atoms: N7_41  and  C26_43 
ROOT
HETATM    1  C13 UNL     1      11.935  53.043  88.767  1.00  0.00     0.711 A 
HETATM    2  N4  UNL     1      11.838  53.128  87.443  1.00  0.00    -0.021 N 
ATOM      3  H4  UNL     1      11.700  54.037  87.000  1.00  0.00     0.203 HD
HETATM    4  C14 UNL     1      11.920  52.026  86.690  1.00  0.00     0.711 A 
HETATM    5  N6  UNL     1      12.099  50.825  87.262  1.00  0.00    -0.021 N 
ATOM      6  H6  UNL     1      12.161  49.984  86.688  1.00  0.00     0.203 HD
HETATM    7  C25 UNL     1      12.197  50.745  88.607  1.00  0.00     0.707 A 
HETATM    8  N8  UNL     1      12.115  51.856  89.355  1.00  0.00    -0.021 N 
ATOM      9  H8  UNL     1      12.189  51.795  90.371  1.00  0.00     0.203 HD
ENDROOT
BRANCH   1  10
HETATM   10  N3  UNL     1      11.864  54.090  89.539  1.00  0.00    -0.189 N 
ATOM     11  H3  UNL     1      10.983  54.602  89.556  1.00  0.00     0.184 HD
BRANCH  10  12
HETATM   12  C12 UNL     1      12.901  54.567  90.345  1.00  0.00     0.072 A 
HETATM   13  C7  UNL     1      12.913  54.500  91.719  1.00  0.00     0.106 A 
HETATM   14  C8  UNL     1      13.984  55.005  92.421  1.00  0.00     0.027 A 
HETATM   15  C9  UNL     1      15.071  55.586  91.815  1.00  0.00     0.002 A 
HETATM   16  C10 UNL     1      15.048  55.646  90.428  1.00  0.00     0.002 A 
HETATM   17  C11 UNL     1      13.993  55.151  89.692  1.00  0.00     0.031 A 
BRANCH  13  18
HETATM   18  S1  UNL     1      11.604  53.777  92.577  1.00  0.00     0.261 S 
HETATM   19  O1  UNL     1      10.286  54.453  92.212  1.00  0.00    -0.200 OA
HETATM   20  O2  UNL     1      11.438  52.346  92.153  1.00  0.00    -0.200 OA
BRANCH  18  21
HETATM   21  N1  UNL     1      11.815  53.823  94.285  1.00  0.00    -0.314 N 
ATOM     22  H1  UNL     1      12.443  53.206  94.800  1.00  0.00     0.172 HD
BRANCH  21  23
HETATM   23  C1  UNL     1      10.992  54.844  94.903  1.00  0.00     0.162 C 
BRANCH  23  24
HETATM   24  C2  UNL     1      11.111  54.866  96.389  1.00  0.00     0.292 C 
BRANCH  24  25
HETATM   25  N2  UNL     1      11.693  56.053  96.918  1.00  0.00     0.094 N 
HETATM   26  C3  UNL     1      10.906  56.581  97.983  1.00  0.00     0.298 C 
HETATM   27  C4  UNL     1      10.082  57.780  97.673  1.00  0.00     0.198 C 
HETATM   28  O3  UNL     1      10.417  58.466  96.530  1.00  0.00    -0.388 OA
HETATM   29  C5  UNL     1      11.798  58.446  96.361  1.00  0.00     0.198 C 
HETATM   30  C6  UNL     1      12.143  57.020  95.978  1.00  0.00     0.298 C 
ENDBRANCH  24  25
ENDBRANCH  23  24
ENDBRANCH  21  23
ENDBRANCH  18  21
ENDBRANCH  13  18
ENDBRANCH  10  12
ENDBRANCH   1  10
BRANCH   4  31
HETATM   31  N5  UNL     1      11.825  52.111  85.399  1.00  0.00    -0.191 N 
ATOM     32  H5  UNL     1      10.910  52.074  84.950  1.00  0.00     0.184 HD
BRANCH  31  33
HETATM   33  C15 UNL     1      12.984  52.253  84.625  1.00  0.00     0.050 A 
HETATM   34  C16 UNL     1      14.036  53.050  85.064  1.00  0.00     0.031 A 
HETATM   35  C17 UNL     1      15.168  53.177  84.287  1.00  0.00     0.014 A 
HETATM   36  C18 UNL     1      15.240  52.509  83.082  1.00  0.00    -0.026 A 
HETATM   37  C19 UNL     1      16.368  52.633  82.302  1.00  0.00     0.012 A 
HETATM   38  C23 UNL     1      14.177  51.715  82.659  1.00  0.00    -0.024 A 
HETATM   39  C20 UNL     1      16.414  51.953  81.100  1.00  0.00     0.001 A 
HETATM   40  C21 UNL     1      15.361  51.165  80.677  1.00  0.00     0.001 A 
HETATM   41  C22 UNL     1      14.226  51.035  81.453  1.00  0.00     0.012 A 
HETATM   42  C24 UNL     1      13.054  51.586  83.424  1.00  0.00     0.042 A 
ENDBRANCH  31  33
ENDBRANCH   4  31
BRANCH   7  43
HETATM   43  N7  UNL     1      12.376  49.583  89.167  1.00  0.00    -0.220 N 
ATOM     44  H7  UNL     1      11.868  48.761  88.841  1.00  0.00     0.178 HD
BRANCH  43  45
HETATM   45  C26 UNL     1      13.313  49.489  90.266  1.00  0.00     0.099 A 
HETATM   46  C27 UNL     1      14.462  48.514  90.131  1.00  0.00     0.028 A 
HETATM   47  C28 UNL     1      13.339  48.291  91.128  1.00  0.00     0.028 A 
ENDBRANCH  43  45
ENDBRANCH   7  43
TORSDOF 11
ENDMDL
MODEL 2
REMARK VINA RESULT: -8.679310765      0.670      1.319
REMARK  11 active torsions:
REMARK  status: ('A' for Active; 'I' for Inactive)
REMARK    1  A    between atoms: S1_2  and  N1_4 
REMARK    2  A    between atoms: S1_2  and  C7_14 
REMARK    3  A    between atoms: N1_4  and  C1_6 
REMARK    4  A    between atoms: C1_6  and  C2_7 
REMARK    5  A    between atoms: C2_7  and  N2_8 
REMARK    6  A    between atoms: C12_19  and  N3_20 
REMARK    7  A    between atoms: N3_20  and  C13_22 
REMARK    8  A    between atoms: C14_25  and  N5_26 
REMARK    9  A    between atoms: N5_26  and  C15_28 
REMARK   10  A    between atoms: C25_40  and  N7_41 
REMARK   11  A    between atoms: N7_41  and  C26_43 
ROOT
HETATM    1  C13 UNL     1      11.616  53.251  89.191  1.00  0.00     0.711 A 
HETATM    2  N4  UNL     1      11.400  53.395  87.886  1.00  0.00    -0.021 N 
ATOM      3  H4  UNL     1      11.239  54.324  87.496  1.00  0.00     0.203 HD
HETATM    4  C14 UNL     1      11.393  52.325  87.084  1.00  0.00     0.711 A 
HETATM    5  N6  UNL     1      11.600  51.098  87.586  1.00  0.00    -0.021 N 
ATOM      6  H6  UNL     1      11.594  50.282  86.975  1.00  0.00     0.203 HD
HETATM    7  C25 UNL     1      11.819  50.958  88.912  1.00  0.00     0.707 A 
HETATM    8  N8  UNL     1      11.826  52.037  89.710  1.00  0.00    -0.021 N 
ATOM      9  H8  UNL     1      11.992  51.931  90.712  1.00  0.00     0.203 HD
ENDROOT
BRANCH   1  10
HETATM   10  N3  UNL     1      11.635  54.264  90.009  1.00  0.00    -0.189 N 
ATOM     11  H3  UNL     1      10.760  54.767  90.154  1.00  0.00     0.184 HD
BRANCH  10  12
HETATM   12  C12 UNL     1      12.761  54.717  90.703  1.00  0.00     0.072 A 
HETATM   13  C7  UNL     1      12.936  54.602  92.062  1.00  0.00     0.106 A 
HETATM   14  C8  UNL     1      14.082  55.085  92.650  1.00  0.00     0.027 A 
HETATM   15  C9  UNL     1      15.090  55.692  91.940  1.00  0.00     0.002 A 
HETATM   16  C10 UNL     1      14.902  55.801  90.569  1.00  0.00     0.002 A 
HETATM   17  C11 UNL     1      13.767  55.328  89.946  1.00  0.00     0.031 A 
BRANCH  13  18
HETATM   18  S1  UNL     1      11.737  53.844  93.043  1.00  0.00     0.261 S 
HETATM   19  O1  UNL     1      10.367  54.464  92.791  1.00  0.00    -0.200 OA
HETATM   20  O2  UNL     1      11.588  52.401  92.652  1.00  0.00    -0.200 OA
BRANCH  18  21
HETATM   21  N1  UNL     1      12.098  53.922  94.725  1.00  0.00    -0.314 N 
ATOM     22  H1  UNL     1      12.806  53.350  95.185  1.00  0.00     0.172 HD
BRANCH  21  23
HETATM   23  C1  UNL     1      11.275  54.901  95.408  1.00  0.00     0.162 C 
BRANCH  23  24
HETATM   24  C2  UNL     1      11.601  55.024  96.857  1.00  0.00     0.292 C 
BRANCH  24  25
HETATM   25  N2  UNL     1      11.789  56.361  97.310  1.00  0.00     0.094 N 
HETATM   26  C3  UNL     1      10.756  56.749  98.212  1.00  0.00     0.298 C 
HETATM   27  C4  UNL     1       9.711  57.662  97.675  1.00  0.00     0.198 C 
HETATM   28  O3  UNL     1      10.020  58.316  96.506  1.00  0.00    -0.388 OA
HETATM   29  C5  UNL     1      11.372  58.644  96.498  1.00  0.00     0.198 C 
HETATM   30  C6  UNL     1      12.112  57.332  96.323  1.00  0.00     0.298 C 
ENDBRANCH  24  25
ENDBRANCH  23  24
ENDBRANCH  21  23
ENDBRANCH  18  21
ENDBRANCH  13  18
ENDBRANCH  10  12
ENDBRANCH   1  10
BRANCH   4  31
HETATM   31  N5  UNL     1      11.181  52.466  85.812  1.00  0.00    -0.191 N 
ATOM     32  H5  UNL     1      10.268  52.770  85.475  1.00  0.00     0.184 HD
BRANCH  31  33
HETATM   33  C15 UNL     1      12.214  52.201  84.902  1.00  0.00     0.050 A 
HETATM   34  C16 UNL     1      12.031  51.287  83.869  1.00  0.00     0.031 A 
HETATM   35  C17 UNL     1      13.059  51.040  82.986  1.00  0.00     0.014 A 
HETATM   36  C18 UNL     1      14.259  51.705  83.139  1.00  0.00    -0.026 A 
HETATM   37  C19 UNL     1      15.289  51.460  82.259  1.00  0.00     0.012 A 
HETATM   38  C23 UNL     1      14.423  52.616  84.179  1.00  0.00    -0.024 A 
HETATM   39  C20 UNL     1      16.479  52.140  82.436  1.00  0.00     0.001 A 
HETATM   40  C21 UNL     1      16.647  53.045  83.466  1.00  0.00     0.001 A 
HETATM   41  C22 UNL     1      15.618  53.296  84.353  1.00  0.00     0.012 A 
HETATM   42  C24 UNL     1      13.409  52.865  85.058  1.00  0.00     0.042 A 
ENDBRANCH  31  33
ENDBRANCH   4  31
BRANCH   7  43
HETATM   43  N7  UNL     1      12.026  49.771  89.405  1.00  0.00    -0.220 N 
ATOM     44  H7  UNL     1      11.539  48.957  89.030  1.00  0.00     0.178 HD
BRANCH  43  45
HETATM   45  C26 UNL     1      12.965  49.636  90.497  1.00  0.00     0.099 A 
HETATM   46  C27 UNL     1      14.187  48.773  90.276  1.00  0.00     0.028 A 
HETATM   47  C28 UNL     1      13.082  48.361  91.232  1.00  0.00     0.028 A 
ENDBRANCH  43  45
ENDBRANCH   7  43
TORSDOF 11
ENDMDL
MODEL 3
REMARK VINA RESULT: -8.593816171      1.031      1.200
REMARK  11 active torsions:
REMARK  status: ('A' for Active; 'I' for Inactive)
REMARK    1  A    between atoms: S1_2  and  N1_4 
REMARK    2  A    between atoms: S1_2  and  C7_14 
REMARK    3  A    between atoms: N1_4  and  C1_6 
REMARK    4  A    between atoms: C1_6  and  C2_7 
REMARK    5  A    between atoms: C2_7  and  N2_8 
REMARK    6  A    between atoms: C12_19  and  N3_20 
REMARK    7  A    between atoms: N3_20  and  C13_22 
REMARK    8  A    between atoms: C14_25  and  N5_26 
REMARK    9  A    between atoms: N5_26  and  C15_28 
REMARK   10  A    between atoms: C25_40  and  N7_41 
REMARK   11  A    between atoms: N7_41  and  C26_43 
ROOT
HETATM    1  C13 UNL     1      11.139  53.463  89.451  1.00  0.00     0.711 A 
HETATM    2  N4  UNL     1      11.260  53.698  88.147  1.00  0.00    -0.021 N 
ATOM      3  H4  UNL     1      11.440  54.646  87.815  1.00  0.00     0.203 HD
HETATM    4  C14 UNL     1      11.147  52.696  87.269  1.00  0.00     0.711 A 
HETATM    5  N6  UNL     1      10.909  51.445  87.693  1.00  0.00    -0.021 N 
ATOM      6  H6  UNL     1      10.821  50.681  87.023  1.00  0.00     0.203 HD
HETATM    7  C25 UNL     1      10.786  51.212  89.018  1.00  0.00     0.707 A 
HETATM    8  N8  UNL     1      10.902  52.223  89.893  1.00  0.00    -0.021 N 
ATOM      9  H8  UNL     1      10.810  52.046  90.893  1.00  0.00     0.203 HD
ENDROOT
BRANCH   1  10
HETATM   10  N3  UNL     1      11.245  54.406  90.341  1.00  0.00    -0.189 N 
ATOM     11  H3  UNL     1      10.407  54.947  90.555  1.00  0.00     0.184 HD
BRANCH  10  12
HETATM   12  C12 UNL     1      12.417  54.737  91.028  1.00  0.00     0.072 A 
HETATM   13  C7  UNL     1      12.604  54.561  92.379  1.00  0.00     0.106 A 
HETATM   14  C8  UNL     1      13.797  54.925  92.960  1.00  0.00     0.027 A 
HETATM   15  C9  UNL     1      14.841  55.468  92.250  1.00  0.00     0.002 A 
HETATM   16  C10 UNL     1      14.640  55.640  90.887  1.00  0.00     0.002 A 
HETATM   17  C11 UNL     1      13.458  55.287  90.272  1.00  0.00     0.031 A 
BRANCH  13  18
HETATM   18  S1  UNL     1      11.361  53.873  93.357  1.00  0.00     0.261 S 
HETATM   19  O1  UNL     1      10.075  54.681  93.236  1.00  0.00    -0.200 OA
HETATM   20  O2  UNL     1      11.009  52.503  92.855  1.00  0.00    -0.200 OA
BRANCH  18  21
HETATM   21  N1  UNL     1      11.805  53.753  95.017  1.00  0.00    -0.314 N 
ATOM     22  H1  UNL     1      12.504  53.104  95.376  1.00  0.00     0.172 HD
BRANCH  21  23
HETATM   23  C1  UNL     1      11.062  54.685  95.842  1.00  0.00     0.162 C 
BRANCH  23  24
HETATM   24  C2  UNL     1      11.736  54.976  97.140  1.00  0.00     0.292 C 
BRANCH  24  25
HETATM   25  N2  UNL     1      11.793  56.358  97.480  1.00  0.00     0.094 N 
HETATM   26  C3  UNL     1      10.732  56.715  98.363  1.00  0.00     0.298 C 
HETATM   27  C4  UNL     1       9.597  57.472  97.770  1.00  0.00     0.198 C 
HETATM   28  O3  UNL     1       9.831  58.056  96.548  1.00  0.00    -0.388 OA
HETATM   29  C5  UNL     1      11.144  58.515  96.493  1.00  0.00     0.198 C 
HETATM   30  C6  UNL     1      12.009  57.272  96.414  1.00  0.00     0.298 C 
ENDBRANCH  24  25
ENDBRANCH  23  24
ENDBRANCH  21  23
ENDBRANCH  18  21
ENDBRANCH  13  18
ENDBRANCH  10  12
ENDBRANCH   1  10
BRANCH   4  31
HETATM   31  N5  UNL     1      11.265  52.928  85.998  1.00  0.00    -0.191 N 
ATOM     32  H5  UNL     1      10.435  53.071  85.424  1.00  0.00     0.184 HD
BRANCH  31  33
HETATM   33  C15 UNL     1      12.540  52.980  85.416  1.00  0.00     0.050 A 
HETATM   34  C16 UNL     1      13.501  53.863  85.897  1.00  0.00     0.031 A 
HETATM   35  C17 UNL     1      14.749  53.899  85.311  1.00  0.00     0.014 A 
HETATM   36  C18 UNL     1      15.026  53.056  84.254  1.00  0.00    -0.026 A 
HETATM   37  C19 UNL     1      16.270  53.089  83.666  1.00  0.00     0.012 A 
HETATM   38  C23 UNL     1      14.050  52.179  83.788  1.00  0.00    -0.024 A 
HETATM   39  C20 UNL     1      16.520  52.233  82.610  1.00  0.00     0.001 A 
HETATM   40  C21 UNL     1      15.555  51.361  82.144  1.00  0.00     0.001 A 
HETATM   41  C22 UNL     1      14.304  51.322  82.728  1.00  0.00     0.012 A 
HETATM   42  C24 UNL     1      12.813  52.139  84.364  1.00  0.00     0.042 A 
ENDBRANCH  31  33
ENDBRANCH   4  31
BRANCH   7  43
HETATM   43  N7  UNL     1      10.559  50.000  89.436  1.00  0.00    -0.220 N 
ATOM     44  H7  UNL     1       9.711  49.776  89.956  1.00  0.00     0.178 HD
BRANCH  43  45
HETATM   45  C26 UNL     1      11.542  48.979  89.144  1.00  0.00     0.099 A 
HETATM   46  C27 UNL     1      12.066  48.153  90.298  1.00  0.00     0.028 A 
HETATM   47  C28 UNL     1      12.947  49.148  89.564  1.00  0.00     0.028 A 
ENDBRANCH  43  45
ENDBRANCH   7  43
TORSDOF 11
ENDMDL
MODEL 4
REMARK VINA RESULT: -8.491228466      2.381      4.424
REMARK  11 active torsions:
REMARK  status: ('A' for Active; 'I' for Inactive)
REMARK    1  A    between atoms: S1_2  and  N1_4 
REMARK    2  A    between atoms: S1_2  and  C7_14 
REMARK    3  A    between atoms: N1_4  and  C1_6 
REMARK    4  A    between atoms: C1_6  and  C2_7 
REMARK    5  A    between atoms: C2_7  and  N2_8 
REMARK    6  A    between atoms: C12_19  and  N3_20 
REMARK    7  A    between atoms: N3_20  and  C13_22 
REMARK    8  A    between atoms: C14_25  and  N5_26 
REMARK    9  A    between atoms: N5_26  and  C15_28 
REMARK   10  A    between atoms: C25_40  and  N7_41 
REMARK   11  A    between atoms: N7_41  and  C26_43 
ROOT
HETATM    1  C13 UNL     1      12.200  51.777  89.963  1.00  0.00     0.711 A 
HETATM    2  N4  UNL     1      11.795  51.742  88.696  1.00  0.00    -0.021 N 
ATOM      3  H4  UNL     1      11.516  50.855  88.276  1.00  0.00     0.203 HD
HETATM    4  C14 UNL     1      11.754  52.865  87.971  1.00  0.00     0.711 A 
HETATM    5  N6  UNL     1      12.122  54.036  88.513  1.00  0.00    -0.021 N 
ATOM      6  H6  UNL     1      12.092  54.893  87.960  1.00  0.00     0.203 HD
HETATM    7  C25 UNL     1      12.532  54.067  89.800  1.00  0.00     0.707 A 
HETATM    8  N8  UNL     1      12.569  52.935  90.521  1.00  0.00    -0.021 N 
ATOM      9  H8  UNL     1      12.879  52.959  91.493  1.00  0.00     0.203 HD
ENDROOT
BRANCH   1  10
HETATM   10  N3  UNL     1      12.253  50.710  90.707  1.00  0.00    -0.189 N 
ATOM     11  H3  UNL     1      12.921  49.986  90.443  1.00  0.00     0.184 HD
BRANCH  10  12
HETATM   12  C12 UNL     1      11.466  50.478  91.839  1.00  0.00     0.072 A 
HETATM   13  C7  UNL     1      11.951  50.410  93.124  1.00  0.00     0.106 A 
HETATM   14  C8  UNL     1      11.091  50.172  94.171  1.00  0.00     0.027 A 
HETATM   15  C9  UNL     1       9.739  49.994  94.004  1.00  0.00     0.002 A 
HETATM   16  C10 UNL     1       9.261  50.066  92.702  1.00  0.00     0.002 A 
HETATM   17  C11 UNL     1      10.094  50.302  91.629  1.00  0.00     0.031 A 
BRANCH  13  18
HETATM   18  S1  UNL     1      13.631  50.635  93.444  1.00  0.00     0.261 S 
HETATM   19  O1  UNL     1      14.456  49.544  92.770  1.00  0.00    -0.200 OA
HETATM   20  O2  UNL     1      14.106  51.919  92.827  1.00  0.00    -0.200 OA
BRANCH  18  21
HETATM   21  N1  UNL     1      13.995  50.668  95.126  1.00  0.00    -0.314 N 
ATOM     22  H1  UNL     1      14.073  49.835  95.711  1.00  0.00     0.172 HD
BRANCH  21  23
HETATM   23  C1  UNL     1      14.175  52.021  95.613  1.00  0.00     0.162 C 
BRANCH  23  24
HETATM   24  C2  UNL     1      12.973  52.551  96.317  1.00  0.00     0.292 C 
BRANCH  24  25
HETATM   25  N2  UNL     1      12.587  53.864  95.923  1.00  0.00     0.094 N 
HETATM   26  C3  UNL     1      11.320  53.853  95.269  1.00  0.00     0.298 C 
HETATM   27  C4  UNL     1      11.333  54.007  93.789  1.00  0.00     0.198 C 
HETATM   28  O3  UNL     1      12.496  54.492  93.240  1.00  0.00    -0.388 OA
HETATM   29  C5  UNL     1      13.056  55.438  94.093  1.00  0.00     0.198 C 
HETATM   30  C6  UNL     1      13.578  54.659  95.285  1.00  0.00     0.298 C 
ENDBRANCH  24  25
ENDBRANCH  23  24
ENDBRANCH  21  23
ENDBRANCH  18  21
ENDBRANCH  13  18
ENDBRANCH  10  12
ENDBRANCH   1  10
BRANCH   4  31
HETATM   31  N5  UNL     1      11.360  52.828  86.736  1.00  0.00    -0.191 N 
ATOM     32  H5  UNL     1      10.400  53.080  86.497  1.00  0.00     0.184 HD
BRANCH  31  33
HETATM   33  C15 UNL     1      12.258  52.443  85.731  1.00  0.00     0.050 A 
HETATM   34  C16 UNL     1      11.966  51.371  84.894  1.00  0.00     0.031 A 
HETATM   35  C17 UNL     1      12.863  51.007  83.912  1.00  0.00     0.014 A 
HETATM   36  C18 UNL     1      14.040  51.715  83.774  1.00  0.00    -0.026 A 
HETATM   37  C19 UNL     1      14.938  51.354  82.795  1.00  0.00     0.012 A 
HETATM   38  C23 UNL     1      14.314  52.785  84.621  1.00  0.00    -0.024 A 
HETATM   39  C20 UNL     1      16.108  52.081  82.679  1.00  0.00     0.001 A 
HETATM   40  C21 UNL     1      16.384  53.143  83.518  1.00  0.00     0.001 A 
HETATM   41  C22 UNL     1      15.488  53.511  84.502  1.00  0.00     0.012 A 
HETATM   42  C24 UNL     1      13.430  53.149  85.596  1.00  0.00     0.042 A 
ENDBRANCH  31  33
ENDBRANCH   4  31
BRANCH   7  43
HETATM   43  N7  UNL     1      12.885  55.201  90.332  1.00  0.00    -0.220 N 
ATOM     44  H7  UNL     1      12.256  55.703  90.959  1.00  0.00     0.178 HD
BRANCH  43  45
HETATM   45  C26 UNL     1      14.193  55.731  90.012  1.00  0.00     0.099 A 
HETATM   46  C27 UNL     1      15.358  55.309  90.880  1.00  0.00     0.028 A 
HETATM   47  C28 UNL     1      14.831  56.733  90.889  1.00  0.00     0.028 A 
ENDBRANCH  43  45
ENDBRANCH   7  43
TORSDOF 11
ENDMDL
MODEL 5
REMARK VINA RESULT: -8.467410711      3.014      5.320
REMARK  11 active torsions:
REMARK  status: ('A' for Active; 'I' for Inactive)
REMARK    1  A    between atoms: S1_2  and  N1_4 
REMARK    2  A    between atoms: S1_2  and  C7_14 
REMARK    3  A    between atoms: N1_4  and  C1_6 
REMARK    4  A    between atoms: C1_6  and  C2_7 
REMARK    5  A    between atoms: C2_7  and  N2_8 
REMARK    6  A    between atoms: C12_19  and  N3_20 
REMARK    7  A    between atoms: N3_20  and  C13_22 
REMARK    8  A    between atoms: C14_25  and  N5_26 
REMARK    9  A    between atoms: N5_26  and  C15_28 
REMARK   10  A    between atoms: C25_40  and  N7_41 
REMARK   11  A    between atoms: N7_41  and  C26_43 
ROOT
HETATM    1  C13 UNL     1      12.053  51.435  89.626  1.00  0.00     0.711 A 
HETATM    2  N4  UNL     1      11.975  51.956  88.404  1.00  0.00    -0.021 N 
ATOM      3  H4  UNL     1      11.860  51.343  87.596  1.00  0.00     0.203 HD
HETATM    4  C14 UNL     1      12.049  53.280  88.231  1.00  0.00     0.711 A 
HETATM    5  N6  UNL     1      12.203  54.095  89.286  1.00  0.00    -0.021 N 
ATOM      6  H6  UNL     1      12.260  55.104  89.155  1.00  0.00     0.203 HD
HETATM    7  C25 UNL     1      12.281  53.561  90.525  1.00  0.00     0.707 A 
HETATM    8  N8  UNL     1      12.205  52.231  90.690  1.00  0.00    -0.021 N 
ATOM      9  H8  UNL     1      12.264  51.828  91.626  1.00  0.00     0.203 HD
ENDROOT
BRANCH   1  10
HETATM   10  N3  UNL     1      11.983  50.153  89.842  1.00  0.00    -0.189 N 
ATOM     11  H3  UNL     1      11.095  49.782  90.179  1.00  0.00     0.184 HD
BRANCH  10  12
HETATM   12  C12 UNL     1      13.028  49.246  89.648  1.00  0.00     0.072 A 
HETATM   13  C7  UNL     1      13.871  48.806  90.642  1.00  0.00     0.106 A 
HETATM   14  C8  UNL     1      14.875  47.913  90.344  1.00  0.00     0.027 A 
HETATM   15  C9  UNL     1      15.090  47.421  89.079  1.00  0.00     0.002 A 
HETATM   16  C10 UNL     1      14.231  47.872  88.085  1.00  0.00     0.002 A 
HETATM   17  C11 UNL     1      13.216  48.766  88.347  1.00  0.00     0.031 A 
BRANCH  13  18
HETATM   18  S1  UNL     1      13.678  49.351  92.266  1.00  0.00     0.261 S 
HETATM   19  O1  UNL     1      14.319  50.721  92.452  1.00  0.00    -0.200 OA
HETATM   20  O2  UNL     1      12.222  49.558  92.570  1.00  0.00    -0.200 OA
BRANCH  18  21
HETATM   21  N1  UNL     1      14.329  48.255  93.423  1.00  0.00    -0.314 N 
ATOM     22  H1  UNL     1      14.750  47.356  93.186  1.00  0.00     0.172 HD
BRANCH  21  23
HETATM   23  C1  UNL     1      14.207  48.762  94.776  1.00  0.00     0.162 C 
BRANCH  23  24
HETATM   24  C2  UNL     1      15.525  49.025  95.419  1.00  0.00     0.292 C 
BRANCH  24  25
HETATM   25  N2  UNL     1      15.795  50.400  95.675  1.00  0.00     0.094 N 
HETATM   26  C3  UNL     1      16.815  50.549  96.661  1.00  0.00     0.298 C 
HETATM   27  C4  UNL     1      16.371  50.950  98.023  1.00  0.00     0.198 C 
HETATM   28  O3  UNL     1      15.104  51.476  98.117  1.00  0.00    -0.388 OA
HETATM   29  C5  UNL     1      14.831  52.242  96.988  1.00  0.00     0.198 C 
HETATM   30  C6  UNL     1      14.671  51.252  95.851  1.00  0.00     0.298 C 
ENDBRANCH  24  25
ENDBRANCH  23  24
ENDBRANCH  21  23
ENDBRANCH  18  21
ENDBRANCH  13  18
ENDBRANCH  10  12
ENDBRANCH   1  10
BRANCH   4  31
HETATM   31  N5  UNL     1      11.974  53.786  87.039  1.00  0.00    -0.191 N 
ATOM     32  H5  UNL     1      11.145  54.309  86.756  1.00  0.00     0.184 HD
BRANCH  31  33
HETATM   33  C15 UNL     1      13.036  53.611  86.142  1.00  0.00     0.050 A 
HETATM   34  C16 UNL     1      14.146  54.448  86.186  1.00  0.00     0.031 A 
HETATM   35  C17 UNL     1      15.180  54.260  85.294  1.00  0.00     0.014 A 
HETATM   36  C18 UNL     1      15.099  53.239  84.369  1.00  0.00    -0.026 A 
HETATM   37  C19 UNL     1      16.129  53.047  83.476  1.00  0.00     0.012 A 
HETATM   38  C23 UNL     1      13.980  52.410  84.341  1.00  0.00    -0.024 A 
HETATM   39  C20 UNL     1      16.022  52.017  82.561  1.00  0.00     0.001 A 
HETATM   40  C21 UNL     1      14.913  51.193  82.529  1.00  0.00     0.001 A 
HETATM   41  C22 UNL     1      13.875  51.379  83.421  1.00  0.00     0.012 A 
HETATM   42  C24 UNL     1      12.952  52.593  85.221  1.00  0.00     0.042 A 
ENDBRANCH  31  33
ENDBRANCH   4  31
BRANCH   7  43
HETATM   43  N7  UNL     1      12.426  54.346  91.553  1.00  0.00    -0.220 N 
ATOM     44  H7  UNL     1      11.676  54.975  91.840  1.00  0.00     0.178 HD
BRANCH  43  45
HETATM   45  C26 UNL     1      13.678  54.305  92.276  1.00  0.00     0.099 A 
HETATM   46  C27 UNL     1      13.892  55.321  93.377  1.00  0.00     0.028 A 
HETATM   47  C28 UNL     1      14.690  55.363  92.086  1.00  0.00     0.028 A 
ENDBRANCH  43  45
ENDBRANCH   7  43
TORSDOF 11
ENDMDL
