MODEL 1
REMARK VINA RESULT: -8.114418510      0.000      0.000
REMARK  8 active torsions:
REMARK  status: ('A' for Active; 'I' for Inactive)
REMARK       I    between atoms: C1_2  and  N1_3 
REMARK    1  A    between atoms: C1_2  and  C11_22 
REMARK    2  A    between atoms: N1_3  and  C2_5 
REMARK    3  A    between atoms: C5_8  and  S1_9 
REMARK    4  A    between atoms: S1_9  and  N2_12 
REMARK    5  A    between atoms: N2_12  and  C6_14 
REMARK    6  A    between atoms: C14_25  and  C15_26 
REMARK    7  A    between atoms: C15_26  and  S3_27 
REMARK    8  A    between atoms: S3_27  and  C16_29 
ROOT
HETATM    1  O1  UNL     1      11.629  52.320  88.712  1.00  0.00    -0.266 OA
HETATM    2  C1  UNL     1      12.250  53.436  88.651  1.00  0.00     0.272 C 
HETATM    3  N1  UNL     1      12.570  53.994  87.423  1.00  0.00    -0.322 N 
ATOM      4  H1  UNL     1      13.059  54.889  87.438  1.00  0.00     0.169 HD
ENDROOT
BRANCH   2   5
HETATM    5  C11 UNL     1      12.608  54.101  89.906  1.00  0.00     0.103 A 
HETATM    6  C12 UNL     1      12.235  53.502  91.110  1.00  0.00     0.036 A 
HETATM    7  C13 UNL     1      12.575  54.133  92.288  1.00  0.00     0.016 A 
HETATM    8  C14 UNL     1      13.260  55.311  92.333  1.00  0.00     0.022 A 
HETATM    9  C22 UNL     1      13.607  55.863  91.117  1.00  0.00     0.253 A 
HETATM   10  O5  UNL     1      14.241  56.952  91.110  1.00  0.00    -0.268 OA
HETATM   11  N4  UNL     1      13.275  55.247  89.933  1.00  0.00    -0.319 N 
ATOM     12  H4  UNL     1      13.548  55.683  89.053  1.00  0.00     0.169 HD
BRANCH   8  13
HETATM   13  C15 UNL     1      13.612  56.003  93.573  1.00  0.00     0.158 C 
BRANCH  13  14
HETATM   14  S3  UNL     1      12.692  55.335  94.924  1.00  0.00     0.054 S 
HETATM   15  O4  UNL     1      13.748  54.631  96.004  1.00  0.00    -0.252 OA
BRANCH  14  16
HETATM   16  C16 UNL     1      11.702  56.502  95.712  1.00  0.00     0.031 A 
HETATM   17  C17 UNL     1      12.230  57.738  96.051  1.00  0.00     0.021 A 
HETATM   18  C18 UNL     1      11.455  58.674  96.676  1.00  0.00     0.001 A 
HETATM   19  C19 UNL     1      10.149  58.372  96.965  1.00  0.00     0.000 A 
HETATM   20  C20 UNL     1       9.597  57.141  96.636  1.00  0.00     0.001 A 
HETATM   21  C21 UNL     1      10.390  56.206  96.004  1.00  0.00     0.021 A 
ENDBRANCH  14  16
ENDBRANCH  13  14
ENDBRANCH   8  13
ENDBRANCH   2   5
BRANCH   3  22
HETATM   22  C2  UNL     1      12.281  53.439  86.134  1.00  0.00     0.035 A 
HETATM   23  C3  UNL     1      13.128  52.679  85.386  1.00  0.00     0.031 A 
HETATM   24  C4  UNL     1      12.732  52.164  84.139  1.00  0.00     0.027 A 
HETATM   25  C5  UNL     1      11.487  52.396  83.617  1.00  0.00     0.080 A 
HETATM   26  C9  UNL     1      10.632  53.164  84.376  1.00  0.00     0.027 A 
HETATM   27  C10 UNL     1      11.000  53.674  85.591  1.00  0.00     0.031 A 
BRANCH  25  28
HETATM   28  S1  UNL     1      11.012  51.741  82.062  1.00  0.00     0.264 S 
HETATM   29  O2  UNL     1      12.219  51.882  81.139  1.00  0.00    -0.200 OA
HETATM   30  O3  UNL     1      10.752  50.261  82.142  1.00  0.00    -0.200 OA
BRANCH  28  31
HETATM   31  N2  UNL     1       9.756  52.632  81.349  1.00  0.00    -0.260 N 
ATOM     32  H2  UNL     1       9.171  53.196  81.965  1.00  0.00     0.181 HD
BRANCH  31  33
HETATM   33  C6  UNL     1       9.479  52.651  80.065  1.00  0.00     0.158 A 
HETATM   34  N3  UNL     1      10.160  53.261  79.094  1.00  0.00    -0.345 N 
HETATM   35  C7  UNL     1       9.715  53.160  77.866  1.00  0.00     0.097 A 
ATOM     36  H3  UNL     1      11.005  53.792  79.303  1.00  0.00     0.167 HD
HETATM   37  C8  UNL     1       8.578  52.435  77.654  1.00  0.00     0.070 A 
HETATM   38  S2  UNL     1       8.185  51.921  79.233  1.00  0.00    -0.064 SA
ENDBRANCH  31  33
ENDBRANCH  28  31
ENDBRANCH  25  28
ENDBRANCH   3  22
TORSDOF 8
ENDMDL
MODEL 2
REMARK VINA RESULT: -8.066169118      2.061      2.665
REMARK  8 active torsions:
REMARK  status: ('A' for Active; 'I' for Inactive)
REMARK       I    between atoms: C1_2  and  N1_3 
REMARK    1  A    between atoms: C1_2  and  C11_22 
REMARK    2  A    between atoms: N1_3  and  C2_5 
REMARK    3  A    between atoms: C5_8  and  S1_9 
REMARK    4  A    between atoms: S1_9  and  N2_12 
REMARK    5  A    between atoms: N2_12  and  C6_14 
REMARK    6  A    between atoms: C14_25  and  C15_26 
REMARK    7  A    between atoms: C15_26  and  S3_27 
REMARK    8  A    between atoms: S3_27  and  C16_29 
ROOT
HETATM    1  O1  UNL     1      11.469  52.211  88.900  1.00  0.00    -0.266 OA
HETATM    2  C1  UNL     1      12.059  53.344  88.840  1.00  0.00     0.272 C 
HETATM    3  N1  UNL     1      12.305  53.942  87.614  1.00  0.00    -0.322 N 
ATOM      4  H1  UNL     1      12.773  54.849  87.631  1.00  0.00     0.169 HD
ENDROOT
BRANCH   2   5
HETATM    5  C11 UNL     1      12.463  53.983  90.094  1.00  0.00     0.103 A 
HETATM    6  C12 UNL     1      12.124  53.365  91.299  1.00  0.00     0.036 A 
HETATM    7  C13 UNL     1      12.507  53.972  92.476  1.00  0.00     0.016 A 
HETATM    8  C14 UNL     1      13.201  55.144  92.521  1.00  0.00     0.022 A 
HETATM    9  C22 UNL     1      13.513  55.716  91.304  1.00  0.00     0.253 A 
HETATM   10  O5  UNL     1      14.155  56.800  91.296  1.00  0.00    -0.268 OA
HETATM   11  N4  UNL     1      13.138  55.123  90.121  1.00  0.00    -0.319 N 
ATOM     12  H4  UNL     1      13.386  55.574  89.240  1.00  0.00     0.169 HD
BRANCH   8  13
HETATM   13  C15 UNL     1      13.598  55.811  93.761  1.00  0.00     0.158 C 
BRANCH  13  14
HETATM   14  S3  UNL     1      12.601  55.243  95.102  1.00  0.00     0.054 S 
HETATM   15  O4  UNL     1      13.584  54.539  96.249  1.00  0.00    -0.252 OA
BRANCH  14  16
HETATM   16  C16 UNL     1      11.638  56.485  95.805  1.00  0.00     0.031 A 
HETATM   17  C17 UNL     1      12.193  57.732  96.049  1.00  0.00     0.021 A 
HETATM   18  C18 UNL     1      11.440  58.728  96.606  1.00  0.00     0.001 A 
HETATM   19  C19 UNL     1      10.129  58.475  96.920  1.00  0.00     0.000 A 
HETATM   20  C20 UNL     1       9.551  57.234  96.686  1.00  0.00     0.001 A 
HETATM   21  C21 UNL     1      10.322  56.239  96.123  1.00  0.00     0.021 A 
ENDBRANCH  14  16
ENDBRANCH  13  14
ENDBRANCH   8  13
ENDBRANCH   2   5
BRANCH   3  22
HETATM   22  C2  UNL     1      11.966  53.416  86.326  1.00  0.00     0.035 A 
HETATM   23  C3  UNL     1      10.870  53.753  85.591  1.00  0.00     0.031 A 
HETATM   24  C4  UNL     1      10.645  53.189  84.322  1.00  0.00     0.027 A 
HETATM   25  C5  UNL     1      11.508  52.282  83.765  1.00  0.00     0.080 A 
HETATM   26  C9  UNL     1      12.615  51.944  84.510  1.00  0.00     0.027 A 
HETATM   27  C10 UNL     1      12.850  52.482  85.746  1.00  0.00     0.031 A 
BRANCH  25  28
HETATM   28  S1  UNL     1      11.211  51.595  82.180  1.00  0.00     0.264 S 
HETATM   29  O2  UNL     1       9.881  50.850  82.267  1.00  0.00    -0.200 OA
HETATM   30  O3  UNL     1      10.993  52.665  81.146  1.00  0.00    -0.200 OA
BRANCH  28  31
HETATM   31  N2  UNL     1      12.380  50.441  81.754  1.00  0.00    -0.260 N 
ATOM     32  H2  UNL     1      12.167  49.463  81.948  1.00  0.00     0.181 HD
BRANCH  31  33
HETATM   33  C6  UNL     1      13.538  50.710  81.194  1.00  0.00     0.158 A 
HETATM   34  N3  UNL     1      14.267  51.818  81.324  1.00  0.00    -0.345 N 
HETATM   35  C7  UNL     1      15.403  51.893  80.677  1.00  0.00     0.097 A 
ATOM     36  H3  UNL     1      13.949  52.587  81.914  1.00  0.00     0.167 HD
HETATM   37  C8  UNL     1      15.772  50.830  79.904  1.00  0.00     0.070 A 
HETATM   38  S2  UNL     1      14.469  49.753  80.136  1.00  0.00    -0.064 SA
ENDBRANCH  31  33
ENDBRANCH  28  31
ENDBRANCH  25  28
ENDBRANCH   3  22
TORSDOF 8
ENDMDL
MODEL 3
REMARK VINA RESULT: -8.047948138      2.965     12.519
REMARK  8 active torsions:
REMARK  status: ('A' for Active; 'I' for Inactive)
REMARK       I    between atoms: C1_2  and  N1_3 
REMARK    1  A    between atoms: C1_2  and  C11_22 
REMARK    2  A    between atoms: N1_3  and  C2_5 
REMARK    3  A    between atoms: C5_8  and  S1_9 
REMARK    4  A    between atoms: S1_9  and  N2_12 
REMARK    5  A    between atoms: N2_12  and  C6_14 
REMARK    6  A    between atoms: C14_25  and  C15_26 
REMARK    7  A    between atoms: C15_26  and  S3_27 
REMARK    8  A    between atoms: S3_27  and  C16_29 
ROOT
HETATM    1  O1  UNL     1      10.264  54.128  89.534  1.00  0.00    -0.266 OA
HETATM    2  C1  UNL     1      11.341  53.647  89.042  1.00  0.00     0.272 C 
HETATM    3  N1  UNL     1      12.469  53.502  89.835  1.00  0.00    -0.322 N 
ATOM      4  H1  UNL     1      13.297  53.106  89.387  1.00  0.00     0.169 HD
ENDROOT
BRANCH   2   5
HETATM    5  C11 UNL     1      11.346  53.258  87.631  1.00  0.00     0.103 A 
HETATM    6  C12 UNL     1      12.146  52.184  87.236  1.00  0.00     0.036 A 
HETATM    7  C13 UNL     1      12.147  51.823  85.906  1.00  0.00     0.016 A 
HETATM    8  C14 UNL     1      11.403  52.461  84.958  1.00  0.00     0.022 A 
HETATM    9  C22 UNL     1      10.629  53.516  85.397  1.00  0.00     0.253 A 
HETATM   10  O5  UNL     1       9.925  54.136  84.556  1.00  0.00    -0.268 OA
HETATM   11  N4  UNL     1      10.617  53.889  86.720  1.00  0.00    -0.319 N 
ATOM     12  H4  UNL     1      10.032  54.673  87.010  1.00  0.00     0.169 HD
BRANCH   8  13
HETATM   13  C15 UNL     1      11.408  52.104  83.540  1.00  0.00     0.158 C 
BRANCH  13  14
HETATM   14  S3  UNL     1      12.645  50.884  83.224  1.00  0.00     0.054 S 
HETATM   15  O4  UNL     1      12.053  49.783  82.121  1.00  0.00    -0.252 OA
BRANCH  14  16
HETATM   16  C16 UNL     1      14.134  51.554  82.678  1.00  0.00     0.031 A 
HETATM   17  C17 UNL     1      14.435  51.553  81.325  1.00  0.00     0.021 A 
HETATM   18  C18 UNL     1      15.613  52.082  80.878  1.00  0.00     0.001 A 
HETATM   19  C19 UNL     1      16.492  52.613  81.787  1.00  0.00     0.000 A 
HETATM   20  C20 UNL     1      16.213  52.626  83.147  1.00  0.00     0.001 A 
HETATM   21  C21 UNL     1      15.020  52.089  83.585  1.00  0.00     0.021 A 
ENDBRANCH  14  16
ENDBRANCH  13  14
ENDBRANCH   8  13
ENDBRANCH   2   5
BRANCH   3  22
HETATM   22  C2  UNL     1      12.589  53.851  91.218  1.00  0.00     0.035 A 
HETATM   23  C3  UNL     1      13.104  55.015  91.704  1.00  0.00     0.031 A 
HETATM   24  C4  UNL     1      13.153  55.266  93.086  1.00  0.00     0.027 A 
HETATM   25  C5  UNL     1      12.691  54.363  94.008  1.00  0.00     0.080 A 
HETATM   26  C9  UNL     1      12.171  53.187  93.514  1.00  0.00     0.027 A 
HETATM   27  C10 UNL     1      12.115  52.926  92.172  1.00  0.00     0.031 A 
BRANCH  25  28
HETATM   28  S1  UNL     1      12.758  54.698  95.728  1.00  0.00     0.264 S 
HETATM   29  O2  UNL     1      11.589  53.951  96.365  1.00  0.00    -0.200 OA
HETATM   30  O3  UNL     1      13.990  54.106  96.357  1.00  0.00    -0.200 OA
BRANCH  28  31
HETATM   31  N2  UNL     1      12.521  56.342  96.070  1.00  0.00    -0.260 N 
ATOM     32  H2  UNL     1      13.342  56.947  96.064  1.00  0.00     0.181 HD
BRANCH  31  33
HETATM   33  C6  UNL     1      11.361  56.897  96.341  1.00  0.00     0.158 A 
HETATM   34  N3  UNL     1      10.155  56.335  96.277  1.00  0.00    -0.345 N 
HETATM   35  C7  UNL     1       9.112  57.064  96.591  1.00  0.00     0.097 A 
ATOM     36  H3  UNL     1      10.046  55.362  95.992  1.00  0.00     0.167 HD
HETATM   37  C8  UNL     1       9.325  58.360  96.964  1.00  0.00     0.070 A 
HETATM   38  S2  UNL     1      11.023  58.487  96.852  1.00  0.00    -0.064 SA
ENDBRANCH  31  33
ENDBRANCH  28  31
ENDBRANCH  25  28
ENDBRANCH   3  22
TORSDOF 8
ENDMDL
MODEL 4
REMARK VINA RESULT: -8.035687274      1.737      2.295
REMARK  8 active torsions:
REMARK  status: ('A' for Active; 'I' for Inactive)
REMARK       I    between atoms: C1_2  and  N1_3 
REMARK    1  A    between atoms: C1_2  and  C11_22 
REMARK    2  A    between atoms: N1_3  and  C2_5 
REMARK    3  A    between atoms: C5_8  and  S1_9 
REMARK    4  A    between atoms: S1_9  and  N2_12 
REMARK    5  A    between atoms: N2_12  and  C6_14 
REMARK    6  A    between atoms: C14_25  and  C15_26 
REMARK    7  A    between atoms: C15_26  and  S3_27 
REMARK    8  A    between atoms: S3_27  and  C16_29 
ROOT
HETATM    1  O1  UNL     1      11.728  52.099  89.063  1.00  0.00    -0.266 OA
HETATM    2  C1  UNL     1      12.149  53.305  89.060  1.00  0.00     0.272 C 
HETATM    3  N1  UNL     1      12.217  54.021  87.874  1.00  0.00    -0.322 N 
ATOM      4  H1  UNL     1      12.555  54.982  87.937  1.00  0.00     0.169 HD
ENDROOT
BRANCH   2   5
HETATM    5  C11 UNL     1      12.555  53.902  90.334  1.00  0.00     0.103 A 
HETATM    6  C12 UNL     1      11.816  53.600  91.480  1.00  0.00     0.036 A 
HETATM    7  C13 UNL     1      12.203  54.165  92.676  1.00  0.00     0.016 A 
HETATM    8  C14 UNL     1      13.271  55.004  92.795  1.00  0.00     0.022 A 
HETATM    9  C22 UNL     1      13.969  55.273  91.635  1.00  0.00     0.253 A 
HETATM   10  O5  UNL     1      14.964  56.042  91.697  1.00  0.00    -0.268 OA
HETATM   11  N4  UNL     1      13.596  54.717  90.434  1.00  0.00    -0.319 N 
ATOM     12  H4  UNL     1      14.136  54.937  89.596  1.00  0.00     0.169 HD
BRANCH   8  13
HETATM   13  C15 UNL     1      13.683  55.627  94.052  1.00  0.00     0.158 C 
BRANCH  13  14
HETATM   14  S3  UNL     1      12.584  55.158  95.352  1.00  0.00     0.054 S 
HETATM   15  O4  UNL     1      13.466  54.462  96.583  1.00  0.00    -0.252 OA
BRANCH  14  16
HETATM   16  C16 UNL     1      11.638  56.468  95.946  1.00  0.00     0.031 A 
HETATM   17  C17 UNL     1      12.222  57.712  96.131  1.00  0.00     0.021 A 
HETATM   18  C18 UNL     1      11.482  58.761  96.601  1.00  0.00     0.001 A 
HETATM   19  C19 UNL     1      10.156  58.564  96.888  1.00  0.00     0.000 A 
HETATM   20  C20 UNL     1       9.548  57.328  96.712  1.00  0.00     0.001 A 
HETATM   21  C21 UNL     1      10.306  56.279  96.236  1.00  0.00     0.021 A 
ENDBRANCH  14  16
ENDBRANCH  13  14
ENDBRANCH   8  13
ENDBRANCH   2   5
BRANCH   3  22
HETATM   22  C2  UNL     1      11.858  53.547  86.572  1.00  0.00     0.035 A 
HETATM   23  C3  UNL     1      12.680  52.885  85.711  1.00  0.00     0.031 A 
HETATM   24  C4  UNL     1      12.216  52.441  84.460  1.00  0.00     0.027 A 
HETATM   25  C5  UNL     1      10.927  52.650  84.045  1.00  0.00     0.080 A 
HETATM   26  C9  UNL     1      10.097  53.319  84.917  1.00  0.00     0.027 A 
HETATM   27  C10 UNL     1      10.532  53.758  86.139  1.00  0.00     0.031 A 
BRANCH  25  28
HETATM   28  S1  UNL     1      10.367  52.085  82.483  1.00  0.00     0.264 S 
HETATM   29  O2  UNL     1      10.191  50.574  82.600  1.00  0.00    -0.200 OA
HETATM   30  O3  UNL     1       8.996  52.616  82.163  1.00  0.00    -0.200 OA
BRANCH  28  31
HETATM   31  N2  UNL     1      11.517  52.341  81.261  1.00  0.00    -0.260 N 
ATOM     32  H2  UNL     1      11.439  53.198  80.714  1.00  0.00     0.181 HD
BRANCH  31  33
HETATM   33  C6  UNL     1      12.499  51.520  80.965  1.00  0.00     0.158 A 
HETATM   34  N3  UNL     1      12.409  50.300  80.437  1.00  0.00    -0.345 N 
HETATM   35  C7  UNL     1      13.517  49.636  80.216  1.00  0.00     0.097 A 
ATOM     36  H3  UNL     1      11.502  49.893  80.211  1.00  0.00     0.167 HD
HETATM   37  C8  UNL     1      14.699  50.236  80.541  1.00  0.00     0.070 A 
HETATM   38  S2  UNL     1      14.178  51.739  81.155  1.00  0.00    -0.064 SA
ENDBRANCH  31  33
ENDBRANCH  28  31
ENDBRANCH  25  28
ENDBRANCH   3  22
TORSDOF 8
ENDMDL
MODEL 5
REMARK VINA RESULT: -7.947220734      0.359      1.205
REMARK  8 active torsions:
REMARK  status: ('A' for Active; 'I' for Inactive)
REMARK       I    between atoms: C1_2  and  N1_3 
REMARK    1  A    between atoms: C1_2  and  C11_22 
REMARK    2  A    between atoms: N1_3  and  C2_5 
REMARK    3  A    between atoms: C5_8  and  S1_9 
REMARK    4  A    between atoms: S1_9  and  N2_12 
REMARK    5  A    between atoms: N2_12  and  C6_14 
REMARK    6  A    between atoms: C14_25  and  C15_26 
REMARK    7  A    between atoms: C15_26  and  S3_27 
REMARK    8  A    between atoms: S3_27  and  C16_29 
ROOT
HETATM    1  O1  UNL     1      11.436  52.324  88.681  1.00  0.00    -0.266 OA
HETATM    2  C1  UNL     1      12.137  53.389  88.600  1.00  0.00     0.272 C 
HETATM    3  N1  UNL     1      12.508  53.892  87.361  1.00  0.00    -0.322 N 
ATOM      4  H1  UNL     1      13.062  54.748  87.361  1.00  0.00     0.169 HD
ENDROOT
BRANCH   2   5
HETATM    5  C11 UNL     1      12.534  54.055  89.841  1.00  0.00     0.103 A 
HETATM    6  C12 UNL     1      12.200  53.457  91.058  1.00  0.00     0.036 A 
HETATM    7  C13 UNL     1      12.577  54.089  92.224  1.00  0.00     0.016 A 
HETATM    8  C14 UNL     1      13.260  55.269  92.246  1.00  0.00     0.022 A 
HETATM    9  C22 UNL     1      13.567  55.821  91.019  1.00  0.00     0.253 A 
HETATM   10  O5  UNL     1      14.198  56.911  90.992  1.00  0.00    -0.268 OA
HETATM   11  N4  UNL     1      13.199  55.203  89.847  1.00  0.00    -0.319 N 
ATOM     12  H4  UNL     1      13.443  55.639  88.958  1.00  0.00     0.169 HD
BRANCH   8  13
HETATM   13  C15 UNL     1      13.649  55.962  93.474  1.00  0.00     0.158 C 
BRANCH  13  14
HETATM   14  S3  UNL     1      12.766  55.301  94.852  1.00  0.00     0.054 S 
HETATM   15  O4  UNL     1      13.850  54.592  95.902  1.00  0.00    -0.252 OA
BRANCH  14  16
HETATM   16  C16 UNL     1      11.806  56.474  95.668  1.00  0.00     0.031 A 
HETATM   17  C17 UNL     1      10.492  56.181  95.999  1.00  0.00     0.021 A 
HETATM   18  C18 UNL     1       9.719  57.104  96.647  1.00  0.00     0.001 A 
HETATM   19  C19 UNL     1      10.263  58.322  96.965  1.00  0.00     0.000 A 
HETATM   20  C20 UNL     1      11.576  58.639  96.644  1.00  0.00     0.001 A 
HETATM   21  C21 UNL     1      12.345  57.699  95.991  1.00  0.00     0.021 A 
ENDBRANCH  14  16
ENDBRANCH  13  14
ENDBRANCH   8  13
ENDBRANCH   2   5
BRANCH   3  22
HETATM   22  C2  UNL     1      12.189  53.329  86.084  1.00  0.00     0.035 A 
HETATM   23  C3  UNL     1      10.987  53.422  85.450  1.00  0.00     0.031 A 
HETATM   24  C4  UNL     1      10.788  52.849  84.181  1.00  0.00     0.027 A 
HETATM   25  C5  UNL     1      11.782  52.175  83.523  1.00  0.00     0.080 A 
HETATM   26  C9  UNL     1      12.997  52.083  84.165  1.00  0.00     0.027 A 
HETATM   27  C10 UNL     1      13.208  52.634  85.400  1.00  0.00     0.031 A 
BRANCH  25  28
HETATM   28  S1  UNL     1      11.515  51.471  81.939  1.00  0.00     0.264 S 
HETATM   29  O2  UNL     1      12.516  52.130  80.993  1.00  0.00    -0.200 OA
HETATM   30  O3  UNL     1      11.863  50.008  81.920  1.00  0.00    -0.200 OA
BRANCH  28  31
HETATM   31  N2  UNL     1       9.972  51.830  81.332  1.00  0.00    -0.260 N 
ATOM     32  H2  UNL     1       9.191  51.798  81.986  1.00  0.00     0.181 HD
BRANCH  31  33
HETATM   33  C6  UNL     1       9.707  52.146  80.084  1.00  0.00     0.158 A 
HETATM   34  N3  UNL     1      10.256  53.117  79.356  1.00  0.00    -0.345 N 
HETATM   35  C7  UNL     1       9.851  53.271  78.120  1.00  0.00     0.097 A 
ATOM     36  H3  UNL     1      10.974  53.724  79.750  1.00  0.00     0.167 HD
HETATM   37  C8  UNL     1       8.886  52.426  77.651  1.00  0.00     0.070 A 
HETATM   38  S2  UNL     1       8.594  51.434  79.009  1.00  0.00    -0.064 SA
ENDBRANCH  31  33
ENDBRANCH  28  31
ENDBRANCH  25  28
ENDBRANCH   3  22
TORSDOF 8
ENDMDL
