MODEL 1
REMARK VINA RESULT: -6.216849451      0.000      0.000
REMARK  10 active torsions:
REMARK  status: ('A' for Active; 'I' for Inactive)
REMARK    1  A    between atoms: N1_1  and  C1_4 
REMARK    2  A    between atoms: N3_9  and  C3_10 
REMARK    3  A    between atoms: C3_10  and  C4_11 
REMARK    4  A    between atoms: C4_11  and  N4_12 
REMARK       I    between atoms: N4_12  and  C5_14 
REMARK       I    between atoms: C5_14  and  N6_16 
REMARK    5  A    between atoms: N6_16  and  C6_18 
REMARK    6  A    between atoms: C6_18  and  C7_19 
REMARK    7  A    between atoms: C7_19  and  C8_20 
REMARK    8  A    between atoms: C8_20  and  N7_21 
REMARK    9  A    between atoms: C9_25  and  N8_26 
REMARK   10  A    between atoms: N8_26  and  N9_28 
ROOT
HETATM    1  C1  UNL     1      19.757  15.716  10.319  1.00  0.00     0.694 A 
HETATM    2  N2  UNL     1      20.906  15.056  10.089  1.00  0.00    -0.140 N 
ATOM      3  H2  UNL     1      20.952  14.044  10.212  1.00  0.00     0.189 HD
HETATM    4  C2  UNL     1      21.987  15.739   9.698  1.00  0.00     0.355 A 
HETATM    5  O1  UNL     1      23.038  15.112   9.490  1.00  0.00    -0.245 OA
HETATM    6  N3  UNL     1      21.975  17.100   9.519  1.00  0.00    -0.129 N 
HETATM    7  C9  UNL     1      20.845  17.734   9.748  1.00  0.00     0.717 A 
HETATM    8  N10 UNL     1      19.722  17.020  10.155  1.00  0.00    -0.021 N 
ATOM      9  H10 UNL     1      18.851  17.520  10.330  1.00  0.00     0.203 HD
ENDROOT
BRANCH   6  10
HETATM   10  C3  UNL     1      23.182  17.728   9.100  1.00  0.00     0.172 C 
BRANCH  10  11
HETATM   11  C4  UNL     1      24.121  18.093  10.224  1.00  0.00     0.143 C 
BRANCH  11  12
HETATM   12  N4  UNL     1      25.492  18.121   9.752  1.00  0.00    -0.363 N 
HETATM   13  C5  UNL     1      26.416  19.119  10.142  1.00  0.00     0.184 C 
HETATM   14  N5  UNL     1      26.468  19.557  11.514  1.00  0.00    -0.064 NA
HETATM   15  N6  UNL     1      27.215  19.645   9.286  1.00  0.00    -0.365 N 
ATOM     16  H6  UNL     1      27.876  20.364   9.581  1.00  0.00     0.162 HD
ATOM     17  H4  UNL     1      25.804  17.391   9.111  1.00  0.00     0.162 HD
BRANCH  15  18
HETATM   18  C6  UNL     1      27.178  19.222   7.916  1.00  0.00     0.124 C 
BRANCH  18  19
HETATM   19  C7  UNL     1      27.840  20.207   6.979  1.00  0.00     0.047 C 
BRANCH  19  20
HETATM   20  C8  UNL     1      27.940  21.527   7.729  1.00  0.00     0.231 C 
BRANCH  20  21
HETATM   21  N7  UNL     1      27.174  22.505   6.981  1.00  0.00    -0.079 N 
ATOM     22  H73 UNL     1      27.624  23.420   6.944  1.00  0.00     0.274 HD
ATOM     23  H72 UNL     1      27.164  22.322   5.978  1.00  0.00     0.274 HD
ATOM     24  H71 UNL     1      26.241  22.535   7.390  1.00  0.00     0.274 HD
ENDBRANCH  20  21
ENDBRANCH  19  20
ENDBRANCH  18  19
ENDBRANCH  15  18
ENDBRANCH  11  12
ENDBRANCH  10  11
ENDBRANCH   6  10
BRANCH   7  25
HETATM   25  N8  UNL     1      20.656  18.961   9.630  1.00  0.00    -0.138 N 
ATOM     26  H8  UNL     1      20.633  19.267   8.657  1.00  0.00     0.205 HD
BRANCH  25  27
HETATM   27  N9  UNL     1      20.476  19.963  10.495  1.00  0.00    -0.331 N 
ATOM     28  H92 UNL     1      20.102  19.628  11.384  1.00  0.00     0.177 HD
ATOM     29  H91 UNL     1      20.630  20.970  10.458  1.00  0.00     0.177 HD
ENDBRANCH  25  27
ENDBRANCH   7  25
BRANCH   1  30
HETATM   30  N1  UNL     1      18.738  15.016  10.695  1.00  0.00    -0.234 N 
ATOM     31  H12 UNL     1      18.661  14.010  10.551  1.00  0.00     0.174 HD
ATOM     32  H11 UNL     1      17.977  15.512  11.160  1.00  0.00     0.174 HD
ENDBRANCH   1  30
TORSDOF 10
ENDMDL
MODEL 2
REMARK VINA RESULT: -6.200202284      1.374      2.246
REMARK  10 active torsions:
REMARK  status: ('A' for Active; 'I' for Inactive)
REMARK    1  A    between atoms: N1_1  and  C1_4 
REMARK    2  A    between atoms: N3_9  and  C3_10 
REMARK    3  A    between atoms: C3_10  and  C4_11 
REMARK    4  A    between atoms: C4_11  and  N4_12 
REMARK       I    between atoms: N4_12  and  C5_14 
REMARK       I    between atoms: C5_14  and  N6_16 
REMARK    5  A    between atoms: N6_16  and  C6_18 
REMARK    6  A    between atoms: C6_18  and  C7_19 
REMARK    7  A    between atoms: C7_19  and  C8_20 
REMARK    8  A    between atoms: C8_20  and  N7_21 
REMARK    9  A    between atoms: C9_25  and  N8_26 
REMARK   10  A    between atoms: N8_26  and  N9_28 
ROOT
HETATM    1  C1  UNL     1      19.783  15.454  10.380  1.00  0.00     0.694 A 
HETATM    2  N2  UNL     1      19.564  16.750  10.098  1.00  0.00    -0.140 N 
ATOM      3  H2  UNL     1      18.626  17.144  10.178  1.00  0.00     0.189 HD
HETATM    4  C2  UNL     1      20.588  17.519   9.712  1.00  0.00     0.355 A 
HETATM    5  O1  UNL     1      20.367  18.713   9.457  1.00  0.00    -0.245 OA
HETATM    6  N3  UNL     1      21.868  17.036   9.590  1.00  0.00    -0.129 N 
HETATM    7  C9  UNL     1      22.068  15.765   9.868  1.00  0.00     0.717 A 
HETATM    8  N10 UNL     1      21.000  14.969  10.269  1.00  0.00    -0.021 N 
ATOM      9  H10 UNL     1      21.164  13.986  10.482  1.00  0.00     0.203 HD
ENDROOT
BRANCH   6  10
HETATM   10  C3  UNL     1      22.885  17.940   9.172  1.00  0.00     0.172 C 
BRANCH  10  11
HETATM   11  C4  UNL     1      23.894  18.285  10.240  1.00  0.00     0.143 C 
BRANCH  11  12
HETATM   12  N4  UNL     1      25.241  18.220   9.707  1.00  0.00    -0.363 N 
HETATM   13  C5  UNL     1      26.267  19.108  10.107  1.00  0.00     0.184 C 
HETATM   14  N5  UNL     1      26.415  19.460  11.497  1.00  0.00    -0.064 NA
HETATM   15  N6  UNL     1      27.074  19.611   9.244  1.00  0.00    -0.365 N 
ATOM     16  H6  UNL     1      27.808  20.251   9.546  1.00  0.00     0.162 HD
ATOM     17  H4  UNL     1      25.459  17.503   9.014  1.00  0.00     0.162 HD
BRANCH  15  18
HETATM   18  C6  UNL     1      26.942  19.273   7.856  1.00  0.00     0.124 C 
BRANCH  18  19
HETATM   19  C7  UNL     1      27.576  20.294   6.940  1.00  0.00     0.047 C 
BRANCH  19  20
HETATM   20  C8  UNL     1      27.599  21.612   7.700  1.00  0.00     0.231 C 
BRANCH  20  21
HETATM   21  N7  UNL     1      27.031  22.621   6.829  1.00  0.00    -0.079 N 
ATOM     22  H73 UNL     1      27.676  22.931   6.103  1.00  0.00     0.274 HD
ATOM     23  H72 UNL     1      26.305  22.254   6.213  1.00  0.00     0.274 HD
ATOM     24  H71 UNL     1      26.702  23.383   7.423  1.00  0.00     0.274 HD
ENDBRANCH  20  21
ENDBRANCH  19  20
ENDBRANCH  18  19
ENDBRANCH  15  18
ENDBRANCH  11  12
ENDBRANCH  10  11
ENDBRANCH   6  10
BRANCH   7  25
HETATM   25  N8  UNL     1      23.161  15.167   9.816  1.00  0.00    -0.138 N 
ATOM     26  H8  UNL     1      23.308  14.685   8.929  1.00  0.00     0.205 HD
BRANCH  25  27
HETATM   27  N9  UNL     1      24.182  15.017  10.665  1.00  0.00    -0.331 N 
ATOM     28  H92 UNL     1      23.989  15.455  11.565  1.00  0.00     0.177 HD
ATOM     29  H91 UNL     1      25.095  14.566  10.606  1.00  0.00     0.177 HD
ENDBRANCH  25  27
ENDBRANCH   7  25
BRANCH   1  30
HETATM   30  N1  UNL     1      18.765  14.748  10.748  1.00  0.00    -0.234 N 
ATOM     31  H12 UNL     1      17.852  15.148  10.965  1.00  0.00     0.174 HD
ATOM     32  H11 UNL     1      18.897  13.740  10.822  1.00  0.00     0.174 HD
ENDBRANCH   1  30
TORSDOF 10
ENDMDL
MODEL 3
REMARK VINA RESULT: -5.774703350      3.706      6.593
REMARK  10 active torsions:
REMARK  status: ('A' for Active; 'I' for Inactive)
REMARK    1  A    between atoms: N1_1  and  C1_4 
REMARK    2  A    between atoms: N3_9  and  C3_10 
REMARK    3  A    between atoms: C3_10  and  C4_11 
REMARK    4  A    between atoms: C4_11  and  N4_12 
REMARK       I    between atoms: N4_12  and  C5_14 
REMARK       I    between atoms: C5_14  and  N6_16 
REMARK    5  A    between atoms: N6_16  and  C6_18 
REMARK    6  A    between atoms: C6_18  and  C7_19 
REMARK    7  A    between atoms: C7_19  and  C8_20 
REMARK    8  A    between atoms: C8_20  and  N7_21 
REMARK    9  A    between atoms: C9_25  and  N8_26 
REMARK   10  A    between atoms: N8_26  and  N9_28 
ROOT
HETATM    1  C1  UNL     1      22.256  16.422   7.997  1.00  0.00     0.694 A 
HETATM    2  N2  UNL     1      22.861  17.449   8.620  1.00  0.00    -0.140 N 
ATOM      3  H2  UNL     1      23.608  17.965   8.155  1.00  0.00     0.189 HD
HETATM    4  C2  UNL     1      22.475  17.786   9.855  1.00  0.00     0.355 A 
HETATM    5  O1  UNL     1      23.045  18.736  10.413  1.00  0.00    -0.245 OA
HETATM    6  N3  UNL     1      21.475  17.121  10.522  1.00  0.00    -0.129 N 
HETATM    7  C9  UNL     1      20.891  16.119   9.901  1.00  0.00     0.717 A 
HETATM    8  N10 UNL     1      21.296  15.771   8.616  1.00  0.00    -0.021 N 
ATOM      9  H10 UNL     1      20.838  14.993   8.144  1.00  0.00     0.203 HD
ENDROOT
BRANCH   6  10
HETATM   10  C3  UNL     1      21.141  17.563  11.834  1.00  0.00     0.172 C 
BRANCH  10  11
HETATM   11  C4  UNL     1      19.664  17.762  12.071  1.00  0.00     0.143 C 
BRANCH  11  12
HETATM   12  N4  UNL     1      19.366  19.167  12.273  1.00  0.00    -0.363 N 
HETATM   13  C5  UNL     1      19.933  20.192  11.480  1.00  0.00     0.184 C 
HETATM   14  N5  UNL     1      20.050  20.019  10.054  1.00  0.00    -0.064 NA
HETATM   15  N6  UNL     1      20.351  21.281  12.015  1.00  0.00    -0.365 N 
ATOM     16  H6  UNL     1      20.759  22.012  11.431  1.00  0.00     0.162 HD
ATOM     17  H4  UNL     1      18.720  19.427  13.018  1.00  0.00     0.162 HD
BRANCH  15  18
HETATM   18  C6  UNL     1      20.244  21.471  13.433  1.00  0.00     0.124 C 
BRANCH  18  19
HETATM   19  C7  UNL     1      19.038  22.292  13.827  1.00  0.00     0.047 C 
BRANCH  19  20
HETATM   20  C8  UNL     1      19.249  22.718  15.272  1.00  0.00     0.231 C 
BRANCH  20  21
HETATM   21  N7  UNL     1      17.938  22.859  15.875  1.00  0.00    -0.079 N 
ATOM     22  H73 UNL     1      17.243  22.233  15.468  1.00  0.00     0.274 HD
ATOM     23  H72 UNL     1      17.897  22.501  16.829  1.00  0.00     0.274 HD
ATOM     24  H71 UNL     1      17.677  23.842  15.806  1.00  0.00     0.274 HD
ENDBRANCH  20  21
ENDBRANCH  19  20
ENDBRANCH  18  19
ENDBRANCH  15  18
ENDBRANCH  11  12
ENDBRANCH  10  11
ENDBRANCH   6  10
BRANCH   7  25
HETATM   25  N8  UNL     1      19.967  15.415  10.354  1.00  0.00    -0.138 N 
ATOM     26  H8  UNL     1      19.230  15.964  10.798  1.00  0.00     0.205 HD
BRANCH  25  27
HETATM   27  N9  UNL     1      19.727  14.101  10.387  1.00  0.00    -0.331 N 
ATOM     28  H92 UNL     1      19.733  13.695   9.451  1.00  0.00     0.177 HD
ATOM     29  H91 UNL     1      19.544  13.430  11.133  1.00  0.00     0.177 HD
ENDBRANCH  25  27
ENDBRANCH   7  25
BRANCH   1  30
HETATM   30  N1  UNL     1      22.661  16.131   6.805  1.00  0.00    -0.234 N 
ATOM     31  H12 UNL     1      23.586  16.375   6.450  1.00  0.00     0.174 HD
ATOM     32  H11 UNL     1      22.010  15.632   6.199  1.00  0.00     0.174 HD
ENDBRANCH   1  30
TORSDOF 10
ENDMDL
MODEL 4
REMARK VINA RESULT: -5.654891402      1.971      2.847
REMARK  10 active torsions:
REMARK  status: ('A' for Active; 'I' for Inactive)
REMARK    1  A    between atoms: N1_1  and  C1_4 
REMARK    2  A    between atoms: N3_9  and  C3_10 
REMARK    3  A    between atoms: C3_10  and  C4_11 
REMARK    4  A    between atoms: C4_11  and  N4_12 
REMARK       I    between atoms: N4_12  and  C5_14 
REMARK       I    between atoms: C5_14  and  N6_16 
REMARK    5  A    between atoms: N6_16  and  C6_18 
REMARK    6  A    between atoms: C6_18  and  C7_19 
REMARK    7  A    between atoms: C7_19  and  C8_20 
REMARK    8  A    between atoms: C8_20  and  N7_21 
REMARK    9  A    between atoms: C9_25  and  N8_26 
REMARK   10  A    between atoms: N8_26  and  N9_28 
ROOT
HETATM    1  C1  UNL     1      19.615  14.885  10.399  1.00  0.00     0.694 A 
HETATM    2  N2  UNL     1      19.415  15.802  11.362  1.00  0.00    -0.140 N 
ATOM      3  H2  UNL     1      18.947  15.543  12.231  1.00  0.00     0.189 HD
HETATM    4  C2  UNL     1      19.834  17.057  11.168  1.00  0.00     0.355 A 
HETATM    5  O1  UNL     1      19.641  17.889  12.069  1.00  0.00    -0.245 OA
HETATM    6  N3  UNL     1      20.467  17.454  10.017  1.00  0.00    -0.129 N 
HETATM    7  C9  UNL     1      20.657  16.547   9.082  1.00  0.00     0.717 A 
HETATM    8  N10 UNL     1      20.218  15.242   9.287  1.00  0.00    -0.021 N 
ATOM      9  H10 UNL     1      20.369  14.547   8.557  1.00  0.00     0.203 HD
ENDROOT
BRANCH   6  10
HETATM   10  C3  UNL     1      20.874  18.815   9.914  1.00  0.00     0.172 C 
BRANCH  10  11
HETATM   11  C4  UNL     1      22.129  19.153  10.680  1.00  0.00     0.143 C 
BRANCH  11  12
HETATM   12  N4  UNL     1      23.305  18.893   9.872  1.00  0.00    -0.363 N 
HETATM   13  C5  UNL     1      24.159  17.788  10.096  1.00  0.00     0.184 C 
HETATM   14  N5  UNL     1      23.601  16.495  10.400  1.00  0.00    -0.064 NA
HETATM   15  N6  UNL     1      25.434  17.921  10.035  1.00  0.00    -0.365 N 
ATOM     16  H6  UNL     1      26.039  17.116  10.200  1.00  0.00     0.162 HD
ATOM     17  H4  UNL     1      23.525  19.534   9.109  1.00  0.00     0.162 HD
BRANCH  15  18
HETATM   18  C6  UNL     1      26.009  19.201   9.734  1.00  0.00     0.124 C 
BRANCH  18  19
HETATM   19  C7  UNL     1      27.485  19.123   9.420  1.00  0.00     0.047 C 
BRANCH  19  20
HETATM   20  C8  UNL     1      27.700  19.895   8.126  1.00  0.00     0.231 C 
BRANCH  20  21
HETATM   21  N7  UNL     1      27.572  18.949   7.035  1.00  0.00    -0.079 N 
ATOM     22  H73 UNL     1      28.390  18.348   6.930  1.00  0.00     0.274 HD
ATOM     23  H72 UNL     1      26.891  18.212   7.223  1.00  0.00     0.274 HD
ATOM     24  H71 UNL     1      27.359  19.484   6.194  1.00  0.00     0.274 HD
ENDBRANCH  20  21
ENDBRANCH  19  20
ENDBRANCH  18  19
ENDBRANCH  15  18
ENDBRANCH  11  12
ENDBRANCH  10  11
ENDBRANCH   6  10
BRANCH   7  25
HETATM   25  N8  UNL     1      21.216  16.732   7.984  1.00  0.00    -0.138 N 
ATOM     26  H8  UNL     1      20.669  17.318   7.353  1.00  0.00     0.205 HD
BRANCH  25  27
HETATM   27  N9  UNL     1      22.374  16.334   7.449  1.00  0.00    -0.331 N 
ATOM     28  H92 UNL     1      22.490  15.323   7.516  1.00  0.00     0.177 HD
ATOM     29  H91 UNL     1      23.151  16.815   6.997  1.00  0.00     0.177 HD
ENDBRANCH  25  27
ENDBRANCH   7  25
BRANCH   1  30
HETATM   30  N1  UNL     1      19.193  13.685  10.628  1.00  0.00    -0.234 N 
ATOM     31  H12 UNL     1      18.208  13.422  10.608  1.00  0.00     0.174 HD
ATOM     32  H11 UNL     1      19.895  12.975  10.839  1.00  0.00     0.174 HD
ENDBRANCH   1  30
TORSDOF 10
ENDMDL
MODEL 5
REMARK VINA RESULT: -5.585567832      1.456      2.119
REMARK  10 active torsions:
REMARK  status: ('A' for Active; 'I' for Inactive)
REMARK    1  A    between atoms: N1_1  and  C1_4 
REMARK    2  A    between atoms: N3_9  and  C3_10 
REMARK    3  A    between atoms: C3_10  and  C4_11 
REMARK    4  A    between atoms: C4_11  and  N4_12 
REMARK       I    between atoms: N4_12  and  C5_14 
REMARK       I    between atoms: C5_14  and  N6_16 
REMARK    5  A    between atoms: N6_16  and  C6_18 
REMARK    6  A    between atoms: C6_18  and  C7_19 
REMARK    7  A    between atoms: C7_19  and  C8_20 
REMARK    8  A    between atoms: C8_20  and  N7_21 
REMARK    9  A    between atoms: C9_25  and  N8_26 
REMARK   10  A    between atoms: N8_26  and  N9_28 
ROOT
HETATM    1  C1  UNL     1      19.655  16.044   9.782  1.00  0.00     0.694 A 
HETATM    2  N2  UNL     1      19.812  17.083  10.622  1.00  0.00    -0.140 N 
ATOM      3  H2  UNL     1      19.110  17.279  11.335  1.00  0.00     0.189 HD
HETATM    4  C2  UNL     1      20.898  17.855  10.512  1.00  0.00     0.355 A 
HETATM    5  O1  UNL     1      21.026  18.808  11.296  1.00  0.00    -0.245 OA
HETATM    6  N3  UNL     1      21.870  17.632   9.568  1.00  0.00    -0.129 N 
HETATM    7  C9  UNL     1      21.704  16.613   8.752  1.00  0.00     0.717 A 
HETATM    8  N10 UNL     1      20.572  15.811   8.870  1.00  0.00    -0.021 N 
ATOM      9  H10 UNL     1      20.452  15.024   8.233  1.00  0.00     0.203 HD
ENDROOT
BRANCH   6  10
HETATM   10  C3  UNL     1      22.986  18.516   9.538  1.00  0.00     0.172 C 
BRANCH  10  11
HETATM   11  C4  UNL     1      24.110  18.137  10.472  1.00  0.00     0.143 C 
BRANCH  11  12
HETATM   12  N4  UNL     1      25.375  18.115   9.763  1.00  0.00    -0.363 N 
HETATM   13  C5  UNL     1      26.431  19.010  10.052  1.00  0.00     0.184 C 
HETATM   14  N5  UNL     1      26.758  19.323  11.420  1.00  0.00    -0.064 NA
HETATM   15  N6  UNL     1      27.108  19.554   9.107  1.00  0.00    -0.365 N 
ATOM     16  H6  UNL     1      27.866  20.199   9.329  1.00  0.00     0.162 HD
ATOM     17  H4  UNL     1      25.509  17.423   9.024  1.00  0.00     0.162 HD
BRANCH  15  18
HETATM   18  C6  UNL     1      26.797  19.255   7.738  1.00  0.00     0.124 C 
BRANCH  18  19
HETATM   19  C7  UNL     1      27.515  20.160   6.762  1.00  0.00     0.047 C 
BRANCH  19  20
HETATM   20  C8  UNL     1      27.940  21.396   7.540  1.00  0.00     0.231 C 
BRANCH  20  21
HETATM   21  N7  UNL     1      27.243  22.528   6.963  1.00  0.00    -0.079 N 
ATOM     22  H73 UNL     1      27.866  23.179   6.484  1.00  0.00     0.274 HD
ATOM     23  H72 UNL     1      26.670  22.276   6.157  1.00  0.00     0.274 HD
ATOM     24  H71 UNL     1      26.707  22.967   7.711  1.00  0.00     0.274 HD
ENDBRANCH  20  21
ENDBRANCH  19  20
ENDBRANCH  18  19
ENDBRANCH  15  18
ENDBRANCH  11  12
ENDBRANCH  10  11
ENDBRANCH   6  10
BRANCH   7  25
HETATM   25  N8  UNL     1      22.486  16.264   7.846  1.00  0.00    -0.138 N 
ATOM     26  H8  UNL     1      23.370  15.900   8.203  1.00  0.00     0.205 HD
BRANCH  25  27
HETATM   27  N9  UNL     1      22.424  16.262   6.512  1.00  0.00    -0.331 N 
ATOM     28  H92 UNL     1      22.616  17.187   6.126  1.00  0.00     0.177 HD
ATOM     29  H91 UNL     1      22.229  15.548   5.810  1.00  0.00     0.177 HD
ENDBRANCH  25  27
ENDBRANCH   7  25
BRANCH   1  30
HETATM   30  N1  UNL     1      18.591  15.325   9.924  1.00  0.00    -0.234 N 
ATOM     31  H12 UNL     1      17.659  15.717  10.055  1.00  0.00     0.174 HD
ATOM     32  H11 UNL     1      18.706  14.311   9.901  1.00  0.00     0.174 HD
ENDBRANCH   1  30
TORSDOF 10
ENDMDL
