MODEL 1
REMARK VINA RESULT: -6.588690158      0.000      0.000
REMARK  12 active torsions:
REMARK  status: ('A' for Active; 'I' for Inactive)
REMARK    1  A    between atoms: N1_1  and  C1_5 
REMARK    2  A    between atoms: C1_5  and  C2_6 
REMARK    3  A    between atoms: N2_7  and  C3_9 
REMARK    4  A    between atoms: C3_9  and  C4_10 
REMARK    5  A    between atoms: C5_14  and  O1_15 
REMARK    6  A    between atoms: C6_17  and  C7_18 
REMARK    7  A    between atoms: C7_18  and  N4_19 
REMARK    8  A    between atoms: N4_19  and  C8_21 
REMARK    9  A    between atoms: C8_21  and  C9_22 
REMARK   10  A    between atoms: C9_22  and  N5_23 
REMARK   11  A    between atoms: N6_27  and  N7_29 
REMARK   12  A    between atoms: N7_29  and  N8_31 
ROOT
HETATM    1  C4  UNL     1      20.407  20.502  12.407  1.00  0.00     0.342 C 
HETATM    2  N3  UNL     1      20.285  20.759  10.982  1.00  0.00    -0.019 N 
ATOM      3  H31 UNL     1      20.820  21.553  10.631  1.00  0.00     0.283 HD
ATOM      4  H32 UNL     1      19.382  21.122  10.676  1.00  0.00     0.283 HD
HETATM    5  C5  UNL     1      20.661  19.452  10.437  1.00  0.00     0.352 C 
HETATM    6  C6  UNL     1      20.011  18.524  11.441  1.00  0.00     0.198 C 
HETATM    7  O2  UNL     1      19.911  19.233  12.617  1.00  0.00    -0.346 OA
ENDROOT
BRANCH   6   8
HETATM    8  C7  UNL     1      20.800  17.241  11.607  1.00  0.00     0.157 C 
BRANCH   8   9
HETATM    9  N4  UNL     1      20.109  16.131  10.990  1.00  0.00    -0.375 N 
ATOM     10  H4  UNL     1      19.570  15.514  11.598  1.00  0.00     0.160 HD
BRANCH   9  11
HETATM   11  C8  UNL     1      20.123  15.835   9.608  1.00  0.00     0.118 C 
HETATM   12  N6  UNL     1      19.168  15.165   9.093  1.00  0.00    -0.274 N 
ATOM     13  H6  UNL     1      19.175  14.949   8.097  1.00  0.00     0.190 HD
BRANCH  11  14
HETATM   14  C9  UNL     1      21.230  16.289   8.742  1.00  0.00     0.306 C 
BRANCH  14  15
HETATM   15  N5  UNL     1      22.439  15.555   8.961  1.00  0.00    -0.073 N 
ATOM     16  H53 UNL     1      22.378  14.620   8.558  1.00  0.00     0.274 HD
ATOM     17  H52 UNL     1      23.202  15.929   8.395  1.00  0.00     0.274 HD
ATOM     18  H51 UNL     1      22.702  15.513   9.945  1.00  0.00     0.274 HD
ENDBRANCH  14  15
ENDBRANCH  11  14
BRANCH  12  19
HETATM   19  N7  UNL     1      18.117  14.731   9.890  1.00  0.00    -0.248 N 
ATOM     20  H7  UNL     1      18.216  14.658  10.902  1.00  0.00     0.207 HD
BRANCH  19  21
HETATM   21  N8  UNL     1      16.906  14.392   9.249  1.00  0.00    -0.331 N 
ATOM     22  H82 UNL     1      16.644  14.844   8.374  1.00  0.00     0.178 HD
ATOM     23  H81 UNL     1      16.317  13.688   9.693  1.00  0.00     0.178 HD
ENDBRANCH  19  21
ENDBRANCH  12  19
ENDBRANCH   9  11
ENDBRANCH   8   9
ENDBRANCH   6   8
BRANCH   5  24
HETATM   24  O1  UNL     1      22.050  19.348  10.446  1.00  0.00    -0.368 OA
ATOM     25  H1  UNL     1      22.349  19.212   9.555  1.00  0.00     0.212 HD
ENDBRANCH   5  24
BRANCH   1  26
HETATM   26  C3  UNL     1      19.610  21.568  13.128  1.00  0.00     0.180 C 
BRANCH  26  27
HETATM   27  N2  UNL     1      20.378  22.199  14.141  1.00  0.00    -0.396 N 
HETATM   28  C2  UNL     1      19.757  22.769  15.117  1.00  0.00     0.082 C 
ATOM     29  H2  UNL     1      21.397  22.202  14.098  1.00  0.00     0.158 HD
BRANCH  28  30
HETATM   30  C1  UNL     1      18.287  22.790  15.220  1.00  0.00     0.273 C 
BRANCH  30  31
HETATM   31  N1  UNL     1      17.844  22.874  16.611  1.00  0.00    -0.075 N 
ATOM     32  H13 UNL     1      18.569  22.551  17.253  1.00  0.00     0.274 HD
ATOM     33  H12 UNL     1      17.777  23.844  16.923  1.00  0.00     0.274 HD
ATOM     34  H11 UNL     1      16.967  22.376  16.759  1.00  0.00     0.274 HD
ENDBRANCH  30  31
ENDBRANCH  28  30
ENDBRANCH  26  27
ENDBRANCH   1  26
TORSDOF 12
ENDMDL
MODEL 2
REMARK VINA RESULT: -6.318829651      1.034      2.467
REMARK  12 active torsions:
REMARK  status: ('A' for Active; 'I' for Inactive)
REMARK    1  A    between atoms: N1_1  and  C1_5 
REMARK    2  A    between atoms: C1_5  and  C2_6 
REMARK    3  A    between atoms: N2_7  and  C3_9 
REMARK    4  A    between atoms: C3_9  and  C4_10 
REMARK    5  A    between atoms: C5_14  and  O1_15 
REMARK    6  A    between atoms: C6_17  and  C7_18 
REMARK    7  A    between atoms: C7_18  and  N4_19 
REMARK    8  A    between atoms: N4_19  and  C8_21 
REMARK    9  A    between atoms: C8_21  and  C9_22 
REMARK   10  A    between atoms: C9_22  and  N5_23 
REMARK   11  A    between atoms: N6_27  and  N7_29 
REMARK   12  A    between atoms: N7_29  and  N8_31 
ROOT
HETATM    1  C4  UNL     1      20.303  20.496  12.599  1.00  0.00     0.342 C 
HETATM    2  N3  UNL     1      20.335  20.952  11.220  1.00  0.00    -0.019 N 
ATOM      3  H31 UNL     1      21.016  21.682  11.013  1.00  0.00     0.283 HD
ATOM      4  H32 UNL     1      19.528  21.498  10.918  1.00  0.00     0.283 HD
HETATM    5  C5  UNL     1      20.536  19.681  10.518  1.00  0.00     0.352 C 
HETATM    6  C6  UNL     1      19.671  18.755  11.345  1.00  0.00     0.198 C 
HETATM    7  O2  UNL     1      19.595  19.313  12.601  1.00  0.00    -0.346 OA
ENDROOT
BRANCH   6   8
HETATM    8  C7  UNL     1      20.228  17.347  11.373  1.00  0.00     0.157 C 
BRANCH   8   9
HETATM    9  N4  UNL     1      20.117  16.725  10.072  1.00  0.00    -0.375 N 
ATOM     10  H4  UNL     1      19.513  17.175   9.384  1.00  0.00     0.160 HD
BRANCH   9  11
HETATM   11  C8  UNL     1      20.782  15.541   9.681  1.00  0.00     0.118 C 
HETATM   12  N6  UNL     1      22.004  15.590   9.320  1.00  0.00    -0.274 N 
ATOM     13  H6  UNL     1      22.486  14.737   9.036  1.00  0.00     0.190 HD
BRANCH  11  14
HETATM   14  C9  UNL     1      20.085  14.238   9.681  1.00  0.00     0.306 C 
BRANCH  14  15
HETATM   15  N5  UNL     1      19.186  14.092  10.785  1.00  0.00    -0.073 N 
ATOM     16  H53 UNL     1      19.548  13.424  11.466  1.00  0.00     0.274 HD
ATOM     17  H52 UNL     1      19.180  14.932  11.366  1.00  0.00     0.274 HD
ATOM     18  H51 UNL     1      18.241  13.843  10.494  1.00  0.00     0.274 HD
ENDBRANCH  14  15
ENDBRANCH  11  14
BRANCH  12  19
HETATM   19  N7  UNL     1      22.677  16.804   9.313  1.00  0.00    -0.248 N 
ATOM     20  H7  UNL     1      22.344  17.590   8.756  1.00  0.00     0.207 HD
BRANCH  19  21
HETATM   21  N8  UNL     1      23.840  16.911  10.105  1.00  0.00    -0.331 N 
ATOM     22  H82 UNL     1      24.509  17.663   9.938  1.00  0.00     0.178 HD
ATOM     23  H81 UNL     1      23.978  16.216  10.839  1.00  0.00     0.178 HD
ENDBRANCH  19  21
ENDBRANCH  12  19
ENDBRANCH   9  11
ENDBRANCH   8   9
ENDBRANCH   6   8
BRANCH   5  24
HETATM   24  O1  UNL     1      21.886  19.343  10.588  1.00  0.00    -0.368 OA
ATOM     25  H1  UNL     1      22.360  19.849   9.940  1.00  0.00     0.212 HD
ENDBRANCH   5  24
BRANCH   1  26
HETATM   26  C3  UNL     1      19.634  21.580  13.417  1.00  0.00     0.180 C 
BRANCH  26  27
HETATM   27  N2  UNL     1      20.576  22.306  14.191  1.00  0.00    -0.396 N 
HETATM   28  C2  UNL     1      20.159  22.919  15.246  1.00  0.00     0.082 C 
ATOM     29  H2  UNL     1      21.558  22.341  13.920  1.00  0.00     0.158 HD
BRANCH  28  30
HETATM   30  C1  UNL     1      18.750  22.897  15.677  1.00  0.00     0.273 C 
BRANCH  30  31
HETATM   31  N1  UNL     1      18.626  23.031  17.127  1.00  0.00    -0.075 N 
ATOM     32  H13 UNL     1      19.136  23.845  17.471  1.00  0.00     0.274 HD
ATOM     33  H12 UNL     1      17.682  23.311  17.396  1.00  0.00     0.274 HD
ATOM     34  H11 UNL     1      18.912  22.180  17.611  1.00  0.00     0.274 HD
ENDBRANCH  30  31
ENDBRANCH  28  30
ENDBRANCH  26  27
ENDBRANCH   1  26
TORSDOF 12
ENDMDL
MODEL 3
REMARK VINA RESULT: -6.302289685      1.055      2.715
REMARK  12 active torsions:
REMARK  status: ('A' for Active; 'I' for Inactive)
REMARK    1  A    between atoms: N1_1  and  C1_5 
REMARK    2  A    between atoms: C1_5  and  C2_6 
REMARK    3  A    between atoms: N2_7  and  C3_9 
REMARK    4  A    between atoms: C3_9  and  C4_10 
REMARK    5  A    between atoms: C5_14  and  O1_15 
REMARK    6  A    between atoms: C6_17  and  C7_18 
REMARK    7  A    between atoms: C7_18  and  N4_19 
REMARK    8  A    between atoms: N4_19  and  C8_21 
REMARK    9  A    between atoms: C8_21  and  C9_22 
REMARK   10  A    between atoms: C9_22  and  N5_23 
REMARK   11  A    between atoms: N6_27  and  N7_29 
REMARK   12  A    between atoms: N7_29  and  N8_31 
ROOT
HETATM    1  C4  UNL     1      20.590  20.556  12.327  1.00  0.00     0.342 C 
HETATM    2  N3  UNL     1      20.205  20.581  10.926  1.00  0.00    -0.019 N 
ATOM      3  H31 UNL     1      20.505  21.402  10.402  1.00  0.00     0.283 HD
ATOM      4  H32 UNL     1      19.210  20.721  10.745  1.00  0.00     0.283 HD
HETATM    5  C5  UNL     1      20.756  19.302  10.470  1.00  0.00     0.352 C 
HETATM    6  C6  UNL     1      20.473  18.422  11.668  1.00  0.00     0.198 C 
HETATM    7  O2  UNL     1      20.406  19.260  12.758  1.00  0.00    -0.346 OA
ENDROOT
BRANCH   6   8
HETATM    8  C7  UNL     1      21.526  17.346  11.832  1.00  0.00     0.157 C 
BRANCH   8   9
HETATM    9  N4  UNL     1      21.314  16.273  10.886  1.00  0.00    -0.375 N 
ATOM     10  H4  UNL     1      20.916  15.403  11.240  1.00  0.00     0.160 HD
BRANCH   9  11
HETATM   11  C8  UNL     1      21.618  16.338   9.507  1.00  0.00     0.118 C 
HETATM   12  N6  UNL     1      22.818  16.554   9.132  1.00  0.00    -0.274 N 
ATOM     13  H6  UNL     1      23.041  16.603   8.138  1.00  0.00     0.190 HD
BRANCH  11  14
HETATM   14  C9  UNL     1      20.567  16.160   8.484  1.00  0.00     0.306 C 
BRANCH  14  15
HETATM   15  N5  UNL     1      19.364  15.600   9.020  1.00  0.00    -0.073 N 
ATOM     16  H53 UNL     1      19.572  14.889   9.720  1.00  0.00     0.274 HD
ATOM     17  H52 UNL     1      18.877  16.275   9.610  1.00  0.00     0.274 HD
ATOM     18  H51 UNL     1      18.745  15.233   8.297  1.00  0.00     0.274 HD
ENDBRANCH  14  15
ENDBRANCH  11  14
BRANCH  12  19
HETATM   19  N7  UNL     1      23.821  16.723  10.077  1.00  0.00    -0.248 N 
ATOM     20  H7  UNL     1      23.915  16.086  10.867  1.00  0.00     0.207 HD
BRANCH  19  21
HETATM   21  N8  UNL     1      24.705  17.810   9.906  1.00  0.00    -0.331 N 
ATOM     22  H82 UNL     1      24.343  18.737   9.688  1.00  0.00     0.178 HD
ATOM     23  H81 UNL     1      25.703  17.628  10.010  1.00  0.00     0.178 HD
ENDBRANCH  19  21
ENDBRANCH  12  19
ENDBRANCH   9  11
ENDBRANCH   8   9
ENDBRANCH   6   8
BRANCH   5  24
HETATM   24  O1  UNL     1      22.122  19.461  10.245  1.00  0.00    -0.368 OA
ATOM     25  H1  UNL     1      22.543  18.613  10.323  1.00  0.00     0.212 HD
ENDBRANCH   5  24
BRANCH   1  26
HETATM   26  C3  UNL     1      19.708  21.547  13.056  1.00  0.00     0.180 C 
BRANCH  26  27
HETATM   27  N2  UNL     1      20.412  22.206  14.097  1.00  0.00    -0.396 N 
HETATM   28  C2  UNL     1      19.732  22.747  15.050  1.00  0.00     0.082 C 
ATOM     29  H2  UNL     1      21.431  22.250  14.092  1.00  0.00     0.158 HD
BRANCH  28  30
HETATM   30  C1  UNL     1      18.259  22.709  15.098  1.00  0.00     0.273 C 
BRANCH  30  31
HETATM   31  N1  UNL     1      17.762  22.797  16.471  1.00  0.00    -0.075 N 
ATOM     32  H13 UNL     1      18.303  22.206  17.102  1.00  0.00     0.274 HD
ATOM     33  H12 UNL     1      17.971  23.705  16.885  1.00  0.00     0.274 HD
ATOM     34  H11 UNL     1      16.765  22.584  16.525  1.00  0.00     0.274 HD
ENDBRANCH  30  31
ENDBRANCH  28  30
ENDBRANCH  26  27
ENDBRANCH   1  26
TORSDOF 12
ENDMDL
MODEL 4
REMARK VINA RESULT: -6.158685251      3.992      7.188
REMARK  12 active torsions:
REMARK  status: ('A' for Active; 'I' for Inactive)
REMARK    1  A    between atoms: N1_1  and  C1_5 
REMARK    2  A    between atoms: C1_5  and  C2_6 
REMARK    3  A    between atoms: N2_7  and  C3_9 
REMARK    4  A    between atoms: C3_9  and  C4_10 
REMARK    5  A    between atoms: C5_14  and  O1_15 
REMARK    6  A    between atoms: C6_17  and  C7_18 
REMARK    7  A    between atoms: C7_18  and  N4_19 
REMARK    8  A    between atoms: N4_19  and  C8_21 
REMARK    9  A    between atoms: C8_21  and  C9_22 
REMARK   10  A    between atoms: C9_22  and  N5_23 
REMARK   11  A    between atoms: N6_27  and  N7_29 
REMARK   12  A    between atoms: N7_29  and  N8_31 
ROOT
HETATM    1  C4  UNL     1      20.756  17.248  10.614  1.00  0.00     0.342 C 
HETATM    2  N3  UNL     1      20.506  18.304   9.649  1.00  0.00    -0.019 N 
ATOM      3  H31 UNL     1      19.764  18.959   9.895  1.00  0.00     0.283 HD
ATOM      4  H32 UNL     1      20.074  18.008   8.773  1.00  0.00     0.283 HD
HETATM    5  C5  UNL     1      21.847  18.884   9.528  1.00  0.00     0.352 C 
HETATM    6  C6  UNL     1      22.706  17.639   9.591  1.00  0.00     0.198 C 
HETATM    7  O2  UNL     1      21.976  16.699  10.284  1.00  0.00    -0.346 OA
ENDROOT
BRANCH   6   8
HETATM    8  C7  UNL     1      24.047  17.918  10.236  1.00  0.00     0.157 C 
BRANCH   8   9
HETATM    9  N4  UNL     1      25.047  18.212   9.233  1.00  0.00    -0.375 N 
ATOM     10  H4  UNL     1      24.894  17.847   8.293  1.00  0.00     0.160 HD
BRANCH   9  11
HETATM   11  C8  UNL     1      26.221  18.966   9.457  1.00  0.00     0.118 C 
HETATM   12  N6  UNL     1      26.923  19.356   8.466  1.00  0.00    -0.274 N 
ATOM     13  H6  UNL     1      27.772  19.898   8.624  1.00  0.00     0.190 HD
BRANCH  11  14
HETATM   14  C9  UNL     1      26.655  19.315  10.826  1.00  0.00     0.306 C 
BRANCH  14  15
HETATM   15  N5  UNL     1      27.791  18.558  11.255  1.00  0.00    -0.073 N 
ATOM     16  H53 UNL     1      27.502  17.703  11.731  1.00  0.00     0.274 HD
ATOM     17  H52 UNL     1      28.279  18.146  10.459  1.00  0.00     0.274 HD
ATOM     18  H51 UNL     1      28.430  19.101  11.835  1.00  0.00     0.274 HD
ENDBRANCH  14  15
ENDBRANCH  11  14
BRANCH  12  19
HETATM   19  N7  UNL     1      26.533  19.039   7.172  1.00  0.00    -0.248 N 
ATOM     20  H7  UNL     1      26.210  18.102   6.932  1.00  0.00     0.207 HD
BRANCH  19  21
HETATM   21  N8  UNL     1      26.599  20.060   6.201  1.00  0.00    -0.331 N 
ATOM     22  H82 UNL     1      25.772  20.307   5.658  1.00  0.00     0.178 HD
ATOM     23  H81 UNL     1      27.494  20.531   6.069  1.00  0.00     0.178 HD
ENDBRANCH  19  21
ENDBRANCH  12  19
ENDBRANCH   9  11
ENDBRANCH   8   9
ENDBRANCH   6   8
BRANCH   5  24
HETATM   24  O1  UNL     1      22.066  19.730  10.612  1.00  0.00    -0.368 OA
ATOM     25  H1  UNL     1      21.850  19.263  11.410  1.00  0.00     0.212 HD
ENDBRANCH   5  24
BRANCH   1  26
HETATM   26  C3  UNL     1      19.619  16.255  10.501  1.00  0.00     0.180 C 
BRANCH  26  27
HETATM   27  N2  UNL     1      20.081  14.917  10.609  1.00  0.00    -0.396 N 
HETATM   28  C2  UNL     1      19.553  14.023   9.844  1.00  0.00     0.082 C 
ATOM     29  H2  UNL     1      20.812  14.670  11.275  1.00  0.00     0.158 HD
BRANCH  28  30
HETATM   30  C1  UNL     1      18.494  14.334   8.868  1.00  0.00     0.273 C 
BRANCH  30  31
HETATM   31  N1  UNL     1      17.166  14.294   9.480  1.00  0.00    -0.075 N 
ATOM     32  H13 UNL     1      17.222  14.359  10.496  1.00  0.00     0.274 HD
ATOM     33  H12 UNL     1      16.644  15.150   9.293  1.00  0.00     0.274 HD
ATOM     34  H11 UNL     1      16.642  13.468   9.188  1.00  0.00     0.274 HD
ENDBRANCH  30  31
ENDBRANCH  28  30
ENDBRANCH  26  27
ENDBRANCH   1  26
TORSDOF 12
ENDMDL
MODEL 5
REMARK VINA RESULT: -5.854022437      1.031      1.099
REMARK  12 active torsions:
REMARK  status: ('A' for Active; 'I' for Inactive)
REMARK    1  A    between atoms: N1_1  and  C1_5 
REMARK    2  A    between atoms: C1_5  and  C2_6 
REMARK    3  A    between atoms: N2_7  and  C3_9 
REMARK    4  A    between atoms: C3_9  and  C4_10 
REMARK    5  A    between atoms: C5_14  and  O1_15 
REMARK    6  A    between atoms: C6_17  and  C7_18 
REMARK    7  A    between atoms: C7_18  and  N4_19 
REMARK    8  A    between atoms: N4_19  and  C8_21 
REMARK    9  A    between atoms: C8_21  and  C9_22 
REMARK   10  A    between atoms: C9_22  and  N5_23 
REMARK   11  A    between atoms: N6_27  and  N7_29 
REMARK   12  A    between atoms: N7_29  and  N8_31 
ROOT
HETATM    1  C4  UNL     1      20.487  20.697  12.487  1.00  0.00     0.342 C 
HETATM    2  N3  UNL     1      19.146  20.467  11.979  1.00  0.00    -0.019 N 
ATOM      3  H31 UNL     1      18.742  21.234  11.442  1.00  0.00     0.283 HD
ATOM      4  H32 UNL     1      18.406  20.452  12.680  1.00  0.00     0.283 HD
HETATM    5  C5  UNL     1      19.345  19.215  11.243  1.00  0.00     0.352 C 
HETATM    6  C6  UNL     1      20.307  18.492  12.160  1.00  0.00     0.198 C 
HETATM    7  O2  UNL     1      20.976  19.465  12.867  1.00  0.00    -0.346 OA
ENDROOT
BRANCH   6   8
HETATM    8  C7  UNL     1      21.249  17.593  11.385  1.00  0.00     0.157 C 
BRANCH   8   9
HETATM    9  N4  UNL     1      20.545  16.443  10.861  1.00  0.00    -0.375 N 
ATOM     10  H4  UNL     1      20.217  15.746  11.529  1.00  0.00     0.160 HD
BRANCH   9  11
HETATM   11  C8  UNL     1      20.277  16.213   9.493  1.00  0.00     0.118 C 
HETATM   12  N6  UNL     1      19.260  15.522   9.153  1.00  0.00    -0.274 N 
ATOM     13  H6  UNL     1      19.065  15.353   8.167  1.00  0.00     0.190 HD
BRANCH  11  14
HETATM   14  C9  UNL     1      21.158  16.759   8.440  1.00  0.00     0.306 C 
BRANCH  14  15
HETATM   15  N5  UNL     1      22.442  16.128   8.411  1.00  0.00    -0.073 N 
ATOM     16  H53 UNL     1      22.819  16.023   9.353  1.00  0.00     0.274 HD
ATOM     17  H52 UNL     1      22.361  15.144   8.154  1.00  0.00     0.274 HD
ATOM     18  H51 UNL     1      23.105  16.611   7.804  1.00  0.00     0.274 HD
ENDBRANCH  14  15
ENDBRANCH  11  14
BRANCH  12  19
HETATM   19  N7  UNL     1      18.420  15.001  10.127  1.00  0.00    -0.248 N 
ATOM     20  H7  UNL     1      18.740  14.869  11.086  1.00  0.00     0.207 HD
BRANCH  19  21
HETATM   21  N8  UNL     1      17.106  14.659   9.742  1.00  0.00    -0.331 N 
ATOM     22  H82 UNL     1      16.446  14.299  10.431  1.00  0.00     0.178 HD
ATOM     23  H81 UNL     1      16.852  14.785   8.763  1.00  0.00     0.178 HD
ENDBRANCH  19  21
ENDBRANCH  12  19
ENDBRANCH   9  11
ENDBRANCH   8   9
ENDBRANCH   6   8
BRANCH   5  24
HETATM   24  O1  UNL     1      19.918  19.511  10.007  1.00  0.00    -0.368 OA
ATOM     25  H1  UNL     1      20.421  18.759   9.719  1.00  0.00     0.212 HD
ENDBRANCH   5  24
BRANCH   1  26
HETATM   26  C3  UNL     1      20.372  21.664  13.646  1.00  0.00     0.180 C 
BRANCH  26  27
HETATM   27  N2  UNL     1      19.029  22.074  13.852  1.00  0.00    -0.396 N 
HETATM   28  C2  UNL     1      18.748  22.739  14.920  1.00  0.00     0.082 C 
ATOM     29  H2  UNL     1      18.303  21.848  13.171  1.00  0.00     0.158 HD
BRANCH  28  30
HETATM   30  C1  UNL     1      19.763  23.088  15.931  1.00  0.00     0.273 C 
BRANCH  30  31
HETATM   31  N1  UNL     1      19.199  23.103  17.280  1.00  0.00    -0.075 N 
ATOM     32  H13 UNL     1      19.632  23.825  17.856  1.00  0.00     0.274 HD
ATOM     33  H12 UNL     1      18.241  23.454  17.279  1.00  0.00     0.274 HD
ATOM     34  H11 UNL     1      19.258  22.187  17.724  1.00  0.00     0.274 HD
ENDBRANCH  30  31
ENDBRANCH  28  30
ENDBRANCH  26  27
ENDBRANCH   1  26
TORSDOF 12
ENDMDL
