MODEL 1
REMARK VINA RESULT: -7.231982813      0.000      0.000
REMARK  7 active torsions:
REMARK  status: ('A' for Active; 'I' for Inactive)
REMARK    1  A    between atoms: C2_2  and  O1_3 
REMARK    2  A    between atoms: C2_2  and  C3_5 
REMARK    3  A    between atoms: C3_5  and  C5_7 
REMARK    4  A    between atoms: C5_7  and  N1_8 
REMARK    5  A    between atoms: C8_11  and  O2_12 
REMARK    6  A    between atoms: O2_12  and  C9_13 
REMARK    7  A    between atoms: C9_13  and  C10_15 
ROOT
HETATM    1  N1  UNL     1      -3.656   5.090  12.138  1.00  0.00     0.101 N 
HETATM    2  C6  UNL     1      -4.618   6.121  12.293  1.00  0.00     0.229 C 
HETATM    3  C7  UNL     1      -5.373   5.751  13.584  1.00  0.00     0.071 C 
HETATM    4  C8  UNL     1      -4.581   4.620  14.166  1.00  0.00     0.167 C 
HETATM    5  C13 UNL     1      -3.232   4.833  13.472  1.00  0.00     0.253 C 
HETATM    6  C14 UNL     1      -2.577   6.003  14.141  1.00  0.00     0.039 C 
HETATM    7  C15 UNL     1      -3.175   7.338  13.848  1.00  0.00     0.008 C 
HETATM    8  C16 UNL     1      -3.806   7.400  12.501  1.00  0.00     0.015 C 
HETATM    9  C17 UNL     1      -4.664   8.574  12.225  1.00  0.00     0.012 C 
ENDROOT
BRANCH   1  10
HETATM   10  C5  UNL     1      -3.954   4.002  11.336  1.00  0.00     0.280 C 
BRANCH  10  11
HETATM   11  C3  UNL     1      -3.197   2.727  11.545  1.00  0.00     0.038 C 
HETATM   12  C4  UNL     1      -2.008   2.488  10.677  1.00  0.00     0.014 C 
BRANCH  11  13
HETATM   13  C2  UNL     1      -4.206   1.605  11.182  1.00  0.00     0.119 C 
HETATM   14  C1  UNL     1      -3.431   0.333  11.059  1.00  0.00     0.040 C 
BRANCH  13  15
HETATM   15  O1  UNL     1      -4.700   1.986   9.913  1.00  0.00    -0.396 OA
ATOM     16  H1  UNL     1      -4.266   2.781   9.628  1.00  0.00     0.210 HD
ENDBRANCH  13  15
ENDBRANCH  11  13
ENDBRANCH  10  11
ENDBRANCH   1  10
BRANCH   4  17
HETATM   17  O2  UNL     1      -4.424   4.695  15.565  1.00  0.00    -0.313 OA
BRANCH  17  18
HETATM   18  C9  UNL     1      -4.580   3.574  16.369  1.00  0.00     0.263 C 
HETATM   19  O3  UNL     1      -3.771   2.629  16.238  1.00  0.00    -0.265 OA
BRANCH  18  20
HETATM   20  C10 UNL     1      -5.696   3.547  17.345  1.00  0.00     0.085 A 
HETATM   21  C11 UNL     1      -6.950   4.278  17.133  1.00  0.00     0.015 A 
HETATM   22  C12 UNL     1      -6.990   2.846  16.787  1.00  0.00     0.015 A 
ENDBRANCH  18  20
ENDBRANCH  17  18
ENDBRANCH   4  17
TORSDOF 7
ENDMDL
MODEL 2
REMARK VINA RESULT: -7.229579872      1.534      5.118
REMARK  7 active torsions:
REMARK  status: ('A' for Active; 'I' for Inactive)
REMARK    1  A    between atoms: C2_2  and  O1_3 
REMARK    2  A    between atoms: C2_2  and  C3_5 
REMARK    3  A    between atoms: C3_5  and  C5_7 
REMARK    4  A    between atoms: C5_7  and  N1_8 
REMARK    5  A    between atoms: C8_11  and  O2_12 
REMARK    6  A    between atoms: O2_12  and  C9_13 
REMARK    7  A    between atoms: C9_13  and  C10_15 
ROOT
HETATM    1  N1  UNL     1      -4.334   6.126  14.833  1.00  0.00     0.101 N 
HETATM    2  C6  UNL     1      -3.108   6.835  14.757  1.00  0.00     0.229 C 
HETATM    3  C7  UNL     1      -2.337   6.147  13.614  1.00  0.00     0.071 C 
HETATM    4  C8  UNL     1      -3.340   5.222  12.993  1.00  0.00     0.167 C 
HETATM    5  C13 UNL     1      -4.648   5.863  13.470  1.00  0.00     0.253 C 
HETATM    6  C14 UNL     1      -4.858   7.094  12.643  1.00  0.00     0.039 C 
HETATM    7  C15 UNL     1      -3.946   8.238  12.937  1.00  0.00     0.008 C 
HETATM    8  C16 UNL     1      -3.493   8.259  14.354  1.00  0.00     0.015 C 
HETATM    9  C17 UNL     1      -2.377   9.177  14.679  1.00  0.00     0.012 C 
ENDROOT
BRANCH   1  10
HETATM   10  C5  UNL     1      -4.456   5.084  15.736  1.00  0.00     0.280 C 
BRANCH  10  11
HETATM   11  C3  UNL     1      -5.676   4.218  15.672  1.00  0.00     0.038 C 
HETATM   12  C4  UNL     1      -6.798   4.547  16.598  1.00  0.00     0.014 C 
BRANCH  11  13
HETATM   13  C2  UNL     1      -5.184   2.810  16.102  1.00  0.00     0.119 C 
HETATM   14  C1  UNL     1      -5.884   2.466  17.378  1.00  0.00     0.040 C 
BRANCH  13  15
HETATM   15  O1  UNL     1      -3.804   2.991  16.350  1.00  0.00    -0.396 OA
ATOM     16  H1  UNL     1      -3.379   3.319  15.567  1.00  0.00     0.210 HD
ENDBRANCH  13  15
ENDBRANCH  11  13
ENDBRANCH  10  11
ENDBRANCH   1  10
BRANCH   4  17
HETATM   17  O2  UNL     1      -3.298   5.197  11.585  1.00  0.00    -0.313 OA
BRANCH  17  18
HETATM   18  C9  UNL     1      -3.783   4.112  10.868  1.00  0.00     0.263 C 
HETATM   19  O3  UNL     1      -4.498   4.331   9.866  1.00  0.00    -0.265 OA
BRANCH  18  20
HETATM   20  C10 UNL     1      -3.433   2.744  11.322  1.00  0.00     0.085 A 
HETATM   21  C11 UNL     1      -3.190   1.639  10.388  1.00  0.00     0.015 A 
HETATM   22  C12 UNL     1      -1.981   2.306  10.903  1.00  0.00     0.015 A 
ENDBRANCH  18  20
ENDBRANCH  17  18
ENDBRANCH   4  17
TORSDOF 7
ENDMDL
MODEL 3
REMARK VINA RESULT: -7.109974416      1.918      4.701
REMARK  7 active torsions:
REMARK  status: ('A' for Active; 'I' for Inactive)
REMARK    1  A    between atoms: C2_2  and  O1_3 
REMARK    2  A    between atoms: C2_2  and  C3_5 
REMARK    3  A    between atoms: C3_5  and  C5_7 
REMARK    4  A    between atoms: C5_7  and  N1_8 
REMARK    5  A    between atoms: C8_11  and  O2_12 
REMARK    6  A    between atoms: O2_12  and  C9_13 
REMARK    7  A    between atoms: C9_13  and  C10_15 
ROOT
HETATM    1  N1  UNL     1      -4.963   3.613  14.043  1.00  0.00     0.101 N 
HETATM    2  C6  UNL     1      -4.676   3.469  15.425  1.00  0.00     0.229 C 
HETATM    3  C7  UNL     1      -3.857   4.725  15.780  1.00  0.00     0.071 C 
HETATM    4  C8  UNL     1      -3.955   5.590  14.560  1.00  0.00     0.167 C 
HETATM    5  C13 UNL     1      -5.211   5.007  13.902  1.00  0.00     0.253 C 
HETATM    6  C14 UNL     1      -6.386   5.502  14.689  1.00  0.00     0.039 C 
HETATM    7  C15 UNL     1      -6.562   4.899  16.043  1.00  0.00     0.008 C 
HETATM    8  C16 UNL     1      -6.036   3.510  16.123  1.00  0.00     0.015 C 
HETATM    9  C17 UNL     1      -5.906   2.928  17.479  1.00  0.00     0.012 C 
ENDROOT
BRANCH   1  10
HETATM   10  C5  UNL     1      -4.134   3.008  13.115  1.00  0.00     0.280 C 
BRANCH  10  11
HETATM   11  C3  UNL     1      -4.755   2.226  11.999  1.00  0.00     0.038 C 
HETATM   12  C4  UNL     1      -4.189   0.876  11.713  1.00  0.00     0.014 C 
BRANCH  11  13
HETATM   13  C2  UNL     1      -4.480   3.069  10.726  1.00  0.00     0.119 C 
HETATM   14  C1  UNL     1      -3.217   3.832  10.962  1.00  0.00     0.040 C 
BRANCH  13  15
HETATM   15  O1  UNL     1      -5.573   3.964  10.666  1.00  0.00    -0.396 OA
ATOM     16  H1  UNL     1      -5.410   4.705  11.237  1.00  0.00     0.210 HD
ENDBRANCH  13  15
ENDBRANCH  11  13
ENDBRANCH  10  11
ENDBRANCH   1  10
BRANCH   4  17
HETATM   17  O2  UNL     1      -4.147   6.957  14.845  1.00  0.00    -0.313 OA
BRANCH  17  18
HETATM   18  C9  UNL     1      -3.601   7.945  14.038  1.00  0.00     0.263 C 
HETATM   19  O3  UNL     1      -4.213   8.271  12.997  1.00  0.00    -0.265 OA
BRANCH  18  20
HETATM   20  C10 UNL     1      -2.319   8.569  14.445  1.00  0.00     0.085 A 
HETATM   21  C11 UNL     1      -1.855   9.851  13.902  1.00  0.00     0.015 A 
HETATM   22  C12 UNL     1      -2.509   9.926  15.220  1.00  0.00     0.015 A 
ENDBRANCH  18  20
ENDBRANCH  17  18
ENDBRANCH   4  17
TORSDOF 7
ENDMDL
MODEL 4
REMARK VINA RESULT: -7.015078818      2.411      6.319
REMARK  7 active torsions:
REMARK  status: ('A' for Active; 'I' for Inactive)
REMARK    1  A    between atoms: C2_2  and  O1_3 
REMARK    2  A    between atoms: C2_2  and  C3_5 
REMARK    3  A    between atoms: C3_5  and  C5_7 
REMARK    4  A    between atoms: C5_7  and  N1_8 
REMARK    5  A    between atoms: C8_11  and  O2_12 
REMARK    6  A    between atoms: O2_12  and  C9_13 
REMARK    7  A    between atoms: C9_13  and  C10_15 
ROOT
HETATM    1  N1  UNL     1      -4.276   3.559  12.882  1.00  0.00     0.101 N 
HETATM    2  C6  UNL     1      -4.674   2.462  12.074  1.00  0.00     0.229 C 
HETATM    3  C7  UNL     1      -5.046   3.098  10.721  1.00  0.00     0.071 C 
HETATM    4  C8  UNL     1      -4.593   4.522  10.842  1.00  0.00     0.167 C 
HETATM    5  C13 UNL     1      -3.569   4.397  11.975  1.00  0.00     0.253 C 
HETATM    6  C14 UNL     1      -2.344   3.764  11.388  1.00  0.00     0.039 C 
HETATM    7  C15 UNL     1      -2.458   2.315  11.049  1.00  0.00     0.008 C 
HETATM    8  C16 UNL     1      -3.422   1.597  11.927  1.00  0.00     0.015 C 
HETATM    9  C17 UNL     1      -3.817   0.235  11.501  1.00  0.00     0.012 C 
ENDROOT
BRANCH   1  10
HETATM   10  C5  UNL     1      -5.205   4.153  13.719  1.00  0.00     0.280 C 
BRANCH  10  11
HETATM   11  C3  UNL     1      -4.924   4.192  15.189  1.00  0.00     0.038 C 
HETATM   12  C4  UNL     1      -3.573   4.659  15.615  1.00  0.00     0.014 C 
BRANCH  11  13
HETATM   13  C2  UNL     1      -5.014   2.712  15.648  1.00  0.00     0.119 C 
HETATM   14  C1  UNL     1      -6.001   2.654  16.769  1.00  0.00     0.040 C 
BRANCH  13  15
HETATM   15  O1  UNL     1      -3.719   2.428  16.138  1.00  0.00    -0.396 OA
ATOM     16  H1  UNL     1      -3.292   3.235  16.400  1.00  0.00     0.210 HD
ENDBRANCH  13  15
ENDBRANCH  11  13
ENDBRANCH  10  11
ENDBRANCH   1  10
BRANCH   4  17
HETATM   17  O2  UNL     1      -3.972   5.023   9.680  1.00  0.00    -0.313 OA
BRANCH  17  18
HETATM   18  C9  UNL     1      -3.819   6.387   9.476  1.00  0.00     0.263 C 
HETATM   19  O3  UNL     1      -4.804   7.133   9.672  1.00  0.00    -0.265 OA
BRANCH  18  20
HETATM   20  C10 UNL     1      -2.498   6.898   9.037  1.00  0.00     0.085 A 
HETATM   21  C11 UNL     1      -1.459   6.026   8.478  1.00  0.00     0.015 A 
HETATM   22  C12 UNL     1      -2.265   6.759   7.486  1.00  0.00     0.015 A 
ENDBRANCH  18  20
ENDBRANCH  17  18
ENDBRANCH   4  17
TORSDOF 7
ENDMDL
MODEL 5
REMARK VINA RESULT: -6.997888012      2.274      4.683
REMARK  7 active torsions:
REMARK  status: ('A' for Active; 'I' for Inactive)
REMARK    1  A    between atoms: C2_2  and  O1_3 
REMARK    2  A    between atoms: C2_2  and  C3_5 
REMARK    3  A    between atoms: C3_5  and  C5_7 
REMARK    4  A    between atoms: C5_7  and  N1_8 
REMARK    5  A    between atoms: C8_11  and  O2_12 
REMARK    6  A    between atoms: O2_12  and  C9_13 
REMARK    7  A    between atoms: C9_13  and  C10_15 
ROOT
HETATM    1  N1  UNL     1      -5.090   4.713  13.513  1.00  0.00     0.101 N 
HETATM    2  C6  UNL     1      -4.804   4.410  14.869  1.00  0.00     0.229 C 
HETATM    3  C7  UNL     1      -3.797   5.492  15.300  1.00  0.00     0.071 C 
HETATM    4  C8  UNL     1      -3.783   6.464  14.160  1.00  0.00     0.167 C 
HETATM    5  C13 UNL     1      -5.124   6.136  13.494  1.00  0.00     0.253 C 
HETATM    6  C14 UNL     1      -6.197   6.732  14.355  1.00  0.00     0.039 C 
HETATM    7  C15 UNL     1      -6.438   6.049  15.659  1.00  0.00     0.008 C 
HETATM    8  C16 UNL     1      -6.130   4.594  15.609  1.00  0.00     0.015 C 
HETATM    9  C17 UNL     1      -6.066   3.885  16.907  1.00  0.00     0.012 C 
ENDROOT
BRANCH   1  10
HETATM   10  C5  UNL     1      -4.379   4.073  12.513  1.00  0.00     0.280 C 
BRANCH  10  11
HETATM   11  C3  UNL     1      -4.801   2.696  12.101  1.00  0.00     0.038 C 
HETATM   12  C4  UNL     1      -4.204   1.548  12.842  1.00  0.00     0.014 C 
BRANCH  11  13
HETATM   13  C2  UNL     1      -4.301   2.550  10.639  1.00  0.00     0.119 C 
HETATM   14  C1  UNL     1      -2.808   2.488  10.685  1.00  0.00     0.040 C 
BRANCH  13  15
HETATM   15  O1  UNL     1      -4.709   3.753  10.017  1.00  0.00    -0.396 OA
ATOM     16  H1  UNL     1      -5.209   4.276  10.631  1.00  0.00     0.210 HD
ENDBRANCH  13  15
ENDBRANCH  11  13
ENDBRANCH  10  11
ENDBRANCH   1  10
BRANCH   4  17
HETATM   17  O2  UNL     1      -3.760   7.815  14.562  1.00  0.00    -0.313 OA
BRANCH  17  18
HETATM   18  C9  UNL     1      -2.592   8.562  14.509  1.00  0.00     0.263 C 
HETATM   19  O3  UNL     1      -1.645   8.139  13.810  1.00  0.00    -0.265 OA
BRANCH  18  20
HETATM   20  C10 UNL     1      -2.519   9.827  15.280  1.00  0.00     0.085 A 
HETATM   21  C11 UNL     1      -1.260  10.548  15.501  1.00  0.00     0.015 A 
HETATM   22  C12 UNL     1      -2.097  11.064  14.404  1.00  0.00     0.015 A 
ENDBRANCH  18  20
ENDBRANCH  17  18
ENDBRANCH   4  17
TORSDOF 7
ENDMDL
