MODEL 1
REMARK VINA RESULT: -6.988037845      0.000      0.000
REMARK  11 active torsions:
REMARK  status: ('A' for Active; 'I' for Inactive)
REMARK    1  A    between atoms: C2_2  and  C3_3 
REMARK    2  A    between atoms: C5_5  and  O1_6 
REMARK    3  A    between atoms: C6_8  and  O2_9 
REMARK    4  A    between atoms: C7_11  and  O3_12 
REMARK    5  A    between atoms: C8_14  and  S1_15 
REMARK    6  A    between atoms: S1_15  and  C9_16 
REMARK    7  A    between atoms: C9_16  and  C10_17 
REMARK    8  A    between atoms: C10_17  and  C11_18 
REMARK    9  A    between atoms: C11_18  and  O4_20 
REMARK   10  A    between atoms: O4_20  and  C13_21 
REMARK   11  A    between atoms: N1_24  and  O6_26 
ROOT
HETATM    1  C3  UNL     1      -2.838   3.713  11.000  1.00  0.00    -0.001 C 
HETATM    2  C4  UNL     1      -1.501   4.084  11.600  1.00  0.00     0.019 C 
HETATM    3  C5  UNL     1      -2.876   2.279  10.532  1.00  0.00     0.158 C 
HETATM    4  C6  UNL     1      -4.324   1.856  10.646  1.00  0.00     0.177 C 
HETATM    5  C7  UNL     1      -4.975   2.829  11.591  1.00  0.00     0.164 C 
HETATM    6  C8  UNL     1      -3.855   3.689  12.134  1.00  0.00     0.095 C 
ENDROOT
BRANCH   6   7
HETATM    7  S1  UNL     1      -4.383   5.327  12.577  1.00  0.00    -0.106 SA
BRANCH   7   8
HETATM    8  C9  UNL     1      -4.501   5.707  14.278  1.00  0.00     0.071 C 
HETATM    9  N1  UNL     1      -3.516   5.875  15.049  1.00  0.00    -0.265 N 
ATOM     10  H1  UNL     1      -3.694   6.090  16.030  1.00  0.00     0.194 HD
BRANCH   8  11
HETATM   11  C10 UNL     1      -5.857   5.937  14.910  1.00  0.00     0.098 C 
BRANCH  11  12
HETATM   12  C11 UNL     1      -5.882   4.992  16.102  1.00  0.00     0.134 C 
HETATM   13  C12 UNL     1      -7.209   5.111  16.809  1.00  0.00     0.040 C 
BRANCH  12  14
HETATM   14  O4  UNL     1      -5.623   3.705  15.627  1.00  0.00    -0.316 OA
BRANCH  14  15
HETATM   15  C13 UNL     1      -5.113   2.676  16.401  1.00  0.00     0.255 C 
HETATM   16  C14 UNL     1      -5.936   1.965  17.419  1.00  0.00     0.126 C 
HETATM   17  O5  UNL     1      -3.920   2.359  16.214  1.00  0.00    -0.266 OA
ENDBRANCH  14  15
ENDBRANCH  12  14
ENDBRANCH  11  12
ENDBRANCH   8  11
BRANCH   9  18
HETATM   18  O6  UNL     1      -2.243   5.783  14.633  1.00  0.00    -0.285 OA
HETATM   19  C15 UNL     1      -1.545   6.884  14.052  1.00  0.00     0.237 C 
ENDBRANCH   9  18
ENDBRANCH   7   8
ENDBRANCH   6   7
BRANCH   1  20
HETATM   20  C2  UNL     1      -3.242   4.631   9.891  1.00  0.00     0.009 C 
HETATM   21  C1  UNL     1      -2.093   5.564   9.571  1.00  0.00     0.006 C 
ENDBRANCH   1  20
BRANCH   5  22
HETATM   22  O3  UNL     1      -5.961   3.606  10.977  1.00  0.00    -0.392 OA
ATOM     23  H3  UNL     1      -5.603   4.329  10.476  1.00  0.00     0.210 HD
ENDBRANCH   5  22
BRANCH   3  24
HETATM   24  O1  UNL     1      -2.073   1.445  11.319  1.00  0.00    -0.392 OA
ATOM     25  H1  UNL     1      -2.481   0.603  11.481  1.00  0.00     0.210 HD
ENDBRANCH   3  24
BRANCH   4  26
HETATM   26  O2  UNL     1      -4.917   1.836   9.386  1.00  0.00    -0.390 OA
ATOM     27  H2  UNL     1      -5.459   1.062   9.293  1.00  0.00     0.210 HD
ENDBRANCH   4  26
TORSDOF 11
ENDMDL
MODEL 2
REMARK VINA RESULT: -6.802090442      2.087      3.702
REMARK  11 active torsions:
REMARK  status: ('A' for Active; 'I' for Inactive)
REMARK    1  A    between atoms: C2_2  and  C3_3 
REMARK    2  A    between atoms: C5_5  and  O1_6 
REMARK    3  A    between atoms: C6_8  and  O2_9 
REMARK    4  A    between atoms: C7_11  and  O3_12 
REMARK    5  A    between atoms: C8_14  and  S1_15 
REMARK    6  A    between atoms: S1_15  and  C9_16 
REMARK    7  A    between atoms: C9_16  and  C10_17 
REMARK    8  A    between atoms: C10_17  and  C11_18 
REMARK    9  A    between atoms: C11_18  and  O4_20 
REMARK   10  A    between atoms: O4_20  and  C13_21 
REMARK   11  A    between atoms: N1_24  and  O6_26 
ROOT
HETATM    1  C3  UNL     1      -1.842   6.239  10.838  1.00  0.00    -0.001 C 
HETATM    2  C4  UNL     1      -2.328   7.310  11.788  1.00  0.00     0.019 C 
HETATM    3  C5  UNL     1      -0.343   6.258  10.676  1.00  0.00     0.158 C 
HETATM    4  C6  UNL     1       0.045   4.832  10.350  1.00  0.00     0.177 C 
HETATM    5  C7  UNL     1      -1.106   3.969  10.794  1.00  0.00     0.164 C 
HETATM    6  C8  UNL     1      -2.057   4.894  11.521  1.00  0.00     0.095 C 
ENDROOT
BRANCH   6   7
HETATM    7  S1  UNL     1      -3.752   4.372  11.421  1.00  0.00    -0.106 SA
BRANCH   7   8
HETATM    8  C9  UNL     1      -4.437   3.573  12.816  1.00  0.00     0.071 C 
HETATM    9  N1  UNL     1      -4.238   2.365  13.125  1.00  0.00    -0.265 N 
ATOM     10  H1  UNL     1      -4.691   1.994  13.960  1.00  0.00     0.194 HD
BRANCH   8  11
HETATM   11  C10 UNL     1      -5.277   4.357  13.801  1.00  0.00     0.098 C 
BRANCH  11  12
HETATM   12  C11 UNL     1      -4.293   4.785  14.879  1.00  0.00     0.134 C 
HETATM   13  C12 UNL     1      -4.111   6.281  14.828  1.00  0.00     0.040 C 
BRANCH  12  14
HETATM   14  O4  UNL     1      -4.783   4.330  16.105  1.00  0.00    -0.316 OA
BRANCH  14  15
HETATM   15  C13 UNL     1      -4.809   3.000  16.490  1.00  0.00     0.255 C 
HETATM   16  C14 UNL     1      -5.971   2.403  17.205  1.00  0.00     0.126 C 
HETATM   17  O5  UNL     1      -3.808   2.307  16.214  1.00  0.00    -0.266 OA
ENDBRANCH  14  15
ENDBRANCH  12  14
ENDBRANCH  11  12
ENDBRANCH   8  11
BRANCH   9  18
HETATM   18  O6  UNL     1      -3.457   1.549  12.401  1.00  0.00    -0.285 OA
HETATM   19  C15 UNL     1      -3.988   0.530  11.555  1.00  0.00     0.237 C 
ENDBRANCH   9  18
ENDBRANCH   7   8
ENDBRANCH   6   7
BRANCH   1  20
HETATM   20  C2  UNL     1      -2.510   6.314   9.502  1.00  0.00     0.009 C 
HETATM   21  C1  UNL     1      -1.997   7.527   8.755  1.00  0.00     0.006 C 
ENDBRANCH   1  20
BRANCH   5  22
HETATM   22  O3  UNL     1      -1.739   3.318   9.733  1.00  0.00    -0.392 OA
ATOM     23  H3  UNL     1      -2.681   3.440   9.734  1.00  0.00     0.210 HD
ENDBRANCH   5  22
BRANCH   3  24
HETATM   24  O1  UNL     1       0.310   6.673  11.841  1.00  0.00    -0.392 OA
ATOM     25  H1  UNL     1       1.097   6.167  12.012  1.00  0.00     0.210 HD
ENDBRANCH   3  24
BRANCH   4  26
HETATM   26  O2  UNL     1       0.325   4.711   8.990  1.00  0.00    -0.390 OA
ATOM     27  H2  UNL     1       1.184   4.324   8.868  1.00  0.00     0.210 HD
ENDBRANCH   4  26
TORSDOF 11
ENDMDL
MODEL 3
REMARK VINA RESULT: -6.658487857      1.212      1.375
REMARK  11 active torsions:
REMARK  status: ('A' for Active; 'I' for Inactive)
REMARK    1  A    between atoms: C2_2  and  C3_3 
REMARK    2  A    between atoms: C5_5  and  O1_6 
REMARK    3  A    between atoms: C6_8  and  O2_9 
REMARK    4  A    between atoms: C7_11  and  O3_12 
REMARK    5  A    between atoms: C8_14  and  S1_15 
REMARK    6  A    between atoms: S1_15  and  C9_16 
REMARK    7  A    between atoms: C9_16  and  C10_17 
REMARK    8  A    between atoms: C10_17  and  C11_18 
REMARK    9  A    between atoms: C11_18  and  O4_20 
REMARK   10  A    between atoms: O4_20  and  C13_21 
REMARK   11  A    between atoms: N1_24  and  O6_26 
ROOT
HETATM    1  C3  UNL     1      -2.864   4.218  11.051  1.00  0.00    -0.001 C 
HETATM    2  C4  UNL     1      -1.578   4.807  11.585  1.00  0.00     0.019 C 
HETATM    3  C5  UNL     1      -2.708   2.772  10.653  1.00  0.00     0.158 C 
HETATM    4  C6  UNL     1      -4.076   2.153  10.838  1.00  0.00     0.177 C 
HETATM    5  C7  UNL     1      -4.834   3.071  11.759  1.00  0.00     0.164 C 
HETATM    6  C8  UNL     1      -3.834   4.108  12.220  1.00  0.00     0.095 C 
ENDROOT
BRANCH   6   7
HETATM    7  S1  UNL     1      -4.579   5.675  12.604  1.00  0.00    -0.106 SA
BRANCH   7   8
HETATM    8  C9  UNL     1      -4.474   6.239  14.254  1.00  0.00     0.071 C 
HETATM    9  N1  UNL     1      -3.526   6.930  14.721  1.00  0.00    -0.265 N 
ATOM     10  H1  UNL     1      -3.559   7.204  15.703  1.00  0.00     0.194 HD
BRANCH   8  11
HETATM   11  C10 UNL     1      -5.609   5.973  15.219  1.00  0.00     0.098 C 
BRANCH  11  12
HETATM   12  C11 UNL     1      -5.679   4.456  15.310  1.00  0.00     0.134 C 
HETATM   13  C12 UNL     1      -4.407   3.931  15.928  1.00  0.00     0.040 C 
BRANCH  12  14
HETATM   14  O4  UNL     1      -6.823   4.127  16.039  1.00  0.00    -0.316 OA
BRANCH  14  15
HETATM   15  C13 UNL     1      -6.838   3.259  17.118  1.00  0.00     0.255 C 
HETATM   16  C14 UNL     1      -6.473   3.697  18.495  1.00  0.00     0.126 C 
HETATM   17  O5  UNL     1      -7.172   2.078  16.895  1.00  0.00    -0.266 OA
ENDBRANCH  14  15
ENDBRANCH  12  14
ENDBRANCH  11  12
ENDBRANCH   8  11
BRANCH   9  18
HETATM   18  O6  UNL     1      -2.476   7.319  13.980  1.00  0.00    -0.285 OA
HETATM   19  C15 UNL     1      -2.278   8.675  13.584  1.00  0.00     0.237 C 
ENDBRANCH   9  18
ENDBRANCH   7   8
ENDBRANCH   6   7
BRANCH   1  20
HETATM   20  C2  UNL     1      -3.427   5.011   9.915  1.00  0.00     0.009 C 
HETATM   21  C1  UNL     1      -2.400   6.023   9.453  1.00  0.00     0.006 C 
ENDBRANCH   1  20
BRANCH   5  22
HETATM   22  O3  UNL     1      -5.938   3.667  11.144  1.00  0.00    -0.392 OA
ATOM     23  H3  UNL     1      -6.051   4.577  11.389  1.00  0.00     0.210 HD
ENDBRANCH   5  22
BRANCH   3  24
HETATM   24  O1  UNL     1      -1.771   2.103  11.449  1.00  0.00    -0.392 OA
ATOM     25  H1  UNL     1      -2.177   1.662  12.187  1.00  0.00     0.210 HD
ENDBRANCH   3  24
BRANCH   4  26
HETATM   26  O2  UNL     1      -4.696   1.984   9.602  1.00  0.00    -0.390 OA
ATOM     27  H2  UNL     1      -4.073   1.650   8.968  1.00  0.00     0.210 HD
ENDBRANCH   4  26
TORSDOF 11
ENDMDL
MODEL 4
REMARK VINA RESULT: -6.499875717      2.177      4.050
REMARK  11 active torsions:
REMARK  status: ('A' for Active; 'I' for Inactive)
REMARK    1  A    between atoms: C2_2  and  C3_3 
REMARK    2  A    between atoms: C5_5  and  O1_6 
REMARK    3  A    between atoms: C6_8  and  O2_9 
REMARK    4  A    between atoms: C7_11  and  O3_12 
REMARK    5  A    between atoms: C8_14  and  S1_15 
REMARK    6  A    between atoms: S1_15  and  C9_16 
REMARK    7  A    between atoms: C9_16  and  C10_17 
REMARK    8  A    between atoms: C10_17  and  C11_18 
REMARK    9  A    between atoms: C11_18  and  O4_20 
REMARK   10  A    between atoms: O4_20  and  C13_21 
REMARK   11  A    between atoms: N1_24  and  O6_26 
ROOT
HETATM    1  C3  UNL     1      -2.040   6.509  10.087  1.00  0.00    -0.001 C 
HETATM    2  C4  UNL     1      -3.038   7.404   9.389  1.00  0.00     0.019 C 
HETATM    3  C5  UNL     1      -0.822   7.266  10.554  1.00  0.00     0.158 C 
HETATM    4  C6  UNL     1      -0.317   6.511  11.764  1.00  0.00     0.177 C 
HETATM    5  C7  UNL     1      -1.468   5.670  12.247  1.00  0.00     0.164 C 
HETATM    6  C8  UNL     1      -2.660   6.083  11.413  1.00  0.00     0.095 C 
ENDROOT
BRANCH   6   7
HETATM    7  S1  UNL     1      -3.846   4.778  11.193  1.00  0.00    -0.106 SA
BRANCH   7   8
HETATM    8  C9  UNL     1      -4.319   3.868  12.607  1.00  0.00     0.071 C 
HETATM    9  N1  UNL     1      -3.918   2.703  12.882  1.00  0.00    -0.265 N 
ATOM     10  H1  UNL     1      -4.260   2.257  13.733  1.00  0.00     0.194 HD
BRANCH   8  11
HETATM   11  C10 UNL     1      -5.215   4.501  13.651  1.00  0.00     0.098 C 
BRANCH  11  12
HETATM   12  C11 UNL     1      -4.275   4.841  14.798  1.00  0.00     0.134 C 
HETATM   13  C12 UNL     1      -4.043   6.331  14.832  1.00  0.00     0.040 C 
BRANCH  12  14
HETATM   14  O4  UNL     1      -4.844   4.344  15.972  1.00  0.00    -0.316 OA
BRANCH  14  15
HETATM   15  C13 UNL     1      -4.804   3.013  16.356  1.00  0.00     0.255 C 
HETATM   16  C14 UNL     1      -5.931   2.362  17.082  1.00  0.00     0.126 C 
HETATM   17  O5  UNL     1      -3.775   2.368  16.070  1.00  0.00    -0.266 OA
ENDBRANCH  14  15
ENDBRANCH  12  14
ENDBRANCH  11  12
ENDBRANCH   8  11
BRANCH   9  18
HETATM   18  O6  UNL     1      -3.060   2.027  12.102  1.00  0.00    -0.285 OA
HETATM   19  C15 UNL     1      -3.459   0.903  11.319  1.00  0.00     0.237 C 
ENDBRANCH   9  18
ENDBRANCH   7   8
ENDBRANCH   6   7
BRANCH   1  20
HETATM   20  C2  UNL     1      -1.634   5.340   9.246  1.00  0.00     0.009 C 
HETATM   21  C1  UNL     1      -0.868   5.837   8.038  1.00  0.00     0.006 C 
ENDBRANCH   1  20
BRANCH   5  22
HETATM   22  O3  UNL     1      -1.222   4.299  12.139  1.00  0.00    -0.392 OA
ATOM     23  H3  UNL     1      -0.496   4.098  11.560  1.00  0.00     0.210 HD
ENDBRANCH   5  22
BRANCH   3  24
HETATM   24  O1  UNL     1      -1.125   8.586  10.909  1.00  0.00    -0.392 OA
ATOM     25  H1  UNL     1      -1.972   8.658  11.333  1.00  0.00     0.210 HD
ENDBRANCH   3  24
BRANCH   4  26
HETATM   26  O2  UNL     1       0.805   5.759  11.424  1.00  0.00    -0.390 OA
ATOM     27  H2  UNL     1       1.473   5.849  12.095  1.00  0.00     0.210 HD
ENDBRANCH   4  26
TORSDOF 11
ENDMDL
MODEL 5
REMARK VINA RESULT: -6.446890026      2.385      4.554
REMARK  11 active torsions:
REMARK  status: ('A' for Active; 'I' for Inactive)
REMARK    1  A    between atoms: C2_2  and  C3_3 
REMARK    2  A    between atoms: C5_5  and  O1_6 
REMARK    3  A    between atoms: C6_8  and  O2_9 
REMARK    4  A    between atoms: C7_11  and  O3_12 
REMARK    5  A    between atoms: C8_14  and  S1_15 
REMARK    6  A    between atoms: S1_15  and  C9_16 
REMARK    7  A    between atoms: C9_16  and  C10_17 
REMARK    8  A    between atoms: C10_17  and  C11_18 
REMARK    9  A    between atoms: C11_18  and  O4_20 
REMARK   10  A    between atoms: O4_20  and  C13_21 
REMARK   11  A    between atoms: N1_24  and  O6_26 
ROOT
HETATM    1  C3  UNL     1      -1.724   6.077  10.047  1.00  0.00    -0.001 C 
HETATM    2  C4  UNL     1      -2.833   6.289   9.042  1.00  0.00     0.019 C 
HETATM    3  C5  UNL     1      -1.288   7.367  10.696  1.00  0.00     0.158 C 
HETATM    4  C6  UNL     1      -0.778   6.977  12.066  1.00  0.00     0.177 C 
HETATM    5  C7  UNL     1      -1.356   5.619  12.360  1.00  0.00     0.164 C 
HETATM    6  C8  UNL     1      -2.320   5.328  11.233  1.00  0.00     0.095 C 
ENDROOT
BRANCH   6   7
HETATM    7  S1  UNL     1      -2.494   3.593  10.891  1.00  0.00    -0.106 SA
BRANCH   7   8
HETATM    8  C9  UNL     1      -3.852   2.759  11.606  1.00  0.00     0.071 C 
HETATM    9  N1  UNL     1      -3.955   1.505  11.709  1.00  0.00    -0.265 N 
ATOM     10  H1  UNL     1      -4.795   1.117  12.140  1.00  0.00     0.194 HD
BRANCH   8  11
HETATM   11  C10 UNL     1      -4.982   3.549  12.232  1.00  0.00     0.098 C 
BRANCH  11  12
HETATM   12  C11 UNL     1      -4.549   3.746  13.676  1.00  0.00     0.134 C 
HETATM   13  C12 UNL     1      -5.069   5.069  14.180  1.00  0.00     0.040 C 
BRANCH  12  14
HETATM   14  O4  UNL     1      -5.015   2.654  14.412  1.00  0.00    -0.316 OA
BRANCH  14  15
HETATM   15  C13 UNL     1      -4.855   2.510  15.780  1.00  0.00     0.255 C 
HETATM   16  C14 UNL     1      -6.012   2.508  16.719  1.00  0.00     0.126 C 
HETATM   17  O5  UNL     1      -3.690   2.380  16.207  1.00  0.00    -0.266 OA
ENDBRANCH  14  15
ENDBRANCH  12  14
ENDBRANCH  11  12
ENDBRANCH   8  11
BRANCH   9  18
HETATM   18  O6  UNL     1      -3.008   0.660  11.274  1.00  0.00    -0.285 OA
HETATM   19  C15 UNL     1      -3.128  -0.757  11.399  1.00  0.00     0.237 C 
ENDBRANCH   9  18
ENDBRANCH   7   8
ENDBRANCH   6   7
BRANCH   1  20
HETATM   20  C2  UNL     1      -0.546   5.369   9.458  1.00  0.00     0.009 C 
HETATM   21  C1  UNL     1      -0.616   5.454   7.948  1.00  0.00     0.006 C 
ENDBRANCH   1  20
BRANCH   5  22
HETATM   22  O3  UNL     1      -0.380   4.624  12.465  1.00  0.00    -0.392 OA
ATOM     23  H3  UNL     1      -0.160   4.416  13.365  1.00  0.00     0.210 HD
ENDBRANCH   5  22
BRANCH   3  24
HETATM   24  O1  UNL     1      -2.343   8.278  10.823  1.00  0.00    -0.392 OA
ATOM     25  H1  UNL     1      -3.047   7.938  11.362  1.00  0.00     0.210 HD
ENDBRANCH   3  24
BRANCH   4  26
HETATM   26  O2  UNL     1       0.615   6.994  12.081  1.00  0.00    -0.390 OA
ATOM     27  H2  UNL     1       0.943   7.445  11.312  1.00  0.00     0.210 HD
ENDBRANCH   4  26
TORSDOF 11
ENDMDL
