MODEL 1
REMARK VINA RESULT: -6.187399404      0.000      0.000
REMARK  8 active torsions:
REMARK  status: ('A' for Active; 'I' for Inactive)
REMARK    1  A    between atoms: O1_2  and  C2_3 
REMARK    2  A    between atoms: C4_5  and  C5_6 
REMARK    3  A    between atoms: C6_8  and  O3_9 
REMARK    4  A    between atoms: C8_11  and  O4_13 
REMARK    5  A    between atoms: C10_15  and  O5_16 
REMARK    6  A    between atoms: C11_18  and  O6_19 
REMARK    7  A    between atoms: C13_22  and  O7_23 
REMARK    8  A    between atoms: C15_25  and  O8_26 
ROOT
HETATM    1  C5  UNL     1      -1.728   4.485  10.129  1.00  0.00     0.189 C 
HETATM    2  O2  UNL     1      -2.353   5.146   9.096  1.00  0.00    -0.346 OA
HETATM    3  C6  UNL     1      -1.568   6.117   8.489  1.00  0.00     0.296 C 
HETATM    4  C8  UNL     1      -0.149   5.644   8.257  1.00  0.00     0.132 C 
HETATM    5  C9  UNL     1       0.586   6.780   7.558  1.00  0.00     0.054 C 
HETATM    6  C10 UNL     1       0.513   5.324   9.578  1.00  0.00     0.188 C 
HETATM    7  C11 UNL     1      -0.585   5.320  10.628  1.00  0.00     0.183 C 
ENDROOT
BRANCH   1   8
HETATM    8  C4  UNL     1      -2.718   4.224  11.208  1.00  0.00    -0.021 A 
HETATM    9  C3  UNL     1      -3.147   2.935  11.441  1.00  0.00     0.049 A 
HETATM   10  C2  UNL     1      -4.068   2.643  12.437  1.00  0.00     0.104 A 
HETATM   11  C15 UNL     1      -4.591   3.642  13.231  1.00  0.00     0.135 A 
HETATM   12  C13 UNL     1      -4.154   4.941  12.990  1.00  0.00     0.104 A 
HETATM   13  C12 UNL     1      -3.238   5.227  12.000  1.00  0.00     0.049 A 
BRANCH  10  14
HETATM   14  O1  UNL     1      -4.483   1.325  12.648  1.00  0.00    -0.353 OA
HETATM   15  C1  UNL     1      -4.042   0.263  11.854  1.00  0.00     0.210 C 
ENDBRANCH  10  14
BRANCH  11  16
HETATM   16  O8  UNL     1      -5.513   3.347  14.226  1.00  0.00    -0.351 OA
HETATM   17  C16 UNL     1      -5.023   3.019  15.514  1.00  0.00     0.210 C 
ENDBRANCH  11  16
BRANCH  12  18
HETATM   18  O7  UNL     1      -4.696   5.936  13.806  1.00  0.00    -0.353 OA
HETATM   19  C14 UNL     1      -3.825   6.662  14.625  1.00  0.00     0.210 C 
ENDBRANCH  12  18
ENDBRANCH   1   8
BRANCH   7  20
HETATM   20  O6  UNL     1      -0.017   4.786  11.789  1.00  0.00    -0.390 OA
ATOM     21  H6  UNL     1       0.809   4.350  11.611  1.00  0.00     0.210 HD
ENDBRANCH   7  20
BRANCH   3  22
HETATM   22  O3  UNL     1      -2.118   6.382   7.242  1.00  0.00    -0.363 OA
HETATM   23  C7  UNL     1      -3.347   6.967   7.399  1.00  0.00     0.204 C 
ENDBRANCH   3  22
BRANCH   6  24
HETATM   24  O5  UNL     1       1.446   6.288   9.872  1.00  0.00    -0.390 OA
ATOM     25  H5  UNL     1       1.798   6.137  10.741  1.00  0.00     0.210 HD
ENDBRANCH   6  24
BRANCH   4  26
HETATM   26  O4  UNL     1      -0.116   4.539   7.422  1.00  0.00    -0.382 OA
ATOM     27  H4  UNL     1      -0.843   4.548   6.810  1.00  0.00     0.210 HD
ENDBRANCH   4  26
TORSDOF 8
ENDMDL
MODEL 2
REMARK VINA RESULT: -6.150275602      0.212      2.644
REMARK  8 active torsions:
REMARK  status: ('A' for Active; 'I' for Inactive)
REMARK    1  A    between atoms: O1_2  and  C2_3 
REMARK    2  A    between atoms: C4_5  and  C5_6 
REMARK    3  A    between atoms: C6_8  and  O3_9 
REMARK    4  A    between atoms: C8_11  and  O4_13 
REMARK    5  A    between atoms: C10_15  and  O5_16 
REMARK    6  A    between atoms: C11_18  and  O6_19 
REMARK    7  A    between atoms: C13_22  and  O7_23 
REMARK    8  A    between atoms: C15_25  and  O8_26 
ROOT
HETATM    1  C5  UNL     1      -1.749   4.433  10.252  1.00  0.00     0.189 C 
HETATM    2  O2  UNL     1      -2.413   5.079   9.234  1.00  0.00    -0.346 OA
HETATM    3  C6  UNL     1      -1.696   6.121   8.663  1.00  0.00     0.296 C 
HETATM    4  C8  UNL     1      -0.245   5.758   8.428  1.00  0.00     0.132 C 
HETATM    5  C9  UNL     1       0.410   6.964   7.769  1.00  0.00     0.054 C 
HETATM    6  C10 UNL     1       0.429   5.446   9.745  1.00  0.00     0.188 C 
HETATM    7  C11 UNL     1      -0.671   5.332  10.785  1.00  0.00     0.183 C 
ENDROOT
BRANCH   1   8
HETATM    8  C4  UNL     1      -2.724   4.069  11.315  1.00  0.00    -0.021 A 
HETATM    9  C3  UNL     1      -3.231   5.050  12.139  1.00  0.00     0.049 A 
HETATM   10  C2  UNL     1      -4.143   4.758  13.144  1.00  0.00     0.104 A 
HETATM   11  C15 UNL     1      -4.573   3.464  13.353  1.00  0.00     0.135 A 
HETATM   12  C13 UNL     1      -4.057   2.479  12.518  1.00  0.00     0.104 A 
HETATM   13  C12 UNL     1      -3.151   2.774  11.520  1.00  0.00     0.049 A 
BRANCH  10  14
HETATM   14  O1  UNL     1      -4.639   5.776  13.962  1.00  0.00    -0.353 OA
HETATM   15  C1  UNL     1      -3.815   6.755  14.525  1.00  0.00     0.210 C 
ENDBRANCH  10  14
BRANCH  11  16
HETATM   16  O8  UNL     1      -5.484   3.175  14.359  1.00  0.00    -0.351 OA
HETATM   17  C16 UNL     1      -4.981   2.819  15.634  1.00  0.00     0.210 C 
ENDBRANCH  11  16
BRANCH  12  18
HETATM   18  O7  UNL     1      -4.506   1.177  12.747  1.00  0.00    -0.353 OA
HETATM   19  C14 UNL     1      -4.128   0.181  11.840  1.00  0.00     0.210 C 
ENDBRANCH  12  18
ENDBRANCH   1   8
BRANCH   7  20
HETATM   20  O6  UNL     1      -0.073   4.805  11.934  1.00  0.00    -0.390 OA
ATOM     21  H6  UNL     1       0.715   4.315  11.731  1.00  0.00     0.210 HD
ENDBRANCH   7  20
BRANCH   3  22
HETATM   22  O3  UNL     1      -2.256   6.384   7.419  1.00  0.00    -0.363 OA
HETATM   23  C7  UNL     1      -3.472   6.993   7.585  1.00  0.00     0.204 C 
ENDBRANCH   3  22
BRANCH   6  24
HETATM   24  O5  UNL     1       1.290   6.466  10.074  1.00  0.00    -0.390 OA
ATOM     25  H5  UNL     1       0.792   7.234  10.329  1.00  0.00     0.210 HD
ENDBRANCH   6  24
BRANCH   4  26
HETATM   26  O4  UNL     1      -0.129   4.684   7.561  1.00  0.00    -0.382 OA
ATOM     27  H4  UNL     1       0.688   4.218   7.696  1.00  0.00     0.210 HD
ENDBRANCH   4  26
TORSDOF 8
ENDMDL
MODEL 3
REMARK VINA RESULT: -5.989842983      2.332      7.276
REMARK  8 active torsions:
REMARK  status: ('A' for Active; 'I' for Inactive)
REMARK    1  A    between atoms: O1_2  and  C2_3 
REMARK    2  A    between atoms: C4_5  and  C5_6 
REMARK    3  A    between atoms: C6_8  and  O3_9 
REMARK    4  A    between atoms: C8_11  and  O4_13 
REMARK    5  A    between atoms: C10_15  and  O5_16 
REMARK    6  A    between atoms: C11_18  and  O6_19 
REMARK    7  A    between atoms: C13_22  and  O7_23 
REMARK    8  A    between atoms: C15_25  and  O8_26 
ROOT
HETATM    1  C5  UNL     1      -5.405   4.422  14.111  1.00  0.00     0.189 C 
HETATM    2  O2  UNL     1      -4.601   3.517  14.765  1.00  0.00    -0.346 OA
HETATM    3  C6  UNL     1      -4.759   3.514  16.143  1.00  0.00     0.296 C 
HETATM    4  C8  UNL     1      -6.215   3.575  16.554  1.00  0.00     0.132 C 
HETATM    5  C9  UNL     1      -6.246   3.526  18.075  1.00  0.00     0.054 C 
HETATM    6  C10 UNL     1      -6.838   4.859  16.056  1.00  0.00     0.188 C 
HETATM    7  C11 UNL     1      -5.851   5.477  15.081  1.00  0.00     0.183 C 
ENDROOT
BRANCH   1   8
HETATM    8  C4  UNL     1      -4.648   5.016  12.977  1.00  0.00    -0.021 A 
HETATM    9  C3  UNL     1      -4.018   4.190  12.071  1.00  0.00     0.049 A 
HETATM   10  C2  UNL     1      -3.300   4.699  10.998  1.00  0.00     0.104 A 
HETATM   11  C15 UNL     1      -3.192   6.060  10.802  1.00  0.00     0.135 A 
HETATM   12  C13 UNL     1      -3.830   6.888  11.720  1.00  0.00     0.104 A 
HETATM   13  C12 UNL     1      -4.543   6.378  12.785  1.00  0.00     0.049 A 
BRANCH  10  14
HETATM   14  O1  UNL     1      -2.673   3.834  10.097  1.00  0.00    -0.353 OA
HETATM   15  C1  UNL     1      -1.675   2.938  10.488  1.00  0.00     0.210 C 
ENDBRANCH  10  14
BRANCH  11  16
HETATM   16  O8  UNL     1      -2.473   6.566   9.728  1.00  0.00    -0.351 OA
HETATM   17  C16 UNL     1      -1.092   6.823   9.910  1.00  0.00     0.210 C 
ENDBRANCH  11  16
BRANCH  12  18
HETATM   18  O7  UNL     1      -3.707   8.262  11.503  1.00  0.00    -0.353 OA
HETATM   19  C14 UNL     1      -3.191   9.048  12.538  1.00  0.00     0.210 C 
ENDBRANCH  12  18
ENDBRANCH   1   8
BRANCH   7  20
HETATM   20  O6  UNL     1      -6.529   6.520  14.443  1.00  0.00    -0.390 OA
ATOM     21  H6  UNL     1      -6.036   7.332  14.470  1.00  0.00     0.210 HD
ENDBRANCH   7  20
BRANCH   3  22
HETATM   22  O3  UNL     1      -4.252   2.312  16.621  1.00  0.00    -0.363 OA
HETATM   23  C7  UNL     1      -4.102   1.433  15.581  1.00  0.00     0.204 C 
ENDBRANCH   3  22
BRANCH   6  24
HETATM   24  O5  UNL     1      -7.054   5.708  17.115  1.00  0.00    -0.390 OA
ATOM     25  H5  UNL     1      -7.979   5.721  17.330  1.00  0.00     0.210 HD
ENDBRANCH   6  24
BRANCH   4  26
HETATM   26  O4  UNL     1      -6.919   2.481  16.079  1.00  0.00    -0.382 OA
ATOM     27  H4  UNL     1      -7.657   2.275  16.640  1.00  0.00     0.210 HD
ENDBRANCH   4  26
TORSDOF 8
ENDMDL
MODEL 4
REMARK VINA RESULT: -5.976264804      1.998      7.144
REMARK  8 active torsions:
REMARK  status: ('A' for Active; 'I' for Inactive)
REMARK    1  A    between atoms: O1_2  and  C2_3 
REMARK    2  A    between atoms: C4_5  and  C5_6 
REMARK    3  A    between atoms: C6_8  and  O3_9 
REMARK    4  A    between atoms: C8_11  and  O4_13 
REMARK    5  A    between atoms: C10_15  and  O5_16 
REMARK    6  A    between atoms: C11_18  and  O6_19 
REMARK    7  A    between atoms: C13_22  and  O7_23 
REMARK    8  A    between atoms: C15_25  and  O8_26 
ROOT
HETATM    1  C5  UNL     1      -4.102   4.307  13.716  1.00  0.00     0.189 C 
HETATM    2  O2  UNL     1      -5.053   5.081  14.340  1.00  0.00    -0.346 OA
HETATM    3  C6  UNL     1      -5.925   4.365  15.148  1.00  0.00     0.296 C 
HETATM    4  C8  UNL     1      -5.208   3.329  15.988  1.00  0.00     0.132 C 
HETATM    5  C9  UNL     1      -6.266   2.649  16.846  1.00  0.00     0.054 C 
HETATM    6  C10 UNL     1      -4.527   2.319  15.093  1.00  0.00     0.188 C 
HETATM    7  C11 UNL     1      -4.572   2.882  13.683  1.00  0.00     0.183 C 
ENDROOT
BRANCH   1   8
HETATM    8  C4  UNL     1      -3.872   4.832  12.343  1.00  0.00    -0.021 A 
HETATM    9  C3  UNL     1      -4.745   5.756  11.812  1.00  0.00     0.049 A 
HETATM   10  C2  UNL     1      -4.571   6.274  10.536  1.00  0.00     0.104 A 
HETATM   11  C15 UNL     1      -3.509   5.875   9.751  1.00  0.00     0.135 A 
HETATM   12  C13 UNL     1      -2.631   4.942  10.294  1.00  0.00     0.104 A 
HETATM   13  C12 UNL     1      -2.808   4.430  11.562  1.00  0.00     0.049 A 
BRANCH  10  14
HETATM   14  O1  UNL     1      -5.474   7.210  10.026  1.00  0.00    -0.353 OA
HETATM   15  C1  UNL     1      -5.709   8.441  10.646  1.00  0.00     0.210 C 
ENDBRANCH  10  14
BRANCH  11  16
HETATM   16  O8  UNL     1      -3.337   6.395   8.476  1.00  0.00    -0.351 OA
HETATM   17  C16 UNL     1      -2.585   7.587   8.336  1.00  0.00     0.210 C 
ENDBRANCH  11  16
BRANCH  12  18
HETATM   18  O7  UNL     1      -1.564   4.553   9.482  1.00  0.00    -0.353 OA
HETATM   19  C14 UNL     1      -0.283   5.002   9.819  1.00  0.00     0.210 C 
ENDBRANCH  12  18
ENDBRANCH   1   8
BRANCH   7  20
HETATM   20  O6  UNL     1      -3.733   2.073  12.910  1.00  0.00    -0.390 OA
ATOM     21  H6  UNL     1      -3.018   2.568  12.526  1.00  0.00     0.210 HD
ENDBRANCH   7  20
BRANCH   3  22
HETATM   22  O3  UNL     1      -6.517   5.263  16.027  1.00  0.00    -0.363 OA
HETATM   23  C7  UNL     1      -6.446   6.528  15.505  1.00  0.00     0.204 C 
ENDBRANCH   3  22
BRANCH   6  24
HETATM   24  O5  UNL     1      -5.203   1.124  15.149  1.00  0.00    -0.390 OA
ATOM     25  H5  UNL     1      -5.995   1.229  15.663  1.00  0.00     0.210 HD
ENDBRANCH   6  24
BRANCH   4  26
HETATM   26  O4  UNL     1      -4.287   3.919  16.838  1.00  0.00    -0.382 OA
ATOM     27  H4  UNL     1      -4.290   3.504  17.692  1.00  0.00     0.210 HD
ENDBRANCH   4  26
TORSDOF 8
ENDMDL
MODEL 5
REMARK VINA RESULT: -5.929182975      1.948      2.541
REMARK  8 active torsions:
REMARK  status: ('A' for Active; 'I' for Inactive)
REMARK    1  A    between atoms: O1_2  and  C2_3 
REMARK    2  A    between atoms: C4_5  and  C5_6 
REMARK    3  A    between atoms: C6_8  and  O3_9 
REMARK    4  A    between atoms: C8_11  and  O4_13 
REMARK    5  A    between atoms: C10_15  and  O5_16 
REMARK    6  A    between atoms: C11_18  and  O6_19 
REMARK    7  A    between atoms: C13_22  and  O7_23 
REMARK    8  A    between atoms: C15_25  and  O8_26 
ROOT
HETATM    1  C5  UNL     1      -3.892   5.457  10.369  1.00  0.00     0.189 C 
HETATM    2  O2  UNL     1      -4.906   6.321  10.025  1.00  0.00    -0.346 OA
HETATM    3  C6  UNL     1      -4.468   7.505   9.448  1.00  0.00     0.296 C 
HETATM    4  C8  UNL     1      -3.373   7.275   8.429  1.00  0.00     0.132 C 
HETATM    5  C9  UNL     1      -3.015   8.637   7.851  1.00  0.00     0.054 C 
HETATM    6  C10 UNL     1      -2.167   6.654   9.097  1.00  0.00     0.188 C 
HETATM    7  C11 UNL     1      -2.608   6.225  10.486  1.00  0.00     0.183 C 
ENDROOT
BRANCH   1   8
HETATM    8  C4  UNL     1      -4.239   4.786  11.651  1.00  0.00    -0.021 A 
HETATM    9  C3  UNL     1      -4.231   3.410  11.724  1.00  0.00     0.049 A 
HETATM   10  C2  UNL     1      -4.547   2.741  12.898  1.00  0.00     0.104 A 
HETATM   11  C15 UNL     1      -4.884   3.437  14.039  1.00  0.00     0.135 A 
HETATM   12  C13 UNL     1      -4.890   4.826  13.959  1.00  0.00     0.104 A 
HETATM   13  C12 UNL     1      -4.575   5.488  12.790  1.00  0.00     0.049 A 
BRANCH  10  14
HETATM   14  O1  UNL     1      -4.530   1.344  12.938  1.00  0.00    -0.353 OA
HETATM   15  C1  UNL     1      -4.133   0.566  11.847  1.00  0.00     0.210 C 
ENDBRANCH  10  14
BRANCH  11  16
HETATM   16  O8  UNL     1      -5.200   2.765  15.212  1.00  0.00    -0.351 OA
HETATM   17  C16 UNL     1      -4.262   2.796  16.273  1.00  0.00     0.210 C 
ENDBRANCH  11  16
BRANCH  12  18
HETATM   18  O7  UNL     1      -5.234   5.511  15.126  1.00  0.00    -0.353 OA
HETATM   19  C14 UNL     1      -6.399   6.286  15.115  1.00  0.00     0.210 C 
ENDBRANCH  12  18
ENDBRANCH   1   8
BRANCH   7  20
HETATM   20  O6  UNL     1      -1.574   5.437  11.001  1.00  0.00    -0.390 OA
ATOM     21  H6  UNL     1      -1.832   4.527  11.093  1.00  0.00     0.210 HD
ENDBRANCH   7  20
BRANCH   3  22
HETATM   22  O3  UNL     1      -5.543   8.065   8.770  1.00  0.00    -0.363 OA
HETATM   23  C7  UNL     1      -6.489   8.475   9.672  1.00  0.00     0.204 C 
ENDBRANCH   3  22
BRANCH   6  24
HETATM   24  O5  UNL     1      -1.159   7.583   9.186  1.00  0.00    -0.390 OA
ATOM     25  H5  UNL     1      -0.406   7.286   8.688  1.00  0.00     0.210 HD
ENDBRANCH   6  24
BRANCH   4  26
HETATM   26  O4  UNL     1      -3.813   6.474   7.388  1.00  0.00    -0.382 OA
ATOM     27  H4  UNL     1      -3.116   6.304   6.765  1.00  0.00     0.210 HD
ENDBRANCH   4  26
TORSDOF 8
ENDMDL
