MODEL 1
REMARK VINA RESULT: -6.892620665      0.000      0.000
REMARK  8 active torsions:
REMARK  status: ('A' for Active; 'I' for Inactive)
REMARK    1  A    between atoms: C2_2  and  C4_4 
REMARK    2  A    between atoms: C5_5  and  C6_6 
REMARK    3  A    between atoms: C9_9  and  C10_10 
REMARK    4  A    between atoms: C10_10  and  N1_11 
REMARK    5  A    between atoms: N1_11  and  C11_13 
REMARK    6  A    between atoms: N3_20  and  C15_22 
REMARK    7  A    between atoms: C15_22  and  C16_23 
REMARK    8  A    between atoms: C16_23  and  O1_24 
ROOT
HETATM    1  C11 UNL     1      -5.654   7.079  13.731  1.00  0.00     0.679 A 
HETATM    2  N2  UNL     1      -4.426   6.581  13.500  1.00  0.00    -0.200 N 
ATOM      3  H2  UNL     1      -3.858   6.976  12.751  1.00  0.00     0.183 HD
HETATM    4  C12 UNL     1      -3.935   5.572  14.238  1.00  0.00     0.133 A 
HETATM    5  C13 UNL     1      -4.691   5.010  15.274  1.00  0.00     0.094 A 
HETATM    6 CL1  UNL     1      -3.995   3.694  16.204  1.00  0.00    -0.079 Cl
HETATM    7  C14 UNL     1      -5.939   5.525  15.501  1.00  0.00     0.140 A 
HETATM    8  N3  UNL     1      -6.698   5.097  16.402  1.00  0.00    -0.372 N 
ATOM      9  H3  UNL     1      -7.595   5.582  16.448  1.00  0.00     0.161 HD
HETATM   10  N4  UNL     1      -6.388   6.562  14.708  1.00  0.00    -0.175 N 
ATOM     11  H4  UNL     1      -7.318   6.944  14.880  1.00  0.00     0.186 HD
ENDROOT
BRANCH   1  12
HETATM   12  N1  UNL     1      -6.143   8.055  13.025  1.00  0.00    -0.226 N 
ATOM     13  H1  UNL     1      -7.057   8.435  13.269  1.00  0.00     0.177 HD
BRANCH  12  14
HETATM   14  C10 UNL     1      -5.421   8.616  11.899  1.00  0.00     0.142 C 
BRANCH  14  15
HETATM   15  C9  UNL     1      -6.406   9.024  10.811  1.00  0.00     0.004 C 
HETATM   16  C8  UNL     1      -6.139   8.212   9.588  1.00  0.00     0.007 C 
HETATM   17  C7  UNL     1      -7.051   8.645   8.475  1.00  0.00     0.017 C 
HETATM   18  C6  UNL     1      -6.906  10.093   8.153  1.00  0.00     0.065 C 
HETATM   19  C18 UNL     1      -6.149  10.890   9.155  1.00  0.00     0.017 C 
HETATM   20  C17 UNL     1      -6.429  10.493  10.584  1.00  0.00     0.007 C 
BRANCH  18  21
HETATM   21  C5  UNL     1      -8.217  10.732   7.889  1.00  0.00    -0.101 C 
HETATM   22  C4  UNL     1      -9.274  11.266   7.661  1.00  0.00    -0.102 C 
BRANCH  22  23
HETATM   23  C2  UNL     1     -10.548  11.935   7.372  1.00  0.00     0.057 C 
HETATM   24  C1  UNL     1     -10.854  11.835   5.914  1.00  0.00     0.023 C 
HETATM   25  C3  UNL     1     -10.395  13.373   7.840  1.00  0.00     0.023 C 
ENDBRANCH  22  23
ENDBRANCH  18  21
ENDBRANCH  14  15
ENDBRANCH  12  14
ENDBRANCH   1  12
BRANCH   8  26
HETATM   26  C15 UNL     1      -6.556   4.075  17.366  1.00  0.00     0.147 C 
BRANCH  26  27
HETATM   27  C16 UNL     1      -7.450   2.894  16.937  1.00  0.00     0.183 C 
BRANCH  27  28
HETATM   28  O1  UNL     1      -6.653   1.768  16.727  1.00  0.00    -0.399 OA
ATOM     29  H1  UNL     1      -6.085   1.922  15.982  1.00  0.00     0.209 HD
ENDBRANCH  27  28
ENDBRANCH  26  27
ENDBRANCH   8  26
TORSDOF 8
ENDMDL
MODEL 2
REMARK VINA RESULT: -6.878085396      2.946      3.628
REMARK  8 active torsions:
REMARK  status: ('A' for Active; 'I' for Inactive)
REMARK    1  A    between atoms: C2_2  and  C4_4 
REMARK    2  A    between atoms: C5_5  and  C6_6 
REMARK    3  A    between atoms: C9_9  and  C10_10 
REMARK    4  A    between atoms: C10_10  and  N1_11 
REMARK    5  A    between atoms: N1_11  and  C11_13 
REMARK    6  A    between atoms: N3_20  and  C15_22 
REMARK    7  A    between atoms: C15_22  and  C16_23 
REMARK    8  A    between atoms: C16_23  and  O1_24 
ROOT
HETATM    1  C11 UNL     1      -4.387   5.362  11.647  1.00  0.00     0.679 A 
HETATM    2  N2  UNL     1      -4.184   4.386  10.744  1.00  0.00    -0.200 N 
ATOM      3  H2  UNL     1      -4.079   4.629   9.760  1.00  0.00     0.183 HD
HETATM    4  C12 UNL     1      -4.119   3.097  11.115  1.00  0.00     0.133 A 
HETATM    5  C13 UNL     1      -4.260   2.732  12.459  1.00  0.00     0.094 A 
HETATM    6 CL1  UNL     1      -4.165   1.031  12.884  1.00  0.00    -0.079 Cl
HETATM    7  C14 UNL     1      -4.465   3.733  13.371  1.00  0.00     0.140 A 
HETATM    8  N3  UNL     1      -4.603   3.517  14.598  1.00  0.00    -0.372 N 
ATOM      9  H3  UNL     1      -4.747   4.364  15.149  1.00  0.00     0.161 HD
HETATM   10  N4  UNL     1      -4.522   5.038  12.928  1.00  0.00    -0.175 N 
ATOM     11  H4  UNL     1      -4.674   5.782  13.610  1.00  0.00     0.186 HD
ENDROOT
BRANCH   1  12
HETATM   12  N1  UNL     1      -4.452   6.613  11.304  1.00  0.00    -0.226 N 
ATOM     13  H1  UNL     1      -4.853   6.860  10.399  1.00  0.00     0.177 HD
BRANCH  12  14
HETATM   14  C10 UNL     1      -3.970   7.667  12.176  1.00  0.00     0.142 C 
BRANCH  14  15
HETATM   15  C9  UNL     1      -4.679   8.973  11.841  1.00  0.00     0.004 C 
HETATM   16  C8  UNL     1      -6.129   8.696  11.630  1.00  0.00     0.007 C 
HETATM   17  C7  UNL     1      -6.841   9.957  11.229  1.00  0.00     0.017 C 
HETATM   18  C6  UNL     1      -6.265  10.565   9.995  1.00  0.00     0.065 C 
HETATM   19  C18 UNL     1      -4.947  10.017   9.577  1.00  0.00     0.017 C 
HETATM   20  C17 UNL     1      -4.023   9.711  10.730  1.00  0.00     0.007 C 
BRANCH  18  21
HETATM   21  C5  UNL     1      -6.186  12.043  10.095  1.00  0.00    -0.101 C 
HETATM   22  C4  UNL     1      -6.106  13.244  10.163  1.00  0.00    -0.102 C 
BRANCH  22  23
HETATM   23  C2  UNL     1      -5.987  14.704  10.231  1.00  0.00     0.057 C 
HETATM   24  C1  UNL     1      -5.023  15.085  11.305  1.00  0.00     0.023 C 
HETATM   25  C3  UNL     1      -7.387  15.239  10.486  1.00  0.00     0.023 C 
ENDBRANCH  22  23
ENDBRANCH  18  21
ENDBRANCH  14  15
ENDBRANCH  12  14
ENDBRANCH   1  12
BRANCH   8  26
HETATM   26  C15 UNL     1      -4.597   2.333  15.367  1.00  0.00     0.147 C 
BRANCH  26  27
HETATM   27  C16 UNL     1      -5.472   2.576  16.614  1.00  0.00     0.183 C 
BRANCH  27  28
HETATM   28  O1  UNL     1      -5.920   1.350  17.105  1.00  0.00    -0.399 OA
ATOM     29  H1  UNL     1      -6.607   1.502  17.744  1.00  0.00     0.209 HD
ENDBRANCH  27  28
ENDBRANCH  26  27
ENDBRANCH   8  26
TORSDOF 8
ENDMDL
MODEL 3
REMARK VINA RESULT: -6.825373253      6.021      8.356
REMARK  8 active torsions:
REMARK  status: ('A' for Active; 'I' for Inactive)
REMARK    1  A    between atoms: C2_2  and  C4_4 
REMARK    2  A    between atoms: C5_5  and  C6_6 
REMARK    3  A    between atoms: C9_9  and  C10_10 
REMARK    4  A    between atoms: C10_10  and  N1_11 
REMARK    5  A    between atoms: N1_11  and  C11_13 
REMARK    6  A    between atoms: N3_20  and  C15_22 
REMARK    7  A    between atoms: C15_22  and  C16_23 
REMARK    8  A    between atoms: C16_23  and  O1_24 
ROOT
HETATM    1  C11 UNL     1      -1.246   6.968  12.384  1.00  0.00     0.679 A 
HETATM    2  N2  UNL     1      -0.764   7.477  11.236  1.00  0.00    -0.200 N 
ATOM      3  H2  UNL     1      -0.572   8.476  11.174  1.00  0.00     0.183 HD
HETATM    4  C12 UNL     1      -0.530   6.694  10.171  1.00  0.00     0.133 A 
HETATM    5  C13 UNL     1      -0.783   5.318  10.227  1.00  0.00     0.094 A 
HETATM    6 CL1  UNL     1      -0.458   4.345   8.802  1.00  0.00    -0.079 Cl
HETATM    7  C14 UNL     1      -1.274   4.809  11.399  1.00  0.00     0.140 A 
HETATM    8  N3  UNL     1      -1.534   3.593  11.557  1.00  0.00    -0.372 N 
ATOM      9  H3  UNL     1      -1.891   3.367  12.486  1.00  0.00     0.161 HD
HETATM   10  N4  UNL     1      -1.493   5.665  12.459  1.00  0.00    -0.175 N 
ATOM     11  H4  UNL     1      -1.857   5.283  13.332  1.00  0.00     0.186 HD
ENDROOT
BRANCH   1  12
HETATM   12  N1  UNL     1      -1.477   7.713  13.423  1.00  0.00    -0.226 N 
ATOM     13  H1  UNL     1      -0.713   7.925  14.064  1.00  0.00     0.177 HD
BRANCH  12  14
HETATM   14  C10 UNL     1      -2.797   8.252  13.694  1.00  0.00     0.142 C 
BRANCH  14  15
HETATM   15  C9  UNL     1      -3.698   7.150  14.236  1.00  0.00     0.004 C 
HETATM   16  C8  UNL     1      -4.548   6.631  13.125  1.00  0.00     0.007 C 
HETATM   17  C7  UNL     1      -5.499   5.590  13.648  1.00  0.00     0.017 C 
HETATM   18  C6  UNL     1      -6.369   6.114  14.739  1.00  0.00     0.065 C 
HETATM   19  C18 UNL     1      -5.948   7.421  15.311  1.00  0.00     0.017 C 
HETATM   20  C17 UNL     1      -4.453   7.572  15.446  1.00  0.00     0.007 C 
BRANCH  18  21
HETATM   21  C5  UNL     1      -6.544   5.122  15.827  1.00  0.00    -0.101 C 
HETATM   22  C4  UNL     1      -6.668   4.322  16.720  1.00  0.00    -0.102 C 
BRANCH  22  23
HETATM   23  C2  UNL     1      -6.794   3.352  17.813  1.00  0.00     0.057 C 
HETATM   24  C1  UNL     1      -6.262   3.941  19.078  1.00  0.00     0.023 C 
HETATM   25  C3  UNL     1      -6.028   2.112  17.380  1.00  0.00     0.023 C 
ENDBRANCH  22  23
ENDBRANCH  18  21
ENDBRANCH  14  15
ENDBRANCH  12  14
ENDBRANCH   1  12
BRANCH   8  26
HETATM   26  C15 UNL     1      -1.429   2.474  10.702  1.00  0.00     0.147 C 
BRANCH  26  27
HETATM   27  C16 UNL     1      -2.678   1.597  10.918  1.00  0.00     0.183 C 
BRANCH  27  28
HETATM   28  O1  UNL     1      -3.309   1.386   9.692  1.00  0.00    -0.399 OA
ATOM     29  H1  UNL     1      -4.229   1.204   9.841  1.00  0.00     0.209 HD
ENDBRANCH  27  28
ENDBRANCH  26  27
ENDBRANCH   8  26
TORSDOF 8
ENDMDL
MODEL 4
REMARK VINA RESULT: -6.779187359      4.050      6.171
REMARK  8 active torsions:
REMARK  status: ('A' for Active; 'I' for Inactive)
REMARK    1  A    between atoms: C2_2  and  C4_4 
REMARK    2  A    between atoms: C5_5  and  C6_6 
REMARK    3  A    between atoms: C9_9  and  C10_10 
REMARK    4  A    between atoms: C10_10  and  N1_11 
REMARK    5  A    between atoms: N1_11  and  C11_13 
REMARK    6  A    between atoms: N3_20  and  C15_22 
REMARK    7  A    between atoms: C15_22  and  C16_23 
REMARK    8  A    between atoms: C16_23  and  O1_24 
ROOT
HETATM    1  C11 UNL     1      -4.533   3.721  13.822  1.00  0.00     0.679 A 
HETATM    2  N2  UNL     1      -5.011   4.404  12.767  1.00  0.00    -0.200 N 
ATOM      3  H2  UNL     1      -5.276   5.382  12.882  1.00  0.00     0.183 HD
HETATM    4  C12 UNL     1      -5.145   3.823  11.564  1.00  0.00     0.133 A 
HETATM    5  C13 UNL     1      -4.789   2.482  11.374  1.00  0.00     0.094 A 
HETATM    6 CL1  UNL     1      -4.987   1.777   9.778  1.00  0.00    -0.079 Cl
HETATM    7  C14 UNL     1      -4.303   1.795  12.454  1.00  0.00     0.140 A 
HETATM    8  N3  UNL     1      -3.954   0.593  12.394  1.00  0.00    -0.372 N 
ATOM      9  H3  UNL     1      -3.613   0.220  13.281  1.00  0.00     0.161 HD
HETATM   10  N4  UNL     1      -4.188   2.448  13.664  1.00  0.00    -0.175 N 
ATOM     11  H4  UNL     1      -3.825   1.933  14.467  1.00  0.00     0.186 HD
ENDROOT
BRANCH   1  12
HETATM   12  N1  UNL     1      -4.398   4.269  14.992  1.00  0.00    -0.226 N 
ATOM     13  H1  UNL     1      -5.067   4.044  15.727  1.00  0.00     0.177 HD
BRANCH  12  14
HETATM   14  C10 UNL     1      -3.317   5.194  15.277  1.00  0.00     0.142 C 
BRANCH  14  15
HETATM   15  C9  UNL     1      -3.259   6.264  14.195  1.00  0.00     0.004 C 
HETATM   16  C8  UNL     1      -1.853   6.387  13.712  1.00  0.00     0.007 C 
HETATM   17  C7  UNL     1      -1.754   7.486  12.691  1.00  0.00     0.017 C 
HETATM   18  C6  UNL     1      -2.214   8.800  13.227  1.00  0.00     0.065 C 
HETATM   19  C18 UNL     1      -2.953   8.732  14.515  1.00  0.00     0.017 C 
HETATM   20  C17 UNL     1      -3.879   7.546  14.624  1.00  0.00     0.007 C 
BRANCH  18  21
HETATM   21  C5  UNL     1      -3.010   9.552  12.228  1.00  0.00    -0.101 C 
HETATM   22  C4  UNL     1      -3.665  10.146  11.408  1.00  0.00    -0.102 C 
BRANCH  22  23
HETATM   23  C2  UNL     1      -4.465  10.846  10.397  1.00  0.00     0.057 C 
HETATM   24  C1  UNL     1      -4.196  12.314  10.465  1.00  0.00     0.023 C 
HETATM   25  C3  UNL     1      -5.918  10.504  10.686  1.00  0.00     0.023 C 
ENDBRANCH  22  23
ENDBRANCH  18  21
ENDBRANCH  14  15
ENDBRANCH  12  14
ENDBRANCH   1  12
BRANCH   8  26
HETATM   26  C15 UNL     1      -3.941  -0.348  11.341  1.00  0.00     0.147 C 
BRANCH  26  27
HETATM   27  C16 UNL     1      -2.646  -1.175  11.463  1.00  0.00     0.183 C 
BRANCH  27  28
HETATM   28  O1  UNL     1      -2.961  -2.532  11.402  1.00  0.00    -0.399 OA
ATOM     29  H1  UNL     1      -2.350  -3.019  11.943  1.00  0.00     0.209 HD
ENDBRANCH  27  28
ENDBRANCH  26  27
ENDBRANCH   8  26
TORSDOF 8
ENDMDL
MODEL 5
REMARK VINA RESULT: -6.752872507      2.031      2.730
REMARK  8 active torsions:
REMARK  status: ('A' for Active; 'I' for Inactive)
REMARK    1  A    between atoms: C2_2  and  C4_4 
REMARK    2  A    between atoms: C5_5  and  C6_6 
REMARK    3  A    between atoms: C9_9  and  C10_10 
REMARK    4  A    between atoms: C10_10  and  N1_11 
REMARK    5  A    between atoms: N1_11  and  C11_13 
REMARK    6  A    between atoms: N3_20  and  C15_22 
REMARK    7  A    between atoms: C15_22  and  C16_23 
REMARK    8  A    between atoms: C16_23  and  O1_24 
ROOT
HETATM    1  C11 UNL     1      -3.525   6.415  11.366  1.00  0.00     0.679 A 
HETATM    2  N2  UNL     1      -3.213   5.351  10.606  1.00  0.00    -0.200 N 
ATOM      3  H2  UNL     1      -2.800   5.498   9.685  1.00  0.00     0.183 HD
HETATM    4  C12 UNL     1      -3.433   4.099  11.036  1.00  0.00     0.133 A 
HETATM    5  C13 UNL     1      -3.997   3.865  12.296  1.00  0.00     0.094 A 
HETATM    6 CL1  UNL     1      -4.262   2.206  12.805  1.00  0.00    -0.079 Cl
HETATM    7  C14 UNL     1      -4.312   4.955  13.063  1.00  0.00     0.140 A 
HETATM    8  N3  UNL     1      -4.820   4.859  14.205  1.00  0.00    -0.372 N 
ATOM      9  H3  UNL     1      -4.997   5.760  14.652  1.00  0.00     0.161 HD
HETATM   10  N4  UNL     1      -4.061   6.217  12.565  1.00  0.00    -0.175 N 
ATOM     11  H4  UNL     1      -4.296   7.028  13.139  1.00  0.00     0.186 HD
ENDROOT
BRANCH   1  12
HETATM   12  N1  UNL     1      -3.318   7.633  10.963  1.00  0.00    -0.226 N 
ATOM     13  H1  UNL     1      -2.803   7.790  10.097  1.00  0.00     0.177 HD
BRANCH  12  14
HETATM   14  C10 UNL     1      -3.800   8.776  11.716  1.00  0.00     0.142 C 
BRANCH  14  15
HETATM   15  C9  UNL     1      -4.991   9.396  10.998  1.00  0.00     0.004 C 
HETATM   16  C8  UNL     1      -6.246   8.965  11.680  1.00  0.00     0.007 C 
HETATM   17  C7  UNL     1      -7.442   9.507  10.948  1.00  0.00     0.017 C 
HETATM   18  C6  UNL     1      -7.477   9.075   9.521  1.00  0.00     0.065 C 
HETATM   19  C18 UNL     1      -6.215   8.474   9.012  1.00  0.00     0.017 C 
HETATM   20  C17 UNL     1      -4.968   9.146   9.532  1.00  0.00     0.007 C 
BRANCH  18  21
HETATM   21  C5  UNL     1      -7.907  10.174   8.624  1.00  0.00    -0.101 C 
HETATM   22  C4  UNL     1      -8.278  11.064   7.900  1.00  0.00    -0.102 C 
BRANCH  22  23
HETATM   23  C2  UNL     1      -8.753  12.141   7.024  1.00  0.00     0.057 C 
HETATM   24  C1  UNL     1      -9.023  13.369   7.829  1.00  0.00     0.023 C 
HETATM   25  C3  UNL     1      -9.997  11.612   6.328  1.00  0.00     0.023 C 
ENDBRANCH  22  23
ENDBRANCH  18  21
ENDBRANCH  14  15
ENDBRANCH  12  14
ENDBRANCH   1  12
BRANCH   8  26
HETATM   26  C15 UNL     1      -5.196   3.751  14.994  1.00  0.00     0.147 C 
BRANCH  26  27
HETATM   27  C16 UNL     1      -4.277   3.718  16.231  1.00  0.00     0.183 C 
BRANCH  27  28
HETATM   28  O1  UNL     1      -3.642   2.478  16.298  1.00  0.00    -0.399 OA
ATOM     29  H1  UNL     1      -3.032   2.400  15.575  1.00  0.00     0.209 HD
ENDBRANCH  27  28
ENDBRANCH  26  27
ENDBRANCH   8  26
TORSDOF 8
ENDMDL
