MODEL 1
REMARK VINA RESULT: -8.906731076      0.000      0.000
REMARK  6 active torsions:
REMARK  status: ('A' for Active; 'I' for Inactive)
REMARK    1  A    between atoms: C17_17  and  S1_18 
REMARK    2  A    between atoms: S1_18  and  N1_21 
REMARK    3  A    between atoms: N1_21  and  O3_22 
REMARK    4  A    between atoms: N1_21  and  C18_24 
REMARK    5  A    between atoms: C18_24  and  C19_25 
REMARK    6  A    between atoms: C22_29  and  O5_30 
ROOT
HETATM    1  C1  UNL     1       5.828  41.979  21.854  1.00  0.00     0.046 C 
HETATM    2  C2  UNL     1       4.306  42.013  22.085  1.00  0.00     0.062 C 
HETATM    3  C3  UNL     1       4.170  42.487  23.547  1.00  0.00     0.042 C 
HETATM    4  C4  UNL     1       2.708  42.534  23.913  1.00  0.00     0.038 C 
HETATM    5  C5  UNL     1       1.793  42.881  22.783  1.00  0.00    -0.068 C 
HETATM    6  C6  UNL     1       0.914  41.770  22.329  1.00  0.00    -0.067 C 
HETATM    7  C7  UNL     1      -0.231  42.323  21.485  1.00  0.00     0.035 C 
HETATM    8  C8  UNL     1      -0.533  43.776  21.737  1.00  0.00     0.009 C 
HETATM    9  C9  UNL     1       0.483  44.734  21.233  1.00  0.00    -0.013 C 
HETATM   10  C10 UNL     1       1.164  45.578  22.274  1.00  0.00     0.005 C 
HETATM   11  C11 UNL     1       2.630  45.118  22.338  1.00  0.00     0.014 C 
HETATM   12  C12 UNL     1       2.485  43.693  21.754  1.00  0.00    -0.014 C 
HETATM   13  C13 UNL     1       1.657  44.078  20.565  1.00  0.00     0.019 C 
HETATM   14  C14 UNL     1       3.788  43.147  21.267  1.00  0.00     0.052 C 
HETATM   15  C15 UNL     1       1.437  40.531  21.799  1.00  0.00     0.078 C 
HETATM   16  C16 UNL     1       1.377  39.359  22.803  1.00  0.00     0.036 C 
HETATM   17  C17 UNL     1       1.689  38.253  21.758  1.00  0.00     0.138 C 
HETATM   18  C21 UNL     1       2.944  38.842  21.201  1.00  0.00     0.091 C 
HETATM   19  C22 UNL     1       2.798  40.379  21.261  1.00  0.00     0.171 C 
HETATM   20  O6  UNL     1       3.818  40.816  21.997  1.00  0.00    -0.344 OA
ENDROOT
BRANCH  17  21
HETATM   21  S1  UNL     1       1.860  36.704  22.526  1.00  0.00     0.258 S 
HETATM   22  O1  UNL     1       2.699  35.818  21.605  1.00  0.00    -0.203 OA
HETATM   23  O2  UNL     1       2.732  36.844  23.774  1.00  0.00    -0.203 OA
BRANCH  21  24
HETATM   24  N1  UNL     1       0.418  35.929  22.843  1.00  0.00    -0.161 N 
BRANCH  24  25
HETATM   25  O3  UNL     1      -0.357  36.422  23.780  1.00  0.00    -0.274 OA
ATOM     26  H3  UNL     1      -1.269  36.154  23.796  1.00  0.00     0.246 HD
ENDBRANCH  24  25
BRANCH  24  27
HETATM   27  C18 UNL     1       0.162  34.652  22.354  1.00  0.00     0.142 C 
BRANCH  27  28
HETATM   28  C19 UNL     1       0.099  33.492  23.265  1.00  0.00     0.187 A 
HETATM   29  C20 UNL     1      -1.111  32.902  23.812  1.00  0.00     0.206 A 
HETATM   30  O4  UNL     1      -0.132  33.562  24.612  1.00  0.00    -0.376 OA
ENDBRANCH  27  28
ENDBRANCH  24  27
ENDBRANCH  21  24
ENDBRANCH  17  21
BRANCH  19  31
HETATM   31  O5  UNL     1       2.886  40.732  19.888  1.00  0.00    -0.365 OA
ATOM     32  H5  UNL     1       3.783  40.766  19.577  1.00  0.00     0.213 HD
ENDBRANCH  19  31
TORSDOF 6
ENDMDL
MODEL 2
REMARK VINA RESULT: -8.677559496      0.923      1.218
REMARK  6 active torsions:
REMARK  status: ('A' for Active; 'I' for Inactive)
REMARK    1  A    between atoms: C17_17  and  S1_18 
REMARK    2  A    between atoms: S1_18  and  N1_21 
REMARK    3  A    between atoms: N1_21  and  O3_22 
REMARK    4  A    between atoms: N1_21  and  C18_24 
REMARK    5  A    between atoms: C18_24  and  C19_25 
REMARK    6  A    between atoms: C22_29  and  O5_30 
ROOT
HETATM    1  C1  UNL     1       5.702  41.241  21.953  1.00  0.00     0.046 C 
HETATM    2  C2  UNL     1       4.197  41.531  22.110  1.00  0.00     0.062 C 
HETATM    3  C3  UNL     1       4.057  41.936  23.592  1.00  0.00     0.042 C 
HETATM    4  C4  UNL     1       2.606  42.219  23.887  1.00  0.00     0.038 C 
HETATM    5  C5  UNL     1       1.834  42.787  22.739  1.00  0.00    -0.068 C 
HETATM    6  C6  UNL     1       0.806  41.877  22.168  1.00  0.00    -0.067 C 
HETATM    7  C7  UNL     1      -0.173  42.672  21.308  1.00  0.00     0.035 C 
HETATM    8  C8  UNL     1      -0.232  44.138  21.642  1.00  0.00     0.009 C 
HETATM    9  C9  UNL     1       0.962  44.929  21.255  1.00  0.00    -0.013 C 
HETATM   10  C10 UNL     1       1.715  45.578  22.384  1.00  0.00     0.005 C 
HETATM   11  C11 UNL     1       3.073  44.863  22.489  1.00  0.00     0.014 C 
HETATM   12  C12 UNL     1       2.719  43.522  21.803  1.00  0.00    -0.014 C 
HETATM   13  C13 UNL     1       2.043  44.116  20.604  1.00  0.00     0.019 C 
HETATM   14  C14 UNL     1       3.935  42.784  21.346  1.00  0.00     0.052 C 
HETATM   15  C15 UNL     1       1.138  40.598  21.581  1.00  0.00     0.078 C 
HETATM   16  C16 UNL     1       0.815  39.400  22.500  1.00  0.00     0.036 C 
HETATM   17  C17 UNL     1       0.993  38.318  21.399  1.00  0.00     0.138 C 
HETATM   18  C21 UNL     1       2.362  38.708  20.946  1.00  0.00     0.091 C 
HETATM   19  C22 UNL     1       2.482  40.240  21.103  1.00  0.00     0.171 C 
HETATM   20  O6  UNL     1       3.515  40.446  21.917  1.00  0.00    -0.344 OA
ENDROOT
BRANCH  17  21
HETATM   21  S1  UNL     1       0.846  36.721  22.068  1.00  0.00     0.258 S 
HETATM   22  O1  UNL     1       2.189  36.355  22.698  1.00  0.00    -0.203 OA
HETATM   23  O2  UNL     1      -0.110  36.751  23.260  1.00  0.00    -0.203 OA
BRANCH  21  24
HETATM   24  N1  UNL     1       0.440  35.544  20.958  1.00  0.00    -0.161 N 
BRANCH  24  25
HETATM   25  O3  UNL     1       0.762  35.740  19.700  1.00  0.00    -0.274 OA
ATOM     26  H3  UNL     1       1.561  36.218  19.511  1.00  0.00     0.246 HD
ENDBRANCH  24  25
BRANCH  24  27
HETATM   27  C18 UNL     1      -0.457  34.530  21.277  1.00  0.00     0.142 C 
BRANCH  27  28
HETATM   28  C19 UNL     1      -0.026  33.365  22.077  1.00  0.00     0.187 A 
HETATM   29  C20 UNL     1      -0.616  32.926  23.330  1.00  0.00     0.206 A 
HETATM   30  O4  UNL     1       0.714  33.430  23.226  1.00  0.00    -0.376 OA
ENDBRANCH  27  28
ENDBRANCH  24  27
ENDBRANCH  21  24
ENDBRANCH  17  21
BRANCH  19  31
HETATM   31  O5  UNL     1       2.714  40.651  19.764  1.00  0.00    -0.365 OA
ATOM     32  H5  UNL     1       2.637  39.936  19.143  1.00  0.00     0.213 HD
ENDBRANCH  19  31
TORSDOF 6
ENDMDL
MODEL 3
REMARK VINA RESULT: -8.441879760      1.518      2.105
REMARK  6 active torsions:
REMARK  status: ('A' for Active; 'I' for Inactive)
REMARK    1  A    between atoms: C17_17  and  S1_18 
REMARK    2  A    between atoms: S1_18  and  N1_21 
REMARK    3  A    between atoms: N1_21  and  O3_22 
REMARK    4  A    between atoms: N1_21  and  C18_24 
REMARK    5  A    between atoms: C18_24  and  C19_25 
REMARK    6  A    between atoms: C22_29  and  O5_30 
ROOT
HETATM    1  C1  UNL     1       5.899  41.379  21.901  1.00  0.00     0.046 C 
HETATM    2  C2  UNL     1       4.378  41.573  22.047  1.00  0.00     0.062 C 
HETATM    3  C3  UNL     1       4.202  41.974  23.526  1.00  0.00     0.042 C 
HETATM    4  C4  UNL     1       2.734  42.166  23.811  1.00  0.00     0.038 C 
HETATM    5  C5  UNL     1       1.936  42.679  22.655  1.00  0.00    -0.068 C 
HETATM    6  C6  UNL     1       0.971  41.704  22.082  1.00  0.00    -0.067 C 
HETATM    7  C7  UNL     1      -0.051  42.431  21.211  1.00  0.00     0.035 C 
HETATM    8  C8  UNL     1      -0.205  43.892  21.540  1.00  0.00     0.009 C 
HETATM    9  C9  UNL     1       0.939  44.756  21.157  1.00  0.00    -0.013 C 
HETATM   10  C10 UNL     1       1.641  45.456  22.288  1.00  0.00     0.005 C 
HETATM   11  C11 UNL     1       3.041  44.829  22.405  1.00  0.00     0.014 C 
HETATM   12  C12 UNL     1       2.778  43.465  21.722  1.00  0.00    -0.014 C 
HETATM   13  C13 UNL     1       2.074  44.010  20.516  1.00  0.00     0.019 C 
HETATM   14  C14 UNL     1       4.041  42.804  21.276  1.00  0.00     0.052 C 
HETATM   15  C15 UNL     1       1.387  40.446  21.503  1.00  0.00     0.078 C 
HETATM   16  C16 UNL     1       1.135  39.233  22.424  1.00  0.00     0.036 C 
HETATM   17  C17 UNL     1       1.389  38.161  21.329  1.00  0.00     0.138 C 
HETATM   18  C21 UNL     1       2.734  38.634  20.883  1.00  0.00     0.091 C 
HETATM   19  C22 UNL     1       2.754  40.172  21.034  1.00  0.00     0.171 C 
HETATM   20  O6  UNL     1       3.767  40.447  21.854  1.00  0.00    -0.344 OA
ENDROOT
BRANCH  17  21
HETATM   21  S1  UNL     1       1.339  36.560  22.003  1.00  0.00     0.258 S 
HETATM   22  O1  UNL     1       0.323  35.748  21.201  1.00  0.00    -0.203 OA
HETATM   23  O2  UNL     1       2.663  35.846  21.725  1.00  0.00    -0.203 OA
BRANCH  21  24
HETATM   24  N1  UNL     1       0.915  36.504  23.615  1.00  0.00    -0.161 N 
BRANCH  24  25
HETATM   25  O3  UNL     1      -0.330  36.768  23.938  1.00  0.00    -0.274 OA
ATOM     26  H3  UNL     1      -0.846  36.078  24.338  1.00  0.00     0.246 HD
ENDBRANCH  24  25
BRANCH  24  27
HETATM   27  C18 UNL     1       1.881  36.468  24.615  1.00  0.00     0.142 C 
BRANCH  27  28
HETATM   28  C19 UNL     1       1.847  37.431  25.733  1.00  0.00     0.187 A 
HETATM   29  C20 UNL     1       2.578  38.685  25.802  1.00  0.00     0.206 A 
HETATM   30  O4  UNL     1       2.833  37.583  26.671  1.00  0.00    -0.376 OA
ENDBRANCH  27  28
ENDBRANCH  24  27
ENDBRANCH  21  24
ENDBRANCH  17  21
BRANCH  19  31
HETATM   31  O5  UNL     1       2.969  40.591  19.695  1.00  0.00    -0.365 OA
ATOM     32  H5  UNL     1       3.855  40.426  19.397  1.00  0.00     0.213 HD
ENDBRANCH  19  31
TORSDOF 6
ENDMDL
MODEL 4
REMARK VINA RESULT: -8.356150691      2.215      3.855
REMARK  6 active torsions:
REMARK  status: ('A' for Active; 'I' for Inactive)
REMARK    1  A    between atoms: C17_17  and  S1_18 
REMARK    2  A    between atoms: S1_18  and  N1_21 
REMARK    3  A    between atoms: N1_21  and  O3_22 
REMARK    4  A    between atoms: N1_21  and  C18_24 
REMARK    5  A    between atoms: C18_24  and  C19_25 
REMARK    6  A    between atoms: C22_29  and  O5_30 
ROOT
HETATM    1  C1  UNL     1      -0.325  39.370  21.780  1.00  0.00     0.046 C 
HETATM    2  C2  UNL     1       1.161  39.729  21.965  1.00  0.00     0.062 C 
HETATM    3  C3  UNL     1       1.783  39.430  20.586  1.00  0.00     0.042 C 
HETATM    4  C4  UNL     1       3.262  39.714  20.643  1.00  0.00     0.038 C 
HETATM    5  C5  UNL     1       3.649  40.827  21.564  1.00  0.00    -0.068 C 
HETATM    6  C6  UNL     1       4.404  40.402  22.772  1.00  0.00    -0.067 C 
HETATM    7  C7  UNL     1       5.088  41.609  23.410  1.00  0.00     0.035 C 
HETATM    8  C8  UNL     1       5.310  42.758  22.464  1.00  0.00     0.009 C 
HETATM    9  C9  UNL     1       4.087  43.494  22.058  1.00  0.00    -0.013 C 
HETATM   10  C10 UNL     1       3.761  43.467  20.590  1.00  0.00     0.005 C 
HETATM   11  C11 UNL     1       2.480  42.630  20.429  1.00  0.00     0.014 C 
HETATM   12  C12 UNL     1       2.542  41.799  21.733  1.00  0.00    -0.014 C 
HETATM   13  C13 UNL     1       2.823  42.947  22.655  1.00  0.00     0.019 C 
HETATM   14  C14 UNL     1       1.215  41.214  22.093  1.00  0.00     0.052 C 
HETATM   15  C15 UNL     1       3.852  39.501  23.759  1.00  0.00     0.078 C 
HETATM   16  C16 UNL     1       4.402  38.062  23.652  1.00  0.00     0.036 C 
HETATM   17  C17 UNL     1       3.839  37.587  25.020  1.00  0.00     0.138 C 
HETATM   18  C21 UNL     1       2.414  37.978  24.804  1.00  0.00     0.091 C 
HETATM   19  C22 UNL     1       2.412  39.246  23.921  1.00  0.00     0.171 C 
HETATM   20  O6  UNL     1       1.701  38.939  22.838  1.00  0.00    -0.344 OA
ENDROOT
BRANCH  17  21
HETATM   21  S1  UNL     1       4.128  35.890  25.255  1.00  0.00     0.258 S 
HETATM   22  O1  UNL     1       5.455  35.545  24.582  1.00  0.00    -0.203 OA
HETATM   23  O2  UNL     1       4.398  35.617  26.735  1.00  0.00    -0.203 OA
BRANCH  21  24
HETATM   24  N1  UNL     1       2.940  34.896  24.633  1.00  0.00    -0.161 N 
BRANCH  24  25
HETATM   25  O3  UNL     1       2.431  33.974  25.416  1.00  0.00    -0.274 OA
ATOM     26  H3  UNL     1       3.025  33.456  25.946  1.00  0.00     0.246 HD
ENDBRANCH  24  25
BRANCH  24  27
HETATM   27  C18 UNL     1       2.693  34.837  23.266  1.00  0.00     0.142 C 
BRANCH  27  28
HETATM   28  C19 UNL     1       1.320  34.653  22.754  1.00  0.00     0.187 A 
HETATM   29  C20 UNL     1       0.440  35.705  22.275  1.00  0.00     0.206 A 
HETATM   30  O4  UNL     1       0.176  34.939  23.449  1.00  0.00    -0.376 OA
ENDBRANCH  27  28
ENDBRANCH  24  27
ENDBRANCH  21  24
ENDBRANCH  17  21
BRANCH  19  31
HETATM   31  O5  UNL     1       1.781  40.191  24.773  1.00  0.00    -0.365 OA
ATOM     32  H5  UNL     1       2.360  40.514  25.454  1.00  0.00     0.213 HD
ENDBRANCH  19  31
TORSDOF 6
ENDMDL
MODEL 5
REMARK VINA RESULT: -8.348992219      1.769      2.223
REMARK  6 active torsions:
REMARK  status: ('A' for Active; 'I' for Inactive)
REMARK    1  A    between atoms: C17_17  and  S1_18 
REMARK    2  A    between atoms: S1_18  and  N1_21 
REMARK    3  A    between atoms: N1_21  and  O3_22 
REMARK    4  A    between atoms: N1_21  and  C18_24 
REMARK    5  A    between atoms: C18_24  and  C19_25 
REMARK    6  A    between atoms: C22_29  and  O5_30 
ROOT
HETATM    1  C1  UNL     1       5.688  41.287  21.869  1.00  0.00     0.046 C 
HETATM    2  C2  UNL     1       4.183  41.558  22.060  1.00  0.00     0.062 C 
HETATM    3  C3  UNL     1       4.085  42.057  23.516  1.00  0.00     0.042 C 
HETATM    4  C4  UNL     1       2.639  42.332  23.843  1.00  0.00     0.038 C 
HETATM    5  C5  UNL     1       1.818  42.808  22.689  1.00  0.00    -0.068 C 
HETATM    6  C6  UNL     1       0.790  41.844  22.215  1.00  0.00    -0.067 C 
HETATM    7  C7  UNL     1      -0.234  42.562  21.340  1.00  0.00     0.035 C 
HETATM    8  C8  UNL     1      -0.314  44.046  21.581  1.00  0.00     0.009 C 
HETATM    9  C9  UNL     1       0.850  44.832  21.101  1.00  0.00    -0.013 C 
HETATM   10  C10 UNL     1       1.627  45.568  22.158  1.00  0.00     0.005 C 
HETATM   11  C11 UNL     1       3.003  44.887  22.261  1.00  0.00     0.014 C 
HETATM   12  C12 UNL     1       2.654  43.497  21.676  1.00  0.00    -0.014 C 
HETATM   13  C13 UNL     1       1.925  43.998  20.466  1.00  0.00     0.019 C 
HETATM   14  C14 UNL     1       3.869  42.754  21.225  1.00  0.00     0.052 C 
HETATM   15  C15 UNL     1       1.128  40.536  21.701  1.00  0.00     0.078 C 
HETATM   16  C16 UNL     1       0.862  39.394  22.706  1.00  0.00     0.036 C 
HETATM   17  C17 UNL     1       1.025  38.246  21.672  1.00  0.00     0.138 C 
HETATM   18  C21 UNL     1       2.370  38.631  21.146  1.00  0.00     0.091 C 
HETATM   19  C22 UNL     1       2.462  40.172  21.200  1.00  0.00     0.171 C 
HETATM   20  O6  UNL     1       3.518  40.451  21.961  1.00  0.00    -0.344 OA
ENDROOT
BRANCH  17  21
HETATM   21  S1  UNL     1       0.935  36.694  22.448  1.00  0.00     0.258 S 
HETATM   22  O1  UNL     1      -0.126  36.781  23.543  1.00  0.00    -0.203 OA
HETATM   23  O2  UNL     1       0.356  35.668  21.473  1.00  0.00    -0.203 OA
BRANCH  21  24
HETATM   24  N1  UNL     1       2.367  36.181  23.132  1.00  0.00    -0.161 N 
BRANCH  24  25
HETATM   25  O3  UNL     1       2.779  34.963  22.868  1.00  0.00    -0.274 OA
ATOM     26  H3  UNL     1       3.341  34.532  23.501  1.00  0.00     0.246 HD
ENDBRANCH  24  25
BRANCH  24  27
HETATM   27  C18 UNL     1       2.965  36.889  24.169  1.00  0.00     0.142 C 
BRANCH  27  28
HETATM   28  C19 UNL     1       3.088  36.297  25.516  1.00  0.00     0.187 A 
HETATM   29  C20 UNL     1       4.313  36.181  26.289  1.00  0.00     0.206 A 
HETATM   30  O4  UNL     1       3.596  35.055  25.786  1.00  0.00    -0.376 OA
ENDBRANCH  27  28
ENDBRANCH  24  27
ENDBRANCH  21  24
ENDBRANCH  17  21
BRANCH  19  31
HETATM   31  O5  UNL     1       2.640  40.499  19.829  1.00  0.00    -0.365 OA
ATOM     32  H5  UNL     1       3.011  39.783  19.327  1.00  0.00     0.213 HD
ENDBRANCH  19  31
TORSDOF 6
ENDMDL
