MODEL 1
REMARK VINA RESULT: -6.848337436      0.000      0.000
REMARK  8 active torsions:
REMARK  status: ('A' for Active; 'I' for Inactive)
REMARK    1  A    between atoms: C2_2  and  C3_3 
REMARK    2  A    between atoms: C6_8  and  N2_9 
REMARK    3  A    between atoms: N3_13  and  C8_14 
REMARK    4  A    between atoms: C8_14  and  C9_15 
REMARK    5  A    between atoms: C9_15  and  C10_16 
REMARK    6  A    between atoms: C10_16  and  C11_17 
REMARK    7  A    between atoms: C11_17  and  N4_18 
REMARK    8  A    between atoms: N4_18  and  C12_20 
ROOT
HETATM    1  C8  UNL     1     -27.159 -52.817  19.414  1.00  0.00     0.128 C 
ENDROOT
BRANCH   1   2
HETATM    2  N3  UNL     1     -28.403 -52.187  19.059  1.00  0.00    -0.355 N 
HETATM    3  C3  UNL     1     -29.200 -52.739  18.143  1.00  0.00     0.033 A 
HETATM    4  C4  UNL     1     -30.394 -52.070  17.847  1.00  0.00     0.029 A 
HETATM    5  C5  UNL     1     -31.313 -52.623  16.849  1.00  0.00     0.070 C 
HETATM    6  N1  UNL     1     -30.716 -50.924  18.463  1.00  0.00    -0.344 N 
HETATM    7  C6  UNL     1     -29.908 -50.376  19.383  1.00  0.00     0.114 A 
ATOM      8  H1  UNL     1     -31.593 -50.459  18.227  1.00  0.00     0.167 HD
HETATM    9  C7  UNL     1     -28.736 -51.013  19.688  1.00  0.00     0.139 A 
BRANCH   3  10
HETATM   10  C2  UNL     1     -28.944 -53.978  17.403  1.00  0.00     0.055 C 
HETATM   11  C1  UNL     1     -28.038 -53.815  16.201  1.00  0.00     0.011 C 
ENDBRANCH   3  10
BRANCH   7  12
HETATM   12  N2  UNL     1     -30.218 -49.259  19.987  1.00  0.00    -0.384 N 
ATOM     13  H22 UNL     1     -30.807 -48.572  19.515  1.00  0.00     0.157 HD
ATOM     14  H21 UNL     1     -29.882 -49.050  20.928  1.00  0.00     0.157 HD
ENDBRANCH   7  12
ENDBRANCH   1   2
BRANCH   1  15
HETATM   15  C9  UNL     1     -27.244 -53.335  20.834  1.00  0.00     0.022 C 
BRANCH  15  16
HETATM   16  C10 UNL     1     -27.521 -54.837  20.844  1.00  0.00     0.022 C 
BRANCH  16  17
HETATM   17  C11 UNL     1     -28.792 -55.104  21.647  1.00  0.00     0.138 C 
BRANCH  17  18
HETATM   18  N4  UNL     1     -29.950 -55.158  20.831  1.00  0.00    -0.226 N 
ATOM     19  H4  UNL     1     -29.991 -55.955  20.195  1.00  0.00     0.177 HD
BRANCH  18  20
HETATM   20  C12 UNL     1     -30.939 -54.374  20.765  1.00  0.00     0.677 A 
HETATM   21  N5  UNL     1     -31.916 -54.604  19.871  1.00  0.00    -0.202 N 
HETATM   22  C13 UNL     1     -32.993 -53.817  19.745  1.00  0.00     0.107 A 
ATOM     23  H5  UNL     1     -31.834 -55.416  19.260  1.00  0.00     0.183 HD
HETATM   24  C14 UNL     1     -33.119 -52.709  20.569  1.00  0.00     0.035 A 
HETATM   25  C15 UNL     1     -32.127 -52.469  21.482  1.00  0.00     0.107 A 
HETATM   26  N6  UNL     1     -31.057 -53.311  21.558  1.00  0.00    -0.202 N 
ATOM     27  H6  UNL     1     -30.325 -53.121  22.243  1.00  0.00     0.183 HD
ENDBRANCH  18  20
ENDBRANCH  17  18
ENDBRANCH  16  17
ENDBRANCH  15  16
ENDBRANCH   1  15
TORSDOF 8
ENDMDL
MODEL 2
REMARK VINA RESULT: -6.658760522      1.179      3.437
REMARK  8 active torsions:
REMARK  status: ('A' for Active; 'I' for Inactive)
REMARK    1  A    between atoms: C2_2  and  C3_3 
REMARK    2  A    between atoms: C6_8  and  N2_9 
REMARK    3  A    between atoms: N3_13  and  C8_14 
REMARK    4  A    between atoms: C8_14  and  C9_15 
REMARK    5  A    between atoms: C9_15  and  C10_16 
REMARK    6  A    between atoms: C10_16  and  C11_17 
REMARK    7  A    between atoms: C11_17  and  N4_18 
REMARK    8  A    between atoms: N4_18  and  C12_20 
ROOT
HETATM    1  C8  UNL     1     -31.247 -52.823  17.117  1.00  0.00     0.128 C 
ENDROOT
BRANCH   1   2
HETATM    2  N3  UNL     1     -30.289 -52.242  18.019  1.00  0.00    -0.355 N 
HETATM    3  C3  UNL     1     -29.103 -52.822  18.208  1.00  0.00     0.033 A 
HETATM    4  C4  UNL     1     -28.221 -52.201  19.102  1.00  0.00     0.029 A 
HETATM    5  C5  UNL     1     -26.903 -52.789  19.354  1.00  0.00     0.070 C 
HETATM    6  N1  UNL     1     -28.561 -51.071  19.736  1.00  0.00    -0.344 N 
HETATM    7  C6  UNL     1     -29.756 -50.493  19.539  1.00  0.00     0.114 A 
ATOM      8  H1  UNL     1     -27.898 -50.641  20.380  1.00  0.00     0.167 HD
HETATM    9  C7  UNL     1     -30.634 -51.084  18.671  1.00  0.00     0.139 A 
BRANCH   3  10
HETATM   10  C2  UNL     1     -28.632 -54.060  17.578  1.00  0.00     0.055 C 
HETATM   11  C1  UNL     1     -28.039 -53.874  16.198  1.00  0.00     0.011 C 
ENDBRANCH   3  10
BRANCH   7  12
HETATM   12  N2  UNL     1     -30.092 -49.390  20.155  1.00  0.00    -0.384 N 
ATOM     13  H22 UNL     1     -30.201 -48.525  19.625  1.00  0.00     0.157 HD
ATOM     14  H21 UNL     1     -30.251 -49.369  21.163  1.00  0.00     0.157 HD
ENDBRANCH   7  12
ENDBRANCH   1   2
BRANCH   1  15
HETATM   15  C9  UNL     1     -32.629 -52.738  17.729  1.00  0.00     0.022 C 
BRANCH  15  16
HETATM   16  C10 UNL     1     -32.825 -53.836  18.774  1.00  0.00     0.022 C 
BRANCH  16  17
HETATM   17  C11 UNL     1     -33.383 -53.213  20.052  1.00  0.00     0.138 C 
BRANCH  17  18
HETATM   18  N4  UNL     1     -32.444 -53.218  21.114  1.00  0.00    -0.226 N 
ATOM     19  H4  UNL     1     -32.438 -52.372  21.685  1.00  0.00     0.177 HD
BRANCH  18  20
HETATM   20  C12 UNL     1     -31.615 -54.104  21.467  1.00  0.00     0.677 A 
HETATM   21  N5  UNL     1     -30.309 -53.942  21.195  1.00  0.00    -0.202 N 
HETATM   22  C13 UNL     1     -29.373 -54.839  21.538  1.00  0.00     0.107 A 
ATOM     23  H5  UNL     1     -30.015 -53.098  20.705  1.00  0.00     0.183 HD
HETATM   24  C14 UNL     1     -29.757 -55.992  22.205  1.00  0.00     0.035 A 
HETATM   25  C15 UNL     1     -31.086 -56.163  22.486  1.00  0.00     0.107 A 
HETATM   26  N6  UNL     1     -31.987 -55.210  22.108  1.00  0.00    -0.202 N 
ATOM     27  H6  UNL     1     -32.974 -55.349  22.323  1.00  0.00     0.183 HD
ENDBRANCH  18  20
ENDBRANCH  17  18
ENDBRANCH  16  17
ENDBRANCH  15  16
ENDBRANCH   1  15
TORSDOF 8
ENDMDL
MODEL 3
REMARK VINA RESULT: -5.926415144      1.673      3.706
REMARK  8 active torsions:
REMARK  status: ('A' for Active; 'I' for Inactive)
REMARK    1  A    between atoms: C2_2  and  C3_3 
REMARK    2  A    between atoms: C6_8  and  N2_9 
REMARK    3  A    between atoms: N3_13  and  C8_14 
REMARK    4  A    between atoms: C8_14  and  C9_15 
REMARK    5  A    between atoms: C9_15  and  C10_16 
REMARK    6  A    between atoms: C10_16  and  C11_17 
REMARK    7  A    between atoms: C11_17  and  N4_18 
REMARK    8  A    between atoms: N4_18  and  C12_20 
ROOT
HETATM    1  C8  UNL     1     -31.272 -53.505  18.441  1.00  0.00     0.128 C 
ENDROOT
BRANCH   1   2
HETATM    2  N3  UNL     1     -30.252 -52.607  18.912  1.00  0.00    -0.355 N 
HETATM    3  C3  UNL     1     -29.035 -53.065  19.206  1.00  0.00     0.033 A 
HETATM    4  C4  UNL     1     -28.092 -52.134  19.661  1.00  0.00     0.029 A 
HETATM    5  C5  UNL     1     -26.737 -52.573  20.002  1.00  0.00     0.070 C 
HETATM    6  N1  UNL     1     -28.408 -50.838  19.790  1.00  0.00    -0.344 N 
HETATM    7  C6  UNL     1     -29.635 -50.386  19.492  1.00  0.00     0.114 A 
ATOM      8  H1  UNL     1     -27.701 -50.182  20.123  1.00  0.00     0.167 HD
HETATM    9  C7  UNL     1     -30.572 -51.279  19.046  1.00  0.00     0.139 A 
BRANCH   3  10
HETATM   10  C2  UNL     1     -28.584 -54.457  19.112  1.00  0.00     0.055 C 
HETATM   11  C1  UNL     1     -28.152 -54.884  17.726  1.00  0.00     0.011 C 
ENDBRANCH   3  10
BRANCH   7  12
HETATM   12  N2  UNL     1     -29.948 -49.122  19.616  1.00  0.00    -0.384 N 
ATOM     13  H22 UNL     1     -30.842 -48.859  20.032  1.00  0.00     0.157 HD
ATOM     14  H21 UNL     1     -29.317 -48.383  19.305  1.00  0.00     0.157 HD
ENDBRANCH   7  12
ENDBRANCH   1   2
BRANCH   1  15
HETATM   15  C9  UNL     1     -32.607 -53.107  19.034  1.00  0.00     0.022 C 
BRANCH  15  16
HETATM   16  C10 UNL     1     -32.974 -54.023  20.201  1.00  0.00     0.022 C 
BRANCH  16  17
HETATM   17  C11 UNL     1     -32.040 -53.735  21.374  1.00  0.00     0.138 C 
BRANCH  17  18
HETATM   18  N4  UNL     1     -31.879 -54.854  22.229  1.00  0.00    -0.226 N 
ATOM     19  H4  UNL     1     -32.639 -54.997  22.895  1.00  0.00     0.177 HD
BRANCH  18  20
HETATM   20  C12 UNL     1     -30.944 -55.701  22.298  1.00  0.00     0.677 A 
HETATM   21  N5  UNL     1     -31.230 -57.014  22.294  1.00  0.00    -0.202 N 
HETATM   22  C13 UNL     1     -30.291 -57.968  22.364  1.00  0.00     0.107 A 
ATOM     23  H5  UNL     1     -32.207 -57.298  22.233  1.00  0.00     0.183 HD
HETATM   24  C14 UNL     1     -28.958 -57.597  22.447  1.00  0.00     0.035 A 
HETATM   25  C15 UNL     1     -28.659 -56.261  22.452  1.00  0.00     0.107 A 
HETATM   26  N6  UNL     1     -29.664 -55.341  22.377  1.00  0.00    -0.202 N 
ATOM     27  H6  UNL     1     -29.428 -54.349  22.382  1.00  0.00     0.183 HD
ENDBRANCH  18  20
ENDBRANCH  17  18
ENDBRANCH  16  17
ENDBRANCH  15  16
ENDBRANCH   1  15
TORSDOF 8
ENDMDL
MODEL 4
REMARK VINA RESULT: -5.851427395      2.049      4.735
REMARK  8 active torsions:
REMARK  status: ('A' for Active; 'I' for Inactive)
REMARK    1  A    between atoms: C2_2  and  C3_3 
REMARK    2  A    between atoms: C6_8  and  N2_9 
REMARK    3  A    between atoms: N3_13  and  C8_14 
REMARK    4  A    between atoms: C8_14  and  C9_15 
REMARK    5  A    between atoms: C9_15  and  C10_16 
REMARK    6  A    between atoms: C10_16  and  C11_17 
REMARK    7  A    between atoms: C11_17  and  N4_18 
REMARK    8  A    between atoms: N4_18  and  C12_20 
ROOT
HETATM    1  C8  UNL     1     -29.307 -53.474  18.921  1.00  0.00     0.128 C 
ENDROOT
BRANCH   1   2
HETATM    2  N3  UNL     1     -30.559 -53.733  19.582  1.00  0.00    -0.355 N 
HETATM    3  C3  UNL     1     -31.712 -53.551  18.936  1.00  0.00     0.033 A 
HETATM    4  C4  UNL     1     -32.891 -53.821  19.642  1.00  0.00     0.029 A 
HETATM    5  C5  UNL     1     -34.191 -53.639  18.990  1.00  0.00     0.070 C 
HETATM    6  N1  UNL     1     -32.855 -54.246  20.912  1.00  0.00    -0.344 N 
HETATM    7  C6  UNL     1     -31.690 -54.427  21.554  1.00  0.00     0.114 A 
ATOM      8  H1  UNL     1     -33.730 -54.435  21.401  1.00  0.00     0.167 HD
HETATM    9  C7  UNL     1     -30.526 -54.168  20.883  1.00  0.00     0.139 A 
BRANCH   3  10
HETATM   10  C2  UNL     1     -31.869 -53.082  17.556  1.00  0.00     0.055 C 
HETATM   11  C1  UNL     1     -31.833 -51.577  17.397  1.00  0.00     0.011 C 
ENDBRANCH   3  10
BRANCH   7  12
HETATM   12  N2  UNL     1     -31.650 -54.841  22.793  1.00  0.00    -0.384 N 
ATOM     13  H22 UNL     1     -31.727 -54.169  23.557  1.00  0.00     0.157 HD
ATOM     14  H21 UNL     1     -31.541 -55.829  23.022  1.00  0.00     0.157 HD
ENDBRANCH   7  12
ENDBRANCH   1   2
BRANCH   1  15
HETATM   15  C9  UNL     1     -28.686 -52.219  19.495  1.00  0.00     0.022 C 
BRANCH  15  16
HETATM   16  C10 UNL     1     -27.162 -52.284  19.410  1.00  0.00     0.022 C 
BRANCH  16  17
HETATM   17  C11 UNL     1     -26.609 -52.785  20.743  1.00  0.00     0.138 C 
BRANCH  17  18
HETATM   18  N4  UNL     1     -25.885 -53.996  20.612  1.00  0.00    -0.226 N 
ATOM     19  H4  UNL     1     -24.896 -53.933  20.856  1.00  0.00     0.177 HD
BRANCH  18  20
HETATM   20  C12 UNL     1     -26.269 -55.141  20.241  1.00  0.00     0.677 A 
HETATM   21  N5  UNL     1     -27.282 -55.747  20.882  1.00  0.00    -0.202 N 
HETATM   22  C13 UNL     1     -27.742 -56.960  20.544  1.00  0.00     0.107 A 
ATOM     23  H5  UNL     1     -27.722 -55.261  21.662  1.00  0.00     0.183 HD
HETATM   24  C14 UNL     1     -27.153 -57.633  19.485  1.00  0.00     0.035 A 
HETATM   25  C15 UNL     1     -26.119 -57.022  18.827  1.00  0.00     0.107 A 
HETATM   26  N6  UNL     1     -25.701 -55.785  19.222  1.00  0.00    -0.202 N 
ATOM     27  H6  UNL     1     -24.930 -55.340  18.723  1.00  0.00     0.183 HD
ENDBRANCH  18  20
ENDBRANCH  17  18
ENDBRANCH  16  17
ENDBRANCH  15  16
ENDBRANCH   1  15
TORSDOF 8
ENDMDL
MODEL 5
REMARK VINA RESULT: -5.845176517      2.052      4.701
REMARK  8 active torsions:
REMARK  status: ('A' for Active; 'I' for Inactive)
REMARK    1  A    between atoms: C2_2  and  C3_3 
REMARK    2  A    between atoms: C6_8  and  N2_9 
REMARK    3  A    between atoms: N3_13  and  C8_14 
REMARK    4  A    between atoms: C8_14  and  C9_15 
REMARK    5  A    between atoms: C9_15  and  C10_16 
REMARK    6  A    between atoms: C10_16  and  C11_17 
REMARK    7  A    between atoms: C11_17  and  N4_18 
REMARK    8  A    between atoms: N4_18  and  C12_20 
ROOT
HETATM    1  C8  UNL     1     -29.309 -53.472  18.916  1.00  0.00     0.128 C 
ENDROOT
BRANCH   1   2
HETATM    2  N3  UNL     1     -30.561 -53.729  19.578  1.00  0.00    -0.355 N 
HETATM    3  C3  UNL     1     -31.714 -53.546  18.933  1.00  0.00     0.033 A 
HETATM    4  C4  UNL     1     -32.893 -53.815  19.640  1.00  0.00     0.029 A 
HETATM    5  C5  UNL     1     -34.193 -53.633  18.989  1.00  0.00     0.070 C 
HETATM    6  N1  UNL     1     -32.855 -54.239  20.911  1.00  0.00    -0.344 N 
HETATM    7  C6  UNL     1     -31.691 -54.421  21.551  1.00  0.00     0.114 A 
ATOM      8  H1  UNL     1     -33.730 -54.428  21.401  1.00  0.00     0.167 HD
HETATM    9  C7  UNL     1     -30.526 -54.163  20.879  1.00  0.00     0.139 A 
BRANCH   3  10
HETATM   10  C2  UNL     1     -31.872 -53.078  17.552  1.00  0.00     0.055 C 
HETATM   11  C1  UNL     1     -31.835 -51.574  17.393  1.00  0.00     0.011 C 
ENDBRANCH   3  10
BRANCH   7  12
HETATM   12  N2  UNL     1     -31.649 -54.834  22.791  1.00  0.00    -0.384 N 
ATOM     13  H22 UNL     1     -31.459 -55.817  22.993  1.00  0.00     0.157 HD
ATOM     14  H21 UNL     1     -31.804 -54.196  23.572  1.00  0.00     0.157 HD
ENDBRANCH   7  12
ENDBRANCH   1   2
BRANCH   1  15
HETATM   15  C9  UNL     1     -28.666 -52.240  19.516  1.00  0.00     0.022 C 
BRANCH  15  16
HETATM   16  C10 UNL     1     -27.145 -52.310  19.391  1.00  0.00     0.022 C 
BRANCH  16  17
HETATM   17  C11 UNL     1     -26.556 -52.775  20.720  1.00  0.00     0.138 C 
BRANCH  17  18
HETATM   18  N4  UNL     1     -25.870 -54.011  20.609  1.00  0.00    -0.226 N 
ATOM     19  H4  UNL     1     -24.879 -53.975  20.849  1.00  0.00     0.177 HD
BRANCH  18  20
HETATM   20  C12 UNL     1     -26.291 -55.150  20.259  1.00  0.00     0.677 A 
HETATM   21  N5  UNL     1     -25.728 -55.780  19.215  1.00  0.00    -0.202 N 
HETATM   22  C13 UNL     1     -26.122 -56.988  18.788  1.00  0.00     0.107 A 
ATOM     23  H5  UNL     1     -24.964 -55.317  18.723  1.00  0.00     0.183 HD
HETATM   24  C14 UNL     1     -27.160 -57.630  19.447  1.00  0.00     0.035 A 
HETATM   25  C15 UNL     1     -27.738 -56.994  20.512  1.00  0.00     0.107 A 
HETATM   26  N6  UNL     1     -27.288 -55.764  20.895  1.00  0.00    -0.202 N 
ATOM     27  H6  UNL     1     -27.727 -55.301  21.690  1.00  0.00     0.183 HD
ENDBRANCH  18  20
ENDBRANCH  17  18
ENDBRANCH  16  17
ENDBRANCH  15  16
ENDBRANCH   1  15
TORSDOF 8
ENDMDL
