MODEL 1
REMARK VINA RESULT: -7.912616996      0.000      0.000
REMARK  6 active torsions:
REMARK  status: ('A' for Active; 'I' for Inactive)
REMARK    1  A    between atoms: S1_2  and  N1_4 
REMARK    2  A    between atoms: S1_2  and  C4_13 
REMARK    3  A    between atoms: N1_4  and  C1_6 
REMARK    4  A    between atoms: C7_16  and  N3_17 
REMARK    5  A    between atoms: N3_17  and  C8_19 
REMARK    6  A    between atoms: C8_19  and  C9_20 
ROOT
HETATM    1  C4  UNL     1      90.218  91.026 -48.260  1.00  0.00     0.080 A 
HETATM    2  C5  UNL     1      90.779  90.443 -47.146  1.00  0.00     0.027 A 
HETATM    3  C6  UNL     1      91.109  91.217 -46.027  1.00  0.00     0.030 A 
HETATM    4  C7  UNL     1      90.890  92.572 -45.998  1.00  0.00     0.028 A 
HETATM    5  C17 UNL     1      90.326  93.128 -47.134  1.00  0.00     0.030 A 
HETATM    6  C18 UNL     1      90.001  92.368 -48.232  1.00  0.00     0.027 A 
ENDROOT
BRANCH   1   7
HETATM    7  S1  UNL     1      89.826  90.011 -49.631  1.00  0.00     0.264 S 
HETATM    8  O1  UNL     1      90.372  90.623 -50.912  1.00  0.00    -0.200 OA
HETATM    9  O2  UNL     1      88.337  89.940 -49.810  1.00  0.00    -0.200 OA
BRANCH   7  10
HETATM   10  N1  UNL     1      90.468  88.428 -49.410  1.00  0.00    -0.260 N 
ATOM     11  H1  UNL     1      91.467  88.266 -49.281  1.00  0.00     0.181 HD
BRANCH  10  12
HETATM   12  C1  UNL     1      89.600  87.436 -49.416  1.00  0.00     0.161 A 
HETATM   13  N2  UNL     1      88.588  87.243 -48.569  1.00  0.00    -0.343 N 
HETATM   14  C2  UNL     1      87.829  86.202 -48.728  1.00  0.00     0.140 A 
ATOM     15  H2  UNL     1      88.414  87.902 -47.811  1.00  0.00     0.167 HD
HETATM   16  C3  UNL     1      88.112  85.352 -49.766  1.00  0.00     0.176 A 
HETATM   17  F1  UNL     1      87.441  84.198 -50.115  1.00  0.00    -0.197 F 
HETATM   18  S2  UNL     1      89.474  86.102 -50.472  1.00  0.00    -0.022 SA
ENDBRANCH  10  12
ENDBRANCH   7  10
ENDBRANCH   1   7
BRANCH   4  19
HETATM   19  N3  UNL     1      91.210  93.337 -44.867  1.00  0.00    -0.389 N 
ATOM     20  H3  UNL     1      90.460  93.919 -44.494  1.00  0.00     0.159 HD
BRANCH  19  21
HETATM   21  C8  UNL     1      92.453  93.402 -44.174  1.00  0.00     0.129 C 
BRANCH  21  22
HETATM   22  C9  UNL     1      92.465  92.563 -42.904  1.00  0.00     0.033 C 
HETATM   23  C10 UNL     1      93.076  93.303 -41.781  1.00  0.00    -0.023 C 
HETATM   24  C11 UNL     1      94.039  92.806 -41.049  1.00  0.00    -0.022 C 
HETATM   25  C12 UNL     1      94.573  91.466 -41.309  1.00  0.00     0.031 C 
HETATM   26  C13 UNL     1      95.378  91.564 -42.565  1.00  0.00    -0.022 C 
HETATM   27  C16 UNL     1      93.403  90.598 -41.781  1.00  0.00     0.021 C 
HETATM   28  C14 UNL     1      94.556  91.444 -43.601  1.00  0.00    -0.025 C 
HETATM   29  C15 UNL     1      93.158  91.255 -43.121  1.00  0.00     0.018 C 
ENDBRANCH  21  22
ENDBRANCH  19  21
ENDBRANCH   4  19
TORSDOF 6
ENDMDL
MODEL 2
REMARK VINA RESULT: -7.784925009      1.173      1.271
REMARK  6 active torsions:
REMARK  status: ('A' for Active; 'I' for Inactive)
REMARK    1  A    between atoms: S1_2  and  N1_4 
REMARK    2  A    between atoms: S1_2  and  C4_13 
REMARK    3  A    between atoms: N1_4  and  C1_6 
REMARK    4  A    between atoms: C7_16  and  N3_17 
REMARK    5  A    between atoms: N3_17  and  C8_19 
REMARK    6  A    between atoms: C8_19  and  C9_20 
ROOT
HETATM    1  C4  UNL     1      90.228  90.986 -48.230  1.00  0.00     0.080 A 
HETATM    2  C5  UNL     1      90.769  90.421 -47.098  1.00  0.00     0.027 A 
HETATM    3  C6  UNL     1      91.091  91.214 -45.990  1.00  0.00     0.030 A 
HETATM    4  C7  UNL     1      90.883  92.571 -45.989  1.00  0.00     0.028 A 
HETATM    5  C17 UNL     1      90.338  93.109 -47.143  1.00  0.00     0.030 A 
HETATM    6  C18 UNL     1      90.022  92.330 -48.231  1.00  0.00     0.027 A 
ENDROOT
BRANCH   1   7
HETATM    7  S1  UNL     1      89.846  89.947 -49.586  1.00  0.00     0.264 S 
HETATM    8  O1  UNL     1      90.557  88.610 -49.440  1.00  0.00    -0.200 OA
HETATM    9  O2  UNL     1      90.364  90.551 -50.859  1.00  0.00    -0.200 OA
BRANCH   7  10
HETATM   10  N1  UNL     1      88.144  89.706 -49.697  1.00  0.00    -0.260 N 
ATOM     11  H1  UNL     1      87.517  90.444 -50.014  1.00  0.00     0.181 HD
BRANCH  10  12
HETATM   12  C1  UNL     1      87.697  88.515 -49.351  1.00  0.00     0.161 A 
HETATM   13  N2  UNL     1      87.902  87.880 -48.197  1.00  0.00    -0.343 N 
HETATM   14  C2  UNL     1      87.380  86.702 -48.030  1.00  0.00     0.140 A 
ATOM     15  H2  UNL     1      88.459  88.311 -47.460  1.00  0.00     0.167 HD
HETATM   16  C3  UNL     1      86.642  86.174 -49.057  1.00  0.00     0.176 A 
HETATM   17  F1  UNL     1      86.004  84.952 -49.092  1.00  0.00    -0.197 F 
HETATM   18  S2  UNL     1      86.735  87.413 -50.229  1.00  0.00    -0.022 SA
ENDBRANCH  10  12
ENDBRANCH   7  10
ENDBRANCH   1   7
BRANCH   4  19
HETATM   19  N3  UNL     1      91.195  93.355 -44.870  1.00  0.00    -0.389 N 
ATOM     20  H3  UNL     1      90.442  93.943 -44.513  1.00  0.00     0.159 HD
BRANCH  19  21
HETATM   21  C8  UNL     1      92.432  93.432 -44.169  1.00  0.00     0.129 C 
BRANCH  21  22
HETATM   22  C9  UNL     1      92.446  92.588 -42.902  1.00  0.00     0.033 C 
HETATM   23  C10 UNL     1      93.083  93.313 -41.783  1.00  0.00    -0.023 C 
HETATM   24  C11 UNL     1      94.047  92.798 -41.065  1.00  0.00    -0.022 C 
HETATM   25  C12 UNL     1      94.555  91.450 -41.337  1.00  0.00     0.031 C 
HETATM   26  C13 UNL     1      95.346  91.540 -42.603  1.00  0.00    -0.022 C 
HETATM   27  C16 UNL     1      93.366  90.603 -41.798  1.00  0.00     0.021 C 
HETATM   28  C14 UNL     1      94.510  91.437 -43.629  1.00  0.00    -0.025 C 
HETATM   29  C15 UNL     1      93.115  91.270 -43.132  1.00  0.00     0.018 C 
ENDBRANCH  21  22
ENDBRANCH  19  21
ENDBRANCH   4  19
TORSDOF 6
ENDMDL
MODEL 3
REMARK VINA RESULT: -7.671916443      8.120     11.081
REMARK  6 active torsions:
REMARK  status: ('A' for Active; 'I' for Inactive)
REMARK    1  A    between atoms: S1_2  and  N1_4 
REMARK    2  A    between atoms: S1_2  and  C4_13 
REMARK    3  A    between atoms: N1_4  and  C1_6 
REMARK    4  A    between atoms: C7_16  and  N3_17 
REMARK    5  A    between atoms: N3_17  and  C8_19 
REMARK    6  A    between atoms: C8_19  and  C9_20 
ROOT
HETATM    1  C4  UNL     1      91.415  98.310 -43.607  1.00  0.00     0.080 A 
HETATM    2  C5  UNL     1      91.407  97.382 -42.590  1.00  0.00     0.027 A 
HETATM    3  C6  UNL     1      91.398  96.011 -42.877  1.00  0.00     0.030 A 
HETATM    4  C7  UNL     1      91.395  95.544 -44.168  1.00  0.00     0.028 A 
HETATM    5  C17 UNL     1      91.403  96.503 -45.167  1.00  0.00     0.030 A 
HETATM    6  C18 UNL     1      91.413  97.848 -44.886  1.00  0.00     0.027 A 
ENDROOT
BRANCH   1   7
HETATM    7  S1  UNL     1      91.426 100.009 -43.191  1.00  0.00     0.264 S 
HETATM    8  O1  UNL     1      90.506 100.785 -44.123  1.00  0.00    -0.200 OA
HETATM    9  O2  UNL     1      92.798 100.582 -43.398  1.00  0.00    -0.200 OA
BRANCH   7  10
HETATM   10  N1  UNL     1      90.937 100.232 -41.554  1.00  0.00    -0.260 N 
ATOM     11  H1  UNL     1      90.066  99.841 -41.196  1.00  0.00     0.181 HD
BRANCH  10  12
HETATM   12  C1  UNL     1      91.749 100.934 -40.789  1.00  0.00     0.161 A 
HETATM   13  N2  UNL     1      93.004 100.635 -40.456  1.00  0.00    -0.343 N 
HETATM   14  C2  UNL     1      93.659 101.451 -39.686  1.00  0.00     0.140 A 
ATOM     15  H2  UNL     1      93.443  99.782 -40.800  1.00  0.00     0.167 HD
HETATM   16  C3  UNL     1      93.016 102.582 -39.255  1.00  0.00     0.176 A 
HETATM   17  F1  UNL     1      93.518 103.575 -38.439  1.00  0.00    -0.197 F 
HETATM   18  S2  UNL     1      91.483 102.417 -39.988  1.00  0.00    -0.022 SA
ENDBRANCH  10  12
ENDBRANCH   7  10
ENDBRANCH   1   7
BRANCH   4  19
HETATM   19  N3  UNL     1      91.401  94.170 -44.445  1.00  0.00    -0.389 N 
ATOM     20  H3  UNL     1      91.506  93.913 -45.426  1.00  0.00     0.159 HD
BRANCH  19  21
HETATM   21  C8  UNL     1      91.277  93.089 -43.527  1.00  0.00     0.129 C 
BRANCH  21  22
HETATM   22  C9  UNL     1      92.397  92.067 -43.664  1.00  0.00     0.033 C 
HETATM   23  C10 UNL     1      92.106  90.847 -42.883  1.00  0.00    -0.023 C 
HETATM   24  C11 UNL     1      92.955  90.334 -42.031  1.00  0.00    -0.022 C 
HETATM   25  C12 UNL     1      94.264  90.953 -41.801  1.00  0.00     0.031 C 
HETATM   26  C13 UNL     1      94.011  92.206 -41.023  1.00  0.00    -0.022 C 
HETATM   27  C16 UNL     1      94.730  91.533 -43.140  1.00  0.00     0.021 C 
HETATM   28  C14 UNL     1      93.697  93.174 -41.876  1.00  0.00    -0.025 C 
HETATM   29  C15 UNL     1      93.717  92.648 -43.271  1.00  0.00     0.018 C 
ENDBRANCH  21  22
ENDBRANCH  19  21
ENDBRANCH   4  19
TORSDOF 6
ENDMDL
MODEL 4
REMARK VINA RESULT: -7.630774012      8.303     11.267
REMARK  6 active torsions:
REMARK  status: ('A' for Active; 'I' for Inactive)
REMARK    1  A    between atoms: S1_2  and  N1_4 
REMARK    2  A    between atoms: S1_2  and  C4_13 
REMARK    3  A    between atoms: N1_4  and  C1_6 
REMARK    4  A    between atoms: C7_16  and  N3_17 
REMARK    5  A    between atoms: N3_17  and  C8_19 
REMARK    6  A    between atoms: C8_19  and  C9_20 
ROOT
HETATM    1  C4  UNL     1      91.366  98.653 -43.282  1.00  0.00     0.080 A 
HETATM    2  C5  UNL     1      91.326  98.244 -44.596  1.00  0.00     0.027 A 
HETATM    3  C6  UNL     1      91.298  96.881 -44.917  1.00  0.00     0.030 A 
HETATM    4  C7  UNL     1      91.311  95.911 -43.946  1.00  0.00     0.028 A 
HETATM    5  C17 UNL     1      91.352  96.355 -42.636  1.00  0.00     0.030 A 
HETATM    6  C18 UNL     1      91.379  97.693 -42.320  1.00  0.00     0.027 A 
ENDROOT
BRANCH   1   7
HETATM    7  S1  UNL     1      91.400 100.368 -42.938  1.00  0.00     0.264 S 
HETATM    8  O1  UNL     1      90.472 101.113 -43.887  1.00  0.00    -0.200 OA
HETATM    9  O2  UNL     1      92.774 100.917 -43.192  1.00  0.00    -0.200 OA
BRANCH   7  10
HETATM   10  N1  UNL     1      90.941 100.664 -41.305  1.00  0.00    -0.260 N 
ATOM     11  H1  UNL     1      90.004 100.451 -40.963  1.00  0.00     0.181 HD
BRANCH  10  12
HETATM   12  C1  UNL     1      91.865 101.180 -40.520  1.00  0.00     0.161 A 
HETATM   13  N2  UNL     1      93.120 100.758 -40.364  1.00  0.00    -0.343 N 
HETATM   14  C2  UNL     1      93.897 101.394 -39.539  1.00  0.00     0.140 A 
ATOM     15  H2  UNL     1      93.464  99.951 -40.883  1.00  0.00     0.167 HD
HETATM   16  C3  UNL     1      93.378 102.472 -38.870  1.00  0.00     0.176 A 
HETATM   17  F1  UNL     1      94.020 103.283 -37.958  1.00  0.00    -0.197 F 
HETATM   18  S2  UNL     1      91.779 102.520 -39.466  1.00  0.00    -0.022 SA
ENDBRANCH  10  12
ENDBRANCH   7  10
ENDBRANCH   1   7
BRANCH   4  19
HETATM   19  N3  UNL     1      91.268  94.549 -44.277  1.00  0.00    -0.389 N 
ATOM     20  H3  UNL     1      90.362  94.191 -44.577  1.00  0.00     0.159 HD
BRANCH  19  21
HETATM   21  C8  UNL     1      92.333  93.605 -44.248  1.00  0.00     0.129 C 
BRANCH  21  22
HETATM   22  C9  UNL     1      92.268  92.679 -43.041  1.00  0.00     0.033 C 
HETATM   23  C10 UNL     1      92.926  93.286 -41.866  1.00  0.00    -0.023 C 
HETATM   24  C11 UNL     1      93.841  92.663 -41.169  1.00  0.00    -0.022 C 
HETATM   25  C12 UNL     1      94.268  91.306 -41.522  1.00  0.00     0.031 C 
HETATM   26  C13 UNL     1      95.088  91.427 -42.766  1.00  0.00    -0.022 C 
HETATM   27  C16 UNL     1      93.036  90.570 -42.058  1.00  0.00     0.021 C 
HETATM   28  C14 UNL     1      94.268  91.447 -43.810  1.00  0.00    -0.025 C 
HETATM   29  C15 UNL     1      92.855  91.339 -43.348  1.00  0.00     0.018 C 
ENDBRANCH  21  22
ENDBRANCH  19  21
ENDBRANCH   4  19
TORSDOF 6
ENDMDL
MODEL 5
REMARK VINA RESULT: -7.569319826      0.933      1.717
REMARK  6 active torsions:
REMARK  status: ('A' for Active; 'I' for Inactive)
REMARK    1  A    between atoms: S1_2  and  N1_4 
REMARK    2  A    between atoms: S1_2  and  C4_13 
REMARK    3  A    between atoms: N1_4  and  C1_6 
REMARK    4  A    between atoms: C7_16  and  N3_17 
REMARK    5  A    between atoms: N3_17  and  C8_19 
REMARK    6  A    between atoms: C8_19  and  C9_20 
ROOT
HETATM    1  C4  UNL     1      89.850  90.786 -48.714  1.00  0.00     0.080 A 
HETATM    2  C5  UNL     1      89.675  92.149 -48.634  1.00  0.00     0.027 A 
HETATM    3  C6  UNL     1      90.135  92.862 -47.520  1.00  0.00     0.030 A 
HETATM    4  C7  UNL     1      90.771  92.237 -46.477  1.00  0.00     0.028 A 
HETATM    5  C17 UNL     1      90.931  90.866 -46.588  1.00  0.00     0.030 A 
HETATM    6  C18 UNL     1      90.480  90.166 -47.681  1.00  0.00     0.027 A 
ENDROOT
BRANCH   1   7
HETATM    7  S1  UNL     1      89.254  89.945 -50.129  1.00  0.00     0.264 S 
HETATM    8  O1  UNL     1      89.854  90.548 -51.391  1.00  0.00    -0.200 OA
HETATM    9  O2  UNL     1      87.769  90.131 -50.251  1.00  0.00    -0.200 OA
BRANCH   7  10
HETATM   10  N1  UNL     1      89.632  88.267 -50.036  1.00  0.00    -0.260 N 
ATOM     11  H1  UNL     1      90.545  87.906 -50.310  1.00  0.00     0.181 HD
BRANCH  10  12
HETATM   12  C1  UNL     1      88.677  87.475 -49.590  1.00  0.00     0.161 A 
HETATM   13  N2  UNL     1      88.051  87.546 -48.416  1.00  0.00    -0.343 N 
HETATM   14  C2  UNL     1      87.128  86.673 -48.144  1.00  0.00     0.140 A 
ATOM     15  H2  UNL     1      88.292  88.273 -47.743  1.00  0.00     0.167 HD
HETATM   16  C3  UNL     1      86.848  85.719 -49.087  1.00  0.00     0.176 A 
HETATM   17  F1  UNL     1      85.915  84.706 -49.008  1.00  0.00    -0.197 F 
HETATM   18  S2  UNL     1      87.939  86.130 -50.336  1.00  0.00    -0.022 SA
ENDBRANCH  10  12
ENDBRANCH   7  10
ENDBRANCH   1   7
BRANCH   4  19
HETATM   19  N3  UNL     1      91.241  92.961 -45.372  1.00  0.00    -0.389 N 
ATOM     20  H3  UNL     1      91.524  93.924 -45.557  1.00  0.00     0.159 HD
BRANCH  19  21
HETATM   21  C8  UNL     1      91.375  92.521 -44.025  1.00  0.00     0.129 C 
BRANCH  21  22
HETATM   22  C9  UNL     1      92.595  91.635 -43.812  1.00  0.00     0.033 C 
HETATM   23  C10 UNL     1      92.314  90.566 -42.832  1.00  0.00    -0.023 C 
HETATM   24  C11 UNL     1      93.081  90.337 -41.798  1.00  0.00    -0.022 C 
HETATM   25  C12 UNL     1      94.280  91.143 -41.551  1.00  0.00     0.031 C 
HETATM   26  C13 UNL     1      93.805  92.484 -41.089  1.00  0.00    -0.022 C 
HETATM   27  C16 UNL     1      94.872  91.500 -42.918  1.00  0.00     0.021 C 
HETATM   28  C14 UNL     1      93.523  93.220 -42.158  1.00  0.00    -0.025 C 
HETATM   29  C15 UNL     1      93.787  92.438 -43.398  1.00  0.00     0.018 C 
ENDBRANCH  21  22
ENDBRANCH  19  21
ENDBRANCH   4  19
TORSDOF 6
ENDMDL
