MODEL 1
REMARK VINA RESULT: -7.918340960      0.000      0.000
REMARK  6 active torsions:
REMARK  status: ('A' for Active; 'I' for Inactive)
REMARK    1  A    between atoms: C2_3  and  C3_4 
REMARK    2  A    between atoms: C2_3  and  C7_12 
REMARK    3  A    between atoms: C3_4  and  C4_5 
REMARK    4  A    between atoms: C7_12  and  N4_13 
REMARK    5  A    between atoms: C7_12  and  C19_27 
REMARK       I    between atoms: N4_13  and  C8_15 
REMARK    6  A    between atoms: C8_15  and  C9_17 
ROOT
HETATM    1  N1  UNL     1      91.268  94.884 -41.469  1.00  0.00    -0.197 NA
HETATM    2  C1  UNL     1      91.474  94.186 -42.386  1.00  0.00     0.066 C 
HETATM    3  C2  UNL     1      91.707  93.314 -43.535  1.00  0.00     0.125 C 
ENDROOT
BRANCH   3   4
HETATM    4  C3  UNL     1      93.136  92.877 -43.536  1.00  0.00     0.080 C 
BRANCH   4   5
HETATM    5  C4  UNL     1      93.330  91.661 -42.703  1.00  0.00     0.026 A 
HETATM    6  C5  UNL     1      94.507  91.314 -42.039  1.00  0.00     0.114 A 
HETATM    7  N2  UNL     1      94.309  90.152 -41.390  1.00  0.00    -0.360 N 
HETATM    8  C6  UNL     1      93.046  89.753 -41.623  1.00  0.00     0.180 A 
ATOM      9  H2  UNL     1      94.997  89.659 -40.821  1.00  0.00     0.166 HD
HETATM   10  N3  UNL     1      92.475  90.670 -42.412  1.00  0.00    -0.355 N 
ATOM     11  H3  UNL     1      91.513  90.621 -42.748  1.00  0.00     0.166 HD
ENDBRANCH   4   5
ENDBRANCH   3   4
BRANCH   3  12
HETATM   12  C7  UNL     1      91.282  93.972 -44.826  1.00  0.00     0.135 C 
BRANCH  12  13
HETATM   13  N4  UNL     1      90.398  95.086 -44.585  1.00  0.00    -0.350 N 
HETATM   14  C8  UNL     1      90.733  96.414 -44.962  1.00  0.00     0.227 C 
HETATM   15  O1  UNL     1      91.859  96.621 -45.533  1.00  0.00    -0.273 OA
ATOM     16  H4  UNL     1      89.502  94.914 -44.128  1.00  0.00     0.163 HD
BRANCH  14  17
HETATM   17  C9  UNL     1      89.842  97.566 -44.723  1.00  0.00     0.042 C 
HETATM   18  C10 UNL     1      90.324  98.753 -45.483  1.00  0.00     0.024 C 
HETATM   19  C11 UNL     1      89.387  99.910 -45.276  1.00  0.00    -0.013 C 
HETATM   20  C12 UNL     1      89.433 100.289 -43.818  1.00  0.00     0.009 C 
HETATM   21  C16 UNL     1      87.970  99.570 -45.655  1.00  0.00     0.009 C 
HETATM   22  C13 UNL     1      88.998  99.095 -43.013  1.00  0.00    -0.013 C 
HETATM   23  C14 UNL     1      87.576  98.722 -43.373  1.00  0.00     0.009 C 
HETATM   24  C18 UNL     1      89.875  97.899 -43.248  1.00  0.00     0.024 C 
HETATM   25  C15 UNL     1      87.518  98.362 -44.849  1.00  0.00    -0.013 C 
HETATM   26  C17 UNL     1      88.439  97.223 -45.175  1.00  0.00     0.024 C 
ENDBRANCH  14  17
ENDBRANCH  12  13
BRANCH  12  27
HETATM   27  C19 UNL     1      90.721  93.018 -45.795  1.00  0.00    -0.034 A 
HETATM   28  C20 UNL     1      90.960  91.681 -45.646  1.00  0.00     0.012 A 
HETATM   29  C21 UNL     1      90.440  90.791 -46.543  1.00  0.00     0.043 A 
HETATM   30  C22 UNL     1      89.678  91.202 -47.603  1.00  0.00     0.116 A 
HETATM   31  F1  UNL     1      89.161  90.317 -48.497  1.00  0.00    -0.206 F 
HETATM   32  C23 UNL     1      89.416  92.551 -47.785  1.00  0.00     0.043 A 
HETATM   33  C24 UNL     1      89.954  93.442 -46.860  1.00  0.00     0.012 A 
ENDBRANCH  12  27
ENDBRANCH   3  12
TORSDOF 6
ENDMDL
MODEL 2
REMARK VINA RESULT: -7.903805501      0.043      1.351
REMARK  6 active torsions:
REMARK  status: ('A' for Active; 'I' for Inactive)
REMARK    1  A    between atoms: C2_3  and  C3_4 
REMARK    2  A    between atoms: C2_3  and  C7_12 
REMARK    3  A    between atoms: C3_4  and  C4_5 
REMARK    4  A    between atoms: C7_12  and  N4_13 
REMARK    5  A    between atoms: C7_12  and  C19_27 
REMARK       I    between atoms: N4_13  and  C8_15 
REMARK    6  A    between atoms: C8_15  and  C9_17 
ROOT
HETATM    1  N1  UNL     1      91.234  94.808 -41.463  1.00  0.00    -0.197 NA
HETATM    2  C1  UNL     1      91.455  94.127 -42.389  1.00  0.00     0.066 C 
HETATM    3  C2  UNL     1      91.706  93.275 -43.549  1.00  0.00     0.125 C 
ENDROOT
BRANCH   3   4
HETATM    4  C3  UNL     1      93.141  92.856 -43.546  1.00  0.00     0.080 C 
BRANCH   4   5
HETATM    5  C4  UNL     1      93.350  91.649 -42.704  1.00  0.00     0.026 A 
HETATM    6  C5  UNL     1      94.539  91.311 -42.056  1.00  0.00     0.114 A 
HETATM    7  N2  UNL     1      94.353  90.156 -41.390  1.00  0.00    -0.360 N 
HETATM    8  C6  UNL     1      93.086  89.754 -41.597  1.00  0.00     0.180 A 
ATOM      9  H2  UNL     1      95.051  89.670 -40.827  1.00  0.00     0.166 HD
HETATM   10  N3  UNL     1      92.501  90.661 -42.387  1.00  0.00    -0.355 N 
ATOM     11  H3  UNL     1      91.534  90.608 -42.706  1.00  0.00     0.166 HD
ENDBRANCH   4   5
ENDBRANCH   3   4
BRANCH   3  12
HETATM   12  C7  UNL     1      91.283  93.947 -44.833  1.00  0.00     0.135 C 
BRANCH  12  13
HETATM   13  N4  UNL     1      90.404  95.064 -44.579  1.00  0.00    -0.350 N 
HETATM   14  C8  UNL     1      90.739  96.392 -44.955  1.00  0.00     0.227 C 
HETATM   15  O1  UNL     1      91.860  96.598 -45.538  1.00  0.00    -0.273 OA
ATOM     16  H4  UNL     1      89.512  94.893 -44.114  1.00  0.00     0.163 HD
BRANCH  14  17
HETATM   17  C9  UNL     1      89.854  97.545 -44.704  1.00  0.00     0.042 C 
HETATM   18  C10 UNL     1      88.463  97.226 -45.132  1.00  0.00     0.024 C 
HETATM   19  C11 UNL     1      87.555  98.385 -44.830  1.00  0.00    -0.013 C 
HETATM   20  C12 UNL     1      88.001  99.556 -45.669  1.00  0.00     0.009 C 
HETATM   21  C16 UNL     1      87.593  98.776 -43.376  1.00  0.00     0.009 C 
HETATM   22  C13 UNL     1      89.423  99.877 -45.299  1.00  0.00    -0.013 C 
HETATM   23  C14 UNL     1      89.500 100.269 -43.840  1.00  0.00     0.009 C 
HETATM   24  C18 UNL     1      90.348  98.715 -45.527  1.00  0.00     0.024 C 
HETATM   25  C15 UNL     1      89.027  99.101 -42.988  1.00  0.00    -0.013 C 
HETATM   26  C17 UNL     1      89.857  97.874 -43.227  1.00  0.00     0.024 C 
ENDBRANCH  14  17
ENDBRANCH  12  13
BRANCH  12  27
HETATM   27  C19 UNL     1      90.714  93.006 -45.809  1.00  0.00    -0.034 A 
HETATM   28  C20 UNL     1      90.944  91.666 -45.671  1.00  0.00     0.012 A 
HETATM   29  C21 UNL     1      90.418  90.787 -46.576  1.00  0.00     0.043 A 
HETATM   30  C22 UNL     1      89.659  91.212 -47.632  1.00  0.00     0.116 A 
HETATM   31  F1  UNL     1      89.135  90.337 -48.534  1.00  0.00    -0.206 F 
HETATM   32  C23 UNL     1      89.407  92.564 -47.803  1.00  0.00     0.043 A 
HETATM   33  C24 UNL     1      89.951  93.444 -46.871  1.00  0.00     0.012 A 
ENDBRANCH  12  27
ENDBRANCH   3  12
TORSDOF 6
ENDMDL
MODEL 3
REMARK VINA RESULT: -7.887826225      0.039      1.356
REMARK  6 active torsions:
REMARK  status: ('A' for Active; 'I' for Inactive)
REMARK    1  A    between atoms: C2_3  and  C3_4 
REMARK    2  A    between atoms: C2_3  and  C7_12 
REMARK    3  A    between atoms: C3_4  and  C4_5 
REMARK    4  A    between atoms: C7_12  and  N4_13 
REMARK    5  A    between atoms: C7_12  and  C19_27 
REMARK       I    between atoms: N4_13  and  C8_15 
REMARK    6  A    between atoms: C8_15  and  C9_17 
ROOT
HETATM    1  N1  UNL     1      91.273  94.872 -41.436  1.00  0.00    -0.197 NA
HETATM    2  C1  UNL     1      91.481  94.182 -42.359  1.00  0.00     0.066 C 
HETATM    3  C2  UNL     1      91.717  93.320 -43.514  1.00  0.00     0.125 C 
ENDROOT
BRANCH   3   4
HETATM    4  C3  UNL     1      93.146  92.883 -43.515  1.00  0.00     0.080 C 
BRANCH   4   5
HETATM    5  C4  UNL     1      93.339  91.663 -42.688  1.00  0.00     0.026 A 
HETATM    6  C5  UNL     1      94.516  91.314 -42.024  1.00  0.00     0.114 A 
HETATM    7  N2  UNL     1      94.318  90.149 -41.380  1.00  0.00    -0.360 N 
HETATM    8  C6  UNL     1      93.054  89.751 -41.617  1.00  0.00     0.180 A 
ATOM      9  H2  UNL     1      95.005  89.654 -40.812  1.00  0.00     0.166 HD
HETATM   10  N3  UNL     1      92.484  90.671 -42.402  1.00  0.00    -0.355 N 
ATOM     11  H3  UNL     1      91.523  90.623 -42.740  1.00  0.00     0.166 HD
ENDBRANCH   4   5
ENDBRANCH   3   4
BRANCH   3  12
HETATM   12  C7  UNL     1      91.295  93.988 -44.801  1.00  0.00     0.135 C 
BRANCH  12  13
HETATM   13  N4  UNL     1      90.416  95.106 -44.551  1.00  0.00    -0.350 N 
HETATM   14  C8  UNL     1      90.746  96.430 -44.943  1.00  0.00     0.227 C 
HETATM   15  O1  UNL     1      91.862  96.632 -45.536  1.00  0.00    -0.273 OA
ATOM     16  H4  UNL     1      89.528  94.938 -44.078  1.00  0.00     0.163 HD
BRANCH  14  17
HETATM   17  C9  UNL     1      89.861  97.585 -44.697  1.00  0.00     0.042 C 
HETATM   18  C10 UNL     1      89.819  97.897 -43.240  1.00  0.00     0.024 C 
HETATM   19  C11 UNL     1      88.955  99.103 -42.999  1.00  0.00    -0.013 C 
HETATM   20  C12 UNL     1      87.545  98.752 -43.401  1.00  0.00     0.009 C 
HETATM   21  C16 UNL     1      89.412 100.299 -43.791  1.00  0.00     0.009 C 
HETATM   22  C13 UNL     1      87.556  98.382 -44.859  1.00  0.00    -0.013 C 
HETATM   23  C14 UNL     1      88.017  99.563 -45.686  1.00  0.00     0.009 C 
HETATM   24  C18 UNL     1      88.463  97.220 -45.146  1.00  0.00     0.024 C 
HETATM   25  C15 UNL     1      89.430  99.938 -45.267  1.00  0.00    -0.013 C 
HETATM   26  C17 UNL     1      90.380  98.791 -45.448  1.00  0.00     0.024 C 
ENDBRANCH  14  17
ENDBRANCH  12  13
BRANCH  12  27
HETATM   27  C19 UNL     1      90.728  93.044 -45.775  1.00  0.00    -0.034 A 
HETATM   28  C20 UNL     1      90.964  91.705 -45.638  1.00  0.00     0.012 A 
HETATM   29  C21 UNL     1      90.440  90.824 -46.541  1.00  0.00     0.043 A 
HETATM   30  C22 UNL     1      89.675  91.246 -47.594  1.00  0.00     0.116 A 
HETATM   31  F1  UNL     1      89.153  90.368 -48.494  1.00  0.00    -0.206 F 
HETATM   32  C23 UNL     1      89.416  92.597 -47.765  1.00  0.00     0.043 A 
HETATM   33  C24 UNL     1      89.958  93.479 -46.834  1.00  0.00     0.012 A 
ENDBRANCH  12  27
ENDBRANCH   3  12
TORSDOF 6
ENDMDL
MODEL 4
REMARK VINA RESULT: -7.456695611      2.962      7.474
REMARK  6 active torsions:
REMARK  status: ('A' for Active; 'I' for Inactive)
REMARK    1  A    between atoms: C2_3  and  C3_4 
REMARK    2  A    between atoms: C2_3  and  C7_12 
REMARK    3  A    between atoms: C3_4  and  C4_5 
REMARK    4  A    between atoms: C7_12  and  N4_13 
REMARK    5  A    between atoms: C7_12  and  C19_27 
REMARK       I    between atoms: N4_13  and  C8_15 
REMARK    6  A    between atoms: C8_15  and  C9_17 
ROOT
HETATM    1  N1  UNL     1      88.534  95.589 -47.182  1.00  0.00    -0.197 NA
HETATM    2  C1  UNL     1      89.349  95.276 -46.402  1.00  0.00     0.066 C 
HETATM    3  C2  UNL     1      90.353  94.866 -45.424  1.00  0.00     0.125 C 
ENDROOT
BRANCH   3   4
HETATM    4  C3  UNL     1      91.318  95.988 -45.212  1.00  0.00     0.080 C 
BRANCH   4   5
HETATM    5  C4  UNL     1      90.800  96.966 -44.220  1.00  0.00     0.026 A 
HETATM    6  C5  UNL     1      90.939  96.864 -42.835  1.00  0.00     0.114 A 
HETATM    7  N2  UNL     1      90.347  97.928 -42.263  1.00  0.00    -0.360 N 
HETATM    8  C6  UNL     1      89.837  98.698 -43.241  1.00  0.00     0.180 A 
ATOM      9  H2  UNL     1      90.293  98.118 -41.263  1.00  0.00     0.166 HD
HETATM   10  N3  UNL     1      90.119  98.106 -44.407  1.00  0.00    -0.355 N 
ATOM     11  H3  UNL     1      89.850  98.473 -45.319  1.00  0.00     0.166 HD
ENDBRANCH   4   5
ENDBRANCH   3   4
BRANCH   3  12
HETATM   12  C7  UNL     1      91.021  93.572 -45.823  1.00  0.00     0.135 C 
BRANCH  12  13
HETATM   13  N4  UNL     1      90.165  92.776 -46.670  1.00  0.00    -0.350 N 
HETATM   14  C8  UNL     1      90.683  91.906 -47.666  1.00  0.00     0.227 C 
HETATM   15  O1  UNL     1      91.953  91.830 -47.811  1.00  0.00    -0.273 OA
ATOM     16  H4  UNL     1      89.154  92.841 -46.549  1.00  0.00     0.163 HD
BRANCH  14  17
HETATM   17  C9  UNL     1      89.824  91.084 -48.540  1.00  0.00     0.042 C 
HETATM   18  C10 UNL     1      89.509  89.787 -47.878  1.00  0.00     0.024 C 
HETATM   19  C11 UNL     1      88.595  88.974 -48.751  1.00  0.00    -0.013 C 
HETATM   20  C12 UNL     1      89.341  88.637 -50.017  1.00  0.00     0.009 C 
HETATM   21  C16 UNL     1      87.334  89.717 -49.102  1.00  0.00     0.009 C 
HETATM   22  C13 UNL     1      89.720  89.927 -50.691  1.00  0.00    -0.013 C 
HETATM   23  C14 UNL     1      88.473  90.704 -51.054  1.00  0.00     0.009 C 
HETATM   24  C18 UNL     1      90.581  90.795 -49.818  1.00  0.00     0.024 C 
HETATM   25  C15 UNL     1      87.702  91.025 -49.783  1.00  0.00    -0.013 C 
HETATM   26  C17 UNL     1      88.535  91.824 -48.823  1.00  0.00     0.024 C 
ENDBRANCH  14  17
ENDBRANCH  12  13
BRANCH  12  27
HETATM   27  C19 UNL     1      91.523  92.809 -44.670  1.00  0.00    -0.034 A 
HETATM   28  C20 UNL     1      91.179  91.495 -44.525  1.00  0.00     0.012 A 
HETATM   29  C21 UNL     1      91.642  90.783 -43.455  1.00  0.00     0.043 A 
HETATM   30  C22 UNL     1      92.452  91.352 -42.510  1.00  0.00     0.116 A 
HETATM   31  F1  UNL     1      92.914  90.643 -41.444  1.00  0.00    -0.206 F 
HETATM   32  C23 UNL     1      92.821  92.683 -42.626  1.00  0.00     0.043 A 
HETATM   33  C24 UNL     1      92.339  93.392 -43.722  1.00  0.00     0.012 A 
ENDBRANCH  12  27
ENDBRANCH   3  12
TORSDOF 6
ENDMDL
MODEL 5
REMARK VINA RESULT: -7.416113698      2.959      7.420
REMARK  6 active torsions:
REMARK  status: ('A' for Active; 'I' for Inactive)
REMARK    1  A    between atoms: C2_3  and  C3_4 
REMARK    2  A    between atoms: C2_3  and  C7_12 
REMARK    3  A    between atoms: C3_4  and  C4_5 
REMARK    4  A    between atoms: C7_12  and  N4_13 
REMARK    5  A    between atoms: C7_12  and  C19_27 
REMARK       I    between atoms: N4_13  and  C8_15 
REMARK    6  A    between atoms: C8_15  and  C9_17 
ROOT
HETATM    1  N1  UNL     1      88.535  95.582 -47.211  1.00  0.00    -0.197 NA
HETATM    2  C1  UNL     1      89.344  95.269 -46.424  1.00  0.00     0.066 C 
HETATM    3  C2  UNL     1      90.340  94.859 -45.438  1.00  0.00     0.125 C 
ENDROOT
BRANCH   3   4
HETATM    4  C3  UNL     1      91.299  95.983 -45.214  1.00  0.00     0.080 C 
BRANCH   4   5
HETATM    5  C4  UNL     1      90.773  96.952 -44.217  1.00  0.00     0.026 A 
HETATM    6  C5  UNL     1      90.942  96.863 -42.835  1.00  0.00     0.114 A 
HETATM    7  N2  UNL     1      90.330  97.914 -42.257  1.00  0.00    -0.360 N 
HETATM    8  C6  UNL     1      89.781  98.663 -43.230  1.00  0.00     0.180 A 
ATOM      9  H2  UNL     1      90.291  98.108 -41.257  1.00  0.00     0.166 HD
HETATM   10  N3  UNL     1      90.056  98.071 -44.397  1.00  0.00    -0.355 N 
ATOM     11  H3  UNL     1      89.760  98.424 -45.306  1.00  0.00     0.166 HD
ENDBRANCH   4   5
ENDBRANCH   3   4
BRANCH   3  12
HETATM   12  C7  UNL     1      91.015  93.567 -45.834  1.00  0.00     0.135 C 
BRANCH  12  13
HETATM   13  N4  UNL     1      90.165  92.767 -46.683  1.00  0.00    -0.350 N 
HETATM   14  C8  UNL     1      90.690  91.906 -47.683  1.00  0.00     0.227 C 
HETATM   15  O1  UNL     1      91.960  91.844 -47.832  1.00  0.00    -0.273 OA
ATOM     16  H4  UNL     1      89.154  92.821 -46.559  1.00  0.00     0.163 HD
BRANCH  14  17
HETATM   17  C9  UNL     1      89.838  91.081 -48.560  1.00  0.00     0.042 C 
HETATM   18  C10 UNL     1      90.528  90.828 -49.856  1.00  0.00     0.024 C 
HETATM   19  C11 UNL     1      89.678  89.946 -50.727  1.00  0.00    -0.013 C 
HETATM   20  C12 UNL     1      88.414  90.700 -51.057  1.00  0.00     0.009 C 
HETATM   21  C16 UNL     1      89.319  88.651 -50.049  1.00  0.00     0.009 C 
HETATM   22  C13 UNL     1      87.711  91.017 -49.765  1.00  0.00    -0.013 C 
HETATM   23  C14 UNL     1      87.340  89.734 -49.053  1.00  0.00     0.009 C 
HETATM   24  C18 UNL     1      88.561  91.842 -48.841  1.00  0.00     0.024 C 
HETATM   25  C15 UNL     1      88.609  88.957 -48.740  1.00  0.00    -0.013 C 
HETATM   26  C17 UNL     1      89.548  89.757 -47.885  1.00  0.00     0.024 C 
ENDBRANCH  14  17
ENDBRANCH  12  13
BRANCH  12  27
HETATM   27  C19 UNL     1      91.518  92.808 -44.679  1.00  0.00    -0.034 A 
HETATM   28  C20 UNL     1      91.172  91.495 -44.530  1.00  0.00     0.012 A 
HETATM   29  C21 UNL     1      91.636  90.785 -43.458  1.00  0.00     0.043 A 
HETATM   30  C22 UNL     1      92.447  91.356 -42.515  1.00  0.00     0.116 A 
HETATM   31  F1  UNL     1      92.909  90.650 -41.447  1.00  0.00    -0.206 F 
HETATM   32  C23 UNL     1      92.817  92.687 -42.635  1.00  0.00     0.043 A 
HETATM   33  C24 UNL     1      92.334  93.393 -43.734  1.00  0.00     0.012 A 
ENDBRANCH  12  27
ENDBRANCH   3  12
TORSDOF 6
ENDMDL
