MODEL 1
REMARK VINA RESULT: -7.299872508      0.000      0.000
REMARK  6 active torsions:
REMARK  status: ('A' for Active; 'I' for Inactive)
REMARK       I    between atoms: C1_2  and  N1_3 
REMARK    1  A    between atoms: C1_2  and  C8_12 
REMARK    2  A    between atoms: N1_3  and  C2_5 
REMARK    3  A    between atoms: C8_12  and  N2_13 
REMARK    4  A    between atoms: C8_12  and  C14_25 
REMARK    5  A    between atoms: N2_13  and  S1_15 
REMARK    6  A    between atoms: S1_15  and  C9_18 
ROOT
HETATM    1  C8  UNL     1      90.182  96.766 -44.516  1.00  0.00     0.189 C 
ENDROOT
BRANCH   1   2
HETATM    2  C1  UNL     1      91.064  95.572 -44.355  1.00  0.00     0.245 C 
HETATM    3  O1  UNL     1      91.680  95.184 -45.357  1.00  0.00    -0.271 OA
HETATM    4  N1  UNL     1      91.183  94.914 -43.115  1.00  0.00    -0.325 N 
ATOM      5  H1  UNL     1      90.626  95.303 -42.354  1.00  0.00     0.169 HD
BRANCH   4   6
HETATM    6  C2  UNL     1      91.956  93.810 -42.789  1.00  0.00     0.034 A 
HETATM    7  C3  UNL     1      92.522  93.721 -41.514  1.00  0.00     0.031 A 
HETATM    8  C4  UNL     1      93.300  92.673 -41.101  1.00  0.00     0.026 A 
HETATM    9  C5  UNL     1      93.555  91.640 -41.959  1.00  0.00     0.034 A 
HETATM   10 CL1  UNL     1      94.555  90.306 -41.410  1.00  0.00    -0.084 Cl
HETATM   11  C6  UNL     1      93.024  91.681 -43.216  1.00  0.00     0.026 A 
HETATM   12  C7  UNL     1      92.230  92.762 -43.622  1.00  0.00     0.031 A 
ENDBRANCH   4   6
ENDBRANCH   1   2
BRANCH   1  13
HETATM   13  N2  UNL     1      90.263  97.199 -45.943  1.00  0.00    -0.301 N 
ATOM     14  H2  UNL     1      91.104  97.582 -46.376  1.00  0.00     0.173 HD
BRANCH  13  15
HETATM   15  S1  UNL     1      88.792  96.983 -46.762  1.00  0.00     0.260 S 
HETATM   16  O2  UNL     1      88.535  95.551 -47.163  1.00  0.00    -0.200 OA
HETATM   17  O3  UNL     1      88.788  97.844 -48.008  1.00  0.00    -0.200 OA
BRANCH  15  18
HETATM   18  C9  UNL     1      87.415  97.505 -45.814  1.00  0.00     0.094 A 
HETATM   19  C10 UNL     1      87.167  98.799 -45.451  1.00  0.00     0.028 A 
HETATM   20  C11 UNL     1      86.045  99.082 -44.694  1.00  0.00     0.019 A 
HETATM   21  C12 UNL     1      85.188  98.054 -44.310  1.00  0.00     0.087 A 
HETATM   22  N3  UNL     1      85.445  96.785 -44.675  1.00  0.00    -0.374 N 
HETATM   23  C13 UNL     1      86.535  96.527 -45.409  1.00  0.00     0.112 A 
ATOM     24  H3  UNL     1      84.818  96.030 -44.396  1.00  0.00     0.164 HD
ENDBRANCH  15  18
ENDBRANCH  13  15
ENDBRANCH   1  13
BRANCH   1  25
HETATM   25  C14 UNL     1      90.587  97.940 -43.671  1.00  0.00     0.018 C 
HETATM   26  C15 UNL     1      89.421  98.361 -42.798  1.00  0.00     0.007 C 
HETATM   27  C16 UNL     1      89.487  99.859 -42.534  1.00  0.00     0.000 C 
HETATM   28  C17 UNL     1      90.904 100.299 -42.278  1.00  0.00     0.000 C 
HETATM   29  C18 UNL     1      91.676 100.175 -43.575  1.00  0.00     0.000 C 
HETATM   30  C19 UNL     1      91.117  99.068 -44.465  1.00  0.00     0.007 C 
ENDBRANCH   1  25
TORSDOF 6
ENDMDL
MODEL 2
REMARK VINA RESULT: -7.047705808      1.856      4.462
REMARK  6 active torsions:
REMARK  status: ('A' for Active; 'I' for Inactive)
REMARK       I    between atoms: C1_2  and  N1_3 
REMARK    1  A    between atoms: C1_2  and  C8_12 
REMARK    2  A    between atoms: N1_3  and  C2_5 
REMARK    3  A    between atoms: C8_12  and  N2_13 
REMARK    4  A    between atoms: C8_12  and  C14_25 
REMARK    5  A    between atoms: N2_13  and  S1_15 
REMARK    6  A    between atoms: S1_15  and  C9_18 
ROOT
HETATM    1  C8  UNL     1      89.826  96.036 -45.913  1.00  0.00     0.189 C 
ENDROOT
BRANCH   1   2
HETATM    2  C1  UNL     1      90.399  94.752 -45.412  1.00  0.00     0.245 C 
HETATM    3  O1  UNL     1      90.119  93.723 -46.041  1.00  0.00    -0.271 OA
HETATM    4  N1  UNL     1      91.222  94.716 -44.268  1.00  0.00    -0.325 N 
ATOM      5  H1  UNL     1      91.384  95.615 -43.814  1.00  0.00     0.169 HD
BRANCH   4   6
HETATM    6  C2  UNL     1      91.840  93.625 -43.677  1.00  0.00     0.034 A 
HETATM    7  C3  UNL     1      92.131  93.659 -42.311  1.00  0.00     0.031 A 
HETATM    8  C4  UNL     1      92.742  92.634 -41.640  1.00  0.00     0.026 A 
HETATM    9  C5  UNL     1      93.098  91.500 -42.315  1.00  0.00     0.034 A 
HETATM   10 CL1  UNL     1      93.879  90.196 -41.437  1.00  0.00    -0.084 Cl
HETATM   11  C6  UNL     1      92.835  91.419 -43.652  1.00  0.00     0.026 A 
HETATM   12  C7  UNL     1      92.209  92.479 -44.323  1.00  0.00     0.031 A 
ENDBRANCH   4   6
ENDBRANCH   1   2
BRANCH   1  13
HETATM   13  N2  UNL     1      89.907  97.031 -44.801  1.00  0.00    -0.301 N 
ATOM     14  H2  UNL     1      89.358  96.972 -43.944  1.00  0.00     0.173 HD
BRANCH  13  15
HETATM   15  S1  UNL     1      91.018  98.271 -45.132  1.00  0.00     0.260 S 
HETATM   16  O2  UNL     1      90.577  99.189 -46.245  1.00  0.00    -0.200 OA
HETATM   17  O3  UNL     1      92.349  97.654 -45.510  1.00  0.00    -0.200 OA
BRANCH  15  18
HETATM   18  C9  UNL     1      91.335  99.275 -43.733  1.00  0.00     0.094 A 
HETATM   19  C10 UNL     1      91.379 100.641 -43.750  1.00  0.00     0.028 A 
HETATM   20  C11 UNL     1      91.647 101.320 -42.576  1.00  0.00     0.019 A 
HETATM   21  C12 UNL     1      91.868 100.612 -41.397  1.00  0.00     0.087 A 
HETATM   22  N3  UNL     1      91.820  99.268 -41.396  1.00  0.00    -0.374 N 
HETATM   23  C13 UNL     1      91.560  98.624 -42.542  1.00  0.00     0.112 A 
ATOM     24  H3  UNL     1      91.980  98.746 -40.534  1.00  0.00     0.164 HD
ENDBRANCH  15  18
ENDBRANCH  13  15
ENDBRANCH   1  13
BRANCH   1  25
HETATM   25  C14 UNL     1      88.384  95.941 -46.321  1.00  0.00     0.018 C 
HETATM   26  C15 UNL     1      88.267  96.153 -47.818  1.00  0.00     0.007 C 
HETATM   27  C16 UNL     1      86.926  96.794 -48.147  1.00  0.00     0.000 C 
HETATM   28  C17 UNL     1      85.824  96.193 -47.315  1.00  0.00     0.000 C 
HETATM   29  C18 UNL     1      86.033  96.622 -45.878  1.00  0.00     0.000 C 
HETATM   30  C19 UNL     1      87.508  96.859 -45.564  1.00  0.00     0.007 C 
ENDBRANCH   1  25
TORSDOF 6
ENDMDL
MODEL 3
REMARK VINA RESULT: -7.012594295      0.720      1.158
REMARK  6 active torsions:
REMARK  status: ('A' for Active; 'I' for Inactive)
REMARK       I    between atoms: C1_2  and  N1_3 
REMARK    1  A    between atoms: C1_2  and  C8_12 
REMARK    2  A    between atoms: N1_3  and  C2_5 
REMARK    3  A    between atoms: C8_12  and  N2_13 
REMARK    4  A    between atoms: C8_12  and  C14_25 
REMARK    5  A    between atoms: N2_13  and  S1_15 
REMARK    6  A    between atoms: S1_15  and  C9_18 
ROOT
HETATM    1  C8  UNL     1      90.109  96.816 -44.826  1.00  0.00     0.189 C 
ENDROOT
BRANCH   1   2
HETATM    2  C1  UNL     1      91.019  95.655 -44.600  1.00  0.00     0.245 C 
HETATM    3  O1  UNL     1      91.840  95.396 -45.490  1.00  0.00    -0.271 OA
HETATM    4  N1  UNL     1      90.940  94.884 -43.423  1.00  0.00    -0.325 N 
ATOM      5  H1  UNL     1      90.223  95.170 -42.756  1.00  0.00     0.169 HD
BRANCH   4   6
HETATM    6  C2  UNL     1      91.705  93.790 -43.048  1.00  0.00     0.034 A 
HETATM    7  C3  UNL     1      92.283  93.760 -41.776  1.00  0.00     0.031 A 
HETATM    8  C4  UNL     1      93.055  92.727 -41.317  1.00  0.00     0.026 A 
HETATM    9  C5  UNL     1      93.293  91.650 -42.124  1.00  0.00     0.034 A 
HETATM   10 CL1  UNL     1      94.285  90.335 -41.518  1.00  0.00    -0.084 Cl
HETATM   11  C6  UNL     1      92.750  91.632 -43.376  1.00  0.00     0.026 A 
HETATM   12  C7  UNL     1      91.961  92.699 -43.830  1.00  0.00     0.031 A 
ENDBRANCH   4   6
ENDBRANCH   1   2
BRANCH   1  13
HETATM   13  N2  UNL     1      90.011  97.033 -46.301  1.00  0.00    -0.301 N 
ATOM     14  H2  UNL     1      90.815  97.193 -46.908  1.00  0.00     0.173 HD
BRANCH  13  15
HETATM   15  S1  UNL     1      88.405  96.983 -46.849  1.00  0.00     0.260 S 
HETATM   16  O2  UNL     1      87.978  95.617 -47.327  1.00  0.00    -0.200 OA
HETATM   17  O3  UNL     1      88.241  97.968 -47.988  1.00  0.00    -0.200 OA
BRANCH  15  18
HETATM   18  C9  UNL     1      87.262  97.477 -45.619  1.00  0.00     0.094 A 
HETATM   19  C10 UNL     1      87.267  98.694 -44.996  1.00  0.00     0.028 A 
HETATM   20  C11 UNL     1      86.311  98.961 -44.033  1.00  0.00     0.019 A 
HETATM   21  C12 UNL     1      85.362  97.995 -43.709  1.00  0.00     0.087 A 
HETATM   22  N3  UNL     1      85.369  96.802 -44.330  1.00  0.00    -0.374 N 
HETATM   23  C13 UNL     1      86.301  96.558 -45.261  1.00  0.00     0.112 A 
ATOM     24  H3  UNL     1      84.674  96.093 -44.096  1.00  0.00     0.164 HD
ENDBRANCH  15  18
ENDBRANCH  13  15
ENDBRANCH   1  13
BRANCH   1  25
HETATM   25  C14 UNL     1      90.598  98.100 -44.219  1.00  0.00     0.018 C 
HETATM   26  C15 UNL     1      91.600  98.752 -45.154  1.00  0.00     0.007 C 
HETATM   27  C16 UNL     1      92.617  99.547 -44.348  1.00  0.00     0.000 C 
HETATM   28  C17 UNL     1      91.950 100.285 -43.217  1.00  0.00     0.000 C 
HETATM   29  C18 UNL     1      91.477  99.263 -42.204  1.00  0.00     0.000 C 
HETATM   30  C19 UNL     1      91.146  97.925 -42.858  1.00  0.00     0.007 C 
ENDBRANCH   1  25
TORSDOF 6
ENDMDL
MODEL 4
REMARK VINA RESULT: -6.964841594      6.795      9.190
REMARK  6 active torsions:
REMARK  status: ('A' for Active; 'I' for Inactive)
REMARK       I    between atoms: C1_2  and  N1_3 
REMARK    1  A    between atoms: C1_2  and  C8_12 
REMARK    2  A    between atoms: N1_3  and  C2_5 
REMARK    3  A    between atoms: C8_12  and  N2_13 
REMARK    4  A    between atoms: C8_12  and  C14_25 
REMARK    5  A    between atoms: N2_13  and  S1_15 
REMARK    6  A    between atoms: S1_15  and  C9_18 
ROOT
HETATM    1  C8  UNL     1      89.971  90.719 -48.646  1.00  0.00     0.189 C 
ENDROOT
BRANCH   1   2
HETATM    2  C1  UNL     1      90.824  91.016 -47.459  1.00  0.00     0.245 C 
HETATM    3  O1  UNL     1      92.014  90.678 -47.517  1.00  0.00    -0.271 OA
HETATM    4  N1  UNL     1      90.293  91.650 -46.318  1.00  0.00    -0.325 N 
ATOM      5  H1  UNL     1      89.300  91.878 -46.363  1.00  0.00     0.169 HD
BRANCH   4   6
HETATM    6  C2  UNL     1      90.938  92.008 -45.144  1.00  0.00     0.034 A 
HETATM    7  C3  UNL     1      90.917  93.342 -44.728  1.00  0.00     0.031 A 
HETATM    8  C4  UNL     1      91.526  93.791 -43.587  1.00  0.00     0.026 A 
HETATM    9  C5  UNL     1      92.199  92.909 -42.788  1.00  0.00     0.034 A 
HETATM   10 CL1  UNL     1      92.972  93.504 -41.328  1.00  0.00    -0.084 Cl
HETATM   11  C6  UNL     1      92.247  91.595 -43.151  1.00  0.00     0.026 A 
HETATM   12  C7  UNL     1      91.618  91.152 -44.324  1.00  0.00     0.031 A 
ENDBRANCH   4   6
ENDBRANCH   1   2
BRANCH   1  13
HETATM   13  N2  UNL     1      90.524  89.498 -49.307  1.00  0.00    -0.301 N 
ATOM     14  H2  UNL     1      91.511  89.369 -49.529  1.00  0.00     0.173 HD
BRANCH  13  15
HETATM   15  S1  UNL     1      89.318  88.352 -49.647  1.00  0.00     0.260 S 
HETATM   16  O2  UNL     1      88.850  88.383 -51.081  1.00  0.00    -0.200 OA
HETATM   17  O3  UNL     1      88.129  88.603 -48.742  1.00  0.00    -0.200 OA
BRANCH  15  18
HETATM   18  C9  UNL     1      89.838  86.715 -49.312  1.00  0.00     0.094 A 
HETATM   19  C10 UNL     1      89.308  85.596 -49.890  1.00  0.00     0.028 A 
HETATM   20  C11 UNL     1      89.804  84.355 -49.535  1.00  0.00     0.019 A 
HETATM   21  C12 UNL     1      90.829  84.258 -48.598  1.00  0.00     0.087 A 
HETATM   22  N3  UNL     1      91.342  85.368 -48.037  1.00  0.00    -0.374 N 
HETATM   23  C13 UNL     1      90.851  86.563 -48.392  1.00  0.00     0.112 A 
ATOM     24  H3  UNL     1      92.094  85.300 -47.351  1.00  0.00     0.164 HD
ENDBRANCH  15  18
ENDBRANCH  13  15
ENDBRANCH   1  13
BRANCH   1  25
HETATM   25  C14 UNL     1      89.955  91.813 -49.675  1.00  0.00     0.018 C 
HETATM   26  C15 UNL     1      88.529  92.278 -49.897  1.00  0.00     0.007 C 
HETATM   27  C16 UNL     1      88.361  92.764 -51.330  1.00  0.00     0.000 C 
HETATM   28  C17 UNL     1      89.561  93.557 -51.774  1.00  0.00     0.000 C 
HETATM   29  C18 UNL     1      90.733  92.606 -51.901  1.00  0.00     0.000 C 
HETATM   30  C19 UNL     1      90.613  91.426 -50.941  1.00  0.00     0.007 C 
ENDBRANCH   1  25
TORSDOF 6
ENDMDL
MODEL 5
REMARK VINA RESULT: -6.956570264      4.480      7.719
REMARK  6 active torsions:
REMARK  status: ('A' for Active; 'I' for Inactive)
REMARK       I    between atoms: C1_2  and  N1_3 
REMARK    1  A    between atoms: C1_2  and  C8_12 
REMARK    2  A    between atoms: N1_3  and  C2_5 
REMARK    3  A    between atoms: C8_12  and  N2_13 
REMARK    4  A    between atoms: C8_12  and  C14_25 
REMARK    5  A    between atoms: N2_13  and  S1_15 
REMARK    6  A    between atoms: S1_15  and  C9_18 
ROOT
HETATM    1  C8  UNL     1      91.939  92.193 -44.886  1.00  0.00     0.189 C 
ENDROOT
BRANCH   1   2
HETATM    2  C1  UNL     1      91.202  93.355 -44.308  1.00  0.00     0.245 C 
HETATM    3  O1  UNL     1      90.417  93.124 -43.379  1.00  0.00    -0.271 OA
HETATM    4  N1  UNL     1      91.393  94.660 -44.805  1.00  0.00    -0.325 N 
ATOM      5  H1  UNL     1      92.052  94.746 -45.578  1.00  0.00     0.169 HD
BRANCH   4   6
HETATM    6  C2  UNL     1      90.806  95.844 -44.384  1.00  0.00     0.034 A 
HETATM    7  C3  UNL     1      91.133  96.364 -43.129  1.00  0.00     0.031 A 
HETATM    8  C4  UNL     1      90.604  97.522 -42.626  1.00  0.00     0.026 A 
HETATM    9  C5  UNL     1      89.705  98.234 -43.370  1.00  0.00     0.034 A 
HETATM   10 CL1  UNL     1      89.039  99.717 -42.708  1.00  0.00    -0.084 Cl
HETATM   11  C6  UNL     1      89.354  97.767 -44.603  1.00  0.00     0.026 A 
HETATM   12  C7  UNL     1      89.905  96.578 -45.102  1.00  0.00     0.031 A 
ENDBRANCH   4   6
ENDBRANCH   1   2
BRANCH   1  13
HETATM   13  N2  UNL     1      90.925  91.238 -45.426  1.00  0.00    -0.301 N 
ATOM     14  H2  UNL     1      90.450  90.533 -44.863  1.00  0.00     0.173 HD
BRANCH  13  15
HETATM   15  S1  UNL     1      90.655  91.463 -47.087  1.00  0.00     0.260 S 
HETATM   16  O2  UNL     1      91.842  92.047 -47.812  1.00  0.00    -0.200 OA
HETATM   17  O3  UNL     1      89.469  92.387 -47.274  1.00  0.00    -0.200 OA
BRANCH  15  18
HETATM   18  C9  UNL     1      90.236  89.973 -47.905  1.00  0.00     0.094 A 
HETATM   19  C10 UNL     1      88.982  89.651 -48.343  1.00  0.00     0.028 A 
HETATM   20  C11 UNL     1      88.780  88.436 -48.971  1.00  0.00     0.019 A 
HETATM   21  C12 UNL     1      89.846  87.558 -49.148  1.00  0.00     0.087 A 
HETATM   22  N3  UNL     1      91.075  87.888 -48.712  1.00  0.00    -0.374 N 
HETATM   23  C13 UNL     1      91.256  89.069 -48.106  1.00  0.00     0.112 A 
ATOM     24  H3  UNL     1      91.858  87.248 -48.842  1.00  0.00     0.164 HD
ENDBRANCH  15  18
ENDBRANCH  13  15
ENDBRANCH   1  13
BRANCH   1  25
HETATM   25  C14 UNL     1      92.770  91.440 -43.886  1.00  0.00     0.018 C 
HETATM   26  C15 UNL     1      91.867  90.575 -43.027  1.00  0.00     0.007 C 
HETATM   27  C16 UNL     1      92.472  90.418 -41.639  1.00  0.00     0.000 C 
HETATM   28  C17 UNL     1      93.962  90.222 -41.719  1.00  0.00     0.000 C 
HETATM   29  C18 UNL     1      94.583  91.522 -42.185  1.00  0.00     0.000 C 
HETATM   30  C19 UNL     1      93.630  92.322 -43.070  1.00  0.00     0.007 C 
ENDBRANCH   1  25
TORSDOF 6
ENDMDL
