MODEL 1
REMARK VINA RESULT: -7.353468997      0.000      0.000
REMARK  11 active torsions:
REMARK  status: ('A' for Active; 'I' for Inactive)
REMARK    1  A    between atoms: N1_2  and  C3_4 
REMARK    2  A    between atoms: C3_4  and  C4_5 
REMARK    3  A    between atoms: C4_5  and  C5_6 
REMARK    4  A    between atoms: C5_6  and  C6_7 
REMARK    5  A    between atoms: C9_10  and  N2_11 
REMARK    6  A    between atoms: N2_11  and  C11_13 
REMARK    7  A    between atoms: C13_16  and  N3_17 
REMARK    8  A    between atoms: C14_20  and  N4_21 
REMARK    9  A    between atoms: N4_21  and  C15_23 
REMARK   10  A    between atoms: C18_26  and  S2_27 
REMARK   11  A    between atoms: S2_27  and  N5_28 
ROOT
HETATM    1  C11 UNL     1     -56.406   6.358   1.641  1.00  0.00     0.115 A 
HETATM    2  C12 UNL     1     -56.695   6.018   2.941  1.00  0.00     0.100 A 
HETATM    3  S1  UNL     1     -55.359   5.902   3.955  1.00  0.00    -0.077 SA
HETATM    4  C13 UNL     1     -53.849   6.241   3.144  1.00  0.00     0.112 A 
HETATM    5  C14 UNL     1     -53.995   6.550   1.801  1.00  0.00     0.141 A 
HETATM    6  N6  UNL     1     -55.198   6.589   1.162  1.00  0.00    -0.326 N 
ATOM      7  H6  UNL     1     -55.160   6.832   0.172  1.00  0.00     0.169 HD
ENDROOT
BRANCH   1   8
HETATM    8  N2  UNL     1     -57.553   6.459   0.740  1.00  0.00    -0.337 N 
HETATM    9  C10 UNL     1     -58.325   7.690   0.755  1.00  0.00     0.158 C 
BRANCH   8  10
HETATM   10  C9  UNL     1     -57.930   5.431  -0.145  1.00  0.00     0.035 A 
HETATM   11  C8  UNL     1     -58.496   4.262   0.320  1.00  0.00     0.030 A 
HETATM   12  C7  UNL     1     -58.882   3.230  -0.528  1.00  0.00     0.009 A 
HETATM   13  C6  UNL     1     -58.706   3.346  -1.885  1.00  0.00    -0.058 A 
HETATM   14  C22 UNL     1     -58.140   4.511  -2.372  1.00  0.00     0.009 A 
HETATM   15  C21 UNL     1     -57.755   5.540  -1.526  1.00  0.00     0.030 A 
BRANCH  13  16
HETATM   16  C5  UNL     1     -59.099   2.270  -2.834  1.00  0.00     0.040 C 
BRANCH  16  17
HETATM   17  C4  UNL     1     -57.932   1.467  -3.330  1.00  0.00     0.035 C 
BRANCH  17  18
HETATM   18  C3  UNL     1     -58.258  -0.006  -3.136  1.00  0.00     0.271 C 
BRANCH  18  19
HETATM   19  N1  UNL     1     -57.344  -0.859  -3.828  1.00  0.00     0.080 N 
HETATM   20  C1  UNL     1     -57.727  -2.230  -3.943  1.00  0.00     0.309 C 
HETATM   21  C2  UNL     1     -56.979  -0.265  -5.089  1.00  0.00     0.309 C 
ENDBRANCH  18  19
ENDBRANCH  17  18
ENDBRANCH  16  17
ENDBRANCH  13  16
ENDBRANCH   8  10
ENDBRANCH   1   8
BRANCH   5  22
HETATM   22  N4  UNL     1     -52.991   6.835   1.096  1.00  0.00    -0.340 N 
ATOM     23  H4  UNL     1     -52.157   6.408   1.500  1.00  0.00     0.167 HD
BRANCH  22  24
HETATM   24  C15 UNL     1     -52.653   7.525  -0.026  1.00  0.00     0.033 A 
HETATM   25  C16 UNL     1     -52.551   6.922  -1.293  1.00  0.00     0.031 A 
HETATM   26  C17 UNL     1     -52.200   7.641  -2.404  1.00  0.00     0.027 A 
HETATM   27  C18 UNL     1     -51.930   8.987  -2.332  1.00  0.00     0.079 A 
HETATM   28  C19 UNL     1     -52.018   9.614  -1.108  1.00  0.00     0.027 A 
HETATM   29  C20 UNL     1     -52.369   8.905   0.014  1.00  0.00     0.031 A 
BRANCH  27  30
HETATM   30  S2  UNL     1     -51.511   9.925  -3.749  1.00  0.00     0.256 S 
HETATM   31  O1  UNL     1     -52.241   9.414  -4.944  1.00  0.00    -0.201 OA
HETATM   32  O2  UNL     1     -51.777  11.396  -3.520  1.00  0.00    -0.201 OA
BRANCH  30  33
HETATM   33  N5  UNL     1     -49.779   9.806  -3.963  1.00  0.00    -0.324 N 
ATOM     34  H52 UNL     1     -49.094  10.492  -3.646  1.00  0.00     0.169 HD
ATOM     35  H51 UNL     1     -49.592   8.934  -4.458  1.00  0.00     0.169 HD
ENDBRANCH  30  33
ENDBRANCH  27  30
ENDBRANCH  22  24
ENDBRANCH   5  22
BRANCH   4  36
HETATM   36  N3  UNL     1     -52.760   6.179   3.743  1.00  0.00    -0.390 N 
ATOM     37  H32 UNL     1     -51.864   5.971   3.302  1.00  0.00     0.157 HD
ATOM     38  H31 UNL     1     -52.697   6.320   4.751  1.00  0.00     0.157 HD
ENDBRANCH   4  36
TORSDOF 11
ENDMDL
MODEL 2
REMARK VINA RESULT: -7.283962661      0.493      1.311
REMARK  11 active torsions:
REMARK  status: ('A' for Active; 'I' for Inactive)
REMARK    1  A    between atoms: N1_2  and  C3_4 
REMARK    2  A    between atoms: C3_4  and  C4_5 
REMARK    3  A    between atoms: C4_5  and  C5_6 
REMARK    4  A    between atoms: C5_6  and  C6_7 
REMARK    5  A    between atoms: C9_10  and  N2_11 
REMARK    6  A    between atoms: N2_11  and  C11_13 
REMARK    7  A    between atoms: C13_16  and  N3_17 
REMARK    8  A    between atoms: C14_20  and  N4_21 
REMARK    9  A    between atoms: N4_21  and  C15_23 
REMARK   10  A    between atoms: C18_26  and  S2_27 
REMARK   11  A    between atoms: S2_27  and  N5_28 
ROOT
HETATM    1  C11 UNL     1     -56.475   6.309   1.811  1.00  0.00     0.115 A 
HETATM    2  C12 UNL     1     -56.695   6.053   3.142  1.00  0.00     0.100 A 
HETATM    3  S1  UNL     1     -55.308   5.990   4.090  1.00  0.00    -0.077 SA
HETATM    4  C13 UNL     1     -53.842   6.266   3.180  1.00  0.00     0.112 A 
HETATM    5  C14 UNL     1     -54.058   6.493   1.830  1.00  0.00     0.141 A 
HETATM    6  N6  UNL     1     -55.293   6.501   1.254  1.00  0.00    -0.326 N 
ATOM      7  H6  UNL     1     -55.306   6.682   0.250  1.00  0.00     0.169 HD
ENDROOT
BRANCH   1   8
HETATM    8  N2  UNL     1     -57.667   6.363   0.967  1.00  0.00    -0.337 N 
HETATM    9  C10 UNL     1     -58.535   7.523   1.086  1.00  0.00     0.158 C 
BRANCH   8  10
HETATM   10  C9  UNL     1     -58.002   5.356   0.041  1.00  0.00     0.035 A 
HETATM   11  C8  UNL     1     -57.767   5.520  -1.309  1.00  0.00     0.030 A 
HETATM   12  C7  UNL     1     -58.083   4.545  -2.246  1.00  0.00     0.009 A 
HETATM   13  C6  UNL     1     -58.652   3.360  -1.848  1.00  0.00    -0.058 A 
HETATM   14  C22 UNL     1     -58.896   3.174  -0.498  1.00  0.00     0.009 A 
HETATM   15  C21 UNL     1     -58.581   4.148   0.436  1.00  0.00     0.030 A 
BRANCH  13  16
HETATM   16  C5  UNL     1     -59.012   2.285  -2.812  1.00  0.00     0.040 C 
BRANCH  16  17
HETATM   17  C4  UNL     1     -58.002   1.177  -2.863  1.00  0.00     0.035 C 
BRANCH  17  18
HETATM   18  C3  UNL     1     -57.185   1.343  -4.134  1.00  0.00     0.271 C 
BRANCH  18  19
HETATM   19  N1  UNL     1     -56.787   0.088  -4.692  1.00  0.00     0.080 N 
HETATM   20  C1  UNL     1     -57.575  -1.043  -4.322  1.00  0.00     0.309 C 
HETATM   21  C2  UNL     1     -56.617   0.219  -6.117  1.00  0.00     0.309 C 
ENDBRANCH  18  19
ENDBRANCH  17  18
ENDBRANCH  16  17
ENDBRANCH  13  16
ENDBRANCH   8  10
ENDBRANCH   1   8
BRANCH   5  22
HETATM   22  N4  UNL     1     -53.092   6.725   1.057  1.00  0.00    -0.340 N 
ATOM     23  H4  UNL     1     -52.280   6.180   1.349  1.00  0.00     0.167 HD
BRANCH  22  24
HETATM   24  C15 UNL     1     -52.774   7.465  -0.039  1.00  0.00     0.033 A 
HETATM   25  C16 UNL     1     -52.619   8.862  -0.001  1.00  0.00     0.031 A 
HETATM   26  C17 UNL     1     -52.307   9.581  -1.124  1.00  0.00     0.027 A 
HETATM   27  C18 UNL     1     -52.132   8.969  -2.342  1.00  0.00     0.079 A 
HETATM   28  C19 UNL     1     -52.277   7.601  -2.421  1.00  0.00     0.027 A 
HETATM   29  C20 UNL     1     -52.589   6.868  -1.303  1.00  0.00     0.031 A 
BRANCH  27  30
HETATM   30  S2  UNL     1     -51.703   9.871  -3.780  1.00  0.00     0.256 S 
HETATM   31  O1  UNL     1     -52.403   9.311  -4.971  1.00  0.00    -0.201 OA
HETATM   32  O2  UNL     1     -51.997  11.343  -3.600  1.00  0.00    -0.201 OA
BRANCH  30  33
HETATM   33  N5  UNL     1     -49.966   9.775  -3.961  1.00  0.00    -0.324 N 
ATOM     34  H52 UNL     1     -49.475   9.310  -4.724  1.00  0.00     0.169 HD
ATOM     35  H51 UNL     1     -49.549  10.264  -3.169  1.00  0.00     0.169 HD
ENDBRANCH  30  33
ENDBRANCH  27  30
ENDBRANCH  22  24
ENDBRANCH   5  22
BRANCH   4  36
HETATM   36  N3  UNL     1     -52.723   6.233   3.724  1.00  0.00    -0.390 N 
ATOM     37  H32 UNL     1     -52.330   6.984   4.291  1.00  0.00     0.157 HD
ATOM     38  H31 UNL     1     -52.102   5.432   3.617  1.00  0.00     0.157 HD
ENDBRANCH   4  36
TORSDOF 11
ENDMDL
MODEL 3
REMARK VINA RESULT: -7.256923524      1.144      1.286
REMARK  11 active torsions:
REMARK  status: ('A' for Active; 'I' for Inactive)
REMARK    1  A    between atoms: N1_2  and  C3_4 
REMARK    2  A    between atoms: C3_4  and  C4_5 
REMARK    3  A    between atoms: C4_5  and  C5_6 
REMARK    4  A    between atoms: C5_6  and  C6_7 
REMARK    5  A    between atoms: C9_10  and  N2_11 
REMARK    6  A    between atoms: N2_11  and  C11_13 
REMARK    7  A    between atoms: C13_16  and  N3_17 
REMARK    8  A    between atoms: C14_20  and  N4_21 
REMARK    9  A    between atoms: N4_21  and  C15_23 
REMARK   10  A    between atoms: C18_26  and  S2_27 
REMARK   11  A    between atoms: S2_27  and  N5_28 
ROOT
HETATM    1  C11 UNL     1     -56.453   6.413   1.802  1.00  0.00     0.115 A 
HETATM    2  C12 UNL     1     -56.699   6.157   3.129  1.00  0.00     0.100 A 
HETATM    3  S1  UNL     1     -55.327   6.050   4.095  1.00  0.00    -0.077 SA
HETATM    4  C13 UNL     1     -53.841   6.290   3.206  1.00  0.00     0.112 A 
HETATM    5  C14 UNL     1     -54.033   6.529   1.855  1.00  0.00     0.141 A 
HETATM    6  N6  UNL     1     -55.259   6.575   1.263  1.00  0.00    -0.326 N 
ATOM      7  H6  UNL     1     -55.254   6.761   0.260  1.00  0.00     0.169 HD
ENDROOT
BRANCH   1   8
HETATM    8  N2  UNL     1     -57.632   6.505   0.943  1.00  0.00    -0.337 N 
HETATM    9  C10 UNL     1     -58.497   7.663   1.093  1.00  0.00     0.158 C 
BRANCH   8  10
HETATM   10  C9  UNL     1     -57.956   5.536  -0.026  1.00  0.00     0.035 A 
HETATM   11  C8  UNL     1     -58.561   4.347   0.327  1.00  0.00     0.030 A 
HETATM   12  C7  UNL     1     -58.895   3.373  -0.605  1.00  0.00     0.009 A 
HETATM   13  C6  UNL     1     -58.627   3.568  -1.938  1.00  0.00    -0.058 A 
HETATM   14  C22 UNL     1     -58.020   4.754  -2.315  1.00  0.00     0.009 A 
HETATM   15  C21 UNL     1     -57.687   5.726  -1.384  1.00  0.00     0.030 A 
BRANCH  13  16
HETATM   16  C5  UNL     1     -58.961   2.555  -2.975  1.00  0.00     0.040 C 
BRANCH  16  17
HETATM   17  C4  UNL     1     -58.301   2.824  -4.295  1.00  0.00     0.035 C 
BRANCH  17  18
HETATM   18  C3  UNL     1     -57.231   1.765  -4.510  1.00  0.00     0.271 C 
BRANCH  18  19
HETATM   19  N1  UNL     1     -56.452   2.011  -5.683  1.00  0.00     0.080 N 
HETATM   20  C1  UNL     1     -55.886   0.863  -6.315  1.00  0.00     0.309 C 
HETATM   21  C2  UNL     1     -57.189   2.853  -6.592  1.00  0.00     0.309 C 
ENDBRANCH  18  19
ENDBRANCH  17  18
ENDBRANCH  16  17
ENDBRANCH  13  16
ENDBRANCH   8  10
ENDBRANCH   1   8
BRANCH   5  22
HETATM   22  N4  UNL     1     -53.050   6.739   1.096  1.00  0.00    -0.340 N 
ATOM     23  H4  UNL     1     -52.243   6.209   1.426  1.00  0.00     0.167 HD
BRANCH  22  24
HETATM   24  C15 UNL     1     -52.711   7.441  -0.019  1.00  0.00     0.033 A 
HETATM   25  C16 UNL     1     -52.688   6.870  -1.304  1.00  0.00     0.031 A 
HETATM   26  C17 UNL     1     -52.333   7.600  -2.408  1.00  0.00     0.027 A 
HETATM   27  C18 UNL     1     -51.982   8.925  -2.308  1.00  0.00     0.079 A 
HETATM   28  C19 UNL     1     -51.990   9.520  -1.065  1.00  0.00     0.027 A 
HETATM   29  C20 UNL     1     -52.344   8.800   0.049  1.00  0.00     0.031 A 
BRANCH  27  30
HETATM   30  S2  UNL     1     -51.557   9.879  -3.713  1.00  0.00     0.256 S 
HETATM   31  O1  UNL     1     -52.252   9.356  -4.924  1.00  0.00    -0.201 OA
HETATM   32  O2  UNL     1     -51.860  11.342  -3.484  1.00  0.00    -0.201 OA
BRANCH  30  33
HETATM   33  N5  UNL     1     -49.819   9.799  -3.894  1.00  0.00    -0.324 N 
ATOM     34  H52 UNL     1     -49.139   9.941  -3.148  1.00  0.00     0.169 HD
ATOM     35  H51 UNL     1     -49.623   9.588  -4.873  1.00  0.00     0.169 HD
ENDBRANCH  30  33
ENDBRANCH  27  30
ENDBRANCH  22  24
ENDBRANCH   5  22
BRANCH   4  36
HETATM   36  N3  UNL     1     -52.731   6.223   3.765  1.00  0.00    -0.390 N 
ATOM     37  H32 UNL     1     -52.387   5.412   4.279  1.00  0.00     0.157 HD
ATOM     38  H31 UNL     1     -52.082   7.009   3.757  1.00  0.00     0.157 HD
ENDBRANCH   4  36
TORSDOF 11
ENDMDL
MODEL 4
REMARK VINA RESULT: -6.921757357      5.519     10.897
REMARK  11 active torsions:
REMARK  status: ('A' for Active; 'I' for Inactive)
REMARK    1  A    between atoms: N1_2  and  C3_4 
REMARK    2  A    between atoms: C3_4  and  C4_5 
REMARK    3  A    between atoms: C4_5  and  C5_6 
REMARK    4  A    between atoms: C5_6  and  C6_7 
REMARK    5  A    between atoms: C9_10  and  N2_11 
REMARK    6  A    between atoms: N2_11  and  C11_13 
REMARK    7  A    between atoms: C13_16  and  N3_17 
REMARK    8  A    between atoms: C14_20  and  N4_21 
REMARK    9  A    between atoms: N4_21  and  C15_23 
REMARK   10  A    between atoms: C18_26  and  S2_27 
REMARK   11  A    between atoms: S2_27  and  N5_28 
ROOT
HETATM    1  C11 UNL     1     -56.755   3.220  -2.610  1.00  0.00     0.115 A 
HETATM    2  C12 UNL     1     -57.394   4.282  -3.201  1.00  0.00     0.100 A 
HETATM    3  S1  UNL     1     -58.105   3.942  -4.687  1.00  0.00    -0.077 SA
HETATM    4  C13 UNL     1     -57.886   2.283  -5.189  1.00  0.00     0.112 A 
HETATM    5  C14 UNL     1     -57.165   1.518  -4.285  1.00  0.00     0.141 A 
HETATM    6  N6  UNL     1     -56.669   2.002  -3.113  1.00  0.00    -0.326 N 
ATOM      7  H6  UNL     1     -56.158   1.329  -2.542  1.00  0.00     0.169 HD
ENDROOT
BRANCH   1   8
HETATM    8  N2  UNL     1     -56.125   3.495  -1.319  1.00  0.00    -0.337 N 
HETATM    9  C10 UNL     1     -56.661   2.830  -0.143  1.00  0.00     0.158 C 
BRANCH   8  10
HETATM   10  C9  UNL     1     -55.021   4.357  -1.169  1.00  0.00     0.035 A 
HETATM   11  C8  UNL     1     -55.050   5.405  -0.272  1.00  0.00     0.030 A 
HETATM   12  C7  UNL     1     -53.977   6.270  -0.100  1.00  0.00     0.009 A 
HETATM   13  C6  UNL     1     -52.829   6.106  -0.834  1.00  0.00    -0.058 A 
HETATM   14  C22 UNL     1     -52.778   5.061  -1.740  1.00  0.00     0.009 A 
HETATM   15  C21 UNL     1     -53.849   4.197  -1.912  1.00  0.00     0.030 A 
BRANCH  13  16
HETATM   16  C5  UNL     1     -51.654   7.007  -0.690  1.00  0.00     0.040 C 
BRANCH  16  17
HETATM   17  C4  UNL     1     -51.989   8.452  -0.909  1.00  0.00     0.035 C 
BRANCH  17  18
HETATM   18  C3  UNL     1     -51.486   8.848  -2.289  1.00  0.00     0.271 C 
BRANCH  18  19
HETATM   19  N1  UNL     1     -50.360   9.727  -2.224  1.00  0.00     0.080 N 
HETATM   20  C1  UNL     1     -49.787  10.107  -3.475  1.00  0.00     0.309 C 
HETATM   21  C2  UNL     1     -50.665  10.850  -1.376  1.00  0.00     0.309 C 
ENDBRANCH  18  19
ENDBRANCH  17  18
ENDBRANCH  16  17
ENDBRANCH  13  16
ENDBRANCH   8  10
ENDBRANCH   1   8
BRANCH   5  22
HETATM   22  N4  UNL     1     -56.947   0.298  -4.510  1.00  0.00    -0.340 N 
ATOM     23  H4  UNL     1     -56.235   0.205  -5.234  1.00  0.00     0.167 HD
BRANCH  22  24
HETATM   24  C15 UNL     1     -57.349  -0.936  -4.103  1.00  0.00     0.033 A 
HETATM   25  C16 UNL     1     -57.674  -1.234  -2.767  1.00  0.00     0.031 A 
HETATM   26  C17 UNL     1     -58.068  -2.489  -2.387  1.00  0.00     0.027 A 
HETATM   27  C18 UNL     1     -58.164  -3.517  -3.295  1.00  0.00     0.079 A 
HETATM   28  C19 UNL     1     -57.852  -3.266  -4.613  1.00  0.00     0.027 A 
HETATM   29  C20 UNL     1     -57.456  -2.012  -5.008  1.00  0.00     0.031 A 
BRANCH  27  30
HETATM   30  S2  UNL     1     -58.695  -5.119  -2.828  1.00  0.00     0.256 S 
HETATM   31  O1  UNL     1     -57.888  -6.157  -3.530  1.00  0.00    -0.201 OA
HETATM   32  O2  UNL     1     -58.639  -5.289  -1.327  1.00  0.00    -0.201 OA
BRANCH  30  33
HETATM   33  N5  UNL     1     -60.391  -5.248  -3.237  1.00  0.00    -0.324 N 
ATOM     34  H52 UNL     1     -61.088  -5.774  -2.710  1.00  0.00     0.169 HD
ATOM     35  H51 UNL     1     -60.543  -4.707  -4.087  1.00  0.00     0.169 HD
ENDBRANCH  30  33
ENDBRANCH  27  30
ENDBRANCH  22  24
ENDBRANCH   5  22
BRANCH   4  36
HETATM   36  N3  UNL     1     -58.331   1.867  -6.274  1.00  0.00    -0.390 N 
ATOM     37  H32 UNL     1     -59.178   2.212  -6.726  1.00  0.00     0.157 HD
ATOM     38  H31 UNL     1     -57.868   1.117  -6.788  1.00  0.00     0.157 HD
ENDBRANCH   4  36
TORSDOF 11
ENDMDL
MODEL 5
REMARK VINA RESULT: -6.921255625      5.751     11.171
REMARK  11 active torsions:
REMARK  status: ('A' for Active; 'I' for Inactive)
REMARK    1  A    between atoms: N1_2  and  C3_4 
REMARK    2  A    between atoms: C3_4  and  C4_5 
REMARK    3  A    between atoms: C4_5  and  C5_6 
REMARK    4  A    between atoms: C5_6  and  C6_7 
REMARK    5  A    between atoms: C9_10  and  N2_11 
REMARK    6  A    between atoms: N2_11  and  C11_13 
REMARK    7  A    between atoms: C13_16  and  N3_17 
REMARK    8  A    between atoms: C14_20  and  N4_21 
REMARK    9  A    between atoms: N4_21  and  C15_23 
REMARK   10  A    between atoms: C18_26  and  S2_27 
REMARK   11  A    between atoms: S2_27  and  N5_28 
ROOT
HETATM    1  C11 UNL     1     -57.145   2.961  -2.115  1.00  0.00     0.115 A 
HETATM    2  C12 UNL     1     -57.697   3.872  -2.983  1.00  0.00     0.100 A 
HETATM    3  S1  UNL     1     -58.400   3.204  -4.357  1.00  0.00    -0.077 SA
HETATM    4  C13 UNL     1     -58.287   1.461  -4.407  1.00  0.00     0.112 A 
HETATM    5  C14 UNL     1     -57.640   0.913  -3.311  1.00  0.00     0.141 A 
HETATM    6  N6  UNL     1     -57.135   1.652  -2.285  1.00  0.00    -0.326 N 
ATOM      7  H6  UNL     1     -56.684   1.118  -1.542  1.00  0.00     0.169 HD
ENDROOT
BRANCH   1   8
HETATM    8  N2  UNL     1     -56.524   3.521  -0.916  1.00  0.00    -0.337 N 
HETATM    9  C10 UNL     1     -57.155   3.256   0.366  1.00  0.00     0.158 C 
BRANCH   8  10
HETATM   10  C9  UNL     1     -55.342   4.287  -0.947  1.00  0.00     0.035 A 
HETATM   11  C8  UNL     1     -54.307   3.969  -1.801  1.00  0.00     0.030 A 
HETATM   12  C7  UNL     1     -53.132   4.706  -1.857  1.00  0.00     0.009 A 
HETATM   13  C6  UNL     1     -52.959   5.800  -1.044  1.00  0.00    -0.058 A 
HETATM   14  C22 UNL     1     -53.986   6.137  -0.179  1.00  0.00     0.009 A 
HETATM   15  C21 UNL     1     -55.159   5.401  -0.123  1.00  0.00     0.030 A 
BRANCH  13  16
HETATM   16  C5  UNL     1     -51.719   6.620  -1.063  1.00  0.00     0.040 C 
BRANCH  16  17
HETATM   17  C4  UNL     1     -51.976   8.082  -0.847  1.00  0.00     0.035 C 
BRANCH  17  18
HETATM   18  C3  UNL     1     -51.665   8.812  -2.144  1.00  0.00     0.271 C 
BRANCH  18  19
HETATM   19  N1  UNL     1     -50.525   9.667  -2.027  1.00  0.00     0.080 N 
HETATM   20  C1  UNL     1     -49.877  10.023  -3.247  1.00  0.00     0.309 C 
HETATM   21  C2  UNL     1     -50.851  10.805  -1.205  1.00  0.00     0.309 C 
ENDBRANCH  18  19
ENDBRANCH  17  18
ENDBRANCH  16  17
ENDBRANCH  13  16
ENDBRANCH   8  10
ENDBRANCH   1   8
BRANCH   5  22
HETATM   22  N4  UNL     1     -57.504  -0.335  -3.207  1.00  0.00    -0.340 N 
ATOM     23  H4  UNL     1     -56.580  -0.608  -3.542  1.00  0.00     0.167 HD
BRANCH  22  24
HETATM   24  C15 UNL     1     -58.184  -1.438  -2.794  1.00  0.00     0.033 A 
HETATM   25  C16 UNL     1     -59.515  -1.392  -2.341  1.00  0.00     0.031 A 
HETATM   26  C17 UNL     1     -60.171  -2.519  -1.922  1.00  0.00     0.027 A 
HETATM   27  C18 UNL     1     -59.557  -3.749  -1.926  1.00  0.00     0.079 A 
HETATM   28  C19 UNL     1     -58.253  -3.836  -2.361  1.00  0.00     0.027 A 
HETATM   29  C20 UNL     1     -57.583  -2.713  -2.783  1.00  0.00     0.031 A 
BRANCH  27  30
HETATM   30  S2  UNL     1     -60.393  -5.203  -1.424  1.00  0.00     0.256 S 
HETATM   31  O1  UNL     1     -60.755  -6.028  -2.611  1.00  0.00    -0.201 OA
HETATM   32  O2  UNL     1     -59.563  -5.986  -0.432  1.00  0.00    -0.201 OA
BRANCH  30  33
HETATM   33  N5  UNL     1     -61.816  -4.709  -0.535  1.00  0.00    -0.324 N 
ATOM     34  H52 UNL     1     -62.252  -5.234   0.223  1.00  0.00     0.169 HD
ATOM     35  H51 UNL     1     -62.118  -3.812  -0.915  1.00  0.00     0.169 HD
ENDBRANCH  30  33
ENDBRANCH  27  30
ENDBRANCH  22  24
ENDBRANCH   5  22
BRANCH   4  36
HETATM   36  N3  UNL     1     -58.738   0.808  -5.365  1.00  0.00    -0.390 N 
ATOM     37  H32 UNL     1     -58.316   0.769  -6.293  1.00  0.00     0.157 HD
ATOM     38  H31 UNL     1     -59.598   0.265  -5.283  1.00  0.00     0.157 HD
ENDBRANCH   4  36
TORSDOF 11
ENDMDL
