MODEL 1
REMARK VINA RESULT: -7.506803744      0.000      0.000
REMARK  6 active torsions:
REMARK  status: ('A' for Active; 'I' for Inactive)
REMARK    1  A    between atoms: C7_7  and  C8_8 
REMARK    2  A    between atoms: C8_8  and  C14_14 
REMARK    3  A    between atoms: C9_9  and  C10_10 
REMARK    4  A    between atoms: C10_10  and  C11_11 
REMARK    5  A    between atoms: C14_14  and  C15_15 
REMARK    6  A    between atoms: C23_24  and  O1_25 
ROOT
HETATM    1  C1  UNL     1      22.800 -25.513 -24.596  1.00  0.00     0.013 C 
HETATM    2  C2  UNL     1      22.892 -24.477 -25.185  1.00  0.00    -0.104 C 
HETATM    3  C3  UNL     1      23.020 -23.253 -25.906  1.00  0.00     0.053 C 
HETATM    4  C4  UNL     1      22.999 -21.995 -25.098  1.00  0.00     0.036 C 
HETATM    5  C5  UNL     1      21.573 -21.955 -24.641  1.00  0.00    -0.031 C 
HETATM    6  C6  UNL     1      21.377 -22.682 -23.327  1.00  0.00     0.016 C 
HETATM    7  C7  UNL     1      20.861 -20.683 -24.555  1.00  0.00     0.023 C 
HETATM    8  C17 UNL     1      20.693 -20.318 -25.991  1.00  0.00     0.010 C 
HETATM    9  C18 UNL     1      19.898 -21.590 -26.403  1.00  0.00     0.006 C 
HETATM   10  C19 UNL     1      20.782 -22.679 -25.771  1.00  0.00     0.000 C 
HETATM   11  C20 UNL     1      21.805 -22.971 -26.771  1.00  0.00     0.014 C 
HETATM   12  C21 UNL     1      21.791 -24.228 -27.545  1.00  0.00     0.009 C 
HETATM   13  C22 UNL     1      23.276 -24.336 -27.943  1.00  0.00     0.034 C 
HETATM   14  C23 UNL     1      24.021 -23.364 -27.005  1.00  0.00     0.139 C 
ENDROOT
BRANCH  14  15
HETATM   15  O1  UNL     1      24.219 -22.168 -27.653  1.00  0.00    -0.394 OA
ATOM     16  H1  UNL     1      23.402 -21.740 -27.879  1.00  0.00     0.210 HD
ENDBRANCH  14  15
BRANCH   7  17
HETATM   17  C8  UNL     1      21.201 -19.628 -23.599  1.00  0.00    -0.074 C 
HETATM   18  C9  UNL     1      20.819 -19.558 -22.359  1.00  0.00     0.012 C 
BRANCH  18  19
HETATM   19  C10 UNL     1      20.973 -18.684 -21.216  1.00  0.00     0.065 C 
BRANCH  19  20
HETATM   20  C11 UNL     1      22.198 -18.090 -20.841  1.00  0.00    -0.079 C 
HETATM   21  C12 UNL     1      23.260 -17.590 -20.564  1.00  0.00    -0.106 C 
HETATM   22  C13 UNL     1      24.541 -16.994 -20.204  1.00  0.00     0.112 C 
ENDBRANCH  19  20
ENDBRANCH  18  19
BRANCH  17  23
HETATM   23  C14 UNL     1      22.135 -18.586 -24.145  1.00  0.00     0.048 C 
BRANCH  23  24
HETATM   24  C15 UNL     1      23.598 -18.987 -23.959  1.00  0.00     0.128 C 
HETATM   25  C16 UNL     1      24.451 -17.808 -24.245  1.00  0.00     0.059 C 
HETATM   26  N1  UNL     1      25.118 -16.896 -24.484  1.00  0.00    -0.197 NA
ENDBRANCH  23  24
ENDBRANCH  17  23
ENDBRANCH   7  17
TORSDOF 6
ENDMDL
MODEL 2
REMARK VINA RESULT: -7.430516184      1.427      2.179
REMARK  6 active torsions:
REMARK  status: ('A' for Active; 'I' for Inactive)
REMARK    1  A    between atoms: C7_7  and  C8_8 
REMARK    2  A    between atoms: C8_8  and  C14_14 
REMARK    3  A    between atoms: C9_9  and  C10_10 
REMARK    4  A    between atoms: C10_10  and  C11_11 
REMARK    5  A    between atoms: C14_14  and  C15_15 
REMARK    6  A    between atoms: C23_24  and  O1_25 
ROOT
HETATM    1  C1  UNL     1      23.160 -25.327 -24.723  1.00  0.00     0.013 C 
HETATM    2  C2  UNL     1      23.113 -24.379 -25.448  1.00  0.00    -0.104 C 
HETATM    3  C3  UNL     1      23.068 -23.262 -26.334  1.00  0.00     0.053 C 
HETATM    4  C4  UNL     1      23.273 -21.913 -25.722  1.00  0.00     0.036 C 
HETATM    5  C5  UNL     1      22.014 -21.749 -24.929  1.00  0.00    -0.031 C 
HETATM    6  C6  UNL     1      22.151 -22.296 -23.523  1.00  0.00     0.016 C 
HETATM    7  C7  UNL     1      21.365 -20.444 -24.835  1.00  0.00     0.023 C 
HETATM    8  C17 UNL     1      20.839 -20.253 -26.218  1.00  0.00     0.010 C 
HETATM    9  C18 UNL     1      19.947 -21.527 -26.243  1.00  0.00     0.006 C 
HETATM   10  C19 UNL     1      20.948 -22.570 -25.715  1.00  0.00     0.000 C 
HETATM   11  C20 UNL     1      21.676 -23.033 -26.894  1.00  0.00     0.014 C 
HETATM   12  C21 UNL     1      21.446 -24.375 -27.464  1.00  0.00     0.009 C 
HETATM   13  C22 UNL     1      22.777 -24.602 -28.207  1.00  0.00     0.034 C 
HETATM   14  C23 UNL     1      23.751 -23.557 -27.626  1.00  0.00     0.139 C 
ENDROOT
BRANCH  14  15
HETATM   15  O1  UNL     1      23.793 -22.462 -28.456  1.00  0.00    -0.394 OA
ATOM     16  H1  UNL     1      22.929 -22.113 -28.635  1.00  0.00     0.210 HD
ENDBRANCH  14  15
BRANCH   7  17
HETATM   17  C8  UNL     1      21.955 -19.295 -24.145  1.00  0.00    -0.074 C 
HETATM   18  C9  UNL     1      23.144 -18.807 -24.337  1.00  0.00     0.012 C 
BRANCH  18  19
HETATM   19  C10 UNL     1      23.979 -17.738 -23.834  1.00  0.00     0.065 C 
BRANCH  19  20
HETATM   20  C11 UNL     1      24.203 -17.495 -22.461  1.00  0.00    -0.079 C 
HETATM   21  C12 UNL     1      24.360 -17.319 -21.278  1.00  0.00    -0.106 C 
HETATM   22  C13 UNL     1      24.558 -17.081 -19.854  1.00  0.00     0.112 C 
ENDBRANCH  19  20
ENDBRANCH  18  19
BRANCH  17  23
HETATM   23  C14 UNL     1      21.026 -18.620 -23.177  1.00  0.00     0.048 C 
BRANCH  23  24
HETATM   24  C15 UNL     1      20.428 -19.616 -22.184  1.00  0.00     0.128 C 
HETATM   25  C16 UNL     1      21.279 -19.639 -20.969  1.00  0.00     0.059 C 
HETATM   26  N1  UNL     1      21.950 -19.673 -20.030  1.00  0.00    -0.197 NA
ENDBRANCH  23  24
ENDBRANCH  17  23
ENDBRANCH   7  17
TORSDOF 6
ENDMDL
MODEL 3
REMARK VINA RESULT: -7.352012475      2.675      6.821
REMARK  6 active torsions:
REMARK  status: ('A' for Active; 'I' for Inactive)
REMARK    1  A    between atoms: C7_7  and  C8_8 
REMARK    2  A    between atoms: C8_8  and  C14_14 
REMARK    3  A    between atoms: C9_9  and  C10_10 
REMARK    4  A    between atoms: C10_10  and  C11_11 
REMARK    5  A    between atoms: C14_14  and  C15_15 
REMARK    6  A    between atoms: C23_24  and  O1_25 
ROOT
HETATM    1  C1  UNL     1      24.704 -16.700 -23.411  1.00  0.00     0.013 C 
HETATM    2  C2  UNL     1      24.295 -17.558 -22.688  1.00  0.00    -0.104 C 
HETATM    3  C3  UNL     1      23.824 -18.574 -21.804  1.00  0.00     0.053 C 
HETATM    4  C4  UNL     1      23.494 -19.897 -22.419  1.00  0.00     0.036 C 
HETATM    5  C5  UNL     1      22.268 -19.562 -23.212  1.00  0.00    -0.031 C 
HETATM    6  C6  UNL     1      22.606 -19.107 -24.616  1.00  0.00     0.016 C 
HETATM    7  C7  UNL     1      21.168 -20.517 -23.308  1.00  0.00     0.023 C 
HETATM    8  C17 UNL     1      20.608 -20.494 -21.925  1.00  0.00     0.010 C 
HETATM    9  C18 UNL     1      20.276 -18.974 -21.897  1.00  0.00     0.006 C 
HETATM   10  C19 UNL     1      21.601 -18.396 -22.423  1.00  0.00     0.000 C 
HETATM   11  C20 UNL     1      22.451 -18.251 -21.244  1.00  0.00     0.014 C 
HETATM   12  C21 UNL     1      22.755 -16.925 -20.671  1.00  0.00     0.009 C 
HETATM   13  C22 UNL     1      24.071 -17.230 -19.928  1.00  0.00     0.034 C 
HETATM   14  C23 UNL     1      24.568 -18.568 -20.513  1.00  0.00     0.139 C 
ENDROOT
BRANCH  14  15
HETATM   15  O1  UNL     1      24.185 -19.596 -19.684  1.00  0.00    -0.394 OA
ATOM     16  H1  UNL     1      24.911 -20.163 -19.455  1.00  0.00     0.210 HD
ENDBRANCH  14  15
BRANCH   7  17
HETATM   17  C8  UNL     1      21.270 -21.802 -24.001  1.00  0.00    -0.074 C 
HETATM   18  C9  UNL     1      21.993 -22.819 -23.638  1.00  0.00     0.012 C 
BRANCH  18  19
HETATM   19  C10 UNL     1      22.298 -24.159 -24.090  1.00  0.00     0.065 C 
BRANCH  19  20
HETATM   20  C11 UNL     1      23.180 -24.447 -25.155  1.00  0.00    -0.079 C 
HETATM   21  C12 UNL     1      23.939 -24.647 -26.070  1.00  0.00    -0.106 C 
HETATM   22  C13 UNL     1      24.844 -24.911 -27.183  1.00  0.00     0.112 C 
ENDBRANCH  19  20
ENDBRANCH  18  19
BRANCH  17  23
HETATM   23  C14 UNL     1      20.383 -21.919 -25.207  1.00  0.00     0.048 C 
BRANCH  23  24
HETATM   24  C15 UNL     1      21.145 -21.616 -26.497  1.00  0.00     0.128 C 
HETATM   25  C16 UNL     1      21.080 -22.810 -27.375  1.00  0.00     0.059 C 
HETATM   26  N1  UNL     1      21.046 -23.745 -28.053  1.00  0.00    -0.197 NA
ENDBRANCH  23  24
ENDBRANCH  17  23
ENDBRANCH   7  17
TORSDOF 6
ENDMDL
MODEL 4
REMARK VINA RESULT: -6.863828640      2.035      2.697
REMARK  6 active torsions:
REMARK  status: ('A' for Active; 'I' for Inactive)
REMARK    1  A    between atoms: C7_7  and  C8_8 
REMARK    2  A    between atoms: C8_8  and  C14_14 
REMARK    3  A    between atoms: C9_9  and  C10_10 
REMARK    4  A    between atoms: C10_10  and  C11_11 
REMARK    5  A    between atoms: C14_14  and  C15_15 
REMARK    6  A    between atoms: C23_24  and  O1_25 
ROOT
HETATM    1  C1  UNL     1      22.407 -25.771 -24.896  1.00  0.00     0.013 C 
HETATM    2  C2  UNL     1      22.656 -24.658 -25.252  1.00  0.00    -0.104 C 
HETATM    3  C3  UNL     1      22.967 -23.340 -25.699  1.00  0.00     0.053 C 
HETATM    4  C4  UNL     1      23.180 -22.307 -24.639  1.00  0.00     0.036 C 
HETATM    5  C5  UNL     1      21.795 -22.146 -24.093  1.00  0.00    -0.031 C 
HETATM    6  C6  UNL     1      21.516 -23.108 -22.957  1.00  0.00     0.016 C 
HETATM    7  C7  UNL     1      21.309 -20.830 -23.689  1.00  0.00     0.023 C 
HETATM    8  C17 UNL     1      21.164 -20.131 -24.999  1.00  0.00     0.010 C 
HETATM    9  C18 UNL     1      20.157 -21.137 -25.624  1.00  0.00     0.006 C 
HETATM   10  C19 UNL     1      20.862 -22.466 -25.299  1.00  0.00     0.000 C 
HETATM   11  C20 UNL     1      21.793 -22.684 -26.402  1.00  0.00     0.014 C 
HETATM   12  C21 UNL     1      21.546 -23.719 -27.427  1.00  0.00     0.009 C 
HETATM   13  C22 UNL     1      22.981 -23.967 -27.933  1.00  0.00     0.034 C 
HETATM   14  C23 UNL     1      23.904 -23.359 -26.858  1.00  0.00     0.139 C 
ENDROOT
BRANCH  14  15
HETATM   15  O1  UNL     1      24.282 -22.095 -27.245  1.00  0.00    -0.394 OA
ATOM     16  H1  UNL     1      25.014 -21.767 -26.737  1.00  0.00     0.210 HD
ENDBRANCH  14  15
BRANCH   7  17
HETATM   17  C8  UNL     1      21.849 -20.082 -22.552  1.00  0.00    -0.074 C 
HETATM   18  C9  UNL     1      23.099 -19.798 -22.338  1.00  0.00     0.012 C 
BRANCH  18  19
HETATM   19  C10 UNL     1      23.911 -19.116 -21.355  1.00  0.00     0.065 C 
BRANCH  19  20
HETATM   20  C11 UNL     1      24.180 -17.729 -21.383  1.00  0.00    -0.079 C 
HETATM   21  C12 UNL     1      24.455 -16.556 -21.409  1.00  0.00    -0.106 C 
HETATM   22  C13 UNL     1      24.767 -15.131 -21.427  1.00  0.00     0.112 C 
ENDBRANCH  19  20
ENDBRANCH  18  19
BRANCH  17  23
HETATM   23  C14 UNL     1      20.801 -19.567 -21.606  1.00  0.00     0.048 C 
BRANCH  23  24
HETATM   24  C15 UNL     1      19.927 -20.698 -21.065  1.00  0.00     0.128 C 
HETATM   25  C16 UNL     1      20.687 -21.420 -20.014  1.00  0.00     0.059 C 
HETATM   26  N1  UNL     1      21.283 -21.995 -19.209  1.00  0.00    -0.197 NA
ENDBRANCH  23  24
ENDBRANCH  17  23
ENDBRANCH   7  17
TORSDOF 6
ENDMDL
MODEL 5
REMARK VINA RESULT: -6.717287520      2.725      6.881
REMARK  6 active torsions:
REMARK  status: ('A' for Active; 'I' for Inactive)
REMARK    1  A    between atoms: C7_7  and  C8_8 
REMARK    2  A    between atoms: C8_8  and  C14_14 
REMARK    3  A    between atoms: C9_9  and  C10_10 
REMARK    4  A    between atoms: C10_10  and  C11_11 
REMARK    5  A    between atoms: C14_14  and  C15_15 
REMARK    6  A    between atoms: C23_24  and  O1_25 
ROOT
HETATM    1  C1  UNL     1      24.262 -17.062 -21.619  1.00  0.00     0.013 C 
HETATM    2  C2  UNL     1      23.551 -18.012 -21.475  1.00  0.00    -0.104 C 
HETATM    3  C3  UNL     1      22.706 -19.143 -21.276  1.00  0.00     0.053 C 
HETATM    4  C4  UNL     1      22.796 -20.234 -22.295  1.00  0.00     0.036 C 
HETATM    5  C5  UNL     1      22.183 -19.577 -23.493  1.00  0.00    -0.031 C 
HETATM    6  C6  UNL     1      23.212 -18.847 -24.331  1.00  0.00     0.016 C 
HETATM    7  C7  UNL     1      21.334 -20.343 -24.401  1.00  0.00     0.023 C 
HETATM    8  C17 UNL     1      20.117 -20.580 -23.572  1.00  0.00     0.010 C 
HETATM    9  C18 UNL     1      19.780 -19.082 -23.324  1.00  0.00     0.006 C 
HETATM   10  C19 UNL     1      21.164 -18.558 -22.900  1.00  0.00     0.000 C 
HETATM   11  C20 UNL     1      21.239 -18.799 -21.461  1.00  0.00     0.014 C 
HETATM   12  C21 UNL     1      21.149 -17.692 -20.488  1.00  0.00     0.009 C 
HETATM   13  C22 UNL     1      21.866 -18.319 -19.275  1.00  0.00     0.034 C 
HETATM   14  C23 UNL     1      22.635 -19.531 -19.838  1.00  0.00     0.139 C 
ENDROOT
BRANCH  14  15
HETATM   15  O1  UNL     1      21.895 -20.672 -19.641  1.00  0.00    -0.394 OA
ATOM     16  H1  UNL     1      21.194 -20.543 -19.013  1.00  0.00     0.210 HD
ENDBRANCH  14  15
BRANCH   7  17
HETATM   17  C8  UNL     1      21.828 -21.432 -25.246  1.00  0.00    -0.074 C 
HETATM   18  C9  UNL     1      21.539 -21.630 -26.497  1.00  0.00     0.012 C 
BRANCH  18  19
HETATM   19  C10 UNL     1      21.845 -22.570 -27.553  1.00  0.00     0.065 C 
BRANCH  19  20
HETATM   20  C11 UNL     1      23.158 -22.882 -27.971  1.00  0.00    -0.079 C 
HETATM   21  C12 UNL     1      24.295 -23.129 -28.288  1.00  0.00    -0.106 C 
HETATM   22  C13 UNL     1      25.663 -23.426 -28.697  1.00  0.00     0.112 C 
ENDBRANCH  19  20
ENDBRANCH  18  19
BRANCH  17  23
HETATM   23  C14 UNL     1      22.809 -22.341 -24.561  1.00  0.00     0.048 C 
BRANCH  23  24
HETATM   24  C15 UNL     1      22.246 -23.752 -24.393  1.00  0.00     0.128 C 
HETATM   25  C16 UNL     1      23.265 -24.725 -24.859  1.00  0.00     0.059 C 
HETATM   26  N1  UNL     1      24.050 -25.483 -25.237  1.00  0.00    -0.197 NA
ENDBRANCH  23  24
ENDBRANCH  17  23
ENDBRANCH   7  17
TORSDOF 6
ENDMDL
