MODEL 1
REMARK VINA RESULT: -6.854067406      0.000      0.000
REMARK  3 active torsions:
REMARK  status: ('A' for Active; 'I' for Inactive)
REMARK    1  A    between atoms: C3_6  and  N2_7 
REMARK    2  A    between atoms: N2_7  and  N3_9 
REMARK    3  A    between atoms: N3_9  and  C4_11 
ROOT
HETATM    1  N2  UNL     1      57.983 -32.116   0.377  1.00  0.00    -0.257 N 
ATOM      2  H2  UNL     1      58.115 -32.543  -0.540  1.00  0.00     0.190 HD
ENDROOT
BRANCH   1   3
HETATM    3  C3  UNL     1      57.476 -30.789   0.438  1.00  0.00     0.197 A 
HETATM    4  N1  UNL     1      56.427 -30.416   1.044  1.00  0.00    -0.352 N 
HETATM    5  C2  UNL     1      56.188 -29.000   0.913  1.00  0.00     0.225 A 
ATOM      6  H1  UNL     1      55.819 -31.047   1.566  1.00  0.00     0.163 HD
HETATM    7  C1  UNL     1      57.312 -28.532   0.089  1.00  0.00     0.242 A 
HETATM    8  O1  UNL     1      57.517 -27.348  -0.284  1.00  0.00    -0.271 OA
HETATM    9  N8  UNL     1      58.102 -29.674  -0.195  1.00  0.00    -0.296 N 
ATOM     10  H8  UNL     1      58.959 -29.694  -0.748  1.00  0.00     0.172 HD
ENDBRANCH   1   3
BRANCH   1  11
HETATM   11  N3  UNL     1      58.309 -32.861   1.503  1.00  0.00    -0.127 N 
ATOM     12  H3  UNL     1      58.956 -32.459   2.181  1.00  0.00     0.205 HD
BRANCH  11  13
HETATM   13  C4  UNL     1      57.833 -34.038   1.734  1.00  0.00     0.722 A 
HETATM   14  N4  UNL     1      56.890 -34.426   2.610  1.00  0.00    -0.115 N 
HETATM   15  N5  UNL     1      56.700 -35.746   2.519  1.00  0.00     0.006 NA
ATOM     16  H4  UNL     1      56.394 -33.807   3.250  1.00  0.00     0.202 HD
HETATM   17  N6  UNL     1      57.533 -36.167   1.580  1.00  0.00     0.006 NA
HETATM   18  N7  UNL     1      58.230 -35.145   1.091  1.00  0.00    -0.115 N 
ATOM     19  H7  UNL     1      58.938 -35.196   0.360  1.00  0.00     0.202 HD
ENDBRANCH  11  13
ENDBRANCH   1  11
TORSDOF 3
ENDMDL
MODEL 2
REMARK VINA RESULT: -6.590319365      5.495      7.308
REMARK  3 active torsions:
REMARK  status: ('A' for Active; 'I' for Inactive)
REMARK    1  A    between atoms: C3_6  and  N2_7 
REMARK    2  A    between atoms: N2_7  and  N3_9 
REMARK    3  A    between atoms: N3_9  and  C4_11 
ROOT
HETATM    1  N2  UNL     1      61.215 -36.852   1.135  1.00  0.00    -0.257 N 
ATOM      2  H2  UNL     1      61.237 -37.014   2.142  1.00  0.00     0.190 HD
ENDROOT
BRANCH   1   3
HETATM    3  C3  UNL     1      62.416 -37.027   0.396  1.00  0.00     0.197 A 
HETATM    4  N1  UNL     1      63.243 -37.980   0.526  1.00  0.00    -0.352 N 
HETATM    5  C2  UNL     1      64.363 -37.866  -0.375  1.00  0.00     0.225 A 
ATOM      6  H1  UNL     1      63.130 -38.742   1.194  1.00  0.00     0.163 HD
HETATM    7  C1  UNL     1      64.085 -36.630  -1.122  1.00  0.00     0.242 A 
HETATM    8  O1  UNL     1      64.802 -36.131  -2.027  1.00  0.00    -0.271 OA
HETATM    9  N8  UNL     1      62.860 -36.126  -0.618  1.00  0.00    -0.296 N 
ATOM     10  H8  UNL     1      62.384 -35.277  -0.923  1.00  0.00     0.172 HD
ENDBRANCH   1   3
BRANCH   1  11
HETATM   11  N3  UNL     1      60.011 -36.471   0.555  1.00  0.00    -0.127 N 
ATOM     12  H3  UNL     1      59.971 -36.370  -0.459  1.00  0.00     0.205 HD
BRANCH  11  13
HETATM   13  C4  UNL     1      58.941 -36.240   1.237  1.00  0.00     0.722 A 
HETATM   14  N4  UNL     1      57.695 -36.719   1.071  1.00  0.00    -0.115 N 
HETATM   15  N5  UNL     1      56.886 -36.215   2.008  1.00  0.00     0.006 NA
ATOM     16  H4  UNL     1      57.411 -37.369   0.340  1.00  0.00     0.202 HD
HETATM   17  N6  UNL     1      57.641 -35.422   2.750  1.00  0.00     0.006 NA
HETATM   18  N7  UNL     1      58.892 -35.423   2.299  1.00  0.00    -0.115 N 
ATOM     19  H7  UNL     1      59.673 -34.897   2.691  1.00  0.00     0.202 HD
ENDBRANCH  11  13
ENDBRANCH   1  11
TORSDOF 3
ENDMDL
MODEL 3
REMARK VINA RESULT: -6.486800788      3.189      5.914
REMARK  3 active torsions:
REMARK  status: ('A' for Active; 'I' for Inactive)
REMARK    1  A    between atoms: C3_6  and  N2_7 
REMARK    2  A    between atoms: N2_7  and  N3_9 
REMARK    3  A    between atoms: N3_9  and  C4_11 
ROOT
HETATM    1  N2  UNL     1      58.344 -30.450  -0.464  1.00  0.00    -0.257 N 
ATOM      2  H2  UNL     1      58.281 -29.447  -0.290  1.00  0.00     0.190 HD
ENDROOT
BRANCH   1   3
HETATM    3  C3  UNL     1      58.033 -31.341   0.599  1.00  0.00     0.197 A 
HETATM    4  N1  UNL     1      58.043 -32.608   0.542  1.00  0.00    -0.352 N 
HETATM    5  C2  UNL     1      57.680 -33.221   1.796  1.00  0.00     0.225 A 
ATOM      6  H1  UNL     1      58.282 -33.135  -0.298  1.00  0.00     0.163 HD
HETATM    7  C1  UNL     1      57.431 -32.075   2.684  1.00  0.00     0.242 A 
HETATM    8  O1  UNL     1      57.083 -32.133   3.891  1.00  0.00    -0.271 OA
HETATM    9  N8  UNL     1      57.659 -30.911   1.908  1.00  0.00    -0.296 N 
ATOM     10  H8  UNL     1      57.572 -29.946   2.225  1.00  0.00     0.172 HD
ENDBRANCH   1   3
BRANCH   1  11
HETATM   11  N3  UNL     1      58.727 -30.877  -1.730  1.00  0.00    -0.127 N 
ATOM     12  H3  UNL     1      58.501 -31.831  -2.009  1.00  0.00     0.205 HD
BRANCH  11  13
HETATM   13  C4  UNL     1      59.356 -30.125  -2.568  1.00  0.00     0.722 A 
HETATM   14  N4  UNL     1      58.875 -29.225  -3.443  1.00  0.00    -0.115 N 
HETATM   15  N5  UNL     1      59.883 -28.667  -4.122  1.00  0.00     0.006 NA
ATOM     16  H4  UNL     1      57.889 -29.001  -3.571  1.00  0.00     0.202 HD
HETATM   17  N6  UNL     1      60.986 -29.230  -3.658  1.00  0.00     0.006 NA
HETATM   18  N7  UNL     1      60.689 -30.118  -2.714  1.00  0.00    -0.115 N 
ATOM     19  H7  UNL     1      61.355 -30.691  -2.196  1.00  0.00     0.202 HD
ENDBRANCH  11  13
ENDBRANCH   1  11
TORSDOF 3
ENDMDL
MODEL 4
REMARK VINA RESULT: -6.479778233      6.184      7.911
REMARK  3 active torsions:
REMARK  status: ('A' for Active; 'I' for Inactive)
REMARK    1  A    between atoms: C3_6  and  N2_7 
REMARK    2  A    between atoms: N2_7  and  N3_9 
REMARK    3  A    between atoms: N3_9  and  C4_11 
ROOT
HETATM    1  N2  UNL     1      58.696 -27.405  -6.330  1.00  0.00    -0.257 N 
ATOM      2  H2  UNL     1      58.824 -27.474  -7.339  1.00  0.00     0.190 HD
ENDROOT
BRANCH   1   3
HETATM    3  C3  UNL     1      58.891 -26.142  -5.708  1.00  0.00     0.197 A 
HETATM    4  N1  UNL     1      59.959 -25.458  -5.721  1.00  0.00    -0.352 N 
HETATM    5  C2  UNL     1      59.830 -24.219  -4.995  1.00  0.00     0.225 A 
ATOM      6  H1  UNL     1      60.814 -25.751  -6.192  1.00  0.00     0.163 HD
HETATM    7  C1  UNL     1      58.444 -24.244  -4.506  1.00  0.00     0.242 A 
HETATM    8  O1  UNL     1      57.882 -23.356  -3.815  1.00  0.00    -0.271 OA
HETATM    9  N8  UNL     1      57.880 -25.461  -4.967  1.00  0.00    -0.296 N 
ATOM     10  H8  UNL     1      56.928 -25.788  -4.800  1.00  0.00     0.172 HD
ENDBRANCH   1   3
BRANCH   1  11
HETATM   11  N3  UNL     1      58.341 -28.553  -5.631  1.00  0.00    -0.127 N 
ATOM     12  H3  UNL     1      57.548 -29.099  -5.966  1.00  0.00     0.205 HD
BRANCH  11  13
HETATM   13  C4  UNL     1      58.966 -28.960  -4.578  1.00  0.00     0.722 A 
HETATM   14  N4  UNL     1      58.477 -29.403  -3.407  1.00  0.00    -0.115 N 
HETATM   15  N5  UNL     1      59.483 -29.725  -2.587  1.00  0.00     0.006 NA
ATOM     16  H4  UNL     1      57.487 -29.482  -3.178  1.00  0.00     0.202 HD
HETATM   17  N6  UNL     1      60.593 -29.477  -3.262  1.00  0.00     0.006 NA
HETATM   18  N7  UNL     1      60.301 -29.012  -4.473  1.00  0.00    -0.115 N 
ATOM     19  H7  UNL     1      60.973 -28.743  -5.192  1.00  0.00     0.202 HD
ENDBRANCH  11  13
ENDBRANCH   1  11
TORSDOF 3
ENDMDL
MODEL 5
REMARK VINA RESULT: -6.477520740      6.249      8.011
REMARK  3 active torsions:
REMARK  status: ('A' for Active; 'I' for Inactive)
REMARK    1  A    between atoms: C3_6  and  N2_7 
REMARK    2  A    between atoms: N2_7  and  N3_9 
REMARK    3  A    between atoms: N3_9  and  C4_11 
ROOT
HETATM    1  N2  UNL     1      58.745 -27.237  -6.522  1.00  0.00    -0.257 N 
ATOM      2  H2  UNL     1      58.957 -27.232  -7.520  1.00  0.00     0.190 HD
ENDROOT
BRANCH   1   3
HETATM    3  C3  UNL     1      58.944 -26.040  -5.782  1.00  0.00     0.197 A 
HETATM    4  N1  UNL     1      60.036 -25.407  -5.661  1.00  0.00    -0.352 N 
HETATM    5  C2  UNL     1      59.903 -24.227  -4.843  1.00  0.00     0.225 A 
ATOM      6  H1  UNL     1      60.912 -25.700  -6.094  1.00  0.00     0.163 HD
HETATM    7  C1  UNL     1      58.484 -24.229  -4.457  1.00  0.00     0.242 A 
HETATM    8  O1  UNL     1      57.909 -23.375  -3.734  1.00  0.00    -0.271 OA
HETATM    9  N8  UNL     1      57.908 -25.376  -5.059  1.00  0.00    -0.296 N 
ATOM     10  H8  UNL     1      56.935 -25.671  -4.988  1.00  0.00     0.172 HD
ENDBRANCH   1   3
BRANCH   1  11
HETATM   11  N3  UNL     1      58.278 -28.416  -5.954  1.00  0.00    -0.127 N 
ATOM     12  H3  UNL     1      57.656 -29.007  -6.505  1.00  0.00     0.205 HD
BRANCH  11  13
HETATM   13  C4  UNL     1      58.592 -28.799  -4.763  1.00  0.00     0.722 A 
HETATM   14  N4  UNL     1      59.786 -29.168  -4.266  1.00  0.00    -0.115 N 
HETATM   15  N5  UNL     1      59.660 -29.492  -2.975  1.00  0.00     0.006 NA
ATOM     16  H4  UNL     1      60.657 -29.197  -4.795  1.00  0.00     0.202 HD
HETATM   17  N6  UNL     1      58.382 -29.321  -2.682  1.00  0.00     0.006 NA
HETATM   18  N7  UNL     1      57.716 -28.900  -3.753  1.00  0.00    -0.115 N 
ATOM     19  H7  UNL     1      56.718 -28.693  -3.798  1.00  0.00     0.202 HD
ENDBRANCH  11  13
ENDBRANCH   1  11
TORSDOF 3
ENDMDL
