MODEL 1
REMARK VINA RESULT: -5.663343356      0.000      0.000
REMARK  4 active torsions:
REMARK  status: ('A' for Active; 'I' for Inactive)
REMARK    1  A    between atoms: O1_2  and  C2_3 
REMARK    2  A    between atoms: C2_3  and  C3_4 
REMARK    3  A    between atoms: C3_4  and  N1_5 
REMARK    4  A    between atoms: N1_5  and  C4_8 
ROOT
HETATM    1  C4  UNL     1       9.200 193.645  85.633  1.00  0.00     0.217 C 
HETATM    2  C5  UNL     1       8.774 195.079  85.980  1.00  0.00     0.062 C 
HETATM    3  C6  UNL     1       7.362 195.052  85.397  1.00  0.00     0.235 C 
HETATM    4  N2  UNL     1       7.636 194.535  84.072  1.00  0.00    -0.069 N 
ATOM      5  H21 UNL     1       8.015 195.219  83.417  1.00  0.00     0.277 HD
ATOM      6  H22 UNL     1       6.808 194.314  83.520  1.00  0.00     0.277 HD
HETATM    7  C7  UNL     1       8.502 193.411  84.341  1.00  0.00     0.212 C 
HETATM    8  C8  UNL     1       7.678 192.144  84.331  1.00  0.00     0.042 C 
ENDROOT
BRANCH   1   9
HETATM    9  N1  UNL     1      10.643 193.681  85.558  1.00  0.00    -0.067 N 
ATOM     10  H12 UNL     1      10.983 193.250  84.698  1.00  0.00     0.277 HD
ATOM     11  H11 UNL     1      11.067 193.043  86.233  1.00  0.00     0.277 HD
BRANCH   9  12
HETATM   12  C3  UNL     1      11.149 195.025  85.713  1.00  0.00     0.258 C 
BRANCH  12  13
HETATM   13  C2  UNL     1      12.500 195.102  86.352  1.00  0.00     0.194 C 
BRANCH  13  14
HETATM   14  O1  UNL     1      12.578 196.024  87.371  1.00  0.00    -0.394 OA
HETATM   15  C1  UNL     1      11.681 195.687  88.402  1.00  0.00     0.201 C 
ENDBRANCH  13  14
ENDBRANCH  12  13
ENDBRANCH   9  12
ENDBRANCH   1   9
TORSDOF 4
ENDMDL
MODEL 2
REMARK VINA RESULT: -5.627976053      2.585      4.621
REMARK  4 active torsions:
REMARK  status: ('A' for Active; 'I' for Inactive)
REMARK    1  A    between atoms: O1_2  and  C2_3 
REMARK    2  A    between atoms: C2_3  and  C3_4 
REMARK    3  A    between atoms: C3_4  and  N1_5 
REMARK    4  A    between atoms: N1_5  and  C4_8 
ROOT
HETATM    1  C4  UNL     1      10.162 195.336  85.361  1.00  0.00     0.217 C 
HETATM    2  C5  UNL     1       9.026 195.357  86.394  1.00  0.00     0.062 C 
HETATM    3  C6  UNL     1       9.868 195.384  87.669  1.00  0.00     0.235 C 
HETATM    4  N2  UNL     1      10.770 194.281  87.408  1.00  0.00    -0.069 N 
ATOM      5  H21 UNL     1      10.368 193.356  87.558  1.00  0.00     0.277 HD
ATOM      6  H22 UNL     1      11.524 194.176  88.087  1.00  0.00     0.277 HD
HETATM    7  C7  UNL     1      11.206 194.539  86.055  1.00  0.00     0.212 C 
HETATM    8  C8  UNL     1      12.551 195.229  86.097  1.00  0.00     0.042 C 
ENDROOT
BRANCH   1   9
HETATM    9  N1  UNL     1       9.596 194.720  84.182  1.00  0.00    -0.067 N 
ATOM     10  H12 UNL     1      10.320 194.314  83.589  1.00  0.00     0.277 HD
ATOM     11  H11 UNL     1       9.234 195.420  83.533  1.00  0.00     0.277 HD
BRANCH   9  12
HETATM   12  C3  UNL     1       8.586 193.746  84.525  1.00  0.00     0.258 C 
BRANCH  12  13
HETATM   13  C2  UNL     1       8.892 192.356  84.061  1.00  0.00     0.194 C 
BRANCH  13  14
HETATM   14  O1  UNL     1       7.792 191.529  84.028  1.00  0.00    -0.394 OA
HETATM   15  C1  UNL     1       6.610 192.292  84.015  1.00  0.00     0.201 C 
ENDBRANCH  13  14
ENDBRANCH  12  13
ENDBRANCH   9  12
ENDBRANCH   1   9
TORSDOF 4
ENDMDL
MODEL 3
REMARK VINA RESULT: -5.466752219      2.573      4.760
REMARK  4 active torsions:
REMARK  status: ('A' for Active; 'I' for Inactive)
REMARK    1  A    between atoms: O1_2  and  C2_3 
REMARK    2  A    between atoms: C2_3  and  C3_4 
REMARK    3  A    between atoms: C3_4  and  N1_5 
REMARK    4  A    between atoms: N1_5  and  C4_8 
ROOT
HETATM    1  C4  UNL     1      10.245 195.391  85.718  1.00  0.00     0.217 C 
HETATM    2  C5  UNL     1       9.266 195.517  86.894  1.00  0.00     0.062 C 
HETATM    3  C6  UNL     1      10.270 195.448  88.044  1.00  0.00     0.235 C 
HETATM    4  N2  UNL     1      11.014 194.264  87.670  1.00  0.00    -0.069 N 
ATOM      5  H21 UNL     1      10.545 193.382  87.877  1.00  0.00     0.277 HD
ATOM      6  H22 UNL     1      11.838 194.078  88.242  1.00  0.00     0.277 HD
HETATM    7  C7  UNL     1      11.288 194.488  86.270  1.00  0.00     0.212 C 
HETATM    8  C8  UNL     1      12.688 195.040  86.127  1.00  0.00     0.042 C 
ENDROOT
BRANCH   1   9
HETATM    9  N1  UNL     1       9.468 194.845  84.629  1.00  0.00    -0.067 N 
ATOM     10  H12 UNL     1      10.065 194.410  83.926  1.00  0.00     0.277 HD
ATOM     11  H11 UNL     1       9.060 195.584  84.055  1.00  0.00     0.277 HD
BRANCH   9  12
HETATM   12  C3  UNL     1       8.457 193.929  85.105  1.00  0.00     0.258 C 
BRANCH  12  13
HETATM   13  C2  UNL     1       7.065 194.278  84.683  1.00  0.00     0.194 C 
BRANCH  13  14
HETATM   14  O1  UNL     1       6.436 193.280  83.972  1.00  0.00    -0.394 OA
HETATM   15  C1  UNL     1       7.133 192.066  84.117  1.00  0.00     0.201 C 
ENDBRANCH  13  14
ENDBRANCH  12  13
ENDBRANCH   9  12
ENDBRANCH   1   9
TORSDOF 4
ENDMDL
MODEL 4
REMARK VINA RESULT: -5.379620044      0.937      1.317
REMARK  4 active torsions:
REMARK  status: ('A' for Active; 'I' for Inactive)
REMARK    1  A    between atoms: O1_2  and  C2_3 
REMARK    2  A    between atoms: C2_3  and  C3_4 
REMARK    3  A    between atoms: C3_4  and  N1_5 
REMARK    4  A    between atoms: N1_5  and  C4_8 
ROOT
HETATM    1  C4  UNL     1       9.064 193.481  85.656  1.00  0.00     0.217 C 
HETATM    2  C5  UNL     1       8.748 194.945  86.001  1.00  0.00     0.062 C 
HETATM    3  C6  UNL     1       7.361 195.041  85.366  1.00  0.00     0.235 C 
HETATM    4  N2  UNL     1       7.640 194.511  84.048  1.00  0.00    -0.069 N 
ATOM      5  H21 UNL     1       8.100 195.164  83.414  1.00  0.00     0.277 HD
ATOM      6  H22 UNL     1       6.817 194.364  83.464  1.00  0.00     0.277 HD
HETATM    7  C7  UNL     1       8.398 193.316  84.338  1.00  0.00     0.212 C 
HETATM    8  C8  UNL     1       7.470 192.124  84.286  1.00  0.00     0.042 C 
ENDROOT
BRANCH   1   9
HETATM    9  N1  UNL     1      10.506 193.395  85.636  1.00  0.00    -0.067 N 
ATOM     10  H12 UNL     1      10.870 193.461  84.685  1.00  0.00     0.277 HD
ATOM     11  H11 UNL     1      10.827 192.454  85.864  1.00  0.00     0.277 HD
BRANCH   9  12
HETATM   12  C3  UNL     1      11.109 194.383  86.501  1.00  0.00     0.258 C 
BRANCH  12  13
HETATM   13  C2  UNL     1      12.466 194.837  86.061  1.00  0.00     0.194 C 
BRANCH  13  14
HETATM   14  O1  UNL     1      12.532 196.180  85.770  1.00  0.00    -0.394 OA
HETATM   15  C1  UNL     1      11.803 196.461  84.599  1.00  0.00     0.201 C 
ENDBRANCH  13  14
ENDBRANCH  12  13
ENDBRANCH   9  12
ENDBRANCH   1   9
TORSDOF 4
ENDMDL
MODEL 5
REMARK VINA RESULT: -5.308491627      2.527      4.760
REMARK  4 active torsions:
REMARK  status: ('A' for Active; 'I' for Inactive)
REMARK    1  A    between atoms: O1_2  and  C2_3 
REMARK    2  A    between atoms: C2_3  and  C3_4 
REMARK    3  A    between atoms: C3_4  and  N1_5 
REMARK    4  A    between atoms: N1_5  and  C4_8 
ROOT
HETATM    1  C4  UNL     1      10.197 194.526  86.429  1.00  0.00     0.217 C 
HETATM    2  C5  UNL     1      10.742 194.433  87.862  1.00  0.00     0.062 C 
HETATM    3  C6  UNL     1      11.820 195.513  87.774  1.00  0.00     0.235 C 
HETATM    4  N2  UNL     1      12.505 195.099  86.567  1.00  0.00    -0.069 N 
ATOM      5  H21 UNL     1      13.143 194.313  86.686  1.00  0.00     0.277 HD
ATOM      6  H22 UNL     1      13.211 195.754  86.231  1.00  0.00     0.277 HD
HETATM    7  C7  UNL     1      11.416 194.861  85.648  1.00  0.00     0.212 C 
HETATM    8  C8  UNL     1      11.242 196.077  84.767  1.00  0.00     0.042 C 
ENDROOT
BRANCH   1   9
HETATM    9  N1  UNL     1       9.622 193.229  86.153  1.00  0.00    -0.067 N 
ATOM     10  H12 UNL     1       9.097 192.876  86.953  1.00  0.00     0.277 HD
ATOM     11  H11 UNL     1      10.340 192.506  86.103  1.00  0.00     0.277 HD
BRANCH   9  12
HETATM   12  C3  UNL     1       8.811 193.252  84.957  1.00  0.00     0.258 C 
BRANCH  12  13
HETATM   13  C2  UNL     1       7.675 194.225  85.006  1.00  0.00     0.194 C 
BRANCH  13  14
HETATM   14  O1  UNL     1       6.595 193.854  84.237  1.00  0.00    -0.394 OA
HETATM   15  C1  UNL     1       6.632 192.470  83.984  1.00  0.00     0.201 C 
ENDBRANCH  13  14
ENDBRANCH  12  13
ENDBRANCH   9  12
ENDBRANCH   1   9
TORSDOF 4
ENDMDL
