MODEL 1
REMARK VINA RESULT: -6.167386018      0.000      0.000
REMARK  17 active torsions:
REMARK  status: ('A' for Active; 'I' for Inactive)
REMARK    1  A    between atoms: C2_2  and  O2_4 
REMARK    2  A    between atoms: O2_4  and  C3_5 
REMARK    3  A    between atoms: C3_5  and  C4_6 
REMARK    4  A    between atoms: C3_5  and  C25_34 
REMARK    5  A    between atoms: C5_7  and  O3_8 
REMARK    6  A    between atoms: C11_15  and  C12_16 
REMARK    7  A    between atoms: C20_27  and  C21_28 
REMARK    8  A    between atoms: C24_31  and  O7_32 
REMARK    9  A    between atoms: C25_34  and  O8_36 
REMARK   10  A    between atoms: C25_34  and  C27_38 
REMARK   11  A    between atoms: C27_38  and  O9_39 
REMARK   12  A    between atoms: C27_38  and  C28_41 
REMARK   13  A    between atoms: C28_41  and  O10_42 
REMARK   14  A    between atoms: C28_41  and  C29_44 
REMARK   15  A    between atoms: C29_44  and  O11_45 
REMARK   16  A    between atoms: C29_44  and  C30_47 
REMARK   17  A    between atoms: C30_47  and  O12_49 
ROOT
HETATM    1  C4  UNL     1      41.830  11.194 -49.837  1.00  0.00     0.052 C 
HETATM    2  C5  UNL     1      42.516  11.803 -51.082  1.00  0.00     0.126 C 
HETATM    3  C6  UNL     1      42.499  13.295 -50.731  1.00  0.00     0.044 C 
HETATM    4  C7  UNL     1      41.501  13.568 -49.753  1.00  0.00    -0.004 C 
HETATM    5  C8  UNL     1      42.230  13.699 -48.389  1.00  0.00     0.019 C 
HETATM    6  C9  UNL     1      40.793  12.196 -49.586  1.00  0.00     0.007 C 
HETATM    7  C10 UNL     1      39.710  12.328 -50.599  1.00  0.00     0.029 C 
HETATM    8  C11 UNL     1      39.097  13.653 -50.168  1.00  0.00     0.082 C 
HETATM    9  C13 UNL     1      38.441  14.407 -51.317  1.00  0.00     0.030 C 
HETATM   10  C14 UNL     1      39.625  14.978 -51.879  1.00  0.00     0.014 C 
HETATM   11  C15 UNL     1      39.833  15.672 -53.121  1.00  0.00    -0.036 C 
HETATM   12  C16 UNL     1      40.160  14.674 -54.277  1.00  0.00     0.015 C 
HETATM   13  C17 UNL     1      38.793  16.523 -53.719  1.00  0.00     0.015 C 
HETATM   14  C18 UNL     1      41.168  16.343 -52.834  1.00  0.00     0.088 C 
HETATM   15  C19 UNL     1      41.454  16.179 -51.377  1.00  0.00     0.140 C 
HETATM   16  O6  UNL     1      42.582  16.517 -50.976  1.00  0.00    -0.297 OA
HETATM   17  C20 UNL     1      40.300  15.635 -50.704  1.00  0.00     0.061 C 
HETATM   18  C24 UNL     1      40.360  14.463 -49.803  1.00  0.00     0.098 C 
ENDROOT
BRANCH   1  19
HETATM   19  C3  UNL     1      41.394   9.793 -50.103  1.00  0.00     0.175 C 
BRANCH  19  20
HETATM   20  O2  UNL     1      40.141   9.706 -50.735  1.00  0.00    -0.313 OA
BRANCH  20  21
HETATM   21  C2  UNL     1      39.816   9.011 -51.864  1.00  0.00     0.255 C 
HETATM   22  C1  UNL     1      40.763   8.897 -52.982  1.00  0.00     0.126 C 
HETATM   23  O1  UNL     1      38.683   8.505 -51.848  1.00  0.00    -0.266 OA
ENDBRANCH  20  21
ENDBRANCH  19  20
BRANCH  19  24
HETATM   24  C25 UNL     1      41.591   8.804 -48.983  1.00  0.00     0.109 C 
HETATM   25  C26 UNL     1      42.535   7.693 -49.364  1.00  0.00     0.051 C 
BRANCH  24  26
HETATM   26  O8  UNL     1      42.188   9.437 -47.854  1.00  0.00    -0.385 OA
ATOM     27  H8  UNL     1      42.760   8.832 -47.394  1.00  0.00     0.210 HD
ENDBRANCH  24  26
BRANCH  24  28
HETATM   28  C27 UNL     1      40.320   8.232 -48.468  1.00  0.00     0.186 C 
BRANCH  28  29
HETATM   29  O9  UNL     1      39.438   9.319 -48.087  1.00  0.00    -0.390 OA
ATOM     30  H9  UNL     1      39.383   9.935 -48.808  1.00  0.00     0.210 HD
ENDBRANCH  28  29
BRANCH  28  31
HETATM   31  C28 UNL     1      40.288   7.427 -47.242  1.00  0.00     0.181 C 
BRANCH  31  32
HETATM   32  O10 UNL     1      40.252   8.454 -46.203  1.00  0.00    -0.390 OA
ATOM     33  H10 UNL     1      39.604   8.105 -45.601  1.00  0.00     0.210 HD
ENDBRANCH  31  32
BRANCH  31  34
HETATM   34  C29 UNL     1      39.121   6.596 -46.881  1.00  0.00     0.177 C 
BRANCH  34  35
HETATM   35  O11 UNL     1      38.923   6.472 -45.485  1.00  0.00    -0.390 OA
ATOM     36  H11 UNL     1      38.252   5.841 -45.250  1.00  0.00     0.210 HD
ENDBRANCH  34  35
BRANCH  34  37
HETATM   37  C30 UNL     1      39.575   5.142 -47.249  1.00  0.00     0.145 C 
HETATM   38  C31 UNL     1      38.531   4.151 -46.799  1.00  0.00     0.042 C 
BRANCH  37  39
HETATM   39  O12 UNL     1      40.728   4.911 -46.484  1.00  0.00    -0.393 OA
ATOM     40  H12 UNL     1      40.771   3.969 -46.375  1.00  0.00     0.210 HD
ENDBRANCH  37  39
ENDBRANCH  34  37
ENDBRANCH  31  34
ENDBRANCH  28  31
ENDBRANCH  24  28
ENDBRANCH  19  24
ENDBRANCH   1  19
BRANCH   2  41
HETATM   41  O3  UNL     1      43.817  11.338 -51.220  1.00  0.00    -0.395 OA
ATOM     42  H3  UNL     1      44.425  12.053 -51.370  1.00  0.00     0.210 HD
ENDBRANCH   2  41
BRANCH  18  43
HETATM   43  O7  UNL     1      40.069  14.814 -48.476  1.00  0.00    -0.386 OA
ATOM     44  H7  UNL     1      40.644  15.538 -48.255  1.00  0.00     0.210 HD
ENDBRANCH  18  43
BRANCH   8  45
HETATM   45  C12 UNL     1      38.128  13.446 -49.117  1.00  0.00     0.185 C 
HETATM   46  O4  UNL     1      36.995  14.054 -49.206  1.00  0.00    -0.647 OA
HETATM   47  O5  UNL     1      38.210  12.680 -47.987  1.00  0.00    -0.647 OA
ENDBRANCH   8  45
BRANCH  17  48
HETATM   48  C21 UNL     1      39.628  16.739 -50.003  1.00  0.00    -0.003 C 
HETATM   49  C22 UNL     1      38.372  17.321 -50.564  1.00  0.00     0.011 C 
HETATM   50  C23 UNL     1      40.583  17.922 -49.944  1.00  0.00     0.011 C 
ENDBRANCH  17  48
TORSDOF 17
ENDMDL
MODEL 2
REMARK VINA RESULT: -6.119986872      1.223      1.642
REMARK  17 active torsions:
REMARK  status: ('A' for Active; 'I' for Inactive)
REMARK    1  A    between atoms: C2_2  and  O2_4 
REMARK    2  A    between atoms: O2_4  and  C3_5 
REMARK    3  A    between atoms: C3_5  and  C4_6 
REMARK    4  A    between atoms: C3_5  and  C25_34 
REMARK    5  A    between atoms: C5_7  and  O3_8 
REMARK    6  A    between atoms: C11_15  and  C12_16 
REMARK    7  A    between atoms: C20_27  and  C21_28 
REMARK    8  A    between atoms: C24_31  and  O7_32 
REMARK    9  A    between atoms: C25_34  and  O8_36 
REMARK   10  A    between atoms: C25_34  and  C27_38 
REMARK   11  A    between atoms: C27_38  and  O9_39 
REMARK   12  A    between atoms: C27_38  and  C28_41 
REMARK   13  A    between atoms: C28_41  and  O10_42 
REMARK   14  A    between atoms: C28_41  and  C29_44 
REMARK   15  A    between atoms: C29_44  and  O11_45 
REMARK   16  A    between atoms: C29_44  and  C30_47 
REMARK   17  A    between atoms: C30_47  and  O12_49 
ROOT
HETATM    1  C4  UNL     1      40.252  11.589 -49.513  1.00  0.00     0.052 C 
HETATM    2  C5  UNL     1      41.527  12.403 -49.835  1.00  0.00     0.126 C 
HETATM    3  C6  UNL     1      41.068  13.824 -49.490  1.00  0.00     0.044 C 
HETATM    4  C7  UNL     1      39.647  13.910 -49.508  1.00  0.00    -0.004 C 
HETATM    5  C8  UNL     1      39.173  13.864 -48.031  1.00  0.00     0.019 C 
HETATM    6  C9  UNL     1      39.220  12.503 -50.006  1.00  0.00     0.007 C 
HETATM    7  C10 UNL     1      39.165  12.742 -51.474  1.00  0.00     0.029 C 
HETATM    8  C11 UNL     1      38.259  13.964 -51.515  1.00  0.00     0.082 C 
HETATM    9  C13 UNL     1      38.513  14.856 -52.723  1.00  0.00     0.030 C 
HETATM   10  C14 UNL     1      39.657  15.549 -52.218  1.00  0.00     0.014 C 
HETATM   11  C15 UNL     1      40.586  16.428 -52.874  1.00  0.00    -0.036 C 
HETATM   12  C16 UNL     1      41.764  15.626 -53.516  1.00  0.00     0.015 C 
HETATM   13  C17 UNL     1      40.173  17.318 -53.970  1.00  0.00     0.015 C 
HETATM   14  C18 UNL     1      41.222  17.099 -51.667  1.00  0.00     0.088 C 
HETATM   15  C19 UNL     1      40.413  16.730 -50.466  1.00  0.00     0.140 C 
HETATM   16  O6  UNL     1      40.869  17.047 -49.352  1.00  0.00    -0.297 OA
HETATM   17  C20 UNL     1      39.208  16.048 -50.869  1.00  0.00     0.061 C 
HETATM   18  C24 UNL     1      38.770  14.759 -50.293  1.00  0.00     0.098 C 
ENDROOT
BRANCH   1  19
HETATM   19  C3  UNL     1      40.324  10.228 -50.117  1.00  0.00     0.175 C 
BRANCH  19  20
HETATM   20  O2  UNL     1      39.185   9.887 -50.867  1.00  0.00    -0.313 OA
BRANCH  20  21
HETATM   21  C2  UNL     1      39.129   9.187 -52.037  1.00  0.00     0.255 C 
HETATM   22  C1  UNL     1      40.047   9.488 -53.144  1.00  0.00     0.126 C 
HETATM   23  O1  UNL     1      38.256   8.305 -52.068  1.00  0.00    -0.266 OA
ENDBRANCH  20  21
ENDBRANCH  19  20
BRANCH  19  24
HETATM   24  C25 UNL     1      40.831   9.124 -49.226  1.00  0.00     0.109 C 
HETATM   25  C26 UNL     1      41.759   8.186 -49.953  1.00  0.00     0.051 C 
BRANCH  24  26
HETATM   26  O8  UNL     1      41.599   9.658 -48.151  1.00  0.00    -0.385 OA
ATOM     27  H8  UNL     1      42.494   9.341 -48.188  1.00  0.00     0.210 HD
ENDBRANCH  24  26
BRANCH  24  28
HETATM   28  C27 UNL     1      39.746   8.350 -48.568  1.00  0.00     0.186 C 
BRANCH  28  29
HETATM   29  O9  UNL     1      38.818   9.279 -47.949  1.00  0.00    -0.390 OA
ATOM     30  H9  UNL     1      37.933   9.037 -48.198  1.00  0.00     0.210 HD
ENDBRANCH  28  29
BRANCH  28  31
HETATM   31  C28 UNL     1      40.023   7.463 -47.432  1.00  0.00     0.181 C 
BRANCH  31  32
HETATM   32  O10 UNL     1      40.104   8.407 -46.319  1.00  0.00    -0.390 OA
ATOM     33  H10 UNL     1      40.079   7.829 -45.566  1.00  0.00     0.210 HD
ENDBRANCH  31  32
BRANCH  31  34
HETATM   34  C29 UNL     1      39.025   6.497 -46.932  1.00  0.00     0.177 C 
BRANCH  34  35
HETATM   35  O11 UNL     1      38.976   6.411 -45.519  1.00  0.00    -0.390 OA
ATOM     36  H11 UNL     1      39.224   5.558 -45.180  1.00  0.00     0.210 HD
ENDBRANCH  34  35
BRANCH  34  37
HETATM   37  C30 UNL     1      39.644   5.104 -47.294  1.00  0.00     0.145 C 
HETATM   38  C31 UNL     1      38.699   4.001 -46.886  1.00  0.00     0.042 C 
BRANCH  37  39
HETATM   39  O12 UNL     1      40.791   4.991 -46.492  1.00  0.00    -0.393 OA
ATOM     40  H12 UNL     1      40.564   5.412 -45.672  1.00  0.00     0.210 HD
ENDBRANCH  37  39
ENDBRANCH  34  37
ENDBRANCH  31  34
ENDBRANCH  28  31
ENDBRANCH  24  28
ENDBRANCH  19  24
ENDBRANCH   1  19
BRANCH   2  41
HETATM   41  O3  UNL     1      42.591  12.014 -49.032  1.00  0.00    -0.395 OA
ATOM     42  H3  UNL     1      42.425  11.172 -48.624  1.00  0.00     0.210 HD
ENDBRANCH   2  41
BRANCH  18  43
HETATM   43  O7  UNL     1      37.584  14.897 -49.557  1.00  0.00    -0.386 OA
ATOM     44  H7  UNL     1      37.751  15.558 -48.895  1.00  0.00     0.210 HD
ENDBRANCH  18  43
BRANCH   8  45
HETATM   45  C12 UNL     1      36.869  13.566 -51.499  1.00  0.00     0.185 C 
HETATM   46  O4  UNL     1      35.982  14.441 -51.829  1.00  0.00    -0.647 OA
HETATM   47  O5  UNL     1      36.306  12.362 -51.178  1.00  0.00    -0.647 OA
ENDBRANCH   8  45
BRANCH  17  48
HETATM   48  C21 UNL     1      38.099  17.009 -50.782  1.00  0.00    -0.003 C 
HETATM   49  C22 UNL     1      37.999  18.122 -51.773  1.00  0.00     0.011 C 
HETATM   50  C23 UNL     1      38.185  17.722 -49.441  1.00  0.00     0.011 C 
ENDBRANCH  17  48
TORSDOF 17
ENDMDL
MODEL 3
REMARK VINA RESULT: -6.084766897      3.729      5.198
REMARK  17 active torsions:
REMARK  status: ('A' for Active; 'I' for Inactive)
REMARK    1  A    between atoms: C2_2  and  O2_4 
REMARK    2  A    between atoms: O2_4  and  C3_5 
REMARK    3  A    between atoms: C3_5  and  C4_6 
REMARK    4  A    between atoms: C3_5  and  C25_34 
REMARK    5  A    between atoms: C5_7  and  O3_8 
REMARK    6  A    between atoms: C11_15  and  C12_16 
REMARK    7  A    between atoms: C20_27  and  C21_28 
REMARK    8  A    between atoms: C24_31  and  O7_32 
REMARK    9  A    between atoms: C25_34  and  O8_36 
REMARK   10  A    between atoms: C25_34  and  C27_38 
REMARK   11  A    between atoms: C27_38  and  O9_39 
REMARK   12  A    between atoms: C27_38  and  C28_41 
REMARK   13  A    between atoms: C28_41  and  O10_42 
REMARK   14  A    between atoms: C28_41  and  C29_44 
REMARK   15  A    between atoms: C29_44  and  O11_45 
REMARK   16  A    between atoms: C29_44  and  C30_47 
REMARK   17  A    between atoms: C30_47  and  O12_49 
ROOT
HETATM    1  C4  UNL     1      38.463  10.385 -51.304  1.00  0.00     0.052 C 
HETATM    2  C5  UNL     1      39.320  11.103 -52.373  1.00  0.00     0.126 C 
HETATM    3  C6  UNL     1      38.323  12.137 -52.908  1.00  0.00     0.044 C 
HETATM    4  C7  UNL     1      36.987  11.738 -52.623  1.00  0.00    -0.004 C 
HETATM    5  C8  UNL     1      36.521  12.565 -51.394  1.00  0.00     0.019 C 
HETATM    6  C9  UNL     1      37.170  10.333 -51.988  1.00  0.00     0.007 C 
HETATM    7  C10 UNL     1      37.073   9.476 -53.201  1.00  0.00     0.029 C 
HETATM    8  C11 UNL     1      35.757   9.976 -53.781  1.00  0.00     0.082 C 
HETATM    9  C13 UNL     1      35.676   9.824 -55.294  1.00  0.00     0.030 C 
HETATM   10  C14 UNL     1      36.433  10.984 -55.649  1.00  0.00     0.014 C 
HETATM   11  C15 UNL     1      36.957  11.409 -56.917  1.00  0.00    -0.036 C 
HETATM   12  C16 UNL     1      38.377  10.808 -57.171  1.00  0.00     0.015 C 
HETATM   13  C17 UNL     1      36.261  11.125 -58.181  1.00  0.00     0.015 C 
HETATM   14  C18 UNL     1      37.234  12.874 -56.618  1.00  0.00     0.088 C 
HETATM   15  C19 UNL     1      36.599  13.195 -55.303  1.00  0.00     0.140 C 
HETATM   16  O6  UNL     1      36.855  14.305 -54.803  1.00  0.00    -0.297 OA
HETATM   17  C20 UNL     1      35.779  12.092 -54.867  1.00  0.00     0.061 C 
HETATM   18  C24 UNL     1      35.870  11.493 -53.517  1.00  0.00     0.098 C 
ENDROOT
BRANCH   1  19
HETATM   19  C3  UNL     1      39.090   9.093 -50.901  1.00  0.00     0.175 C 
BRANCH  19  20
HETATM   20  O2  UNL     1      38.256   7.980 -51.097  1.00  0.00    -0.313 OA
BRANCH  20  21
HETATM   21  C2  UNL     1      38.616   6.712 -51.453  1.00  0.00     0.255 C 
HETATM   22  C1  UNL     1      39.382   6.459 -52.681  1.00  0.00     0.126 C 
HETATM   23  O1  UNL     1      38.243   5.831 -50.663  1.00  0.00    -0.266 OA
ENDBRANCH  20  21
ENDBRANCH  19  20
BRANCH  19  24
HETATM   24  C25 UNL     1      39.830   9.088 -49.589  1.00  0.00     0.109 C 
HETATM   25  C26 UNL     1      41.206   8.485 -49.714  1.00  0.00     0.051 C 
BRANCH  24  26
HETATM   26  O8  UNL     1      40.041  10.418 -49.124  1.00  0.00    -0.385 OA
ATOM     27  H8  UNL     1      40.601  10.421 -48.356  1.00  0.00     0.210 HD
ENDBRANCH  24  26
BRANCH  24  28
HETATM   28  C27 UNL     1      39.084   8.417 -48.492  1.00  0.00     0.186 C 
BRANCH  28  29
HETATM   29  O9  UNL     1      38.546   9.432 -47.604  1.00  0.00    -0.390 OA
ATOM     30  H9  UNL     1      38.054  10.060 -48.121  1.00  0.00     0.210 HD
ENDBRANCH  28  29
BRANCH  28  31
HETATM   31  C28 UNL     1      39.768   7.556 -47.520  1.00  0.00     0.181 C 
BRANCH  31  32
HETATM   32  O10 UNL     1      40.093   8.499 -46.451  1.00  0.00    -0.390 OA
ATOM     33  H10 UNL     1      40.877   8.918 -46.788  1.00  0.00     0.210 HD
ENDBRANCH  31  32
BRANCH  31  34
HETATM   34  C29 UNL     1      39.057   6.497 -46.776  1.00  0.00     0.177 C 
BRANCH  34  35
HETATM   35  O11 UNL     1      39.393   6.444 -45.402  1.00  0.00    -0.390 OA
ATOM     36  H11 UNL     1      40.319   6.301 -45.241  1.00  0.00     0.210 HD
ENDBRANCH  34  35
BRANCH  34  37
HETATM   37  C30 UNL     1      39.716   5.174 -47.297  1.00  0.00     0.145 C 
HETATM   38  C31 UNL     1      38.835   3.997 -46.963  1.00  0.00     0.042 C 
BRANCH  37  39
HETATM   39  O12 UNL     1      40.899   5.035 -46.554  1.00  0.00    -0.393 OA
ATOM     40  H12 UNL     1      40.681   4.440 -45.847  1.00  0.00     0.210 HD
ENDBRANCH  37  39
ENDBRANCH  34  37
ENDBRANCH  31  34
ENDBRANCH  28  31
ENDBRANCH  24  28
ENDBRANCH  19  24
ENDBRANCH   1  19
BRANCH   2  41
HETATM   41  O3  UNL     1      40.423  11.723 -51.803  1.00  0.00    -0.395 OA
ATOM     42  H3  UNL     1      40.916  12.215 -52.450  1.00  0.00     0.210 HD
ENDBRANCH   2  41
BRANCH  18  43
HETATM   43  O7  UNL     1      34.704  11.716 -52.771  1.00  0.00    -0.386 OA
ATOM     44  H7  UNL     1      34.066  11.077 -53.069  1.00  0.00     0.210 HD
ENDBRANCH  18  43
BRANCH   8  45
HETATM   45  C12 UNL     1      34.641   9.289 -53.171  1.00  0.00     0.185 C 
HETATM   46  O4  UNL     1      33.539   9.211 -53.835  1.00  0.00    -0.647 OA
HETATM   47  O5  UNL     1      34.548   8.679 -51.950  1.00  0.00    -0.647 OA
ENDBRANCH   8  45
BRANCH  17  48
HETATM   48  C21 UNL     1      34.376  12.443 -55.137  1.00  0.00    -0.003 C 
HETATM   49  C22 UNL     1      33.683  11.869 -56.328  1.00  0.00     0.011 C 
HETATM   50  C23 UNL     1      34.291  13.947 -55.354  1.00  0.00     0.011 C 
ENDBRANCH  17  48
TORSDOF 17
ENDMDL
MODEL 4
REMARK VINA RESULT: -6.084625633      3.686      7.985
REMARK  17 active torsions:
REMARK  status: ('A' for Active; 'I' for Inactive)
REMARK    1  A    between atoms: C2_2  and  O2_4 
REMARK    2  A    between atoms: O2_4  and  C3_5 
REMARK    3  A    between atoms: C3_5  and  C4_6 
REMARK    4  A    between atoms: C3_5  and  C25_34 
REMARK    5  A    between atoms: C5_7  and  O3_8 
REMARK    6  A    between atoms: C11_15  and  C12_16 
REMARK    7  A    between atoms: C20_27  and  C21_28 
REMARK    8  A    between atoms: C24_31  and  O7_32 
REMARK    9  A    between atoms: C25_34  and  O8_36 
REMARK   10  A    between atoms: C25_34  and  C27_38 
REMARK   11  A    between atoms: C27_38  and  O9_39 
REMARK   12  A    between atoms: C27_38  and  C28_41 
REMARK   13  A    between atoms: C28_41  and  O10_42 
REMARK   14  A    between atoms: C28_41  and  C29_44 
REMARK   15  A    between atoms: C29_44  and  O11_45 
REMARK   16  A    between atoms: C29_44  and  C30_47 
REMARK   17  A    between atoms: C30_47  and  O12_49 
ROOT
HETATM    1  C4  UNL     1      38.264   8.771 -51.081  1.00  0.00     0.052 C 
HETATM    2  C5  UNL     1      37.577   9.344 -52.343  1.00  0.00     0.126 C 
HETATM    3  C6  UNL     1      36.713   8.154 -52.778  1.00  0.00     0.044 C 
HETATM    4  C7  UNL     1      37.217   6.942 -52.226  1.00  0.00    -0.004 C 
HETATM    5  C8  UNL     1      36.319   6.592 -51.009  1.00  0.00     0.019 C 
HETATM    6  C9  UNL     1      38.521   7.397 -51.518  1.00  0.00     0.007 C 
HETATM    7  C10 UNL     1      39.506   7.203 -52.617  1.00  0.00     0.029 C 
HETATM    8  C11 UNL     1      39.209   5.758 -52.993  1.00  0.00     0.082 C 
HETATM    9  C13 UNL     1      39.525   5.444 -54.450  1.00  0.00     0.030 C 
HETATM   10  C14 UNL     1      38.336   5.986 -55.030  1.00  0.00     0.014 C 
HETATM   11  C15 UNL     1      37.993   6.236 -56.404  1.00  0.00    -0.036 C 
HETATM   12  C16 UNL     1      38.467   7.655 -56.854  1.00  0.00     0.015 C 
HETATM   13  C17 UNL     1      38.479   5.377 -57.494  1.00  0.00     0.015 C 
HETATM   14  C18 UNL     1      36.484   6.380 -56.283  1.00  0.00     0.088 C 
HETATM   15  C19 UNL     1      36.096   5.940 -54.909  1.00  0.00     0.140 C 
HETATM   16  O6  UNL     1      34.919   6.140 -54.558  1.00  0.00    -0.297 OA
HETATM   17  C20 UNL     1      37.226   5.343 -54.241  1.00  0.00     0.061 C 
HETATM   18  C24 UNL     1      37.668   5.730 -52.884  1.00  0.00     0.098 C 
ENDROOT
BRANCH   1  19
HETATM   19  C3  UNL     1      39.435   9.607 -50.688  1.00  0.00     0.175 C 
BRANCH  19  20
HETATM   20  O2  UNL     1      40.286   9.920 -51.761  1.00  0.00    -0.313 OA
BRANCH  20  21
HETATM   21  C2  UNL     1      40.687  11.154 -52.183  1.00  0.00     0.255 C 
HETATM   22  C1  UNL     1      40.330  11.651 -53.519  1.00  0.00     0.126 C 
HETATM   23  O1  UNL     1      41.359  11.788 -51.353  1.00  0.00    -0.266 OA
ENDBRANCH  20  21
ENDBRANCH  19  20
BRANCH  19  24
HETATM   24  C25 UNL     1      40.152   9.205 -49.426  1.00  0.00     0.109 C 
HETATM   25  C26 UNL     1      41.407   8.419 -49.709  1.00  0.00     0.051 C 
BRANCH  24  26
HETATM   26  O8  UNL     1      40.582  10.355 -48.703  1.00  0.00    -0.385 OA
ATOM     27  H8  UNL     1      40.855  10.117 -47.825  1.00  0.00     0.210 HD
ENDBRANCH  24  26
BRANCH  24  28
HETATM   28  C27 UNL     1      39.294   8.456 -48.470  1.00  0.00     0.186 C 
BRANCH  28  29
HETATM   29  O9  UNL     1      38.631   9.406 -47.595  1.00  0.00    -0.390 OA
ATOM     30  H9  UNL     1      37.823   9.687 -48.007  1.00  0.00     0.210 HD
ENDBRANCH  28  29
BRANCH  28  31
HETATM   31  C28 UNL     1      39.874   7.546 -47.476  1.00  0.00     0.181 C 
BRANCH  31  32
HETATM   32  O10 UNL     1      40.208   8.458 -46.384  1.00  0.00    -0.390 OA
ATOM     33  H10 UNL     1      40.963   8.033 -45.995  1.00  0.00     0.210 HD
ENDBRANCH  31  32
BRANCH  31  34
HETATM   34  C29 UNL     1      39.062   6.529 -46.778  1.00  0.00     0.177 C 
BRANCH  34  35
HETATM   35  O11 UNL     1      39.315   6.456 -45.388  1.00  0.00    -0.390 OA
ATOM     36  H11 UNL     1      38.547   6.616 -44.851  1.00  0.00     0.210 HD
ENDBRANCH  34  35
BRANCH  34  37
HETATM   37  C30 UNL     1      39.672   5.170 -47.265  1.00  0.00     0.145 C 
HETATM   38  C31 UNL     1      38.723   4.041 -46.952  1.00  0.00     0.042 C 
BRANCH  37  39
HETATM   39  O12 UNL     1      40.821   4.981 -46.481  1.00  0.00    -0.393 OA
ATOM     40  H12 UNL     1      40.635   4.219 -45.947  1.00  0.00     0.210 HD
ENDBRANCH  37  39
ENDBRANCH  34  37
ENDBRANCH  31  34
ENDBRANCH  28  31
ENDBRANCH  24  28
ENDBRANCH  19  24
ENDBRANCH   1  19
BRANCH   2  41
HETATM   41  O3  UNL     1      36.789  10.444 -52.033  1.00  0.00    -0.395 OA
ATOM     42  H3  UNL     1      37.161  10.944 -51.315  1.00  0.00     0.210 HD
ENDBRANCH   2  41
BRANCH  18  43
HETATM   43  O7  UNL     1      37.492   4.686 -51.964  1.00  0.00    -0.386 OA
ATOM     44  H7  UNL     1      38.342   4.276 -51.853  1.00  0.00     0.210 HD
ENDBRANCH  18  43
BRANCH   8  45
HETATM   45  C12 UNL     1      39.940   4.850 -52.139  1.00  0.00     0.185 C 
HETATM   46  O4  UNL     1      40.271   3.699 -52.616  1.00  0.00    -0.647 OA
HETATM   47  O5  UNL     1      40.362   5.010 -50.848  1.00  0.00    -0.647 OA
ENDBRANCH   8  45
BRANCH  17  48
HETATM   48  C21 UNL     1      37.053   3.883 -54.286  1.00  0.00    -0.003 C 
HETATM   49  C22 UNL     1      36.880   3.195 -55.600  1.00  0.00     0.011 C 
HETATM   50  C23 UNL     1      35.789   3.525 -53.518  1.00  0.00     0.011 C 
ENDBRANCH  17  48
TORSDOF 17
ENDMDL
MODEL 5
REMARK VINA RESULT: -6.037312548      4.874      7.987
REMARK  17 active torsions:
REMARK  status: ('A' for Active; 'I' for Inactive)
REMARK    1  A    between atoms: C2_2  and  O2_4 
REMARK    2  A    between atoms: O2_4  and  C3_5 
REMARK    3  A    between atoms: C3_5  and  C4_6 
REMARK    4  A    between atoms: C3_5  and  C25_34 
REMARK    5  A    between atoms: C5_7  and  O3_8 
REMARK    6  A    between atoms: C11_15  and  C12_16 
REMARK    7  A    between atoms: C20_27  and  C21_28 
REMARK    8  A    between atoms: C24_31  and  O7_32 
REMARK    9  A    between atoms: C25_34  and  O8_36 
REMARK   10  A    between atoms: C25_34  and  C27_38 
REMARK   11  A    between atoms: C27_38  and  O9_39 
REMARK   12  A    between atoms: C27_38  and  C28_41 
REMARK   13  A    between atoms: C28_41  and  O10_42 
REMARK   14  A    between atoms: C28_41  and  C29_44 
REMARK   15  A    between atoms: C29_44  and  O11_45 
REMARK   16  A    between atoms: C29_44  and  C30_47 
REMARK   17  A    between atoms: C30_47  and  O12_49 
ROOT
HETATM    1  C4  UNL     1      38.815   7.747 -50.710  1.00  0.00     0.052 C 
HETATM    2  C5  UNL     1      38.432   8.844 -51.731  1.00  0.00     0.126 C 
HETATM    3  C6  UNL     1      37.172   8.237 -52.360  1.00  0.00     0.044 C 
HETATM    4  C7  UNL     1      37.142   6.828 -52.162  1.00  0.00    -0.004 C 
HETATM    5  C8  UNL     1      36.162   6.557 -50.990  1.00  0.00     0.019 C 
HETATM    6  C9  UNL     1      38.509   6.542 -51.484  1.00  0.00     0.007 C 
HETATM    7  C10 UNL     1      39.351   6.268 -52.681  1.00  0.00     0.029 C 
HETATM    8  C11 UNL     1      38.508   5.201 -53.365  1.00  0.00     0.082 C 
HETATM    9  C13 UNL     1      38.694   5.172 -54.876  1.00  0.00     0.030 C 
HETATM   10  C14 UNL     1      37.829   6.262 -55.202  1.00  0.00     0.014 C 
HETATM   11  C15 UNL     1      37.635   6.967 -56.439  1.00  0.00    -0.036 C 
HETATM   12  C16 UNL     1      38.642   8.154 -56.576  1.00  0.00     0.015 C 
HETATM   13  C17 UNL     1      37.754   6.297 -57.743  1.00  0.00     0.015 C 
HETATM   14  C18 UNL     1      36.307   7.651 -56.154  1.00  0.00     0.088 C 
HETATM   15  C19 UNL     1      35.755   7.062 -54.897  1.00  0.00     0.140 C 
HETATM   16  O6  UNL     1      34.750   7.608 -54.405  1.00  0.00    -0.297 OA
HETATM   17  C20 UNL     1      36.543   5.923 -54.495  1.00  0.00     0.061 C 
HETATM   18  C24 UNL     1      37.083   5.747 -53.129  1.00  0.00     0.098 C 
ENDROOT
BRANCH   1  19
HETATM   19  C3  UNL     1      40.216   7.931 -50.233  1.00  0.00     0.175 C 
BRANCH  19  20
HETATM   20  O2  UNL     1      41.043   6.822 -50.480  1.00  0.00    -0.313 OA
BRANCH  20  21
HETATM   21  C2  UNL     1      42.191   6.777 -51.217  1.00  0.00     0.255 C 
HETATM   22  C1  UNL     1      43.017   5.563 -51.259  1.00  0.00     0.126 C 
HETATM   23  O1  UNL     1      42.454   7.828 -51.823  1.00  0.00    -0.266 OA
ENDBRANCH  20  21
ENDBRANCH  19  20
BRANCH  19  24
HETATM   24  C25 UNL     1      40.384   8.535 -48.863  1.00  0.00     0.109 C 
HETATM   25  C26 UNL     1      41.833   8.739 -48.504  1.00  0.00     0.051 C 
BRANCH  24  26
HETATM   26  O8  UNL     1      39.795   9.831 -48.809  1.00  0.00    -0.385 OA
ATOM     27  H8  UNL     1      40.025  10.271 -47.999  1.00  0.00     0.210 HD
ENDBRANCH  24  26
BRANCH  24  28
HETATM   28  C27 UNL     1      39.703   7.764 -47.789  1.00  0.00     0.186 C 
BRANCH  28  29
HETATM   29  O9  UNL     1      39.116   8.697 -46.845  1.00  0.00    -0.390 OA
ATOM     30  H9  UNL     1      38.631   8.206 -46.193  1.00  0.00     0.210 HD
ENDBRANCH  28  29
BRANCH  28  31
HETATM   31  C28 UNL     1      40.459   6.904 -46.872  1.00  0.00     0.181 C 
BRANCH  31  32
HETATM   32  O10 UNL     1      39.648   6.965 -45.657  1.00  0.00    -0.390 OA
ATOM     33  H10 UNL     1      39.898   7.806 -45.294  1.00  0.00     0.210 HD
ENDBRANCH  31  32
BRANCH  31  34
HETATM   34  C29 UNL     1      40.574   5.447 -47.081  1.00  0.00     0.177 C 
BRANCH  34  35
HETATM   35  O11 UNL     1      41.494   5.089 -48.096  1.00  0.00    -0.390 OA
ATOM     36  H11 UNL     1      42.383   5.378 -47.924  1.00  0.00     0.210 HD
ENDBRANCH  34  35
BRANCH  34  37
HETATM   37  C30 UNL     1      39.215   5.062 -47.761  1.00  0.00     0.145 C 
HETATM   38  C31 UNL     1      38.514   4.006 -46.944  1.00  0.00     0.042 C 
BRANCH  37  39
HETATM   39  O12 UNL     1      39.569   4.478 -48.986  1.00  0.00    -0.393 OA
ATOM     40  H12 UNL     1      38.746   4.304 -49.427  1.00  0.00     0.210 HD
ENDBRANCH  37  39
ENDBRANCH  34  37
ENDBRANCH  31  34
ENDBRANCH  28  31
ENDBRANCH  24  28
ENDBRANCH  19  24
ENDBRANCH   1  19
BRANCH   2  41
HETATM   41  O3  UNL     1      38.144  10.045 -51.098  1.00  0.00    -0.395 OA
ATOM     42  H3  UNL     1      38.867  10.329 -50.550  1.00  0.00     0.210 HD
ENDBRANCH   2  41
BRANCH  18  43
HETATM   43  O7  UNL     1      36.491   4.657 -52.474  1.00  0.00    -0.386 OA
ATOM     44  H7  UNL     1      36.236   4.041 -53.151  1.00  0.00     0.210 HD
ENDBRANCH  18  43
BRANCH   8  45
HETATM   45  C12 UNL     1      38.804   3.895 -52.822  1.00  0.00     0.185 C 
HETATM   46  O4  UNL     1      38.550   2.862 -53.549  1.00  0.00    -0.647 OA
HETATM   47  O5  UNL     1      39.331   3.549 -51.608  1.00  0.00    -0.647 OA
ENDBRANCH   8  45
BRANCH  17  48
HETATM   48  C21 UNL     1      35.803   4.710 -54.873  1.00  0.00    -0.003 C 
HETATM   49  C22 UNL     1      36.268   3.885 -56.027  1.00  0.00     0.011 C 
HETATM   50  C23 UNL     1      34.387   5.112 -55.260  1.00  0.00     0.011 C 
ENDBRANCH  17  48
TORSDOF 17
ENDMDL
