MODEL 1
REMARK VINA RESULT: -6.165170317      0.000      0.000
REMARK  16 active torsions:
REMARK  status: ('A' for Active; 'I' for Inactive)
REMARK    1  A    between atoms: C2_2  and  C3_3 
REMARK    2  A    between atoms: C2_2  and  C4_6 
REMARK    3  A    between atoms: C3_3  and  O1_4 
REMARK    4  A    between atoms: C4_6  and  O2_7 
REMARK    5  A    between atoms: C4_6  and  C5_9 
REMARK    6  A    between atoms: C5_9  and  C6_10 
REMARK    7  A    between atoms: C7_11  and  C8_12 
REMARK    8  A    between atoms: C8_12  and  O3_13 
REMARK    9  A    between atoms: C8_12  and  C9_15 
REMARK   10  A    between atoms: C9_15  and  O4_16 
REMARK   11  A    between atoms: C10_18  and  O5_19 
REMARK   12  A    between atoms: O5_19  and  C11_20 
REMARK   13  A    between atoms: C14_23  and  O6_24 
REMARK   14  A    between atoms: C23_34  and  O7_35 
REMARK   15  A    between atoms: C25_39  and  O9_41 
REMARK   16  A    between atoms: C27_43  and  O10_44 
ROOT
HETATM    1  C9  UNL     1      39.572  11.469 -50.316  1.00  0.00     0.121 C 
HETATM    2  C10 UNL     1      40.446  12.702 -50.307  1.00  0.00     0.191 C 
HETATM    3  C23 UNL     1      39.410  13.825 -50.355  1.00  0.00     0.185 C 
HETATM    4  C24 UNL     1      38.300  13.329 -51.241  1.00  0.00     0.106 C 
HETATM    5  O8  UNL     1      38.525  13.654 -52.555  1.00  0.00    -0.338 OA
HETATM    6  C25 UNL     1      37.479  14.374 -53.054  1.00  0.00     0.198 C 
HETATM    7  C26 UNL     1      37.784  15.825 -53.310  1.00  0.00     0.082 C 
HETATM    8  C27 UNL     1      36.312  14.253 -52.128  1.00  0.00     0.180 C 
HETATM    9  C28 UNL     1      35.635  15.538 -51.846  1.00  0.00     0.167 C 
HETATM   10  O11 UNL     1      34.992  16.174 -52.650  1.00  0.00    -0.294 OA
HETATM   11  C29 UNL     1      35.850  15.949 -50.436  1.00  0.00     0.082 C 
HETATM   12  C30 UNL     1      37.000  15.053 -49.954  1.00  0.00     0.019 C 
HETATM   13  C31 UNL     1      36.949  13.847 -50.838  1.00  0.00     0.071 C 
HETATM   14  C32 UNL     1      38.302  11.834 -51.003  1.00  0.00     0.059 C 
HETATM   15  C33 UNL     1      38.168  11.064 -52.298  1.00  0.00     0.016 C 
ENDROOT
BRANCH   1  16
HETATM   16  C8  UNL     1      39.322  10.958 -48.912  1.00  0.00     0.178 C 
BRANCH  16  17
HETATM   17  C7  UNL     1      39.283   9.481 -48.904  1.00  0.00     0.004 C 
HETATM   18  C6  UNL     1      38.895   8.802 -47.837  1.00  0.00    -0.025 C 
BRANCH  18  19
HETATM   19  C5  UNL     1      38.854   7.318 -47.822  1.00  0.00     0.063 C 
BRANCH  19  20
HETATM   20  C4  UNL     1      39.965   6.715 -46.987  1.00  0.00     0.151 C 
BRANCH  20  21
HETATM   21  C2  UNL     1      40.111   5.296 -47.376  1.00  0.00    -0.037 C 
HETATM   22  C1  UNL     1      41.273   4.845 -47.805  1.00  0.00     0.019 C 
BRANCH  21  23
HETATM   23  C3  UNL     1      38.957   4.382 -47.286  1.00  0.00     0.200 C 
BRANCH  23  24
HETATM   24  O1  UNL     1      38.456   4.320 -45.983  1.00  0.00    -0.397 OA
ATOM     25  H1  UNL     1      37.740   4.932 -45.856  1.00  0.00     0.209 HD
ENDBRANCH  23  24
ENDBRANCH  21  23
ENDBRANCH  20  21
BRANCH  20  26
HETATM   26  O2  UNL     1      39.616   6.741 -45.625  1.00  0.00    -0.391 OA
ATOM     27  H2  UNL     1      40.424   6.764 -45.127  1.00  0.00     0.210 HD
ENDBRANCH  20  26
ENDBRANCH  19  20
ENDBRANCH  18  19
ENDBRANCH  16  17
BRANCH  16  28
HETATM   28  O3  UNL     1      38.160  11.452 -48.355  1.00  0.00    -0.389 OA
ATOM     29  H3  UNL     1      38.203  12.401 -48.319  1.00  0.00     0.210 HD
ENDBRANCH  16  28
ENDBRANCH   1  16
BRANCH   1  30
HETATM   30  O4  UNL     1      40.237  10.471 -51.018  1.00  0.00    -0.384 OA
ATOM     31  H4  UNL     1      41.169  10.647 -50.958  1.00  0.00     0.210 HD
ENDBRANCH   1  30
BRANCH   2  32
HETATM   32  O5  UNL     1      41.260  12.766 -49.207  1.00  0.00    -0.374 OA
BRANCH  32  33
HETATM   33  C11 UNL     1      42.565  12.286 -49.473  1.00  0.00     0.127 C 
HETATM   34  C12 UNL     1      43.460  13.461 -49.568  1.00  0.00     0.035 C 
HETATM   35  C13 UNL     1      44.891  13.234 -49.316  1.00  0.00     0.041 C 
HETATM   36  C14 UNL     1      45.229  11.961 -48.587  1.00  0.00     0.068 C 
HETATM   37  C15 UNL     1      45.551  10.885 -49.560  1.00  0.00     0.017 C 
HETATM   38  C20 UNL     1      44.140  11.654 -47.623  1.00  0.00    -0.010 C 
HETATM   39  C16 UNL     1      46.697   9.984 -49.100  1.00  0.00     0.013 C 
HETATM   40  C17 UNL     1      44.409  10.053 -50.012  1.00  0.00     0.008 C 
HETATM   41  C18 UNL     1      43.247   9.972 -49.101  1.00  0.00     0.008 C 
HETATM   42  C19 UNL     1      42.910  11.287 -48.428  1.00  0.00     0.025 C 
HETATM   43  C21 UNL     1      44.438  10.515 -46.685  1.00  0.00     0.018 C 
HETATM   44  C22 UNL     1      43.839  12.865 -46.784  1.00  0.00     0.018 C 
BRANCH  36  45
HETATM   45  O6  UNL     1      46.393  12.224 -47.839  1.00  0.00    -0.389 OA
ATOM     46  H6  UNL     1      46.244  13.047 -47.388  1.00  0.00     0.210 HD
ENDBRANCH  36  45
ENDBRANCH  32  33
ENDBRANCH   2  32
BRANCH   3  47
HETATM   47  O7  UNL     1      40.059  14.908 -50.967  1.00  0.00    -0.390 OA
ATOM     48  H7  UNL     1      40.806  15.102 -50.413  1.00  0.00     0.210 HD
ENDBRANCH   3  47
BRANCH   6  49
HETATM   49  O9  UNL     1      37.100  13.819 -54.298  1.00  0.00    -0.363 OA
ATOM     50  H9  UNL     1      36.221  14.113 -54.507  1.00  0.00     0.213 HD
ENDBRANCH   6  49
BRANCH   8  51
HETATM   51  O10 UNL     1      35.356  13.335 -52.550  1.00  0.00    -0.376 OA
ATOM     52  H10 UNL     1      34.464  13.654 -52.485  1.00  0.00     0.211 HD
ENDBRANCH   8  51
TORSDOF 16
ENDMDL
MODEL 2
REMARK VINA RESULT: -6.074701399      2.244      8.308
REMARK  16 active torsions:
REMARK  status: ('A' for Active; 'I' for Inactive)
REMARK    1  A    between atoms: C2_2  and  C3_3 
REMARK    2  A    between atoms: C2_2  and  C4_6 
REMARK    3  A    between atoms: C3_3  and  O1_4 
REMARK    4  A    between atoms: C4_6  and  O2_7 
REMARK    5  A    between atoms: C4_6  and  C5_9 
REMARK    6  A    between atoms: C5_9  and  C6_10 
REMARK    7  A    between atoms: C7_11  and  C8_12 
REMARK    8  A    between atoms: C8_12  and  O3_13 
REMARK    9  A    between atoms: C8_12  and  C9_15 
REMARK   10  A    between atoms: C9_15  and  O4_16 
REMARK   11  A    between atoms: C10_18  and  O5_19 
REMARK   12  A    between atoms: O5_19  and  C11_20 
REMARK   13  A    between atoms: C14_23  and  O6_24 
REMARK   14  A    between atoms: C23_34  and  O7_35 
REMARK   15  A    between atoms: C25_39  and  O9_41 
REMARK   16  A    between atoms: C27_43  and  O10_44 
ROOT
HETATM    1  C9  UNL     1      43.870   9.588 -49.205  1.00  0.00     0.121 C 
HETATM    2  C10 UNL     1      43.012   9.329 -47.989  1.00  0.00     0.191 C 
HETATM    3  C23 UNL     1      43.154  10.640 -47.215  1.00  0.00     0.185 C 
HETATM    4  C24 UNL     1      44.572  11.094 -47.425  1.00  0.00     0.106 C 
HETATM    5  O8  UNL     1      45.408  10.585 -46.463  1.00  0.00    -0.338 OA
HETATM    6  C25 UNL     1      46.059  11.594 -45.814  1.00  0.00     0.198 C 
HETATM    7  C26 UNL     1      45.610  11.818 -44.395  1.00  0.00     0.082 C 
HETATM    8  C27 UNL     1      45.916  12.857 -46.600  1.00  0.00     0.180 C 
HETATM    9  C28 UNL     1      45.563  14.037 -45.779  1.00  0.00     0.167 C 
HETATM   10  O11 UNL     1      46.295  14.565 -44.974  1.00  0.00    -0.294 OA
HETATM   11  C29 UNL     1      44.182  14.492 -46.077  1.00  0.00     0.082 C 
HETATM   12  C30 UNL     1      43.557  13.319 -46.845  1.00  0.00     0.019 C 
HETATM   13  C31 UNL     1      44.715  12.589 -47.449  1.00  0.00     0.071 C 
HETATM   14  C32 UNL     1      44.904  10.585 -48.811  1.00  0.00     0.059 C 
HETATM   15  C33 UNL     1      46.280   9.958 -48.860  1.00  0.00     0.016 C 
ENDROOT
BRANCH   1  16
HETATM   16  C8  UNL     1      43.039  10.076 -50.375  1.00  0.00     0.178 C 
BRANCH  16  17
HETATM   17  C7  UNL     1      41.767  10.653 -49.896  1.00  0.00     0.004 C 
HETATM   18  C6  UNL     1      41.468  11.928 -50.083  1.00  0.00    -0.025 C 
BRANCH  18  19
HETATM   19  C5  UNL     1      40.191  12.514 -49.603  1.00  0.00     0.063 C 
BRANCH  19  20
HETATM   20  C4  UNL     1      39.035  11.539 -49.694  1.00  0.00     0.151 C 
BRANCH  20  21
HETATM   21  C2  UNL     1      38.007  12.131 -50.576  1.00  0.00    -0.037 C 
HETATM   22  C1  UNL     1      37.526  11.435 -51.588  1.00  0.00     0.019 C 
BRANCH  21  23
HETATM   23  C3  UNL     1      37.518  13.500 -50.329  1.00  0.00     0.200 C 
BRANCH  23  24
HETATM   24  O1  UNL     1      36.820  13.582 -49.121  1.00  0.00    -0.397 OA
ATOM     25  H1  UNL     1      35.888  13.446 -49.249  1.00  0.00     0.209 HD
ENDBRANCH  23  24
ENDBRANCH  21  23
ENDBRANCH  20  21
BRANCH  20  26
HETATM   26  O2  UNL     1      38.448  11.365 -48.428  1.00  0.00    -0.391 OA
ATOM     27  H2  UNL     1      39.010  11.798 -47.795  1.00  0.00     0.210 HD
ENDBRANCH  20  26
ENDBRANCH  19  20
ENDBRANCH  18  19
ENDBRANCH  16  17
BRANCH  16  28
HETATM   28  O3  UNL     1      42.777   9.086 -51.301  1.00  0.00    -0.389 OA
ATOM     29  H3  UNL     1      43.582   8.842 -51.742  1.00  0.00     0.210 HD
ENDBRANCH  16  28
ENDBRANCH   1  16
BRANCH   1  30
HETATM   30  O4  UNL     1      44.465   8.389 -49.579  1.00  0.00    -0.384 OA
ATOM     31  H4  UNL     1      44.780   8.488 -50.471  1.00  0.00     0.210 HD
ENDBRANCH   1  30
BRANCH   2  32
HETATM   32  O5  UNL     1      41.713   9.031 -48.310  1.00  0.00    -0.374 OA
BRANCH  32  33
HETATM   33  C11 UNL     1      41.363   7.704 -47.961  1.00  0.00     0.127 C 
HETATM   34  C12 UNL     1      40.322   7.782 -46.911  1.00  0.00     0.035 C 
HETATM   35  C13 UNL     1      39.439   6.616 -46.758  1.00  0.00     0.041 C 
HETATM   36  C14 UNL     1      39.401   5.670 -47.929  1.00  0.00     0.068 C 
HETATM   37  C15 UNL     1      40.373   4.566 -47.725  1.00  0.00     0.017 C 
HETATM   38  C20 UNL     1      39.563   6.450 -49.183  1.00  0.00    -0.010 C 
HETATM   39  C16 UNL     1      39.854   3.213 -48.212  1.00  0.00     0.013 C 
HETATM   40  C17 UNL     1      41.742   4.797 -48.250  1.00  0.00     0.008 C 
HETATM   41  C18 UNL     1      41.870   5.768 -49.358  1.00  0.00     0.008 C 
HETATM   42  C19 UNL     1      40.981   6.986 -49.205  1.00  0.00     0.025 C 
HETATM   43  C21 UNL     1      39.348   5.658 -50.444  1.00  0.00     0.018 C 
HETATM   44  C22 UNL     1      38.599   7.603 -49.202  1.00  0.00     0.018 C 
BRANCH  36  45
HETATM   45  O6  UNL     1      38.110   5.107 -47.947  1.00  0.00    -0.389 OA
ATOM     46  H6  UNL     1      37.973   4.775 -48.826  1.00  0.00     0.210 HD
ENDBRANCH  36  45
ENDBRANCH  32  33
ENDBRANCH   2  32
BRANCH   3  47
HETATM   47  O7  UNL     1      42.955  10.305 -45.869  1.00  0.00    -0.390 OA
ATOM     48  H7  UNL     1      43.520  10.889 -45.375  1.00  0.00     0.210 HD
ENDBRANCH   3  47
BRANCH   6  49
HETATM   49  O9  UNL     1      47.435  11.279 -45.753  1.00  0.00    -0.363 OA
ATOM     50  H9  UNL     1      47.841  11.815 -45.081  1.00  0.00     0.213 HD
ENDBRANCH   6  49
BRANCH   8  51
HETATM   51  O10 UNL     1      47.036  13.170 -47.363  1.00  0.00    -0.376 OA
ATOM     52  H10 UNL     1      47.098  12.676 -48.172  1.00  0.00     0.211 HD
ENDBRANCH   8  51
TORSDOF 16
ENDMDL
MODEL 3
REMARK VINA RESULT: -5.911291428      2.986      6.721
REMARK  16 active torsions:
REMARK  status: ('A' for Active; 'I' for Inactive)
REMARK    1  A    between atoms: C2_2  and  C3_3 
REMARK    2  A    between atoms: C2_2  and  C4_6 
REMARK    3  A    between atoms: C3_3  and  O1_4 
REMARK    4  A    between atoms: C4_6  and  O2_7 
REMARK    5  A    between atoms: C4_6  and  C5_9 
REMARK    6  A    between atoms: C5_9  and  C6_10 
REMARK    7  A    between atoms: C7_11  and  C8_12 
REMARK    8  A    between atoms: C8_12  and  O3_13 
REMARK    9  A    between atoms: C8_12  and  C9_15 
REMARK   10  A    between atoms: C9_15  and  O4_16 
REMARK   11  A    between atoms: C10_18  and  O5_19 
REMARK   12  A    between atoms: O5_19  and  C11_20 
REMARK   13  A    between atoms: C14_23  and  O6_24 
REMARK   14  A    between atoms: C23_34  and  O7_35 
REMARK   15  A    between atoms: C25_39  and  O9_41 
REMARK   16  A    between atoms: C27_43  and  O10_44 
ROOT
HETATM    1  C9  UNL     1      39.285  11.739 -49.664  1.00  0.00     0.121 C 
HETATM    2  C10 UNL     1      38.813  11.953 -51.083  1.00  0.00     0.191 C 
HETATM    3  C23 UNL     1      39.915  12.846 -51.654  1.00  0.00     0.185 C 
HETATM    4  C24 UNL     1      40.329  13.761 -50.534  1.00  0.00     0.106 C 
HETATM    5  O8  UNL     1      39.580  14.910 -50.524  1.00  0.00    -0.338 OA
HETATM    6  C25 UNL     1      40.388  16.007 -50.606  1.00  0.00     0.198 C 
HETATM    7  C26 UNL     1      40.321  16.737 -51.920  1.00  0.00     0.082 C 
HETATM    8  C27 UNL     1      41.797  15.602 -50.318  1.00  0.00     0.180 C 
HETATM    9  C28 UNL     1      42.787  16.163 -51.264  1.00  0.00     0.167 C 
HETATM   10  O11 UNL     1      43.088  17.333 -51.339  1.00  0.00    -0.294 OA
HETATM   11  C29 UNL     1      43.367  15.095 -52.116  1.00  0.00     0.082 C 
HETATM   12  C30 UNL     1      42.424  13.900 -51.915  1.00  0.00     0.019 C 
HETATM   13  C31 UNL     1      41.784  14.131 -50.582  1.00  0.00     0.071 C 
HETATM   14  C32 UNL     1      40.117  12.918 -49.294  1.00  0.00     0.059 C 
HETATM   15  C33 UNL     1      39.445  13.706 -48.192  1.00  0.00     0.016 C 
ENDROOT
BRANCH   1  16
HETATM   16  C8  UNL     1      40.058  10.443 -49.528  1.00  0.00     0.178 C 
BRANCH  16  17
HETATM   17  C7  UNL     1      39.353   9.519 -48.616  1.00  0.00     0.004 C 
HETATM   18  C6  UNL     1      39.489   8.207 -48.714  1.00  0.00    -0.025 C 
BRANCH  18  19
HETATM   19  C5  UNL     1      38.782   7.273 -47.802  1.00  0.00     0.063 C 
BRANCH  19  20
HETATM   20  C4  UNL     1      39.737   6.410 -47.002  1.00  0.00     0.151 C 
BRANCH  20  21
HETATM   21  C2  UNL     1      39.444   4.995 -47.313  1.00  0.00    -0.037 C 
HETATM   22  C1  UNL     1      38.430   4.387 -46.730  1.00  0.00     0.019 C 
BRANCH  21  23
HETATM   23  C3  UNL     1      40.286   4.259 -48.274  1.00  0.00     0.200 C 
BRANCH  23  24
HETATM   24  O1  UNL     1      39.782   4.359 -49.574  1.00  0.00    -0.397 OA
ATOM     25  H1  UNL     1      39.953   3.569 -50.074  1.00  0.00     0.209 HD
ENDBRANCH  23  24
ENDBRANCH  21  23
ENDBRANCH  20  21
BRANCH  20  26
HETATM   26  O2  UNL     1      39.513   6.590 -45.625  1.00  0.00    -0.391 OA
ATOM     27  H2  UNL     1      39.955   7.391 -45.369  1.00  0.00     0.210 HD
ENDBRANCH  20  26
ENDBRANCH  19  20
ENDBRANCH  18  19
ENDBRANCH  16  17
BRANCH  16  28
HETATM   28  O3  UNL     1      41.352  10.630 -49.084  1.00  0.00    -0.389 OA
ATOM     29  H3  UNL     1      41.881   9.877 -49.321  1.00  0.00     0.210 HD
ENDBRANCH  16  28
ENDBRANCH   1  16
BRANCH   1  30
HETATM   30  O4  UNL     1      38.167  11.653 -48.843  1.00  0.00    -0.384 OA
ATOM     31  H4  UNL     1      37.618  12.409 -49.022  1.00  0.00     0.210 HD
ENDBRANCH   1  30
BRANCH   2  32
HETATM   32  O5  UNL     1      38.660  10.779 -51.774  1.00  0.00    -0.374 OA
BRANCH  32  33
HETATM   33  C11 UNL     1      37.299  10.458 -51.997  1.00  0.00     0.127 C 
HETATM   34  C12 UNL     1      36.521  11.711 -51.868  1.00  0.00     0.035 C 
HETATM   35  C13 UNL     1      35.217  11.761 -52.547  1.00  0.00     0.041 C 
HETATM   36  C14 UNL     1      35.005  10.733 -53.626  1.00  0.00     0.068 C 
HETATM   37  C15 UNL     1      34.315   9.542 -53.067  1.00  0.00     0.017 C 
HETATM   38  C20 UNL     1      36.302  10.471 -54.302  1.00  0.00    -0.010 C 
HETATM   39  C16 UNL     1      33.287   8.941 -54.025  1.00  0.00     0.013 C 
HETATM   40  C17 UNL     1      35.194   8.469 -52.537  1.00  0.00     0.008 C 
HETATM   41  C18 UNL     1      36.564   8.403 -53.089  1.00  0.00     0.008 C 
HETATM   42  C19 UNL     1      37.198   9.761 -53.306  1.00  0.00     0.025 C 
HETATM   43  C21 UNL     1      36.203   9.609 -55.531  1.00  0.00     0.018 C 
HETATM   44  C22 UNL     1      36.944  11.768 -54.708  1.00  0.00     0.018 C 
BRANCH  36  45
HETATM   45  O6  UNL     1      34.146  11.320 -54.575  1.00  0.00    -0.389 OA
ATOM     46  H6  UNL     1      33.636  11.972 -54.110  1.00  0.00     0.210 HD
ENDBRANCH  36  45
ENDBRANCH  32  33
ENDBRANCH   2  32
BRANCH   3  47
HETATM   47  O7  UNL     1      39.305  13.589 -52.674  1.00  0.00    -0.390 OA
ATOM     48  H7  UNL     1      38.835  14.288 -52.234  1.00  0.00     0.210 HD
ENDBRANCH   3  47
BRANCH   6  49
HETATM   49  O9  UNL     1      39.996  16.933 -49.613  1.00  0.00    -0.363 OA
ATOM     50  H9  UNL     1      40.673  16.972 -48.947  1.00  0.00     0.213 HD
ENDBRANCH   6  49
BRANCH   8  51
HETATM   51  O10 UNL     1      42.210  15.896 -49.022  1.00  0.00    -0.376 OA
ATOM     52  H10 UNL     1      41.496  16.095 -48.429  1.00  0.00     0.211 HD
ENDBRANCH   8  51
TORSDOF 16
ENDMDL
MODEL 4
REMARK VINA RESULT: -5.910265691      3.237      5.574
REMARK  16 active torsions:
REMARK  status: ('A' for Active; 'I' for Inactive)
REMARK    1  A    between atoms: C2_2  and  C3_3 
REMARK    2  A    between atoms: C2_2  and  C4_6 
REMARK    3  A    between atoms: C3_3  and  O1_4 
REMARK    4  A    between atoms: C4_6  and  O2_7 
REMARK    5  A    between atoms: C4_6  and  C5_9 
REMARK    6  A    between atoms: C5_9  and  C6_10 
REMARK    7  A    between atoms: C7_11  and  C8_12 
REMARK    8  A    between atoms: C8_12  and  O3_13 
REMARK    9  A    between atoms: C8_12  and  C9_15 
REMARK   10  A    between atoms: C9_15  and  O4_16 
REMARK   11  A    between atoms: C10_18  and  O5_19 
REMARK   12  A    between atoms: O5_19  and  C11_20 
REMARK   13  A    between atoms: C14_23  and  O6_24 
REMARK   14  A    between atoms: C23_34  and  O7_35 
REMARK   15  A    between atoms: C25_39  and  O9_41 
REMARK   16  A    between atoms: C27_43  and  O10_44 
ROOT
HETATM    1  C9  UNL     1      39.408  10.785 -51.694  1.00  0.00     0.121 C 
HETATM    2  C10 UNL     1      39.992  10.596 -50.314  1.00  0.00     0.191 C 
HETATM    3  C23 UNL     1      39.847  11.995 -49.713  1.00  0.00     0.185 C 
HETATM    4  C24 UNL     1      40.101  12.958 -50.840  1.00  0.00     0.106 C 
HETATM    5  O8  UNL     1      41.432  13.277 -50.935  1.00  0.00    -0.338 OA
HETATM    6  C25 UNL     1      41.607  14.627 -50.846  1.00  0.00     0.198 C 
HETATM    7  C26 UNL     1      42.246  15.093 -49.566  1.00  0.00     0.082 C 
HETATM    8  C27 UNL     1      40.290  15.307 -51.038  1.00  0.00     0.180 C 
HETATM    9  C28 UNL     1      40.024  16.383 -50.057  1.00  0.00     0.167 C 
HETATM   10  O11 UNL     1      40.615  17.438 -50.006  1.00  0.00    -0.294 OA
HETATM   11  C29 UNL     1      38.927  15.996 -49.135  1.00  0.00     0.082 C 
HETATM   12  C30 UNL     1      38.774  14.483 -49.346  1.00  0.00     0.019 C 
HETATM   13  C31 UNL     1      39.307  14.228 -50.721  1.00  0.00     0.071 C 
HETATM   14  C32 UNL     1      39.592  12.218 -52.058  1.00  0.00     0.059 C 
HETATM   15  C33 UNL     1      40.546  12.342 -53.225  1.00  0.00     0.016 C 
ENDROOT
BRANCH   1  16
HETATM   16  C8  UNL     1      37.949  10.379 -51.739  1.00  0.00     0.178 C 
BRANCH  16  17
HETATM   17  C7  UNL     1      37.769   9.210 -52.624  1.00  0.00     0.004 C 
HETATM   18  C6  UNL     1      37.301   8.059 -52.169  1.00  0.00    -0.025 C 
BRANCH  18  19
HETATM   19  C5  UNL     1      37.118   6.881 -53.053  1.00  0.00     0.063 C 
BRANCH  19  20
HETATM   20  C4  UNL     1      35.909   6.051 -52.672  1.00  0.00     0.151 C 
BRANCH  20  21
HETATM   21  C2  UNL     1      36.077   4.703 -53.255  1.00  0.00    -0.037 C 
HETATM   22  C1  UNL     1      37.263   4.127 -53.254  1.00  0.00     0.019 C 
BRANCH  21  23
HETATM   23  C3  UNL     1      34.921   4.001 -53.840  1.00  0.00     0.200 C 
BRANCH  23  24
HETATM   24  O1  UNL     1      33.963   3.697 -52.869  1.00  0.00    -0.397 OA
ATOM     25  H1  UNL     1      33.910   2.761 -52.713  1.00  0.00     0.209 HD
ENDBRANCH  23  24
ENDBRANCH  21  23
ENDBRANCH  20  21
BRANCH  20  26
HETATM   26  O2  UNL     1      34.745   6.607 -53.233  1.00  0.00    -0.391 OA
ATOM     27  H2  UNL     1      34.982   6.960 -54.083  1.00  0.00     0.210 HD
ENDBRANCH  20  26
ENDBRANCH  19  20
ENDBRANCH  18  19
ENDBRANCH  16  17
BRANCH  16  28
HETATM   28  O3  UNL     1      37.116  11.400 -52.150  1.00  0.00    -0.389 OA
ATOM     29  H3  UNL     1      37.570  11.946 -52.781  1.00  0.00     0.210 HD
ENDBRANCH  16  28
ENDBRANCH   1  16
BRANCH   1  30
HETATM   30  O4  UNL     1      40.103   9.965 -52.575  1.00  0.00    -0.384 OA
ATOM     31  H4  UNL     1      40.373  10.497 -53.315  1.00  0.00     0.210 HD
ENDBRANCH   1  30
BRANCH   2  32
HETATM   32  O5  UNL     1      39.341   9.630 -49.591  1.00  0.00    -0.374 OA
BRANCH  32  33
HETATM   33  C11 UNL     1      40.208   8.588 -49.182  1.00  0.00     0.127 C 
HETATM   34  C12 UNL     1      39.849   8.232 -47.791  1.00  0.00     0.035 C 
HETATM   35  C13 UNL     1      40.214   6.883 -47.331  1.00  0.00     0.041 C 
HETATM   36  C14 UNL     1      40.517   5.885 -48.416  1.00  0.00     0.068 C 
HETATM   37  C15 UNL     1      41.978   5.848 -48.683  1.00  0.00     0.017 C 
HETATM   38  C20 UNL     1      39.653   6.174 -49.590  1.00  0.00    -0.010 C 
HETATM   39  C16 UNL     1      42.501   4.440 -48.964  1.00  0.00     0.013 C 
HETATM   40  C17 UNL     1      42.474   6.784 -49.723  1.00  0.00     0.008 C 
HETATM   41  C18 UNL     1      41.495   7.220 -50.742  1.00  0.00     0.008 C 
HETATM   42  C19 UNL     1      40.114   7.491 -50.181  1.00  0.00     0.025 C 
HETATM   43  C21 UNL     1      39.708   5.134 -50.677  1.00  0.00     0.018 C 
HETATM   44  C22 UNL     1      38.219   6.301 -49.156  1.00  0.00     0.018 C 
BRANCH  36  45
HETATM   45  O6  UNL     1      40.141   4.623 -47.916  1.00  0.00    -0.389 OA
ATOM     46  H6  UNL     1      39.240   4.484 -48.183  1.00  0.00     0.210 HD
ENDBRANCH  36  45
ENDBRANCH  32  33
ENDBRANCH   2  32
BRANCH   3  47
HETATM   47  O7  UNL     1      40.866  12.101 -48.757  1.00  0.00    -0.390 OA
ATOM     48  H7  UNL     1      41.156  13.005 -48.793  1.00  0.00     0.210 HD
ENDBRANCH   3  47
BRANCH   6  49
HETATM   49  O9  UNL     1      42.461  15.043 -51.893  1.00  0.00    -0.363 OA
ATOM     50  H9  UNL     1      43.362  14.964 -51.601  1.00  0.00     0.213 HD
ENDBRANCH   6  49
BRANCH   8  51
HETATM   51  O10 UNL     1      40.107  15.822 -52.317  1.00  0.00    -0.376 OA
ATOM     52  H10 UNL     1      39.396  16.449 -52.378  1.00  0.00     0.211 HD
ENDBRANCH   8  51
TORSDOF 16
ENDMDL
MODEL 5
REMARK VINA RESULT: -5.890416322      1.888      5.966
REMARK  16 active torsions:
REMARK  status: ('A' for Active; 'I' for Inactive)
REMARK    1  A    between atoms: C2_2  and  C3_3 
REMARK    2  A    between atoms: C2_2  and  C4_6 
REMARK    3  A    between atoms: C3_3  and  O1_4 
REMARK    4  A    between atoms: C4_6  and  O2_7 
REMARK    5  A    between atoms: C4_6  and  C5_9 
REMARK    6  A    between atoms: C5_9  and  C6_10 
REMARK    7  A    between atoms: C7_11  and  C8_12 
REMARK    8  A    between atoms: C8_12  and  O3_13 
REMARK    9  A    between atoms: C8_12  and  C9_15 
REMARK   10  A    between atoms: C9_15  and  O4_16 
REMARK   11  A    between atoms: C10_18  and  O5_19 
REMARK   12  A    between atoms: O5_19  and  C11_20 
REMARK   13  A    between atoms: C14_23  and  O6_24 
REMARK   14  A    between atoms: C23_34  and  O7_35 
REMARK   15  A    between atoms: C25_39  and  O9_41 
REMARK   16  A    between atoms: C27_43  and  O10_44 
ROOT
HETATM    1  C9  UNL     1      41.458  11.261 -49.685  1.00  0.00     0.121 C 
HETATM    2  C10 UNL     1      40.254  10.376 -49.905  1.00  0.00     0.191 C 
HETATM    3  C23 UNL     1      39.468  11.163 -50.954  1.00  0.00     0.185 C 
HETATM    4  C24 UNL     1      39.657  12.615 -50.610  1.00  0.00     0.106 C 
HETATM    5  O8  UNL     1      38.689  13.054 -49.742  1.00  0.00    -0.338 OA
HETATM    6  C25 UNL     1      38.025  14.123 -50.270  1.00  0.00     0.198 C 
HETATM    7  C26 UNL     1      36.610  13.835 -50.692  1.00  0.00     0.082 C 
HETATM    8  C27 UNL     1      38.803  14.665 -51.425  1.00  0.00     0.180 C 
HETATM    9  C28 UNL     1      37.978  14.961 -52.617  1.00  0.00     0.167 C 
HETATM   10  O11 UNL     1      37.160  15.849 -52.690  1.00  0.00    -0.294 OA
HETATM   11  C29 UNL     1      38.288  14.017 -53.720  1.00  0.00     0.082 C 
HETATM   12  C30 UNL     1      39.073  12.887 -53.040  1.00  0.00     0.019 C 
HETATM   13  C31 UNL     1      39.668  13.510 -51.817  1.00  0.00     0.071 C 
HETATM   14  C32 UNL     1      41.044  12.656 -50.004  1.00  0.00     0.059 C 
HETATM   15  C33 UNL     1      41.081  13.510 -48.756  1.00  0.00     0.016 C 
ENDROOT
BRANCH   1  16
HETATM   16  C8  UNL     1      42.634  10.818 -50.532  1.00  0.00     0.178 C 
BRANCH  16  17
HETATM   17  C7  UNL     1      43.731  10.332 -49.671  1.00  0.00     0.004 C 
HETATM   18  C6  UNL     1      44.847  11.025 -49.510  1.00  0.00    -0.025 C 
BRANCH  18  19
HETATM   19  C5  UNL     1      45.954  10.542 -48.646  1.00  0.00     0.063 C 
BRANCH  19  20
HETATM   20  C4  UNL     1      45.456   9.930 -47.353  1.00  0.00     0.151 C 
BRANCH  20  21
HETATM   21  C2  UNL     1      45.339  11.011 -46.351  1.00  0.00    -0.037 C 
HETATM   22  C1  UNL     1      46.339  11.850 -46.167  1.00  0.00     0.019 C 
BRANCH  21  23
HETATM   23  C3  UNL     1      44.106  11.152 -45.556  1.00  0.00     0.200 C 
BRANCH  23  24
HETATM   24  O1  UNL     1      43.070  10.371 -46.076  1.00  0.00    -0.397 OA
ATOM     25  H1  UNL     1      42.852  10.630 -46.963  1.00  0.00     0.209 HD
ENDBRANCH  23  24
ENDBRANCH  21  23
ENDBRANCH  20  21
BRANCH  20  26
HETATM   26  O2  UNL     1      46.395   9.005 -46.862  1.00  0.00    -0.391 OA
ATOM     27  H2  UNL     1      46.190   8.855 -45.946  1.00  0.00     0.210 HD
ENDBRANCH  20  26
ENDBRANCH  19  20
ENDBRANCH  18  19
ENDBRANCH  16  17
BRANCH  16  28
HETATM   28  O3  UNL     1      43.106  11.814 -51.363  1.00  0.00    -0.389 OA
ATOM     29  H3  UNL     1      42.393  12.152 -51.891  1.00  0.00     0.210 HD
ENDBRANCH  16  28
ENDBRANCH   1  16
BRANCH   1  30
HETATM   30  O4  UNL     1      41.834  11.156 -48.350  1.00  0.00    -0.384 OA
ATOM     31  H4  UNL     1      41.405  11.857 -47.873  1.00  0.00     0.210 HD
ENDBRANCH   1  30
BRANCH   2  32
HETATM   32  O5  UNL     1      40.593   9.114 -50.321  1.00  0.00    -0.374 OA
BRANCH  32  33
HETATM   33  C11 UNL     1      39.878   8.108 -49.627  1.00  0.00     0.127 C 
HETATM   34  C12 UNL     1      39.157   7.300 -50.636  1.00  0.00     0.035 C 
HETATM   35  C13 UNL     1      38.786   5.929 -50.254  1.00  0.00     0.041 C 
HETATM   36  C14 UNL     1      39.531   5.357 -49.078  1.00  0.00     0.068 C 
HETATM   37  C15 UNL     1      38.760   5.579 -47.827  1.00  0.00     0.017 C 
HETATM   38  C20 UNL     1      40.919   5.889 -49.083  1.00  0.00    -0.010 C 
HETATM   39  C16 UNL     1      38.834   4.398 -46.860  1.00  0.00     0.013 C 
HETATM   40  C17 UNL     1      39.044   6.842 -47.102  1.00  0.00     0.008 C 
HETATM   41  C18 UNL     1      40.372   7.451 -47.329  1.00  0.00     0.008 C 
HETATM   42  C19 UNL     1      40.840   7.369 -48.768  1.00  0.00     0.025 C 
HETATM   43  C21 UNL     1      41.837   5.250 -48.076  1.00  0.00     0.018 C 
HETATM   44  C22 UNL     1      41.536   5.704 -50.441  1.00  0.00     0.018 C 
BRANCH  36  45
HETATM   45  O6  UNL     1      39.611   3.967 -49.291  1.00  0.00    -0.389 OA
ATOM     46  H6  UNL     1      40.096   3.609 -48.557  1.00  0.00     0.210 HD
ENDBRANCH  36  45
ENDBRANCH  32  33
ENDBRANCH   2  32
BRANCH   3  47
HETATM   47  O7  UNL     1      38.127  10.801 -50.769  1.00  0.00    -0.390 OA
ATOM     48  H7  UNL     1      37.631  11.347 -51.369  1.00  0.00     0.210 HD
ENDBRANCH   3  47
BRANCH   6  49
HETATM   49  O9  UNL     1      37.951  15.138 -49.288  1.00  0.00    -0.363 OA
ATOM     50  H9  UNL     1      37.108  15.080 -48.854  1.00  0.00     0.213 HD
ENDBRANCH   6  49
BRANCH   8  51
HETATM   51  O10 UNL     1      39.551  15.796 -51.115  1.00  0.00    -0.376 OA
ATOM     52  H10 UNL     1      39.869  15.811 -50.220  1.00  0.00     0.211 HD
ENDBRANCH   8  51
TORSDOF 16
ENDMDL
