MODEL 1
REMARK VINA RESULT: -5.705001768      0.000      0.000
REMARK  2 active torsions:
REMARK  status: ('A' for Active; 'I' for Inactive)
REMARK    1  A    between atoms: C3_3  and  N1_4 
REMARK    2  A    between atoms: C3_3  and  C4_8 
ROOT
HETATM    1  C1  UNL     1      22.746  17.656  -6.682  1.00  0.00     0.014 C 
HETATM    2  C2  UNL     1      23.517  17.624  -7.617  1.00  0.00    -0.084 C 
HETATM    3  C3  UNL     1      24.439  17.582  -8.760  1.00  0.00     0.267 C 
ENDROOT
BRANCH   3   4
HETATM    4  N1  UNL     1      25.306  16.409  -8.571  1.00  0.00    -0.064 N 
ATOM      5  H13 UNL     1      26.104  16.594  -7.964  1.00  0.00     0.275 HD
ATOM      6  H12 UNL     1      24.875  15.680  -8.000  1.00  0.00     0.275 HD
ATOM      7  H11 UNL     1      25.575  16.083  -9.499  1.00  0.00     0.275 HD
ENDBRANCH   3   4
BRANCH   3   8
HETATM    8  C4  UNL     1      25.296  18.856  -8.709  1.00  0.00     0.052 C 
HETATM    9  C5  UNL     1      26.130  19.029  -9.923  1.00  0.00     0.012 C 
HETATM   10  C6  UNL     1      27.470  19.647  -9.695  1.00  0.00     0.027 C 
HETATM   11  C7  UNL     1      28.007  19.450  -8.306  1.00  0.00     0.167 C 
HETATM   12  O1  UNL     1      26.998  19.789  -7.377  1.00  0.00    -0.391 OA
HETATM   13  C8  UNL     1      26.085  18.766  -7.426  1.00  0.00     0.175 C 
ENDBRANCH   3   8
TORSDOF 2
ENDMDL
MODEL 2
REMARK VINA RESULT: -5.604508726      2.284      4.120
REMARK  2 active torsions:
REMARK  status: ('A' for Active; 'I' for Inactive)
REMARK    1  A    between atoms: C3_3  and  N1_4 
REMARK    2  A    between atoms: C3_3  and  C4_8 
ROOT
HETATM    1  C1  UNL     1      26.116  21.910  -6.894  1.00  0.00     0.014 C 
HETATM    2  C2  UNL     1      26.140  20.764  -7.290  1.00  0.00    -0.084 C 
HETATM    3  C3  UNL     1      26.179  19.372  -7.757  1.00  0.00     0.267 C 
ENDROOT
BRANCH   3   4
HETATM    4  N1  UNL     1      26.958  19.358  -9.004  1.00  0.00    -0.064 N 
ATOM      5  H13 UNL     1      27.708  18.667  -9.001  1.00  0.00     0.275 HD
ATOM      6  H12 UNL     1      26.438  18.982  -9.797  1.00  0.00     0.275 HD
ATOM      7  H11 UNL     1      27.290  20.310  -9.159  1.00  0.00     0.275 HD
ENDBRANCH   3   4
BRANCH   3   8
HETATM    8  C4  UNL     1      24.734  18.946  -8.059  1.00  0.00     0.052 C 
HETATM    9  C5  UNL     1      23.969  18.623  -6.830  1.00  0.00     0.012 C 
HETATM   10  C6  UNL     1      22.976  17.516  -6.969  1.00  0.00     0.027 C 
HETATM   11  C7  UNL     1      23.299  16.537  -8.061  1.00  0.00     0.167 C 
HETATM   12  O1  UNL     1      23.600  17.254  -9.240  1.00  0.00    -0.391 OA
HETATM   13  C8  UNL     1      24.842  17.802  -9.037  1.00  0.00     0.175 C 
ENDBRANCH   3   8
TORSDOF 2
ENDMDL
MODEL 3
REMARK VINA RESULT: -5.602933678      1.704      1.764
REMARK  2 active torsions:
REMARK  status: ('A' for Active; 'I' for Inactive)
REMARK    1  A    between atoms: C3_3  and  N1_4 
REMARK    2  A    between atoms: C3_3  and  C4_8 
ROOT
HETATM    1  C1  UNL     1      22.174  16.396  -7.675  1.00  0.00     0.014 C 
HETATM    2  C2  UNL     1      23.237  16.876  -8.008  1.00  0.00    -0.084 C 
HETATM    3  C3  UNL     1      24.518  17.461  -8.426  1.00  0.00     0.267 C 
ENDROOT
BRANCH   3   4
HETATM    4  N1  UNL     1      25.455  16.346  -8.628  1.00  0.00    -0.064 N 
ATOM      5  H13 UNL     1      25.003  15.432  -8.596  1.00  0.00     0.275 HD
ATOM      6  H12 UNL     1      25.804  16.284  -9.585  1.00  0.00     0.275 HD
ATOM      7  H11 UNL     1      26.198  16.451  -7.937  1.00  0.00     0.275 HD
ENDBRANCH   3   4
BRANCH   3   8
HETATM    8  C4  UNL     1      25.021  18.341  -7.272  1.00  0.00     0.052 C 
HETATM    9  C5  UNL     1      24.943  19.788  -7.586  1.00  0.00     0.012 C 
HETATM   10  C6  UNL     1      26.040  20.626  -7.015  1.00  0.00     0.027 C 
HETATM   11  C7  UNL     1      27.312  19.872  -6.753  1.00  0.00     0.167 C 
HETATM   12  O1  UNL     1      27.002  18.688  -6.048  1.00  0.00    -0.391 OA
HETATM   13  C8  UNL     1      26.414  17.851  -6.963  1.00  0.00     0.175 C 
ENDBRANCH   3   8
TORSDOF 2
ENDMDL
MODEL 4
REMARK VINA RESULT: -5.583074589      1.198      1.884
REMARK  2 active torsions:
REMARK  status: ('A' for Active; 'I' for Inactive)
REMARK    1  A    between atoms: C3_3  and  N1_4 
REMARK    2  A    between atoms: C3_3  and  C4_8 
ROOT
HETATM    1  C1  UNL     1      22.956  17.842  -6.737  1.00  0.00     0.014 C 
HETATM    2  C2  UNL     1      23.802  17.685  -7.591  1.00  0.00    -0.084 C 
HETATM    3  C3  UNL     1      24.816  17.497  -8.637  1.00  0.00     0.267 C 
ENDROOT
BRANCH   3   4
HETATM    4  N1  UNL     1      25.096  16.055  -8.711  1.00  0.00    -0.064 N 
ATOM      5  H13 UNL     1      25.029  15.682  -9.658  1.00  0.00     0.275 HD
ATOM      6  H12 UNL     1      26.078  15.829  -8.551  1.00  0.00     0.275 HD
ATOM      7  H11 UNL     1      24.467  15.595  -8.053  1.00  0.00     0.275 HD
ENDBRANCH   3   4
BRANCH   3   8
HETATM    8  C4  UNL     1      26.085  18.236  -8.187  1.00  0.00     0.052 C 
HETATM    9  C5  UNL     1      26.400  18.004  -6.757  1.00  0.00     0.012 C 
HETATM   10  C6  UNL     1      27.002  19.167  -6.039  1.00  0.00     0.027 C 
HETATM   11  C7  UNL     1      26.656  20.501  -6.636  1.00  0.00     0.167 C 
HETATM   12  O1  UNL     1      26.880  20.447  -8.030  1.00  0.00    -0.391 OA
HETATM   13  C8  UNL     1      25.859  19.686  -8.542  1.00  0.00     0.175 C 
ENDBRANCH   3   8
TORSDOF 2
ENDMDL
MODEL 5
REMARK VINA RESULT: -5.536132770      1.206      1.641
REMARK  2 active torsions:
REMARK  status: ('A' for Active; 'I' for Inactive)
REMARK    1  A    between atoms: C3_3  and  N1_4 
REMARK    2  A    between atoms: C3_3  and  C4_8 
ROOT
HETATM    1  C1  UNL     1      22.677  17.745  -6.591  1.00  0.00     0.014 C 
HETATM    2  C2  UNL     1      23.516  17.777  -7.466  1.00  0.00    -0.084 C 
HETATM    3  C3  UNL     1      24.521  17.819  -8.536  1.00  0.00     0.267 C 
ENDROOT
BRANCH   3   4
HETATM    4  N1  UNL     1      24.972  16.436  -8.757  1.00  0.00    -0.064 N 
ATOM      5  H13 UNL     1      24.227  15.749  -8.644  1.00  0.00     0.275 HD
ATOM      6  H12 UNL     1      25.187  16.236  -9.735  1.00  0.00     0.275 HD
ATOM      7  H11 UNL     1      25.763  16.277  -8.134  1.00  0.00     0.275 HD
ENDBRANCH   3   4
BRANCH   3   8
HETATM    8  C4  UNL     1      25.702  18.660  -8.027  1.00  0.00     0.052 C 
HETATM    9  C5  UNL     1      25.264  19.928  -7.396  1.00  0.00     0.012 C 
HETATM   10  C6  UNL     1      26.174  21.094  -7.607  1.00  0.00     0.027 C 
HETATM   11  C7  UNL     1      27.014  20.998  -8.848  1.00  0.00     0.167 C 
HETATM   12  O1  UNL     1      27.617  19.722  -8.892  1.00  0.00    -0.391 OA
HETATM   13  C8  UNL     1      26.612  18.845  -9.216  1.00  0.00     0.175 C 
ENDBRANCH   3   8
TORSDOF 2
ENDMDL
