MODEL 1
REMARK VINA RESULT: -4.412053423      0.000      0.000
REMARK  2 active torsions:
REMARK  status: ('A' for Active; 'I' for Inactive)
REMARK    1  A    between atoms: C2_2  and  O1_3 
REMARK    2  A    between atoms: O1_3  and  C3_4 
ROOT
HETATM    1  C3  UNL     1      25.271  17.737  -8.463  1.00  0.00     0.240 C 
HETATM    2  N1  UNL     1      25.971  16.556  -8.987  1.00  0.00    -0.056 NA
HETATM    3  N2  UNL     1      25.910  18.641  -7.907  1.00  0.00    -0.262 N 
ATOM      4  H2  UNL     1      26.912  18.450  -7.877  1.00  0.00     0.181 HD
HETATM    5  C4  UNL     1      25.594  19.816  -7.333  1.00  0.00     0.184 C 
HETATM    6  N3  UNL     1      25.354  20.828  -6.824  1.00  0.00    -0.172 NA
ENDROOT
BRANCH   1   7
HETATM    7  O1  UNL     1      23.924  17.781  -8.615  1.00  0.00    -0.324 OA
BRANCH   7   8
HETATM    8  C2  UNL     1      22.943  17.118  -7.879  1.00  0.00     0.174 C 
HETATM    9  C1  UNL     1      22.564  18.010  -6.696  1.00  0.00     0.034 C 
ENDBRANCH   7   8
ENDBRANCH   1   7
TORSDOF 2
ENDMDL
MODEL 2
REMARK VINA RESULT: -4.231217386      2.242      3.604
REMARK  2 active torsions:
REMARK  status: ('A' for Active; 'I' for Inactive)
REMARK    1  A    between atoms: C2_2  and  O1_3 
REMARK    2  A    between atoms: O1_3  and  C3_4 
ROOT
HETATM    1  C3  UNL     1      25.346  18.967  -7.613  1.00  0.00     0.240 C 
HETATM    2  N1  UNL     1      26.381  18.978  -8.656  1.00  0.00    -0.056 NA
HETATM    3  N2  UNL     1      24.295  18.334  -7.789  1.00  0.00    -0.262 N 
ATOM      4  H2  UNL     1      24.269  17.863  -8.694  1.00  0.00     0.181 HD
HETATM    5  C4  UNL     1      23.179  18.122  -7.068  1.00  0.00     0.184 C 
HETATM    6  N3  UNL     1      22.203  17.927  -6.477  1.00  0.00    -0.172 NA
ENDROOT
BRANCH   1   7
HETATM    7  O1  UNL     1      25.595  19.669  -6.480  1.00  0.00    -0.324 OA
BRANCH   7   8
HETATM    8  C2  UNL     1      26.499  20.712  -6.282  1.00  0.00     0.174 C 
HETATM    9  C1  UNL     1      25.811  22.012  -6.701  1.00  0.00     0.034 C 
ENDBRANCH   7   8
ENDBRANCH   1   7
TORSDOF 2
ENDMDL
MODEL 3
REMARK VINA RESULT: -4.177232067      0.931      2.903
REMARK  2 active torsions:
REMARK  status: ('A' for Active; 'I' for Inactive)
REMARK    1  A    between atoms: C2_2  and  O1_3 
REMARK    2  A    between atoms: O1_3  and  C3_4 
ROOT
HETATM    1  C3  UNL     1      24.937  19.023  -7.294  1.00  0.00     0.240 C 
HETATM    2  N1  UNL     1      25.023  20.463  -7.016  1.00  0.00    -0.056 NA
HETATM    3  N2  UNL     1      25.656  18.515  -8.167  1.00  0.00    -0.262 N 
ATOM      4  H2  UNL     1      26.264  19.199  -8.618  1.00  0.00     0.181 HD
HETATM    5  C4  UNL     1      25.823  17.275  -8.659  1.00  0.00     0.184 C 
HETATM    6  N3  UNL     1      25.985  16.221  -9.110  1.00  0.00    -0.172 NA
ENDROOT
BRANCH   1   7
HETATM    7  O1  UNL     1      24.050  18.299  -6.566  1.00  0.00    -0.324 OA
BRANCH   7   8
HETATM    8  C2  UNL     1      22.682  18.131  -6.777  1.00  0.00     0.174 C 
HETATM    9  C1  UNL     1      22.497  16.949  -7.729  1.00  0.00     0.034 C 
ENDBRANCH   7   8
ENDBRANCH   1   7
TORSDOF 2
ENDMDL
MODEL 4
REMARK VINA RESULT: -4.159912648      2.099      3.797
REMARK  2 active torsions:
REMARK  status: ('A' for Active; 'I' for Inactive)
REMARK    1  A    between atoms: C2_2  and  O1_3 
REMARK    2  A    between atoms: O1_3  and  C3_4 
ROOT
HETATM    1  C3  UNL     1      25.034  18.983  -7.360  1.00  0.00     0.240 C 
HETATM    2  N1  UNL     1      25.579  20.085  -6.555  1.00  0.00    -0.056 NA
HETATM    3  N2  UNL     1      23.919  18.512  -7.094  1.00  0.00    -0.262 N 
ATOM      4  H2  UNL     1      23.479  18.975  -6.298  1.00  0.00     0.181 HD
HETATM    5  C4  UNL     1      23.151  17.535  -7.607  1.00  0.00     0.184 C 
HETATM    6  N3  UNL     1      22.470  16.695  -8.020  1.00  0.00    -0.172 NA
ENDROOT
BRANCH   1   7
HETATM    7  O1  UNL     1      25.798  18.519  -8.380  1.00  0.00    -0.324 OA
BRANCH   7   8
HETATM    8  C2  UNL     1      25.795  18.912  -9.718  1.00  0.00     0.174 C 
HETATM    9  C1  UNL     1      26.836  20.020  -9.882  1.00  0.00     0.034 C 
ENDBRANCH   7   8
ENDBRANCH   1   7
TORSDOF 2
ENDMDL
MODEL 5
REMARK VINA RESULT: -4.142908337      2.076      3.165
REMARK  2 active torsions:
REMARK  status: ('A' for Active; 'I' for Inactive)
REMARK    1  A    between atoms: C2_2  and  O1_3 
REMARK    2  A    between atoms: O1_3  and  C3_4 
ROOT
HETATM    1  C3  UNL     1      25.703  20.647  -7.034  1.00  0.00     0.240 C 
HETATM    2  N1  UNL     1      26.003  21.276  -5.740  1.00  0.00    -0.056 NA
HETATM    3  N2  UNL     1      26.468  20.807  -7.995  1.00  0.00    -0.262 N 
ATOM      4  H2  UNL     1      27.271  21.392  -7.762  1.00  0.00     0.181 HD
HETATM    5  C4  UNL     1      26.491  20.390  -9.274  1.00  0.00     0.184 C 
HETATM    6  N3  UNL     1      26.535  20.055 -10.381  1.00  0.00    -0.172 NA
ENDROOT
BRANCH   1   7
HETATM    7  O1  UNL     1      24.572  19.903  -7.117  1.00  0.00    -0.324 OA
BRANCH   7   8
HETATM    8  C2  UNL     1      24.445  18.517  -7.198  1.00  0.00     0.174 C 
HETATM    9  C1  UNL     1      22.993  18.160  -6.878  1.00  0.00     0.034 C 
ENDBRANCH   7   8
ENDBRANCH   1   7
TORSDOF 2
ENDMDL
