MODEL 1
REMARK VINA RESULT: -4.776165144      0.000      0.000
REMARK  4 active torsions:
REMARK  status: ('A' for Active; 'I' for Inactive)
REMARK    1  A    between atoms: C2_2  and  O1_4 
REMARK    2  A    between atoms: C2_2  and  C4_6 
REMARK    3  A    between atoms: C5_7  and  C6_8 
REMARK    4  A    between atoms: C6_8  and  N1_9 
ROOT
HETATM    1  C4  UNL     1      24.735  19.288  -7.152  1.00  0.00    -0.067 C 
HETATM    2  C5  UNL     1      23.845  18.487  -7.230  1.00  0.00    -0.076 C 
ENDROOT
BRANCH   1   3
HETATM    3  C2  UNL     1      25.822  20.272  -7.033  1.00  0.00     0.114 C 
HETATM    4  C1  UNL     1      26.426  20.538  -8.417  1.00  0.00     0.060 C 
HETATM    5  C3  UNL     1      26.937  19.772  -6.157  1.00  0.00     0.060 C 
BRANCH   3   6
HETATM    6  O1  UNL     1      25.241  21.442  -6.532  1.00  0.00    -0.378 OA
ATOM      7  H1  UNL     1      24.753  21.249  -5.740  1.00  0.00     0.211 HD
ENDBRANCH   3   6
ENDBRANCH   1   3
BRANCH   2   8
HETATM    8  C6  UNL     1      22.757  17.510  -7.298  1.00  0.00     0.323 C 
BRANCH   8   9
HETATM    9  N1  UNL     1      23.034  16.595  -8.356  1.00  0.00    -0.069 N 
ATOM     10  H13 UNL     1      23.298  17.066  -9.222  1.00  0.00     0.275 HD
ATOM     11  H12 UNL     1      23.901  16.077  -8.209  1.00  0.00     0.275 HD
ATOM     12  H11 UNL     1      22.228  15.982  -8.475  1.00  0.00     0.275 HD
ENDBRANCH   8   9
ENDBRANCH   2   8
TORSDOF 4
ENDMDL
MODEL 2
REMARK VINA RESULT: -4.658666131      1.245      1.494
REMARK  4 active torsions:
REMARK  status: ('A' for Active; 'I' for Inactive)
REMARK    1  A    between atoms: C2_2  and  O1_4 
REMARK    2  A    between atoms: C2_2  and  C4_6 
REMARK    3  A    between atoms: C5_7  and  C6_8 
REMARK    4  A    between atoms: C6_8  and  N1_9 
ROOT
HETATM    1  C4  UNL     1      25.258  19.116  -7.049  1.00  0.00    -0.067 C 
HETATM    2  C5  UNL     1      24.250  18.476  -7.166  1.00  0.00    -0.076 C 
ENDROOT
BRANCH   1   3
HETATM    3  C2  UNL     1      26.481  19.921  -6.896  1.00  0.00     0.114 C 
HETATM    4  C1  UNL     1      26.102  21.380  -6.618  1.00  0.00     0.060 C 
HETATM    5  C3  UNL     1      27.314  19.915  -8.148  1.00  0.00     0.060 C 
BRANCH   3   6
HETATM    6  O1  UNL     1      27.170  19.387  -5.802  1.00  0.00    -0.378 OA
ATOM      7  H1  UNL     1      28.105  19.402  -5.968  1.00  0.00     0.211 HD
ENDBRANCH   3   6
ENDBRANCH   1   3
BRANCH   2   8
HETATM    8  C6  UNL     1      23.007  17.714  -7.298  1.00  0.00     0.323 C 
BRANCH   8   9
HETATM    9  N1  UNL     1      23.178  16.741  -8.326  1.00  0.00    -0.069 N 
ATOM     10  H13 UNL     1      22.334  16.189  -8.487  1.00  0.00     0.275 HD
ATOM     11  H12 UNL     1      23.250  17.159  -9.253  1.00  0.00     0.275 HD
ATOM     12  H11 UNL     1      23.985  16.162  -8.094  1.00  0.00     0.275 HD
ENDBRANCH   8   9
ENDBRANCH   2   8
TORSDOF 4
ENDMDL
MODEL 3
REMARK VINA RESULT: -4.649157786      1.168      1.627
REMARK  4 active torsions:
REMARK  status: ('A' for Active; 'I' for Inactive)
REMARK    1  A    between atoms: C2_2  and  O1_4 
REMARK    2  A    between atoms: C2_2  and  C4_6 
REMARK    3  A    between atoms: C5_7  and  C6_8 
REMARK    4  A    between atoms: C6_8  and  N1_9 
ROOT
HETATM    1  C4  UNL     1      24.938  19.155  -7.201  1.00  0.00    -0.067 C 
HETATM    2  C5  UNL     1      23.968  18.450  -7.244  1.00  0.00    -0.076 C 
ENDROOT
BRANCH   1   3
HETATM    3  C2  UNL     1      26.130  20.014  -7.126  1.00  0.00     0.114 C 
HETATM    4  C1  UNL     1      26.957  19.634  -5.892  1.00  0.00     0.060 C 
HETATM    5  C3  UNL     1      25.767  21.465  -6.980  1.00  0.00     0.060 C 
BRANCH   3   6
HETATM    6  O1  UNL     1      26.867  19.769  -8.289  1.00  0.00    -0.378 OA
ATOM      7  H1  UNL     1      27.111  20.591  -8.699  1.00  0.00     0.211 HD
ENDBRANCH   3   6
ENDBRANCH   1   3
BRANCH   2   8
HETATM    8  C6  UNL     1      22.790  17.580  -7.272  1.00  0.00     0.323 C 
BRANCH   8   9
HETATM    9  N1  UNL     1      22.967  16.610  -8.302  1.00  0.00    -0.069 N 
ATOM     10  H13 UNL     1      22.683  16.957  -9.219  1.00  0.00     0.275 HD
ATOM     11  H12 UNL     1      23.950  16.440  -8.515  1.00  0.00     0.275 HD
ATOM     12  H11 UNL     1      22.471  15.760  -8.036  1.00  0.00     0.275 HD
ENDBRANCH   8   9
ENDBRANCH   2   8
TORSDOF 4
ENDMDL
MODEL 4
REMARK VINA RESULT: -4.025367041      3.113      4.172
REMARK  4 active torsions:
REMARK  status: ('A' for Active; 'I' for Inactive)
REMARK    1  A    between atoms: C2_2  and  O1_4 
REMARK    2  A    between atoms: C2_2  and  C4_6 
REMARK    3  A    between atoms: C5_7  and  C6_8 
REMARK    4  A    between atoms: C6_8  and  N1_9 
ROOT
HETATM    1  C4  UNL     1      25.048  18.994  -7.976  1.00  0.00    -0.067 C 
HETATM    2  C5  UNL     1      25.397  19.976  -7.380  1.00  0.00    -0.076 C 
ENDROOT
BRANCH   1   3
HETATM    3  C2  UNL     1      24.632  17.799  -8.727  1.00  0.00     0.114 C 
HETATM    4  C1  UNL     1      23.437  17.143  -8.024  1.00  0.00     0.060 C 
HETATM    5  C3  UNL     1      25.725  16.769  -8.789  1.00  0.00     0.060 C 
BRANCH   3   6
HETATM    6  O1  UNL     1      24.253  18.244  -9.998  1.00  0.00    -0.378 OA
ATOM      7  H1  UNL     1      24.779  18.994 -10.249  1.00  0.00     0.211 HD
ENDBRANCH   3   6
ENDBRANCH   1   3
BRANCH   2   8
HETATM    8  C6  UNL     1      25.838  21.180  -6.674  1.00  0.00     0.323 C 
BRANCH   8   9
HETATM    9  N1  UNL     1      26.733  20.793  -5.633  1.00  0.00    -0.069 N 
ATOM     10  H13 UNL     1      27.624  20.447  -5.992  1.00  0.00     0.275 HD
ATOM     11  H12 UNL     1      27.093  21.590  -5.110  1.00  0.00     0.275 HD
ATOM     12  H11 UNL     1      26.262  20.113  -5.036  1.00  0.00     0.275 HD
ENDBRANCH   8   9
ENDBRANCH   2   8
TORSDOF 4
ENDMDL
MODEL 5
REMARK VINA RESULT: -3.999729670      3.564      4.677
REMARK  4 active torsions:
REMARK  status: ('A' for Active; 'I' for Inactive)
REMARK    1  A    between atoms: C2_2  and  O1_4 
REMARK    2  A    between atoms: C2_2  and  C4_6 
REMARK    3  A    between atoms: C5_7  and  C6_8 
REMARK    4  A    between atoms: C6_8  and  N1_9 
ROOT
HETATM    1  C4  UNL     1      25.758  18.993  -9.645  1.00  0.00    -0.067 C 
HETATM    2  C5  UNL     1      26.338  19.858 -10.241  1.00  0.00    -0.076 C 
ENDROOT
BRANCH   1   3
HETATM    3  C2  UNL     1      25.026  17.938  -8.927  1.00  0.00     0.114 C 
HETATM    4  C1  UNL     1      24.739  18.400  -7.493  1.00  0.00     0.060 C 
HETATM    5  C3  UNL     1      25.827  16.670  -8.827  1.00  0.00     0.060 C 
BRANCH   3   6
HETATM    6  O1  UNL     1      23.825  17.750  -9.619  1.00  0.00    -0.378 OA
ATOM      7  H1  UNL     1      23.096  17.746  -9.010  1.00  0.00     0.211 HD
ENDBRANCH   3   6
ENDBRANCH   1   3
BRANCH   2   8
HETATM    8  C6  UNL     1      27.024  20.919 -10.981  1.00  0.00     0.323 C 
BRANCH   8   9
HETATM    9  N1  UNL     1      26.086  21.540 -11.858  1.00  0.00    -0.069 N 
ATOM     10  H13 UNL     1      26.262  21.320 -12.838  1.00  0.00     0.275 HD
ATOM     11  H12 UNL     1      25.155  21.130 -11.787  1.00  0.00     0.275 HD
ATOM     12  H11 UNL     1      26.087  22.543 -11.676  1.00  0.00     0.275 HD
ENDBRANCH   8   9
ENDBRANCH   2   8
TORSDOF 4
ENDMDL
