MODEL 1
REMARK VINA RESULT: -6.492598492      0.000      0.000
REMARK  4 active torsions:
REMARK  status: ('A' for Active; 'I' for Inactive)
REMARK    1  A    between atoms: C2_2  and  C3_3 
REMARK    2  A    between atoms: C2_2  and  C5_8 
REMARK    3  A    between atoms: C3_3  and  N1_4 
REMARK    4  A    between atoms: N1_4  and  C4_6 
ROOT
HETATM    1  C5  UNL     1      56.490 358.189  85.509  1.00  0.00     0.034 A 
HETATM    2  C6  UNL     1      55.482 359.060  85.169  1.00  0.00     0.114 A 
HETATM    3  N2  UNL     1      54.721 358.499  84.182  1.00  0.00    -0.360 N 
ATOM      4  H2  UNL     1      53.904 358.914  83.734  1.00  0.00     0.166 HD
HETATM    5  C7  UNL     1      55.261 357.284  83.915  1.00  0.00     0.180 A 
HETATM    6  N3  UNL     1      56.335 357.114  84.731  1.00  0.00    -0.354 N 
ATOM      7  H3  UNL     1      56.933 356.288  84.748  1.00  0.00     0.166 HD
ENDROOT
BRANCH   1   8
HETATM    8  C2  UNL     1      57.554 358.432  86.565  1.00  0.00     0.071 C 
HETATM    9  C1  UNL     1      57.078 359.469  87.499  1.00  0.00     0.022 C 
BRANCH   8  10
HETATM   10  C3  UNL     1      58.833 358.588  85.858  1.00  0.00     0.073 C 
BRANCH  10  11
HETATM   11  N1  UNL     1      59.288 359.851  85.432  1.00  0.00    -0.347 N 
ATOM     12  H1  UNL     1      60.146 360.179  85.875  1.00  0.00     0.167 HD
BRANCH  11  13
HETATM   13  C4  UNL     1      58.732 360.725  84.485  1.00  0.00     0.352 C 
HETATM   14  O1  UNL     1      59.357 361.518  83.763  1.00  0.00    -0.283 OA
ENDBRANCH  11  13
ENDBRANCH  10  11
ENDBRANCH   8  10
ENDBRANCH   1   8
TORSDOF 4
ENDMDL
MODEL 2
REMARK VINA RESULT: -6.155206860      1.405      1.579
REMARK  4 active torsions:
REMARK  status: ('A' for Active; 'I' for Inactive)
REMARK    1  A    between atoms: C2_2  and  C3_3 
REMARK    2  A    between atoms: C2_2  and  C5_8 
REMARK    3  A    between atoms: C3_3  and  N1_4 
REMARK    4  A    between atoms: N1_4  and  C4_6 
ROOT
HETATM    1  C5  UNL     1      55.564 357.801  84.633  1.00  0.00     0.034 A 
HETATM    2  C6  UNL     1      54.419 358.545  84.476  1.00  0.00     0.114 A 
HETATM    3  N2  UNL     1      53.454 357.764  83.902  1.00  0.00    -0.360 N 
ATOM      4  H2  UNL     1      52.503 358.047  83.667  1.00  0.00     0.166 HD
HETATM    5  C7  UNL     1      54.007 356.541  83.706  1.00  0.00     0.180 A 
HETATM    6  N3  UNL     1      55.289 356.584  84.157  1.00  0.00    -0.354 N 
ATOM      7  H3  UNL     1      55.944 355.802  84.135  1.00  0.00     0.166 HD
ENDROOT
BRANCH   1   8
HETATM    8  C2  UNL     1      56.869 358.296  85.233  1.00  0.00     0.071 C 
HETATM    9  C1  UNL     1      57.047 357.688  86.565  1.00  0.00     0.022 C 
BRANCH   8  10
HETATM   10  C3  UNL     1      56.893 359.756  85.065  1.00  0.00     0.073 C 
BRANCH  10  11
HETATM   11  N1  UNL     1      57.641 360.365  84.037  1.00  0.00    -0.347 N 
ATOM     12  H1  UNL     1      57.282 360.222  83.094  1.00  0.00     0.167 HD
BRANCH  11  13
HETATM   13  C4  UNL     1      58.808 361.139  84.123  1.00  0.00     0.352 C 
HETATM   14  O1  UNL     1      59.532 361.481  83.175  1.00  0.00    -0.283 OA
ENDBRANCH  11  13
ENDBRANCH  10  11
ENDBRANCH   8  10
ENDBRANCH   1   8
TORSDOF 4
ENDMDL
MODEL 3
REMARK VINA RESULT: -6.137591904      2.651      4.550
REMARK  4 active torsions:
REMARK  status: ('A' for Active; 'I' for Inactive)
REMARK    1  A    between atoms: C2_2  and  C3_3 
REMARK    2  A    between atoms: C2_2  and  C5_8 
REMARK    3  A    between atoms: C3_3  and  N1_4 
REMARK    4  A    between atoms: N1_4  and  C4_6 
ROOT
HETATM    1  C5  UNL     1      57.376 359.605  85.151  1.00  0.00     0.034 A 
HETATM    2  C6  UNL     1      58.631 359.689  85.708  1.00  0.00     0.114 A 
HETATM    3  N2  UNL     1      59.388 360.559  84.976  1.00  0.00    -0.360 N 
ATOM      4  H2  UNL     1      60.358 360.819  85.153  1.00  0.00     0.166 HD
HETATM    5  C7  UNL     1      58.600 361.011  83.968  1.00  0.00     0.180 A 
HETATM    6  N3  UNL     1      57.382 360.419  84.092  1.00  0.00    -0.354 N 
ATOM      7  H3  UNL     1      56.589 360.574  83.469  1.00  0.00     0.166 HD
ENDROOT
BRANCH   1   8
HETATM    8  C2  UNL     1      56.233 358.747  85.663  1.00  0.00     0.071 C 
HETATM    9  C1  UNL     1      56.760 357.425  86.051  1.00  0.00     0.022 C 
BRANCH   8  10
HETATM   10  C3  UNL     1      55.139 358.862  84.689  1.00  0.00     0.073 C 
BRANCH  10  11
HETATM   11  N1  UNL     1      54.912 357.867  83.717  1.00  0.00    -0.347 N 
ATOM     12  H1  UNL     1      55.525 357.903  82.904  1.00  0.00     0.167 HD
BRANCH  11  13
HETATM   13  C4  UNL     1      53.963 356.832  83.707  1.00  0.00     0.352 C 
HETATM   14  O1  UNL     1      54.188 355.630  83.918  1.00  0.00    -0.283 OA
ENDBRANCH  11  13
ENDBRANCH  10  11
ENDBRANCH   8  10
ENDBRANCH   1   8
TORSDOF 4
ENDMDL
MODEL 4
REMARK VINA RESULT: -6.062970883      0.787      1.207
REMARK  4 active torsions:
REMARK  status: ('A' for Active; 'I' for Inactive)
REMARK    1  A    between atoms: C2_2  and  C3_3 
REMARK    2  A    between atoms: C2_2  and  C5_8 
REMARK    3  A    between atoms: C3_3  and  N1_4 
REMARK    4  A    between atoms: N1_4  and  C4_6 
ROOT
HETATM    1  C5  UNL     1      56.261 358.671  85.677  1.00  0.00     0.034 A 
HETATM    2  C6  UNL     1      55.927 357.684  84.780  1.00  0.00     0.114 A 
HETATM    3  N2  UNL     1      54.806 358.062  84.096  1.00  0.00    -0.360 N 
ATOM      4  H2  UNL     1      54.329 357.530  83.368  1.00  0.00     0.166 HD
HETATM    5  C7  UNL     1      54.450 359.281  84.573  1.00  0.00     0.180 A 
HETATM    6  N3  UNL     1      55.346 359.634  85.532  1.00  0.00    -0.354 N 
ATOM      7  H3  UNL     1      55.324 360.505  86.062  1.00  0.00     0.166 HD
ENDROOT
BRANCH   1   8
HETATM    8  C2  UNL     1      57.443 358.642  86.630  1.00  0.00     0.071 C 
HETATM    9  C1  UNL     1      57.227 359.640  87.695  1.00  0.00     0.022 C 
BRANCH   8  10
HETATM   10  C3  UNL     1      58.660 358.673  85.808  1.00  0.00     0.073 C 
BRANCH  10  11
HETATM   11  N1  UNL     1      59.214 359.889  85.360  1.00  0.00    -0.347 N 
ATOM     12  H1  UNL     1      60.106 360.144  85.783  1.00  0.00     0.167 HD
BRANCH  11  13
HETATM   13  C4  UNL     1      58.715 360.802  84.418  1.00  0.00     0.352 C 
HETATM   14  O1  UNL     1      59.392 361.538  83.681  1.00  0.00    -0.283 OA
ENDBRANCH  11  13
ENDBRANCH  10  11
ENDBRANCH   8  10
ENDBRANCH   1   8
TORSDOF 4
ENDMDL
MODEL 5
REMARK VINA RESULT: -5.923007558      2.468      4.502
REMARK  4 active torsions:
REMARK  status: ('A' for Active; 'I' for Inactive)
REMARK    1  A    between atoms: C2_2  and  C3_3 
REMARK    2  A    between atoms: C2_2  and  C5_8 
REMARK    3  A    between atoms: C3_3  and  N1_4 
REMARK    4  A    between atoms: N1_4  and  C4_6 
ROOT
HETATM    1  C5  UNL     1      57.635 359.529  85.845  1.00  0.00     0.034 A 
HETATM    2  C6  UNL     1      58.865 359.753  85.273  1.00  0.00     0.114 A 
HETATM    3  N2  UNL     1      59.760 360.085  86.252  1.00  0.00    -0.360 N 
ATOM      4  H2  UNL     1      60.747 360.304  86.125  1.00  0.00     0.166 HD
HETATM    5  C7  UNL     1      59.080 360.064  87.426  1.00  0.00     0.180 A 
HETATM    6  N3  UNL     1      57.791 359.725  87.158  1.00  0.00    -0.354 N 
ATOM      7  H3  UNL     1      57.052 359.632  87.855  1.00  0.00     0.166 HD
ENDROOT
BRANCH   1   8
HETATM    8  C2  UNL     1      56.369 359.138  85.104  1.00  0.00     0.071 C 
HETATM    9  C1  UNL     1      55.257 359.986  85.570  1.00  0.00     0.022 C 
BRANCH   8  10
HETATM   10  C3  UNL     1      56.272 357.673  85.162  1.00  0.00     0.073 C 
BRANCH  10  11
HETATM   11  N1  UNL     1      55.766 356.926  84.079  1.00  0.00    -0.347 N 
ATOM     12  H1  UNL     1      56.469 356.461  83.504  1.00  0.00     0.167 HD
BRANCH  11  13
HETATM   13  C4  UNL     1      54.436 356.729  83.677  1.00  0.00     0.352 C 
HETATM   14  O1  UNL     1      53.557 357.602  83.598  1.00  0.00    -0.283 OA
ENDBRANCH  11  13
ENDBRANCH  10  11
ENDBRANCH   8  10
ENDBRANCH   1   8
TORSDOF 4
ENDMDL
