MODEL 1
REMARK VINA RESULT: -7.900775766      0.000      0.000
REMARK  5 active torsions:
REMARK  status: ('A' for Active; 'I' for Inactive)
REMARK    1  A    between atoms: C3_3  and  N1_4 
REMARK    2  A    between atoms: C11_21  and  N6_22 
REMARK    3  A    between atoms: N6_22  and  C12_24 
REMARK    4  A    between atoms: C16_33  and  N9_34 
REMARK       I    between atoms: N9_34  and  C17_36 
REMARK       I    between atoms: C17_36  and  N10_38 
REMARK    5  A    between atoms: N10_38  and  C18_40 
ROOT
HETATM    1  C1  UNL     1       5.947 -15.194 -14.114  1.00  0.00     0.056 C 
HETATM    2  C2  UNL     1       7.001 -14.627 -14.952  1.00  0.00     0.029 A 
HETATM    3  C3  UNL     1       6.891 -13.361 -15.440  1.00  0.00     0.147 A 
HETATM    4  N5  UNL     1       7.870 -12.834 -16.234  1.00  0.00    -0.175 N 
ATOM      5  H5  UNL     1       7.788 -11.886 -16.601  1.00  0.00     0.186 HD
HETATM    6  C11 UNL     1       8.931 -13.581 -16.520  1.00  0.00     0.681 A 
HETATM    7  N8  UNL     1       9.040 -14.832 -16.038  1.00  0.00    -0.176 N 
ATOM      8  H8  UNL     1       9.871 -15.371 -16.284  1.00  0.00     0.186 HD
HETATM    9  C16 UNL     1       8.120 -15.413 -15.255  1.00  0.00     0.134 A 
ENDROOT
BRANCH   3  10
HETATM   10  N1  UNL     1       5.808 -12.469 -15.190  1.00  0.00    -0.275 N 
HETATM   11  C4  UNL     1       4.610 -12.689 -15.907  1.00  0.00     0.195 C 
HETATM   12  C5  UNL     1       3.322 -12.125 -15.417  1.00  0.00     0.082 C 
HETATM   13  N2  UNL     1       2.767 -12.635 -14.256  1.00  0.00    -0.379 N 
HETATM   14  C6  UNL     1       2.004 -11.946 -13.345  1.00  0.00     0.087 C 
ATOM     15  H2  UNL     1       2.942 -13.620 -14.058  1.00  0.00     0.164 HD
HETATM   16  C7  UNL     1       2.510 -11.103 -12.275  1.00  0.00     0.276 C 
HETATM   17  N3  UNL     1       3.608 -11.581 -11.452  1.00  0.00    -0.071 N 
HETATM   18  C8  UNL     1       4.727 -11.633 -12.271  1.00  0.00     0.234 C 
ATOM     19  H32 UNL     1       3.752 -11.024 -10.610  1.00  0.00     0.277 HD
ATOM     20  H31 UNL     1       3.408 -12.466 -10.987  1.00  0.00     0.277 HD
HETATM   21  C9  UNL     1       6.140 -11.508 -11.808  1.00  0.00     0.048 C 
HETATM   22  C10 UNL     1       6.892 -11.698 -13.161  1.00  0.00     0.141 C 
HETATM   23  N4  UNL     1       6.090 -11.472 -14.293  1.00  0.00    -0.332 N 
ATOM     24  H4  UNL     1       5.707 -10.540 -14.452  1.00  0.00     0.180 HD
ENDBRANCH   3  10
BRANCH   9  25
HETATM   25  N9  UNL     1       8.162 -16.581 -14.772  1.00  0.00    -0.294 N 
HETATM   26  C17 UNL     1       7.988 -17.813 -15.401  1.00  0.00     0.322 C 
HETATM   27  O1  UNL     1       8.613 -18.174 -16.434  1.00  0.00    -0.247 OA
HETATM   28  N10 UNL     1       7.056 -18.741 -14.869  1.00  0.00    -0.335 N 
ATOM     29  H10 UNL     1       6.525 -18.492 -14.034  1.00  0.00     0.165 HD
ATOM     30  H9  UNL     1       8.351 -16.628 -13.770  1.00  0.00     0.172 HD
BRANCH  28  31
HETATM   31  C18 UNL     1       6.844 -20.034 -15.486  1.00  0.00     0.023 C 
HETATM   32  C19 UNL     1       6.578 -19.852 -16.946  1.00  0.00     0.037 C 
HETATM   33  C20 UNL     1       5.610 -20.673 -14.838  1.00  0.00     0.037 C 
HETATM   34  C21 UNL     1       7.987 -20.976 -15.302  1.00  0.00     0.037 C 
ENDBRANCH  28  31
ENDBRANCH   9  25
BRANCH   6  35
HETATM   35  N6  UNL     1       9.902 -13.172 -17.266  1.00  0.00    -0.220 N 
ATOM     36  H6  UNL     1       9.846 -13.306 -18.276  1.00  0.00     0.178 HD
BRANCH  35  37
HETATM   37  C12 UNL     1      11.049 -12.539 -16.708  1.00  0.00     0.126 C 
HETATM   38  C13 UNL     1      10.758 -11.468 -15.696  1.00  0.00     0.055 C 
HETATM   39  C14 UNL     1      10.899 -10.196 -16.461  1.00  0.00     0.234 C 
HETATM   40  N7  UNL     1      11.777 -10.435 -17.565  1.00  0.00    -0.073 N 
HETATM   41  C15 UNL     1      11.818 -11.854 -17.794  1.00  0.00     0.257 C 
ATOM     42  H72 UNL     1      11.520  -9.907 -18.398  1.00  0.00     0.277 HD
ATOM     43  H71 UNL     1      12.703 -10.029 -17.429  1.00  0.00     0.277 HD
ENDBRANCH  35  37
ENDBRANCH   6  35
TORSDOF 5
ENDMDL
MODEL 2
REMARK VINA RESULT: -7.750472240      1.673      2.053
REMARK  5 active torsions:
REMARK  status: ('A' for Active; 'I' for Inactive)
REMARK    1  A    between atoms: C3_3  and  N1_4 
REMARK    2  A    between atoms: C11_21  and  N6_22 
REMARK    3  A    between atoms: N6_22  and  C12_24 
REMARK    4  A    between atoms: C16_33  and  N9_34 
REMARK       I    between atoms: N9_34  and  C17_36 
REMARK       I    between atoms: C17_36  and  N10_38 
REMARK    5  A    between atoms: N10_38  and  C18_40 
ROOT
HETATM    1  C1  UNL     1       5.546 -15.266 -13.982  1.00  0.00     0.056 C 
HETATM    2  C2  UNL     1       6.371 -14.841 -15.111  1.00  0.00     0.029 A 
HETATM    3  C3  UNL     1       6.149 -13.642 -15.717  1.00  0.00     0.147 A 
HETATM    4  N5  UNL     1       6.912 -13.249 -16.780  1.00  0.00    -0.175 N 
ATOM      5  H5  UNL     1       6.745 -12.351 -17.236  1.00  0.00     0.186 HD
HETATM    6  C11 UNL     1       7.874 -14.057 -17.210  1.00  0.00     0.681 A 
HETATM    7  N8  UNL     1       8.094 -15.242 -16.611  1.00  0.00    -0.176 N 
ATOM      8  H8  UNL     1       8.842 -15.832 -16.974  1.00  0.00     0.186 HD
HETATM    9  C16 UNL     1       7.386 -15.692 -15.565  1.00  0.00     0.134 A 
ENDROOT
BRANCH   3  10
HETATM   10  N1  UNL     1       5.157 -12.693 -15.336  1.00  0.00    -0.275 N 
HETATM   11  C4  UNL     1       3.846 -12.894 -15.828  1.00  0.00     0.195 C 
HETATM   12  C5  UNL     1       2.682 -12.252 -15.158  1.00  0.00     0.082 C 
HETATM   13  N2  UNL     1       2.316 -12.683 -13.895  1.00  0.00    -0.379 N 
HETATM   14  C6  UNL     1       1.744 -11.920 -12.906  1.00  0.00     0.087 C 
ATOM     15  H2  UNL     1       2.487 -13.665 -13.678  1.00  0.00     0.164 HD
HETATM   16  C7  UNL     1       2.454 -11.051 -11.983  1.00  0.00     0.276 C 
HETATM   17  N3  UNL     1       3.660 -11.538 -11.332  1.00  0.00    -0.071 N 
HETATM   18  C8  UNL     1       4.619 -11.677 -12.325  1.00  0.00     0.234 C 
ATOM     19  H32 UNL     1       3.964 -10.949 -10.558  1.00  0.00     0.277 HD
ATOM     20  H31 UNL     1       3.510 -12.391 -10.795  1.00  0.00     0.277 HD
HETATM   21  C9  UNL     1       6.094 -11.592 -12.114  1.00  0.00     0.048 C 
HETATM   22  C10 UNL     1       6.597 -11.877 -13.562  1.00  0.00     0.141 C 
HETATM   23  N4  UNL     1       5.623 -11.669 -14.553  1.00  0.00    -0.332 N 
ATOM     24  H4  UNL     1       5.251 -10.729 -14.694  1.00  0.00     0.180 HD
ENDBRANCH   3  10
BRANCH   9  25
HETATM   25  N9  UNL     1       7.541 -16.791 -14.959  1.00  0.00    -0.294 N 
HETATM   26  C17 UNL     1       7.592 -18.089 -15.467  1.00  0.00     0.322 C 
HETATM   27  O1  UNL     1       8.350 -18.452 -16.406  1.00  0.00    -0.247 OA
HETATM   28  N10 UNL     1       6.750 -19.087 -14.912  1.00  0.00    -0.335 N 
ATOM     29  H10 UNL     1       6.117 -18.839 -14.151  1.00  0.00     0.165 HD
ATOM     30  H9  UNL     1       7.644 -16.717 -13.947  1.00  0.00     0.172 HD
BRANCH  28  31
HETATM   31  C18 UNL     1       6.770 -20.449 -15.405  1.00  0.00     0.023 C 
HETATM   32  C19 UNL     1       6.601 -20.445 -16.890  1.00  0.00     0.037 C 
HETATM   33  C20 UNL     1       5.589 -21.198 -14.777  1.00  0.00     0.037 C 
HETATM   34  C21 UNL     1       8.014 -21.192 -15.047  1.00  0.00     0.037 C 
ENDBRANCH  28  31
ENDBRANCH   9  25
BRANCH   6  35
HETATM   35  N6  UNL     1       8.640 -13.775 -18.209  1.00  0.00    -0.220 N 
ATOM     36  H6  UNL     1       9.558 -14.215 -18.274  1.00  0.00     0.178 HD
BRANCH  35  37
HETATM   37  C12 UNL     1       8.231 -12.862 -19.223  1.00  0.00     0.126 C 
HETATM   38  C13 UNL     1       7.673 -13.497 -20.465  1.00  0.00     0.055 C 
HETATM   39  C14 UNL     1       8.809 -13.468 -21.430  1.00  0.00     0.234 C 
HETATM   40  N7  UNL     1       9.682 -12.398 -21.058  1.00  0.00    -0.073 N 
HETATM   41  C15 UNL     1       9.412 -12.068 -19.685  1.00  0.00     0.257 C 
ATOM     42  H72 UNL     1      10.665 -12.612 -21.228  1.00  0.00     0.277 HD
ATOM     43  H71 UNL     1       9.610 -11.594 -21.681  1.00  0.00     0.277 HD
ENDBRANCH  35  37
ENDBRANCH   6  35
TORSDOF 5
ENDMDL
MODEL 3
REMARK VINA RESULT: -7.584012135      2.263      5.385
REMARK  5 active torsions:
REMARK  status: ('A' for Active; 'I' for Inactive)
REMARK    1  A    between atoms: C3_3  and  N1_4 
REMARK    2  A    between atoms: C11_21  and  N6_22 
REMARK    3  A    between atoms: N6_22  and  C12_24 
REMARK    4  A    between atoms: C16_33  and  N9_34 
REMARK       I    between atoms: N9_34  and  C17_36 
REMARK       I    between atoms: C17_36  and  N10_38 
REMARK    5  A    between atoms: N10_38  and  C18_40 
ROOT
HETATM    1  C1  UNL     1       9.409 -17.305 -15.078  1.00  0.00     0.056 C 
HETATM    2  C2  UNL     1       7.996 -17.125 -15.405  1.00  0.00     0.029 A 
HETATM    3  C3  UNL     1       7.459 -15.876 -15.485  1.00  0.00     0.147 A 
HETATM    4  N5  UNL     1       6.135 -15.706 -15.778  1.00  0.00    -0.175 N 
ATOM      5  H5  UNL     1       5.732 -14.771 -15.838  1.00  0.00     0.186 HD
HETATM    6  C11 UNL     1       5.384 -16.782 -15.984  1.00  0.00     0.681 A 
HETATM    7  N8  UNL     1       5.914 -18.016 -15.905  1.00  0.00    -0.176 N 
ATOM      8  H8  UNL     1       5.301 -18.814 -16.069  1.00  0.00     0.186 HD
HETATM    9  C16 UNL     1       7.203 -18.257 -15.622  1.00  0.00     0.134 A 
ENDROOT
BRANCH   3  10
HETATM   10  N1  UNL     1       8.169 -14.655 -15.296  1.00  0.00    -0.275 N 
HETATM   11  C4  UNL     1       8.783 -14.080 -16.433  1.00  0.00     0.195 C 
HETATM   12  C5  UNL     1       9.149 -12.637 -16.445  1.00  0.00     0.082 C 
HETATM   13  N2  UNL     1       8.139 -11.691 -16.464  1.00  0.00    -0.379 N 
HETATM   14  C6  UNL     1       8.183 -10.438 -15.903  1.00  0.00     0.087 C 
ATOM     15  H2  UNL     1       7.276 -11.950 -16.943  1.00  0.00     0.164 HD
HETATM   16  C7  UNL     1       7.929 -10.120 -14.508  1.00  0.00     0.276 C 
HETATM   17  N3  UNL     1       6.780 -10.710 -13.842  1.00  0.00    -0.071 N 
HETATM   18  C8  UNL     1       7.033 -12.070 -13.740  1.00  0.00     0.234 C 
ATOM     19  H32 UNL     1       6.565 -10.273 -12.946  1.00  0.00     0.277 HD
ATOM     20  H31 UNL     1       5.895 -10.499 -14.303  1.00  0.00     0.277 HD
HETATM   21  C9  UNL     1       6.474 -12.974 -12.693  1.00  0.00     0.048 C 
HETATM   22  C10 UNL     1       7.079 -14.336 -13.152  1.00  0.00     0.141 C 
HETATM   23  N4  UNL     1       8.191 -14.207 -14.001  1.00  0.00    -0.332 N 
ATOM     24  H4  UNL     1       9.039 -13.767 -13.644  1.00  0.00     0.180 HD
ENDBRANCH   3  10
BRANCH   9  25
HETATM   25  N9  UNL     1       7.762 -19.388 -15.533  1.00  0.00    -0.294 N 
HETATM   26  C17 UNL     1       7.193 -20.658 -15.436  1.00  0.00     0.322 C 
HETATM   27  O1  UNL     1       6.323 -21.105 -16.228  1.00  0.00    -0.247 OA
HETATM   28  N10 UNL     1       7.602 -21.525 -14.389  1.00  0.00    -0.335 N 
ATOM     29  H10 UNL     1       8.303 -21.205 -13.722  1.00  0.00     0.165 HD
ATOM     30  H9  UNL     1       8.782 -19.368 -15.531  1.00  0.00     0.172 HD
BRANCH  28  31
HETATM   31  C18 UNL     1       7.042 -22.854 -14.250  1.00  0.00     0.023 C 
HETATM   32  C19 UNL     1       5.583 -22.750 -13.939  1.00  0.00     0.037 C 
HETATM   33  C20 UNL     1       7.747 -23.545 -13.078  1.00  0.00     0.037 C 
HETATM   34  C21 UNL     1       7.235 -23.709 -15.457  1.00  0.00     0.037 C 
ENDBRANCH  28  31
ENDBRANCH   9  25
BRANCH   6  35
HETATM   35  N6  UNL     1       4.125 -16.722 -16.260  1.00  0.00    -0.220 N 
ATOM     36  H6  UNL     1       3.824 -16.772 -17.234  1.00  0.00     0.178 HD
BRANCH  35  37
HETATM   37  C12 UNL     1       3.146 -16.586 -15.235  1.00  0.00     0.126 C 
HETATM   38  C13 UNL     1       2.103 -15.535 -15.483  1.00  0.00     0.055 C 
HETATM   39  C14 UNL     1       2.561 -14.370 -14.673  1.00  0.00     0.234 C 
HETATM   40  N7  UNL     1       3.369 -14.863 -13.601  1.00  0.00    -0.073 N 
HETATM   41  C15 UNL     1       3.814 -16.183 -13.958  1.00  0.00     0.257 C 
ATOM     42  H72 UNL     1       4.138 -14.236 -13.364  1.00  0.00     0.277 HD
ATOM     43  H71 UNL     1       2.891 -14.836 -12.700  1.00  0.00     0.277 HD
ENDBRANCH  35  37
ENDBRANCH   6  35
TORSDOF 5
ENDMDL
MODEL 4
REMARK VINA RESULT: -7.437084479      3.199      6.844
REMARK  5 active torsions:
REMARK  status: ('A' for Active; 'I' for Inactive)
REMARK    1  A    between atoms: C3_3  and  N1_4 
REMARK    2  A    between atoms: C11_21  and  N6_22 
REMARK    3  A    between atoms: N6_22  and  C12_24 
REMARK    4  A    between atoms: C16_33  and  N9_34 
REMARK       I    between atoms: N9_34  and  C17_36 
REMARK       I    between atoms: C17_36  and  N10_38 
REMARK    5  A    between atoms: N10_38  and  C18_40 
ROOT
HETATM    1  C1  UNL     1       5.480 -14.005 -16.638  1.00  0.00     0.056 C 
HETATM    2  C2  UNL     1       5.659 -15.365 -16.134  1.00  0.00     0.029 A 
HETATM    3  C3  UNL     1       6.820 -15.729 -15.524  1.00  0.00     0.147 A 
HETATM    4  N5  UNL     1       6.994 -17.003 -15.063  1.00  0.00    -0.175 N 
ATOM      5  H5  UNL     1       7.865 -17.277 -14.607  1.00  0.00     0.186 HD
HETATM    6  C11 UNL     1       6.009 -17.880 -15.221  1.00  0.00     0.681 A 
HETATM    7  N8  UNL     1       4.861 -17.521 -15.824  1.00  0.00    -0.176 N 
ATOM      8  H8  UNL     1       4.130 -18.225 -15.926  1.00  0.00     0.186 HD
HETATM    9  C16 UNL     1       4.621 -16.290 -16.300  1.00  0.00     0.134 A 
ENDROOT
BRANCH   3  10
HETATM   10  N1  UNL     1       7.936 -14.874 -15.290  1.00  0.00    -0.275 N 
HETATM   11  C4  UNL     1       8.761 -14.569 -16.398  1.00  0.00     0.195 C 
HETATM   12  C5  UNL     1       9.652 -13.376 -16.370  1.00  0.00     0.082 C 
HETATM   13  N2  UNL     1       9.082 -12.116 -16.400  1.00  0.00    -0.379 N 
HETATM   14  C6  UNL     1       9.583 -10.979 -15.812  1.00  0.00     0.087 C 
ATOM     15  H2  UNL     1       8.202 -12.021 -16.908  1.00  0.00     0.164 HD
HETATM   16  C7  UNL     1       9.423 -10.599 -14.419  1.00  0.00     0.276 C 
HETATM   17  N3  UNL     1       8.113 -10.708 -13.798  1.00  0.00    -0.071 N 
HETATM   18  C8  UNL     1       7.823 -12.063 -13.716  1.00  0.00     0.234 C 
ATOM     19  H32 UNL     1       8.052 -10.229 -12.901  1.00  0.00     0.277 HD
ATOM     20  H31 UNL     1       7.392 -10.171 -14.280  1.00  0.00     0.277 HD
HETATM   21  C9  UNL     1       6.925 -12.691 -12.704  1.00  0.00     0.048 C 
HETATM   22  C10 UNL     1       6.978 -14.178 -13.172  1.00  0.00     0.141 C 
HETATM   23  N4  UNL     1       8.084 -14.478 -13.987  1.00  0.00    -0.332 N 
ATOM     24  H4  UNL     1       9.023 -14.399 -13.597  1.00  0.00     0.180 HD
ENDBRANCH   3  10
BRANCH   9  25
HETATM   25  N9  UNL     1       3.569 -15.890 -16.875  1.00  0.00    -0.294 N 
HETATM   26  C17 UNL     1       2.257 -15.841 -16.401  1.00  0.00     0.322 C 
HETATM   27  O1  UNL     1       1.918 -15.302 -15.315  1.00  0.00    -0.247 OA
HETATM   28  N10 UNL     1       1.218 -16.426 -17.170  1.00  0.00    -0.335 N 
ATOM     29  H10 UNL     1       1.446 -16.876 -18.057  1.00  0.00     0.165 HD
ATOM     30  H9  UNL     1       3.698 -15.552 -17.829  1.00  0.00     0.172 HD
BRANCH  28  31
HETATM   31  C18 UNL     1      -0.159 -16.398 -16.721  1.00  0.00     0.023 C 
HETATM   32  C19 UNL     1      -0.347 -17.399 -15.627  1.00  0.00     0.037 C 
HETATM   33  C20 UNL     1      -1.052 -16.788 -17.903  1.00  0.00     0.037 C 
HETATM   34  C21 UNL     1      -0.602 -15.054 -16.248  1.00  0.00     0.037 C 
ENDBRANCH  28  31
ENDBRANCH   9  25
BRANCH   6  35
HETATM   35  N6  UNL     1       6.083 -19.105 -14.825  1.00  0.00    -0.220 N 
ATOM     36  H6  UNL     1       6.195 -19.303 -13.831  1.00  0.00     0.178 HD
BRANCH  35  37
HETATM   37  C12 UNL     1       6.012 -20.189 -15.747  1.00  0.00     0.126 C 
HETATM   38  C13 UNL     1       6.120 -21.555 -15.134  1.00  0.00     0.055 C 
HETATM   39  C14 UNL     1       7.539 -21.948 -15.369  1.00  0.00     0.234 C 
HETATM   40  N7  UNL     1       8.017 -21.231 -16.511  1.00  0.00    -0.073 N 
HETATM   41  C15 UNL     1       7.152 -20.099 -16.711  1.00  0.00     0.257 C 
ATOM     42  H72 UNL     1       9.000 -20.970 -16.433  1.00  0.00     0.277 HD
ATOM     43  H71 UNL     1       8.099 -21.818 -17.341  1.00  0.00     0.277 HD
ENDBRANCH  35  37
ENDBRANCH   6  35
TORSDOF 5
ENDMDL
MODEL 5
REMARK VINA RESULT: -7.327512030      2.210      2.616
REMARK  5 active torsions:
REMARK  status: ('A' for Active; 'I' for Inactive)
REMARK    1  A    between atoms: C3_3  and  N1_4 
REMARK    2  A    between atoms: C11_21  and  N6_22 
REMARK    3  A    between atoms: N6_22  and  C12_24 
REMARK    4  A    between atoms: C16_33  and  N9_34 
REMARK       I    between atoms: N9_34  and  C17_36 
REMARK       I    between atoms: C17_36  and  N10_38 
REMARK    5  A    between atoms: N10_38  and  C18_40 
ROOT
HETATM    1  C1  UNL     1       6.248 -14.016 -14.079  1.00  0.00     0.056 C 
HETATM    2  C2  UNL     1       6.946 -13.913 -15.359  1.00  0.00     0.029 A 
HETATM    3  C3  UNL     1       6.937 -12.746 -16.059  1.00  0.00     0.147 A 
HETATM    4  N5  UNL     1       7.579 -12.652 -17.262  1.00  0.00    -0.175 N 
ATOM      5  H5  UNL     1       7.572 -11.778 -17.789  1.00  0.00     0.186 HD
HETATM    6  C11 UNL     1       8.211 -13.720 -17.734  1.00  0.00     0.681 A 
HETATM    7  N8  UNL     1       8.220 -14.874 -17.042  1.00  0.00    -0.176 N 
ATOM      8  H8  UNL     1       8.717 -15.671 -17.441  1.00  0.00     0.186 HD
HETATM    9  C16 UNL     1       7.613 -15.038 -15.857  1.00  0.00     0.134 A 
ENDROOT
BRANCH   3  10
HETATM   10  N1  UNL     1       6.304 -11.537 -15.648  1.00  0.00    -0.275 N 
HETATM   11  C4  UNL     1       4.900 -11.460 -15.795  1.00  0.00     0.195 C 
HETATM   12  C5  UNL     1       4.112 -10.467 -15.013  1.00  0.00     0.082 C 
HETATM   13  N2  UNL     1       3.997 -10.634 -13.644  1.00  0.00    -0.379 N 
HETATM   14  C6  UNL     1       3.877  -9.635 -12.708  1.00  0.00     0.087 C 
ATOM     15  H2  UNL     1       4.004 -11.592 -13.296  1.00  0.00     0.164 HD
HETATM   16  C7  UNL     1       4.969  -8.868 -12.136  1.00  0.00     0.276 C 
HETATM   17  N3  UNL     1       6.167  -9.559 -11.688  1.00  0.00    -0.071 N 
HETATM   18  C8  UNL     1       6.787 -10.057 -12.825  1.00  0.00     0.234 C 
ATOM     19  H32 UNL     1       6.779  -8.976 -11.119  1.00  0.00     0.277 HD
ATOM     20  H31 UNL     1       5.981 -10.274 -10.986  1.00  0.00     0.277 HD
HETATM   21  C9  UNL     1       8.249 -10.322 -12.962  1.00  0.00     0.048 C 
HETATM   22  C10 UNL     1       8.291 -10.900 -14.410  1.00  0.00     0.141 C 
HETATM   23  N4  UNL     1       7.163 -10.576 -15.184  1.00  0.00    -0.332 N 
ATOM     24  H4  UNL     1       6.980  -9.598 -15.407  1.00  0.00     0.180 HD
ENDBRANCH   3  10
BRANCH   9  25
HETATM   25  N9  UNL     1       7.583 -16.092 -15.159  1.00  0.00    -0.294 N 
HETATM   26  C17 UNL     1       7.672 -17.427 -15.554  1.00  0.00     0.322 C 
HETATM   27  O1  UNL     1       8.588 -17.888 -16.285  1.00  0.00    -0.247 OA
HETATM   28  N10 UNL     1       6.683 -18.347 -15.122  1.00  0.00    -0.335 N 
ATOM     29  H10 UNL     1       5.920 -18.019 -14.529  1.00  0.00     0.165 HD
ATOM     30  H9  UNL     1       7.478 -15.943 -14.155  1.00  0.00     0.172 HD
BRANCH  28  31
HETATM   31  C18 UNL     1       6.735 -19.744 -15.504  1.00  0.00     0.023 C 
HETATM   32  C19 UNL     1       6.545 -19.863 -16.982  1.00  0.00     0.037 C 
HETATM   33  C20 UNL     1       5.584 -20.472 -14.800  1.00  0.00     0.037 C 
HETATM   34  C21 UNL     1       8.004 -20.421 -15.109  1.00  0.00     0.037 C 
ENDBRANCH  28  31
ENDBRANCH   9  25
BRANCH   6  35
HETATM   35  N6  UNL     1       8.838 -13.730 -18.861  1.00  0.00    -0.220 N 
ATOM     36  H6  UNL     1       9.629 -14.362 -18.988  1.00  0.00     0.178 HD
BRANCH  35  37
HETATM   37  C12 UNL     1       8.450 -12.876 -19.933  1.00  0.00     0.126 C 
HETATM   38  C13 UNL     1       8.018 -13.583 -21.186  1.00  0.00     0.055 C 
HETATM   39  C14 UNL     1       9.215 -13.518 -22.072  1.00  0.00     0.234 C 
HETATM   40  N7  UNL     1       9.998 -12.386 -21.681  1.00  0.00    -0.073 N 
HETATM   41  C15 UNL     1       9.613 -12.028 -20.342  1.00  0.00     0.257 C 
ATOM     42  H72 UNL     1      11.001 -12.547 -21.775  1.00  0.00     0.277 HD
ATOM     43  H71 UNL     1       9.924 -11.608 -22.336  1.00  0.00     0.277 HD
ENDBRANCH  35  37
ENDBRANCH   6  35
TORSDOF 5
ENDMDL
