MODEL 1
REMARK VINA RESULT: -8.312868546      0.000      0.000
REMARK  2 active torsions:
REMARK  status: ('A' for Active; 'I' for Inactive)
REMARK    1  A    between atoms: N8_35  and  C16_36 
REMARK    2  A    between atoms: C16_36  and  C17_37 
ROOT
HETATM    1  O1  UNL     1      11.002 -17.040 -16.334  1.00  0.00    -0.245 OA
HETATM    2  C1  UNL     1      10.068 -16.257 -16.741  1.00  0.00     0.337 C 
HETATM    3  N1  UNL     1      10.435 -15.310 -17.732  1.00  0.00    -0.256 N 
ATOM      4  H1  UNL     1      11.082 -15.621 -18.458  1.00  0.00     0.191 HD
HETATM    5  N2  UNL     1       9.991 -14.002 -17.797  1.00  0.00    -0.331 N 
ATOM      6  H2  UNL     1       9.278 -13.696 -18.459  1.00  0.00     0.180 HD
HETATM    7  C2  UNL     1      10.606 -13.114 -16.866  1.00  0.00     0.158 C 
HETATM    8  C3  UNL     1      11.941 -12.587 -17.341  1.00  0.00     0.135 C 
HETATM    9  N3  UNL     1      11.823 -11.548 -18.314  1.00  0.00    -0.420 N 
ATOM     10  H3  UNL     1      11.855 -11.729 -19.317  1.00  0.00     0.153 HD
HETATM   11  C4  UNL     1      11.655 -10.233 -17.772  1.00  0.00     0.115 C 
HETATM   12  C5  UNL     1      10.979  -9.385 -18.843  1.00  0.00     0.046 C 
HETATM   13  C6  UNL     1      10.268  -8.199 -18.277  1.00  0.00     0.234 C 
HETATM   14  N4  UNL     1       9.261  -7.784 -19.261  1.00  0.00    -0.073 N 
ATOM     15  H41 UNL     1       9.214  -8.443 -20.039  1.00  0.00     0.277 HD
ATOM     16  H42 UNL     1       9.564  -6.953 -19.769  1.00  0.00     0.277 HD
HETATM   17  C7  UNL     1       7.972  -7.587 -18.677  1.00  0.00     0.259 C 
HETATM   18  C8  UNL     1       6.835  -7.908 -19.625  1.00  0.00     0.259 C 
HETATM   19  N5  UNL     1       5.769  -8.644 -18.983  1.00  0.00    -0.072 N 
ATOM     20  H51 UNL     1       4.909  -8.098 -18.921  1.00  0.00     0.277 HD
ATOM     21  H52 UNL     1       5.936  -8.769 -17.985  1.00  0.00     0.277 HD
HETATM   22  C9  UNL     1       5.569  -9.896 -19.659  1.00  0.00     0.259 C 
HETATM   23  C10 UNL     1       4.236 -10.512 -19.253  1.00  0.00     0.259 C 
HETATM   24  N6  UNL     1       4.296 -11.955 -19.418  1.00  0.00    -0.072 N 
ATOM     25  H61 UNL     1       5.257 -12.294 -19.472  1.00  0.00     0.277 HD
ATOM     26  H62 UNL     1       3.983 -12.246 -20.345  1.00  0.00     0.277 HD
HETATM   27  C11 UNL     1       3.552 -12.605 -18.367  1.00  0.00     0.259 C 
HETATM   28  C12 UNL     1       4.242 -13.891 -17.926  1.00  0.00     0.259 C 
HETATM   29  N7  UNL     1       5.552 -13.606 -17.368  1.00  0.00    -0.073 N 
ATOM     30  H71 UNL     1       5.732 -12.606 -17.275  1.00  0.00     0.277 HD
ATOM     31  H72 UNL     1       6.312 -13.821 -18.014  1.00  0.00     0.277 HD
HETATM   32  C13 UNL     1       5.668 -14.317 -16.107  1.00  0.00     0.234 C 
HETATM   33  C14 UNL     1       7.117 -14.587 -15.753  1.00  0.00     0.047 C 
HETATM   34  C15 UNL     1       7.599 -15.689 -16.676  1.00  0.00     0.129 C 
HETATM   35  N8  UNL     1       8.756 -16.369 -16.200  1.00  0.00    -0.329 N 
ENDROOT
BRANCH  35  36
HETATM   36  C16 UNL     1       8.609 -17.261 -15.063  1.00  0.00     0.166 C 
BRANCH  36  37
HETATM   37  C17 UNL     1       7.848 -18.464 -15.362  1.00  0.00    -0.040 A 
HETATM   38  C18 UNL     1       8.433 -19.524 -16.000  1.00  0.00     0.009 A 
HETATM   39  C19 UNL     1       7.725 -20.689 -16.298  1.00  0.00     0.001 A 
HETATM   40  C20 UNL     1       6.396 -20.762 -15.933  1.00  0.00     0.000 A 
HETATM   41  C21 UNL     1       5.783 -19.708 -15.290  1.00  0.00     0.001 A 
HETATM   42  C22 UNL     1       6.530 -18.560 -15.011  1.00  0.00     0.009 A 
ENDBRANCH  36  37
ENDBRANCH  35  36
TORSDOF 2
ENDMDL
MODEL 2
REMARK VINA RESULT: -8.200858957      1.215      1.493
REMARK  2 active torsions:
REMARK  status: ('A' for Active; 'I' for Inactive)
REMARK    1  A    between atoms: N8_35  and  C16_36 
REMARK    2  A    between atoms: C16_36  and  C17_37 
ROOT
HETATM    1  O1  UNL     1      10.872 -16.899 -16.798  1.00  0.00    -0.245 OA
HETATM    2  C1  UNL     1       9.945 -16.011 -16.853  1.00  0.00     0.337 C 
HETATM    3  N1  UNL     1      10.155 -14.945 -17.765  1.00  0.00    -0.256 N 
ATOM      4  H1  UNL     1      10.583 -15.174 -18.662  1.00  0.00     0.191 HD
HETATM    5  N2  UNL     1       9.829 -13.620 -17.538  1.00  0.00    -0.331 N 
ATOM      6  H2  UNL     1       9.012 -13.175 -17.958  1.00  0.00     0.180 HD
HETATM    7  C2  UNL     1      10.723 -12.922 -16.674  1.00  0.00     0.158 C 
HETATM    8  C3  UNL     1      11.952 -12.402 -17.384  1.00  0.00     0.135 C 
HETATM    9  N3  UNL     1      11.705 -11.220 -18.147  1.00  0.00    -0.420 N 
ATOM     10  H3  UNL     1      11.485 -11.245 -19.143  1.00  0.00     0.153 HD
HETATM   11  C4  UNL     1      11.789  -9.999 -17.406  1.00  0.00     0.115 C 
HETATM   12  C5  UNL     1      10.962  -8.958 -18.153  1.00  0.00     0.046 C 
HETATM   13  C6  UNL     1      10.514  -7.837 -17.272  1.00  0.00     0.234 C 
HETATM   14  N4  UNL     1       9.346  -7.219 -17.914  1.00  0.00    -0.073 N 
ATOM     15  H41 UNL     1       9.060  -7.746 -18.738  1.00  0.00     0.277 HD
ATOM     16  H42 UNL     1       9.597  -6.337 -18.361  1.00  0.00     0.277 HD
HETATM   17  C7  UNL     1       8.253  -7.044 -17.010  1.00  0.00     0.259 C 
HETATM   18  C8  UNL     1       6.902  -7.150 -17.686  1.00  0.00     0.259 C 
HETATM   19  N5  UNL     1       5.954  -7.916 -16.909  1.00  0.00    -0.072 N 
ATOM     20  H51 UNL     1       5.185  -7.340 -16.564  1.00  0.00     0.277 HD
ATOM     21  H52 UNL     1       6.337  -8.204 -16.009  1.00  0.00     0.277 HD
HETATM   22  C9  UNL     1       5.487  -9.035 -17.681  1.00  0.00     0.259 C 
HETATM   23  C10 UNL     1       4.236  -9.632 -17.049  1.00  0.00     0.259 C 
HETATM   24  N6  UNL     1       4.124 -11.033 -17.420  1.00  0.00    -0.072 N 
ATOM     25  H61 UNL     1       5.010 -11.412 -17.753  1.00  0.00     0.277 HD
ATOM     26  H62 UNL     1       3.578 -11.160 -18.273  1.00  0.00     0.277 HD
HETATM   27  C11 UNL     1       3.590 -11.796 -16.318  1.00  0.00     0.259 C 
HETATM   28  C12 UNL     1       4.244 -13.171 -16.239  1.00  0.00     0.259 C 
HETATM   29  N7  UNL     1       5.669 -13.049 -15.986  1.00  0.00    -0.073 N 
ATOM     30  H71 UNL     1       5.956 -12.087 -15.803  1.00  0.00     0.277 HD
ATOM     31  H72 UNL     1       6.233 -13.203 -16.821  1.00  0.00     0.277 HD
HETATM   32  C13 UNL     1       6.011 -13.952 -14.902  1.00  0.00     0.234 C 
HETATM   33  C14 UNL     1       7.472 -14.354 -14.954  1.00  0.00     0.047 C 
HETATM   34  C15 UNL     1       7.621 -15.324 -16.109  1.00  0.00     0.129 C 
HETATM   35  N8  UNL     1       8.791 -16.133 -16.028  1.00  0.00    -0.329 N 
ENDROOT
BRANCH  35  36
HETATM   36  C16 UNL     1       8.834 -17.181 -15.023  1.00  0.00     0.166 C 
BRANCH  36  37
HETATM   37  C17 UNL     1       8.013 -18.337 -15.352  1.00  0.00    -0.040 A 
HETATM   38  C18 UNL     1       6.663 -18.323 -15.135  1.00  0.00     0.009 A 
HETATM   39  C19 UNL     1       5.854 -19.418 -15.441  1.00  0.00     0.001 A 
HETATM   40  C20 UNL     1       6.446 -20.542 -15.979  1.00  0.00     0.000 A 
HETATM   41  C21 UNL     1       7.805 -20.583 -16.207  1.00  0.00     0.001 A 
HETATM   42  C22 UNL     1       8.578 -19.462 -15.885  1.00  0.00     0.009 A 
ENDBRANCH  36  37
ENDBRANCH  35  36
TORSDOF 2
ENDMDL
MODEL 3
REMARK VINA RESULT: -7.918270565      4.914      7.285
REMARK  2 active torsions:
REMARK  status: ('A' for Active; 'I' for Inactive)
REMARK    1  A    between atoms: N8_35  and  C16_36 
REMARK    2  A    between atoms: C16_36  and  C17_37 
ROOT
HETATM    1  O1  UNL     1       2.771 -17.599 -14.788  1.00  0.00    -0.245 OA
HETATM    2  C1  UNL     1       3.464 -16.565 -14.469  1.00  0.00     0.337 C 
HETATM    3  N1  UNL     1       2.892 -15.707 -13.494  1.00  0.00    -0.256 N 
ATOM      4  H1  UNL     1       2.396 -16.147 -12.718  1.00  0.00     0.191 HD
HETATM    5  N2  UNL     1       2.952 -14.325 -13.507  1.00  0.00    -0.331 N 
ATOM      6  H2  UNL     1       3.580 -13.797 -12.902  1.00  0.00     0.180 HD
HETATM    7  C2  UNL     1       2.066 -13.696 -14.431  1.00  0.00     0.158 C 
HETATM    8  C3  UNL     1       0.661 -13.539 -13.895  1.00  0.00     0.135 C 
HETATM    9  N3  UNL     1       0.528 -12.458 -12.971  1.00  0.00    -0.420 N 
ATOM     10  H3  UNL     1       0.597 -12.587 -11.962  1.00  0.00     0.153 HD
HETATM   11  C4  UNL     1       0.291 -11.181 -13.572  1.00  0.00     0.115 C 
HETATM   12  C5  UNL     1       0.751 -10.121 -12.577  1.00  0.00     0.046 C 
HETATM   13  C6  UNL     1       1.069  -8.815 -13.231  1.00  0.00     0.234 C 
HETATM   14  N4  UNL     1       1.965  -8.082 -12.328  1.00  0.00    -0.073 N 
ATOM     15  H41 UNL     1       2.233  -8.659 -11.530  1.00  0.00     0.277 HD
ATOM     16  H42 UNL     1       1.464  -7.343 -11.834  1.00  0.00     0.277 HD
HETATM   17  C7  UNL     1       3.116  -7.564 -12.997  1.00  0.00     0.259 C 
HETATM   18  C8  UNL     1       4.341  -7.502 -12.110  1.00  0.00     0.259 C 
HETATM   19  N5  UNL     1       5.539  -7.943 -12.789  1.00  0.00    -0.072 N 
ATOM     20  H51 UNL     1       6.206  -7.183 -12.924  1.00  0.00     0.277 HD
ATOM     21  H52 UNL     1       5.366  -8.164 -13.769  1.00  0.00     0.277 HD
HETATM   22  C9  UNL     1       6.118  -9.051 -12.078  1.00  0.00     0.259 C 
HETATM   23  C10 UNL     1       7.549  -9.290 -12.543  1.00  0.00     0.259 C 
HETATM   24  N6  UNL     1       7.907 -10.681 -12.319  1.00  0.00    -0.072 N 
ATOM     25  H61 UNL     1       7.085 -11.272 -12.193  1.00  0.00     0.277 HD
ATOM     26  H62 UNL     1       8.334 -10.823 -11.403  1.00  0.00     0.277 HD
HETATM   27  C11 UNL     1       8.753 -11.152 -13.389  1.00  0.00     0.259 C 
HETATM   28  C12 UNL     1       8.434 -12.602 -13.738  1.00  0.00     0.259 C 
HETATM   29  N7  UNL     1       7.071 -12.725 -14.224  1.00  0.00    -0.073 N 
ATOM     30  H71 UNL     1       6.612 -11.822 -14.344  1.00  0.00     0.277 HD
ATOM     31  H72 UNL     1       6.436 -13.110 -13.524  1.00  0.00     0.277 HD
HETATM   32  C13 UNL     1       7.100 -13.508 -15.447  1.00  0.00     0.234 C 
HETATM   33  C14 UNL     1       5.771 -14.192 -15.700  1.00  0.00     0.047 C 
HETATM   34  C15 UNL     1       5.665 -15.333 -14.708  1.00  0.00     0.129 C 
HETATM   35  N8  UNL     1       4.726 -16.334 -15.085  1.00  0.00    -0.329 N 
ENDROOT
BRANCH  35  36
HETATM   36  C16 UNL     1       5.063 -17.209 -16.194  1.00  0.00     0.166 C 
BRANCH  36  37
HETATM   37  C17 UNL     1       5.991 -18.272 -15.836  1.00  0.00    -0.040 A 
HETATM   38  C18 UNL     1       7.343 -18.073 -15.901  1.00  0.00     0.009 A 
HETATM   39  C19 UNL     1       8.254 -19.076 -15.564  1.00  0.00     0.001 A 
HETATM   40  C20 UNL     1       7.763 -20.298 -15.154  1.00  0.00     0.000 A 
HETATM   41  C21 UNL     1       6.405 -20.525 -15.080  1.00  0.00     0.001 A 
HETATM   42  C22 UNL     1       5.529 -19.492 -15.428  1.00  0.00     0.009 A 
ENDBRANCH  36  37
ENDBRANCH  35  36
TORSDOF 2
ENDMDL
MODEL 4
REMARK VINA RESULT: -7.879945859      1.048      1.079
REMARK  2 active torsions:
REMARK  status: ('A' for Active; 'I' for Inactive)
REMARK    1  A    between atoms: N8_35  and  C16_36 
REMARK    2  A    between atoms: C16_36  and  C17_37 
ROOT
HETATM    1  O1  UNL     1      10.668 -16.255 -15.846  1.00  0.00    -0.245 OA
HETATM    2  C1  UNL     1       9.820 -15.552 -16.507  1.00  0.00     0.337 C 
HETATM    3  N1  UNL     1      10.347 -14.779 -17.573  1.00  0.00    -0.256 N 
ATOM      4  H1  UNL     1      11.086 -15.201 -18.136  1.00  0.00     0.191 HD
HETATM    5  N2  UNL     1       9.944 -13.500 -17.913  1.00  0.00    -0.331 N 
ATOM      6  H2  UNL     1       9.342 -13.308 -18.714  1.00  0.00     0.180 HD
HETATM    7  C2  UNL     1      10.437 -12.469 -17.058  1.00  0.00     0.158 C 
HETATM    8  C3  UNL     1      11.837 -12.023 -17.411  1.00  0.00     0.135 C 
HETATM    9  N3  UNL     1      11.883 -11.157 -18.546  1.00  0.00    -0.420 N 
ATOM     10  H3  UNL     1      12.057 -11.499 -19.491  1.00  0.00     0.153 HD
HETATM   11  C4  UNL     1      11.666  -9.773 -18.255  1.00  0.00     0.115 C 
HETATM   12  C5  UNL     1      11.171  -9.112 -19.537  1.00  0.00     0.046 C 
HETATM   13  C6  UNL     1      10.410  -7.852 -19.280  1.00  0.00     0.234 C 
HETATM   14  N4  UNL     1       9.566  -7.606 -20.456  1.00  0.00    -0.073 N 
ATOM     15  H41 UNL     1       9.619  -8.384 -21.114  1.00  0.00     0.277 HD
ATOM     16  H42 UNL     1       9.957  -6.868 -21.041  1.00  0.00     0.277 HD
HETATM   17  C7  UNL     1       8.210  -7.321 -20.107  1.00  0.00     0.259 C 
HETATM   18  C8  UNL     1       7.217  -7.795 -21.147  1.00  0.00     0.259 C 
HETATM   19  N5  UNL     1       6.053  -8.419 -20.557  1.00  0.00    -0.072 N 
ATOM     20  H51 UNL     1       5.205  -7.874 -20.711  1.00  0.00     0.277 HD
ATOM     21  H52 UNL     1       6.071  -8.380 -19.538  1.00  0.00     0.277 HD
HETATM   22  C9  UNL     1       5.927  -9.766 -21.044  1.00  0.00     0.259 C 
HETATM   23  C10 UNL     1       4.537 -10.312 -20.744  1.00  0.00     0.259 C 
HETATM   24  N6  UNL     1       4.590 -11.762 -20.663  1.00  0.00    -0.072 N 
ATOM     25  H61 UNL     1       5.541 -12.102 -20.519  1.00  0.00     0.277 HD
ATOM     26  H62 UNL     1       4.409 -12.202 -21.566  1.00  0.00     0.277 HD
HETATM   27  C11 UNL     1       3.687 -12.234 -19.641  1.00  0.00     0.259 C 
HETATM   28  C12 UNL     1       4.279 -13.429 -18.901  1.00  0.00     0.259 C 
HETATM   29  N7  UNL     1       5.500 -13.052 -18.210  1.00  0.00    -0.073 N 
ATOM     30  H71 UNL     1       5.685 -12.050 -18.255  1.00  0.00     0.277 HD
ATOM     31  H72 UNL     1       6.340 -13.368 -18.694  1.00  0.00     0.277 HD
HETATM   32  C13 UNL     1       5.416 -13.548 -16.848  1.00  0.00     0.234 C 
HETATM   33  C14 UNL     1       6.793 -13.753 -16.246  1.00  0.00     0.047 C 
HETATM   34  C15 UNL     1       7.380 -14.989 -16.898  1.00  0.00     0.129 C 
HETATM   35  N8  UNL     1       8.441 -15.578 -16.153  1.00  0.00    -0.329 N 
ENDROOT
BRANCH  35  36
HETATM   36  C16 UNL     1       8.113 -16.273 -14.921  1.00  0.00     0.166 C 
BRANCH  36  37
HETATM   37  C17 UNL     1       7.383 -17.515 -15.130  1.00  0.00    -0.040 A 
HETATM   38  C18 UNL     1       8.039 -18.663 -15.483  1.00  0.00     0.009 A 
HETATM   39  C19 UNL     1       7.362 -19.866 -15.689  1.00  0.00     0.001 A 
HETATM   40  C20 UNL     1       5.992 -19.885 -15.530  1.00  0.00     0.000 A 
HETATM   41  C21 UNL     1       5.307 -18.742 -15.175  1.00  0.00     0.001 A 
HETATM   42  C22 UNL     1       6.025 -17.559 -14.978  1.00  0.00     0.009 A 
ENDBRANCH  36  37
ENDBRANCH  35  36
TORSDOF 2
ENDMDL
MODEL 5
REMARK VINA RESULT: -7.679554052      2.598      3.162
REMARK  2 active torsions:
REMARK  status: ('A' for Active; 'I' for Inactive)
REMARK    1  A    between atoms: N8_35  and  C16_36 
REMARK    2  A    between atoms: C16_36  and  C17_37 
ROOT
HETATM    1  O1  UNL     1      10.157 -16.178 -17.001  1.00  0.00    -0.245 OA
HETATM    2  C1  UNL     1       9.002 -15.646 -16.811  1.00  0.00     0.337 C 
HETATM    3  N1  UNL     1       8.744 -14.445 -17.522  1.00  0.00    -0.256 N 
ATOM      4  H1  UNL     1       9.093 -14.384 -18.479  1.00  0.00     0.191 HD
HETATM    5  N2  UNL     1       8.060 -13.350 -17.025  1.00  0.00    -0.331 N 
ATOM      6  H2  UNL     1       7.096 -13.141 -17.285  1.00  0.00     0.180 HD
HETATM    7  C2  UNL     1       8.807 -12.536 -16.123  1.00  0.00     0.158 C 
HETATM    8  C3  UNL     1       9.704 -11.542 -16.824  1.00  0.00     0.135 C 
HETATM    9  N3  UNL     1       9.001 -10.406 -17.329  1.00  0.00    -0.420 N 
ATOM     10  H3  UNL     1       8.664 -10.352 -18.290  1.00  0.00     0.153 HD
HETATM   11  C4  UNL     1       8.806  -9.350 -16.382  1.00  0.00     0.115 C 
HETATM   12  C5  UNL     1       7.603  -8.539 -16.849  1.00  0.00     0.046 C 
HETATM   13  C6  UNL     1       6.959  -7.772 -15.740  1.00  0.00     0.234 C 
HETATM   14  N4  UNL     1       5.580  -7.482 -16.155  1.00  0.00    -0.073 N 
ATOM     15  H41 UNL     1       5.358  -7.944 -17.037  1.00  0.00     0.277 HD
ATOM     16  H42 UNL     1       5.482  -6.510 -16.449  1.00  0.00     0.277 HD
HETATM   17  C7  UNL     1       4.623  -7.813 -15.147  1.00  0.00     0.259 C 
HETATM   18  C8  UNL     1       3.291  -8.254 -15.715  1.00  0.00     0.259 C 
HETATM   19  N5  UNL     1       2.742  -9.396 -15.019  1.00  0.00    -0.072 N 
ATOM     20  H51 UNL     1       1.889  -9.163 -14.510  1.00  0.00     0.277 HD
ATOM     21  H52 UNL     1       3.317  -9.674 -14.224  1.00  0.00     0.277 HD
HETATM   22  C9  UNL     1       2.541 -10.477 -15.945  1.00  0.00     0.259 C 
HETATM   23  C10 UNL     1       1.636 -11.539 -15.334  1.00  0.00     0.259 C 
HETATM   24  N6  UNL     1       1.910 -12.826 -15.950  1.00  0.00    -0.072 N 
ATOM     25  H61 UNL     1       2.815 -12.839 -16.421  1.00  0.00     0.277 HD
ATOM     26  H62 UNL     1       1.317 -12.995 -16.762  1.00  0.00     0.277 HD
HETATM   27  C11 UNL     1       1.797 -13.878 -14.969  1.00  0.00     0.259 C 
HETATM   28  C12 UNL     1       2.847 -14.959 -15.204  1.00  0.00     0.259 C 
HETATM   29  N7  UNL     1       4.186 -14.415 -15.052  1.00  0.00    -0.073 N 
ATOM     30  H71 UNL     1       4.184 -13.451 -14.717  1.00  0.00     0.277 HD
ATOM     31  H72 UNL     1       4.648 -14.249 -15.945  1.00  0.00     0.277 HD
HETATM   32  C13 UNL     1       4.937 -15.309 -14.188  1.00  0.00     0.234 C 
HETATM   33  C14 UNL     1       6.428 -15.197 -14.436  1.00  0.00     0.047 C 
HETATM   34  C15 UNL     1       6.708 -15.879 -15.760  1.00  0.00     0.129 C 
HETATM   35  N8  UNL     1       8.069 -16.262 -15.930  1.00  0.00    -0.329 N 
ENDROOT
BRANCH  35  36
HETATM   36  C16 UNL     1       8.572 -17.376 -15.146  1.00  0.00     0.166 C 
BRANCH  36  37
HETATM   37  C17 UNL     1       7.878 -18.629 -15.403  1.00  0.00    -0.040 A 
HETATM   38  C18 UNL     1       6.565 -18.788 -15.051  1.00  0.00     0.009 A 
HETATM   39  C19 UNL     1       5.876 -19.979 -15.285  1.00  0.00     0.001 A 
HETATM   40  C20 UNL     1       6.551 -21.019 -15.890  1.00  0.00     0.000 A 
HETATM   41  C21 UNL     1       7.874 -20.886 -16.254  1.00  0.00     0.001 A 
HETATM   42  C22 UNL     1       8.525 -19.674 -16.001  1.00  0.00     0.009 A 
ENDBRANCH  36  37
ENDBRANCH  35  36
TORSDOF 2
ENDMDL
