MODEL 1
REMARK VINA RESULT: -7.316928556      0.000      0.000
REMARK  10 active torsions:
REMARK  status: ('A' for Active; 'I' for Inactive)
REMARK    1  A    between atoms: C3_3  and  N1_4 
REMARK       I    between atoms: N1_4  and  C4_6 
REMARK       I    between atoms: C4_6  and  N3_11 
REMARK    2  A    between atoms: N2_7  and  O1_9 
REMARK    3  A    between atoms: N3_11  and  C5_13 
REMARK    4  A    between atoms: C5_13  and  C6_14 
REMARK    5  A    between atoms: C8_21  and  N7_22 
REMARK    6  A    between atoms: C10_32  and  N11_33 
REMARK    7  A    between atoms: N12_36  and  C13_37 
REMARK    8  A    between atoms: C13_37  and  O2_38 
REMARK    9  A    between atoms: C13_37  and  N13_40 
REMARK   10  A    between atoms: N14_43  and  C16_44 
ROOT
HETATM    1  C1  UNL     1     -13.316  -0.463  -0.900  1.00  0.00     0.056 C 
HETATM    2  C2  UNL     1     -14.133  -1.545  -0.293  1.00  0.00     0.027 A 
HETATM    3  C3  UNL     1     -14.877  -2.387  -1.089  1.00  0.00     0.131 A 
HETATM    4  N9  UNL     1     -15.591  -3.349  -0.495  1.00  0.00    -0.338 N 
ATOM      5  H9  UNL     1     -16.149  -3.983  -1.067  1.00  0.00     0.168 HD
HETATM    6  C9  UNL     1     -15.587  -3.499   0.850  1.00  0.00     0.183 A 
HETATM    7  N10 UNL     1     -14.841  -2.652   1.610  1.00  0.00    -0.338 N 
ATOM      8  H10 UNL     1     -14.844  -2.770   2.623  1.00  0.00     0.168 HD
HETATM    9  C10 UNL     1     -14.103  -1.667   1.078  1.00  0.00     0.114 A 
ENDROOT
BRANCH   3  10
HETATM   10  N1  UNL     1     -14.884  -2.256  -2.491  1.00  0.00    -0.174 N 
HETATM   11  C4  UNL     1     -15.981  -1.637  -3.136  1.00  0.00     0.699 C 
HETATM   12  N2  UNL     1     -16.948  -2.318  -3.635  1.00  0.00    -0.099 N 
HETATM   13  N3  UNL     1     -16.014  -0.231  -3.234  1.00  0.00    -0.217 N 
ATOM     14  H2  UNL     1     -17.704  -1.802  -4.084  1.00  0.00     0.213 HD
ATOM     15  H3  UNL     1     -16.405   0.328  -2.476  1.00  0.00     0.178 HD
ATOM     16  H1  UNL     1     -14.100  -2.606  -3.041  1.00  0.00     0.186 HD
BRANCH  12  17
HETATM   17  O1  UNL     1     -17.044  -3.682  -3.611  1.00  0.00    -0.276 OA
ATOM     18  H1  UNL     1     -17.103  -4.212  -2.825  1.00  0.00     0.245 HD
ENDBRANCH  12  17
BRANCH  13  19
HETATM   19  C5  UNL     1     -15.488   0.411  -4.419  1.00  0.00     0.215 C 
BRANCH  19  20
HETATM   20  C6  UNL     1     -15.633   1.873  -4.258  1.00  0.00     0.118 A 
HETATM   21  N4  UNL     1     -14.707   2.645  -3.675  1.00  0.00    -0.318 N 
HETATM   22  C7  UNL     1     -14.862   3.993  -3.546  1.00  0.00     0.208 A 
ATOM     23  H4  UNL     1     -13.857   2.209  -3.315  1.00  0.00     0.169 HD
HETATM   24  N5  UNL     1     -13.884   4.816  -2.932  1.00  0.00    -0.063 NA
HETATM   25  N6  UNL     1     -16.016   4.525  -4.043  1.00  0.00    -0.164 N 
HETATM   26  C8  UNL     1     -16.965   3.782  -4.631  1.00  0.00     0.679 A 
ATOM     27  H6  UNL     1     -16.165   5.531  -3.963  1.00  0.00     0.187 HD
HETATM   28  N8  UNL     1     -16.756   2.454  -4.731  1.00  0.00    -0.179 N 
ATOM     29  H8  UNL     1     -17.466   1.873  -5.175  1.00  0.00     0.185 HD
BRANCH  26  30
HETATM   30  N7  UNL     1     -18.024   4.358  -5.072  1.00  0.00    -0.234 N 
ATOM     31  H72 UNL     1     -18.626   4.936  -4.486  1.00  0.00     0.174 HD
ATOM     32  H71 UNL     1     -18.282   4.237  -6.052  1.00  0.00     0.174 HD
ENDBRANCH  26  30
ENDBRANCH  19  20
ENDBRANCH  13  19
ENDBRANCH   3  10
BRANCH   9  33
HETATM   33  N11 UNL     1     -13.347  -0.808   1.884  1.00  0.00    -0.363 N 
HETATM   34  C11 UNL     1     -12.132  -0.133   1.574  1.00  0.00     0.144 C 
HETATM   35  C12 UNL     1     -12.248   1.328   1.941  1.00  0.00     0.147 C 
HETATM   36  N12 UNL     1     -13.453   1.752   2.569  1.00  0.00    -0.340 N 
HETATM   37  C21 UNL     1     -14.320   0.830   3.327  1.00  0.00     0.101 C 
HETATM   38  C22 UNL     1     -15.744   0.842   2.824  1.00  0.00     0.034 C 
HETATM   39  C23 UNL     1     -13.834  -0.570   3.261  1.00  0.00     0.149 C 
BRANCH  36  40
HETATM   40  C13 UNL     1     -13.868   3.087   2.531  1.00  0.00     0.217 C 
BRANCH  40  41
HETATM   41  O2  UNL     1     -13.155   3.851   3.349  1.00  0.00    -0.332 OA
ATOM     42  H2  UNL     1     -13.594   3.986   4.181  1.00  0.00     0.220 HD
ENDBRANCH  40  41
BRANCH  40  43
HETATM   43  N13 UNL     1     -14.828   3.797   1.858  1.00  0.00    -0.344 N 
HETATM   44  C14 UNL     1     -15.868   4.584   2.433  1.00  0.00     0.145 C 
HETATM   45  C15 UNL     1     -16.994   4.872   1.455  1.00  0.00     0.137 C 
HETATM   46  N14 UNL     1     -17.267   3.799   0.552  1.00  0.00    -0.406 N 
HETATM   47  C19 UNL     1     -16.113   3.258  -0.093  1.00  0.00     0.137 C 
HETATM   48  C20 UNL     1     -14.821   3.815   0.376  1.00  0.00     0.145 C 
BRANCH  46  49
HETATM   49  C16 UNL     1     -18.290   2.900   0.927  1.00  0.00     0.071 C 
HETATM   50  C17 UNL     1     -18.460   1.722   0.006  1.00  0.00     0.031 C 
HETATM   51  C18 UNL     1     -19.609   3.599   1.201  1.00  0.00     0.031 C 
ENDBRANCH  46  49
ENDBRANCH  40  43
ENDBRANCH  36  40
ENDBRANCH   9  33
TORSDOF 10
ENDMDL
MODEL 2
REMARK VINA RESULT: -7.198100100      3.133      5.883
REMARK  10 active torsions:
REMARK  status: ('A' for Active; 'I' for Inactive)
REMARK    1  A    between atoms: C3_3  and  N1_4 
REMARK       I    between atoms: N1_4  and  C4_6 
REMARK       I    between atoms: C4_6  and  N3_11 
REMARK    2  A    between atoms: N2_7  and  O1_9 
REMARK    3  A    between atoms: N3_11  and  C5_13 
REMARK    4  A    between atoms: C5_13  and  C6_14 
REMARK    5  A    between atoms: C8_21  and  N7_22 
REMARK    6  A    between atoms: C10_32  and  N11_33 
REMARK    7  A    between atoms: N12_36  and  C13_37 
REMARK    8  A    between atoms: C13_37  and  O2_38 
REMARK    9  A    between atoms: C13_37  and  N13_40 
REMARK   10  A    between atoms: N14_43  and  C16_44 
ROOT
HETATM    1  C1  UNL     1     -13.320   1.174   0.963  1.00  0.00     0.056 C 
HETATM    2  C2  UNL     1     -14.448   0.241   0.714  1.00  0.00     0.027 A 
HETATM    3  C3  UNL     1     -15.635   0.706   0.194  1.00  0.00     0.131 A 
HETATM    4  N9  UNL     1     -16.619  -0.175  -0.018  1.00  0.00    -0.338 N 
ATOM      5  H9  UNL     1     -17.507   0.149  -0.402  1.00  0.00     0.168 HD
HETATM    6  C9  UNL     1     -16.459  -1.489   0.266  1.00  0.00     0.183 A 
HETATM    7  N10 UNL     1     -15.274  -1.919   0.778  1.00  0.00    -0.338 N 
ATOM      8  H10 UNL     1     -15.162  -2.910   0.990  1.00  0.00     0.168 HD
HETATM    9  C10 UNL     1     -14.248  -1.089   1.014  1.00  0.00     0.114 A 
ENDROOT
BRANCH   3  10
HETATM   10  N1  UNL     1     -15.816   2.066  -0.120  1.00  0.00    -0.174 N 
HETATM   11  C4  UNL     1     -17.120   2.614  -0.159  1.00  0.00     0.699 C 
HETATM   12  N2  UNL     1     -17.777   2.727  -1.256  1.00  0.00    -0.099 N 
HETATM   13  N3  UNL     1     -17.717   3.048   1.042  1.00  0.00    -0.217 N 
ATOM     14  H2  UNL     1     -18.712   3.131  -1.205  1.00  0.00     0.213 HD
ATOM     15  H3  UNL     1     -18.230   2.390   1.628  1.00  0.00     0.178 HD
ATOM     16  H1  UNL     1     -15.008   2.657  -0.319  1.00  0.00     0.186 HD
BRANCH  12  17
HETATM   17  O1  UNL     1     -17.321   2.348  -2.488  1.00  0.00    -0.276 OA
ATOM     18  H1  UNL     1     -17.535   2.780  -3.306  1.00  0.00     0.245 HD
ENDBRANCH  12  17
BRANCH  13  19
HETATM   19  C5  UNL     1     -17.595   4.435   1.435  1.00  0.00     0.215 C 
BRANCH  19  20
HETATM   20  C6  UNL     1     -18.954   4.985   1.624  1.00  0.00     0.118 A 
HETATM   21  N4  UNL     1     -19.190   6.230   2.057  1.00  0.00    -0.318 N 
HETATM   22  C7  UNL     1     -20.455   6.716   2.215  1.00  0.00     0.208 A 
ATOM     23  H4  UNL     1     -18.398   6.835   2.276  1.00  0.00     0.169 HD
HETATM   24  N5  UNL     1     -20.711   8.033   2.670  1.00  0.00    -0.063 NA
HETATM   25  N6  UNL     1     -21.478   5.866   1.909  1.00  0.00    -0.164 N 
HETATM   26  C8  UNL     1     -21.277   4.613   1.475  1.00  0.00     0.679 A 
ATOM     27  H6  UNL     1     -22.436   6.198   2.016  1.00  0.00     0.187 HD
HETATM   28  N8  UNL     1     -20.005   4.188   1.338  1.00  0.00    -0.179 N 
ATOM     29  H8  UNL     1     -19.833   3.238   1.009  1.00  0.00     0.185 HD
BRANCH  26  30
HETATM   30  N7  UNL     1     -22.293   3.875   1.211  1.00  0.00    -0.234 N 
ATOM     31  H72 UNL     1     -22.908   3.498   1.931  1.00  0.00     0.174 HD
ATOM     32  H71 UNL     1     -22.503   3.652   0.237  1.00  0.00     0.174 HD
ENDBRANCH  26  30
ENDBRANCH  19  20
ENDBRANCH  13  19
ENDBRANCH   3  10
BRANCH   9  33
HETATM   33  N11 UNL     1     -13.041  -1.556   1.544  1.00  0.00    -0.363 N 
HETATM   34  C11 UNL     1     -11.743  -1.540   0.959  1.00  0.00     0.144 C 
HETATM   35  C12 UNL     1     -10.743  -0.976   1.941  1.00  0.00     0.147 C 
HETATM   36  N12 UNL     1     -11.219  -0.643   3.241  1.00  0.00    -0.340 N 
HETATM   37  C21 UNL     1     -12.416  -1.270   3.833  1.00  0.00     0.101 C 
HETATM   38  C22 UNL     1     -13.434  -0.248   4.280  1.00  0.00     0.034 C 
HETATM   39  C23 UNL     1     -13.090  -2.187   2.883  1.00  0.00     0.149 C 
BRANCH  36  40
HETATM   40  C13 UNL     1     -10.550   0.282   4.050  1.00  0.00     0.217 C 
BRANCH  40  41
HETATM   41  O2  UNL     1     -10.019  -0.292   5.122  1.00  0.00    -0.332 OA
ATOM     42  H2  UNL     1      -9.177   0.088   5.346  1.00  0.00     0.220 HD
ENDBRANCH  40  41
BRANCH  40  43
HETATM   43  N13 UNL     1     -10.313   1.631   4.007  1.00  0.00    -0.344 N 
HETATM   44  C14 UNL     1     -11.279   2.672   4.120  1.00  0.00     0.145 C 
HETATM   45  C15 UNL     1     -10.766   4.007   3.606  1.00  0.00     0.137 C 
HETATM   46  N14 UNL     1      -9.897   3.898   2.477  1.00  0.00    -0.406 N 
HETATM   47  C19 UNL     1      -8.853   2.934   2.622  1.00  0.00     0.137 C 
HETATM   48  C20 UNL     1      -8.922   2.125   3.863  1.00  0.00     0.145 C 
BRANCH  46  49
HETATM   49  C16 UNL     1     -10.494   4.031   1.203  1.00  0.00     0.071 C 
HETATM   50  C17 UNL     1     -10.163   2.926   0.236  1.00  0.00     0.031 C 
HETATM   51  C18 UNL     1     -10.267   5.402   0.594  1.00  0.00     0.031 C 
ENDBRANCH  46  49
ENDBRANCH  40  43
ENDBRANCH  36  40
ENDBRANCH   9  33
TORSDOF 10
ENDMDL
MODEL 3
REMARK VINA RESULT: -7.170029424      2.897      5.538
REMARK  10 active torsions:
REMARK  status: ('A' for Active; 'I' for Inactive)
REMARK    1  A    between atoms: C3_3  and  N1_4 
REMARK       I    between atoms: N1_4  and  C4_6 
REMARK       I    between atoms: C4_6  and  N3_11 
REMARK    2  A    between atoms: N2_7  and  O1_9 
REMARK    3  A    between atoms: N3_11  and  C5_13 
REMARK    4  A    between atoms: C5_13  and  C6_14 
REMARK    5  A    between atoms: C8_21  and  N7_22 
REMARK    6  A    between atoms: C10_32  and  N11_33 
REMARK    7  A    between atoms: N12_36  and  C13_37 
REMARK    8  A    between atoms: C13_37  and  O2_38 
REMARK    9  A    between atoms: C13_37  and  N13_40 
REMARK   10  A    between atoms: N14_43  and  C16_44 
ROOT
HETATM    1  C1  UNL     1     -14.182  -0.309   0.040  1.00  0.00     0.056 C 
HETATM    2  C2  UNL     1     -14.358  -1.642   0.668  1.00  0.00     0.027 A 
HETATM    3  C3  UNL     1     -15.041  -2.639   0.008  1.00  0.00     0.131 A 
HETATM    4  N9  UNL     1     -15.167  -3.825   0.613  1.00  0.00    -0.338 N 
ATOM      5  H9  UNL     1     -15.670  -4.577   0.140  1.00  0.00     0.168 HD
HETATM    6  C9  UNL     1     -14.641  -4.048   1.840  1.00  0.00     0.183 A 
HETATM    7  N10 UNL     1     -13.971  -3.044   2.467  1.00  0.00    -0.338 N 
ATOM      8  H10 UNL     1     -13.578  -3.219   3.392  1.00  0.00     0.168 HD
HETATM    9  C10 UNL     1     -13.808  -1.833   1.917  1.00  0.00     0.114 A 
ENDROOT
BRANCH   3  10
HETATM   10  N1  UNL     1     -15.585  -2.431  -1.274  1.00  0.00    -0.174 N 
HETATM   11  C4  UNL     1     -15.174  -3.244  -2.356  1.00  0.00     0.699 C 
HETATM   12  N2  UNL     1     -14.251  -2.877  -3.170  1.00  0.00    -0.099 N 
HETATM   13  N3  UNL     1     -15.794  -4.495  -2.547  1.00  0.00    -0.217 N 
ATOM     14  H2  UNL     1     -14.008  -3.518  -3.925  1.00  0.00     0.213 HD
ATOM     15  H3  UNL     1     -15.447  -5.321  -2.058  1.00  0.00     0.178 HD
ATOM     16  H1  UNL     1     -16.275  -1.694  -1.423  1.00  0.00     0.186 HD
BRANCH  12  17
HETATM   17  O1  UNL     1     -13.568  -1.694  -3.103  1.00  0.00    -0.276 OA
ATOM     18  H1  UNL     1     -13.870  -0.868  -3.461  1.00  0.00     0.245 HD
ENDBRANCH  12  17
BRANCH  13  19
HETATM   19  C5  UNL     1     -16.927  -4.597  -3.441  1.00  0.00     0.215 C 
BRANCH  19  20
HETATM   20  C6  UNL     1     -16.998  -5.986  -3.942  1.00  0.00     0.118 A 
HETATM   21  N4  UNL     1     -18.034  -6.463  -4.645  1.00  0.00    -0.318 N 
HETATM   22  C7  UNL     1     -18.072  -7.747  -5.103  1.00  0.00     0.208 A 
ATOM     23  H4  UNL     1     -18.821  -5.845  -4.844  1.00  0.00     0.169 HD
HETATM   24  N5  UNL     1     -19.163  -8.256  -5.850  1.00  0.00    -0.063 NA
HETATM   25  N6  UNL     1     -16.995  -8.532  -4.808  1.00  0.00    -0.164 N 
HETATM   26  C8  UNL     1     -15.942  -8.087  -4.106  1.00  0.00     0.679 A 
ATOM     27  H6  UNL     1     -16.990  -9.498  -5.136  1.00  0.00     0.187 HD
HETATM   28  N8  UNL     1     -15.961  -6.809  -3.680  1.00  0.00    -0.179 N 
ATOM     29  H8  UNL     1     -15.168  -6.454  -3.144  1.00  0.00     0.185 HD
BRANCH  26  30
HETATM   30  N7  UNL     1     -14.969  -8.889  -3.868  1.00  0.00    -0.234 N 
ATOM     31  H72 UNL     1     -14.058  -8.574  -3.535  1.00  0.00     0.174 HD
ATOM     32  H71 UNL     1     -15.104  -9.890  -4.015  1.00  0.00     0.174 HD
ENDBRANCH  26  30
ENDBRANCH  19  20
ENDBRANCH  13  19
ENDBRANCH   3  10
BRANCH   9  33
HETATM   33  N11 UNL     1     -13.117  -0.816   2.586  1.00  0.00    -0.363 N 
HETATM   34  C11 UNL     1     -11.932  -0.132   2.190  1.00  0.00     0.144 C 
HETATM   35  C12 UNL     1     -12.133   1.360   2.319  1.00  0.00     0.147 C 
HETATM   36  N12 UNL     1     -13.373   1.810   2.855  1.00  0.00    -0.340 N 
HETATM   37  C21 UNL     1     -14.207   0.971   3.738  1.00  0.00     0.101 C 
HETATM   38  C22 UNL     1     -15.618   0.824   3.220  1.00  0.00     0.034 C 
HETATM   39  C23 UNL     1     -13.646  -0.392   3.901  1.00  0.00     0.149 C 
BRANCH  36  40
HETATM   40  C13 UNL     1     -13.857   3.097   2.601  1.00  0.00     0.217 C 
BRANCH  40  41
HETATM   41  O2  UNL     1     -13.219   4.016   3.313  1.00  0.00    -0.332 OA
ATOM     42  H2  UNL     1     -13.719   4.821   3.383  1.00  0.00     0.220 HD
ENDBRANCH  40  41
BRANCH  40  43
HETATM   43  N13 UNL     1     -14.827   3.639   1.798  1.00  0.00    -0.344 N 
HETATM   44  C14 UNL     1     -15.956   4.399   2.218  1.00  0.00     0.145 C 
HETATM   45  C15 UNL     1     -17.041   4.474   1.156  1.00  0.00     0.137 C 
HETATM   46  N14 UNL     1     -17.176   3.282   0.380  1.00  0.00    -0.406 N 
HETATM   47  C19 UNL     1     -15.947   2.766  -0.134  1.00  0.00     0.137 C 
HETATM   48  C20 UNL     1     -14.732   3.481   0.327  1.00  0.00     0.145 C 
BRANCH  46  49
HETATM   49  C16 UNL     1     -18.148   2.352   0.812  1.00  0.00     0.071 C 
HETATM   50  C17 UNL     1     -18.197   1.078   0.012  1.00  0.00     0.031 C 
HETATM   51  C18 UNL     1     -19.522   2.975   0.968  1.00  0.00     0.031 C 
ENDBRANCH  46  49
ENDBRANCH  40  43
ENDBRANCH  36  40
ENDBRANCH   9  33
TORSDOF 10
ENDMDL
MODEL 4
REMARK VINA RESULT: -7.136937570      3.007      6.713
REMARK  10 active torsions:
REMARK  status: ('A' for Active; 'I' for Inactive)
REMARK    1  A    between atoms: C3_3  and  N1_4 
REMARK       I    between atoms: N1_4  and  C4_6 
REMARK       I    between atoms: C4_6  and  N3_11 
REMARK    2  A    between atoms: N2_7  and  O1_9 
REMARK    3  A    between atoms: N3_11  and  C5_13 
REMARK    4  A    between atoms: C5_13  and  C6_14 
REMARK    5  A    between atoms: C8_21  and  N7_22 
REMARK    6  A    between atoms: C10_32  and  N11_33 
REMARK    7  A    between atoms: N12_36  and  C13_37 
REMARK    8  A    between atoms: C13_37  and  O2_38 
REMARK    9  A    between atoms: C13_37  and  N13_40 
REMARK   10  A    between atoms: N14_43  and  C16_44 
ROOT
HETATM    1  C1  UNL     1     -15.675  -0.247   0.077  1.00  0.00     0.056 C 
HETATM    2  C2  UNL     1     -16.084   0.032  -1.322  1.00  0.00     0.027 A 
HETATM    3  C3  UNL     1     -15.955  -0.936  -2.292  1.00  0.00     0.131 A 
HETATM    4  N9  UNL     1     -16.344  -0.639  -3.537  1.00  0.00    -0.338 N 
ATOM      5  H9  UNL     1     -16.256  -1.342  -4.271  1.00  0.00     0.168 HD
HETATM    6  C9  UNL     1     -16.852   0.578  -3.842  1.00  0.00     0.183 A 
HETATM    7  N10 UNL     1     -16.969   1.514  -2.862  1.00  0.00    -0.338 N 
ATOM      8  H10 UNL     1     -17.352   2.429  -3.100  1.00  0.00     0.168 HD
HETATM    9  C10 UNL     1     -16.599   1.280  -1.595  1.00  0.00     0.114 A 
ENDROOT
BRANCH   3  10
HETATM   10  N1  UNL     1     -15.440  -2.212  -1.992  1.00  0.00    -0.174 N 
HETATM   11  C4  UNL     1     -16.297  -3.338  -1.998  1.00  0.00     0.699 C 
HETATM   12  N2  UNL     1     -16.836  -3.787  -0.923  1.00  0.00    -0.099 N 
HETATM   13  N3  UNL     1     -16.567  -3.987  -3.220  1.00  0.00    -0.217 N 
ATOM     14  H2  UNL     1     -17.442  -4.603  -1.006  1.00  0.00     0.213 HD
ATOM     15  H3  UNL     1     -17.326  -3.660  -3.818  1.00  0.00     0.178 HD
ATOM     16  H1  UNL     1     -14.450  -2.325  -1.771  1.00  0.00     0.186 HD
BRANCH  12  17
HETATM   17  O1  UNL     1     -16.660  -3.257   0.326  1.00  0.00    -0.276 OA
ATOM     18  H1  UNL     1     -15.870  -3.337   0.847  1.00  0.00     0.245 HD
ENDBRANCH  12  17
BRANCH  13  19
HETATM   19  C5  UNL     1     -15.759  -5.119  -3.617  1.00  0.00     0.215 C 
BRANCH  19  20
HETATM   20  C6  UNL     1     -16.588  -6.009  -4.457  1.00  0.00     0.118 A 
HETATM   21  N4  UNL     1     -16.615  -5.945  -5.794  1.00  0.00    -0.318 N 
HETATM   22  C7  UNL     1     -17.383  -6.783  -6.547  1.00  0.00     0.208 A 
ATOM     23  H4  UNL     1     -16.042  -5.244  -6.266  1.00  0.00     0.169 HD
HETATM   24  N5  UNL     1     -17.414  -6.721  -7.962  1.00  0.00    -0.063 NA
HETATM   25  N6  UNL     1     -18.131  -7.700  -5.867  1.00  0.00    -0.164 N 
HETATM   26  C8  UNL     1     -18.128  -7.792  -4.529  1.00  0.00     0.679 A 
ATOM     27  H6  UNL     1     -18.717  -8.344  -6.399  1.00  0.00     0.187 HD
HETATM   28  N8  UNL     1     -17.349  -6.936  -3.838  1.00  0.00    -0.179 N 
ATOM     29  H8  UNL     1     -17.335  -6.991  -2.819  1.00  0.00     0.185 HD
BRANCH  26  30
HETATM   30  N7  UNL     1     -18.862  -8.681  -3.964  1.00  0.00    -0.234 N 
ATOM     31  H72 UNL     1     -19.540  -9.247  -4.473  1.00  0.00     0.174 HD
ATOM     32  H71 UNL     1     -18.767  -8.835  -2.959  1.00  0.00     0.174 HD
ENDBRANCH  26  30
ENDBRANCH  19  20
ENDBRANCH  13  19
ENDBRANCH   3  10
BRANCH   9  33
HETATM   33  N11 UNL     1     -16.726   2.263  -0.606  1.00  0.00    -0.363 N 
HETATM   34  C11 UNL     1     -17.514   2.239   0.579  1.00  0.00     0.144 C 
HETATM   35  C12 UNL     1     -16.671   2.644   1.765  1.00  0.00     0.147 C 
HETATM   36  N12 UNL     1     -15.326   3.035   1.510  1.00  0.00    -0.340 N 
HETATM   37  C21 UNL     1     -14.886   3.556   0.201  1.00  0.00     0.101 C 
HETATM   38  C22 UNL     1     -13.721   2.776  -0.362  1.00  0.00     0.034 C 
HETATM   39  C23 UNL     1     -15.975   3.522  -0.805  1.00  0.00     0.149 C 
BRANCH  36  40
HETATM   40  C13 UNL     1     -14.346   2.978   2.505  1.00  0.00     0.217 C 
BRANCH  40  41
HETATM   41  O2  UNL     1     -14.099   4.173   3.026  1.00  0.00    -0.332 OA
ATOM     42  H2  UNL     1     -13.811   4.795   2.368  1.00  0.00     0.220 HD
ENDBRANCH  40  41
BRANCH  40  43
HETATM   43  N13 UNL     1     -13.579   1.993   3.071  1.00  0.00    -0.344 N 
HETATM   44  C14 UNL     1     -12.177   1.802   2.908  1.00  0.00     0.145 C 
HETATM   45  C15 UNL     1     -11.725   0.406   3.301  1.00  0.00     0.137 C 
HETATM   46  N14 UNL     1     -12.671  -0.619   2.990  1.00  0.00    -0.406 N 
HETATM   47  C19 UNL     1     -14.007  -0.341   3.411  1.00  0.00     0.137 C 
HETATM   48  C20 UNL     1     -14.209   1.010   3.986  1.00  0.00     0.145 C 
BRANCH  46  49
HETATM   49  C16 UNL     1     -12.498  -1.287   1.757  1.00  0.00     0.071 C 
HETATM   50  C17 UNL     1     -13.219  -2.603   1.649  1.00  0.00     0.031 C 
HETATM   51  C18 UNL     1     -11.039  -1.407   1.358  1.00  0.00     0.031 C 
ENDBRANCH  46  49
ENDBRANCH  40  43
ENDBRANCH  36  40
ENDBRANCH   9  33
TORSDOF 10
ENDMDL
MODEL 5
REMARK VINA RESULT: -7.128384381      2.633      7.006
REMARK  10 active torsions:
REMARK  status: ('A' for Active; 'I' for Inactive)
REMARK    1  A    between atoms: C3_3  and  N1_4 
REMARK       I    between atoms: N1_4  and  C4_6 
REMARK       I    between atoms: C4_6  and  N3_11 
REMARK    2  A    between atoms: N2_7  and  O1_9 
REMARK    3  A    between atoms: N3_11  and  C5_13 
REMARK    4  A    between atoms: C5_13  and  C6_14 
REMARK    5  A    between atoms: C8_21  and  N7_22 
REMARK    6  A    between atoms: C10_32  and  N11_33 
REMARK    7  A    between atoms: N12_36  and  C13_37 
REMARK    8  A    between atoms: C13_37  and  O2_38 
REMARK    9  A    between atoms: C13_37  and  N13_40 
REMARK   10  A    between atoms: N14_43  and  C16_44 
ROOT
HETATM    1  C1  UNL     1     -12.627   1.559   0.442  1.00  0.00     0.056 C 
HETATM    2  C2  UNL     1     -11.667   2.681   0.602  1.00  0.00     0.027 A 
HETATM    3  C3  UNL     1     -10.921   2.800   1.752  1.00  0.00     0.131 A 
HETATM    4  N9  UNL     1     -10.065   3.824   1.846  1.00  0.00    -0.338 N 
ATOM      5  H9  UNL     1      -9.503   3.931   2.691  1.00  0.00     0.168 HD
HETATM    6  C9  UNL     1      -9.931   4.722   0.842  1.00  0.00     0.183 A 
HETATM    7  N10 UNL     1     -10.682   4.578  -0.283  1.00  0.00    -0.338 N 
ATOM      8  H10 UNL     1     -10.576   5.259  -1.034  1.00  0.00     0.168 HD
HETATM    9  C10 UNL     1     -11.557   3.574  -0.441  1.00  0.00     0.114 A 
ENDROOT
BRANCH   3  10
HETATM   10  N1  UNL     1     -11.036   1.870   2.803  1.00  0.00    -0.174 N 
HETATM   11  C4  UNL     1     -11.945   2.108   3.860  1.00  0.00     0.699 C 
HETATM   12  N2  UNL     1     -11.577   2.646   4.965  1.00  0.00    -0.099 N 
HETATM   13  N3  UNL     1     -13.297   1.744   3.695  1.00  0.00    -0.217 N 
ATOM     14  H2  UNL     1     -12.289   2.787   5.681  1.00  0.00     0.213 HD
ATOM     15  H3  UNL     1     -13.953   2.390   3.256  1.00  0.00     0.178 HD
ATOM     16  H1  UNL     1     -10.465   1.024   2.801  1.00  0.00     0.186 HD
BRANCH  12  17
HETATM   17  O1  UNL     1     -10.302   3.046   5.258  1.00  0.00    -0.276 OA
ATOM     18  H1  UNL     1     -10.074   3.782   5.813  1.00  0.00     0.245 HD
ENDBRANCH  12  17
BRANCH  13  19
HETATM   19  C5  UNL     1     -13.745   0.448   4.155  1.00  0.00     0.215 C 
BRANCH  19  20
HETATM   20  C6  UNL     1     -14.054  -0.383   2.972  1.00  0.00     0.118 A 
HETATM   21  N4  UNL     1     -15.246  -0.384   2.364  1.00  0.00    -0.318 N 
HETATM   22  C7  UNL     1     -15.503  -1.155   1.268  1.00  0.00     0.208 A 
ATOM     23  H4  UNL     1     -15.988   0.212   2.732  1.00  0.00     0.169 HD
HETATM   24  N5  UNL     1     -16.762  -1.157   0.619  1.00  0.00    -0.063 NA
HETATM   25  N6  UNL     1     -14.477  -1.933   0.817  1.00  0.00    -0.164 N 
HETATM   26  C8  UNL     1     -13.271  -1.958   1.403  1.00  0.00     0.679 A 
ATOM     27  H6  UNL     1     -14.634  -2.522  -0.001  1.00  0.00     0.187 HD
HETATM   28  N8  UNL     1     -13.076  -1.175   2.482  1.00  0.00    -0.179 N 
ATOM     29  H8  UNL     1     -12.165  -1.180   2.940  1.00  0.00     0.185 HD
BRANCH  26  30
HETATM   30  N7  UNL     1     -12.359  -2.720   0.918  1.00  0.00    -0.234 N 
ATOM     31  H72 UNL     1     -12.464  -3.731   0.837  1.00  0.00     0.174 HD
ATOM     32  H71 UNL     1     -11.484  -2.303   0.597  1.00  0.00     0.174 HD
ENDBRANCH  26  30
ENDBRANCH  19  20
ENDBRANCH  13  19
ENDBRANCH   3  10
BRANCH   9  33
HETATM   33  N11 UNL     1     -12.320   3.450  -1.608  1.00  0.00    -0.363 N 
HETATM   34  C11 UNL     1     -12.546   2.294  -2.408  1.00  0.00     0.144 C 
HETATM   35  C12 UNL     1     -14.024   2.139  -2.680  1.00  0.00     0.147 C 
HETATM   36  N12 UNL     1     -14.891   3.154  -2.186  1.00  0.00    -0.340 N 
HETATM   37  C21 UNL     1     -14.430   4.529  -1.915  1.00  0.00     0.101 C 
HETATM   38  C22 UNL     1     -14.734   4.966  -0.501  1.00  0.00     0.034 C 
HETATM   39  C23 UNL     1     -12.970   4.676  -2.124  1.00  0.00     0.149 C 
BRANCH  36  40
HETATM   40  C13 UNL     1     -16.250   2.910  -1.960  1.00  0.00     0.217 C 
BRANCH  40  41
HETATM   41  O2  UNL     1     -16.998   3.289  -2.988  1.00  0.00    -0.332 OA
ATOM     42  H2  UNL     1     -16.504   3.309  -3.799  1.00  0.00     0.220 HD
ENDBRANCH  40  41
BRANCH  40  43
HETATM   43  N13 UNL     1     -16.994   2.378  -0.939  1.00  0.00    -0.344 N 
HETATM   44  C14 UNL     1     -18.215   1.654  -1.061  1.00  0.00     0.145 C 
HETATM   45  C15 UNL     1     -18.989   1.586   0.245  1.00  0.00     0.137 C 
HETATM   46  N14 UNL     1     -18.884   2.766   1.043  1.00  0.00    -0.406 N 
HETATM   47  C19 UNL     1     -17.549   3.241   1.227  1.00  0.00     0.137 C 
HETATM   48  C20 UNL     1     -16.517   2.505   0.458  1.00  0.00     0.145 C 
BRANCH  46  49
HETATM   49  C16 UNL     1     -19.907   3.729   0.890  1.00  0.00     0.071 C 
HETATM   50  C17 UNL     1     -19.697   4.998   1.671  1.00  0.00     0.031 C 
HETATM   51  C18 UNL     1     -21.291   3.149   1.113  1.00  0.00     0.031 C 
ENDBRANCH  46  49
ENDBRANCH  40  43
ENDBRANCH  36  40
ENDBRANCH   9  33
TORSDOF 10
ENDMDL
