MODEL 1
REMARK VINA RESULT: -8.330281715      0.000      0.000
REMARK  7 active torsions:
REMARK  status: ('A' for Active; 'I' for Inactive)
REMARK    1  A    between atoms: C2_2  and  N1_3 
REMARK    2  A    between atoms: C2_2  and  C17_37 
REMARK       I    between atoms: N5_7  and  C3_8 
REMARK       I    between atoms: C3_8  and  N6_10 
REMARK    3  A    between atoms: N6_10  and  C4_12 
REMARK    4  A    between atoms: C4_12  and  C5_13 
REMARK    5  A    between atoms: C5_13  and  S1_14 
REMARK    6  A    between atoms: S1_14  and  C6_17 
REMARK    7  A    between atoms: C9_25  and  N8_26 
ROOT
HETATM    1  N1  UNL     1     -16.029  -2.936  -1.768  1.00  0.00    -0.174 NA
HETATM    2  N2  UNL     1     -17.036  -3.285  -0.900  1.00  0.00    -0.033 NA
HETATM    3  N3  UNL     1     -17.452  -2.266  -0.069  1.00  0.00     0.000 NA
HETATM    4  N4  UNL     1     -16.429  -1.727   0.690  1.00  0.00    -0.003 NA
HETATM    5  N5  UNL     1     -15.494  -1.151  -0.216  1.00  0.00    -0.195 N 
HETATM    6  C3  UNL     1     -14.566  -0.197   0.263  1.00  0.00     0.337 C 
HETATM    7  O1  UNL     1     -14.582   0.087   1.483  1.00  0.00    -0.246 OA
HETATM    8  N6  UNL     1     -13.640   0.429  -0.588  1.00  0.00    -0.341 N 
ATOM      9  H6  UNL     1     -13.650   0.189  -1.579  1.00  0.00     0.164 HD
HETATM   10  C15 UNL     1     -15.532  -1.589  -1.567  1.00  0.00     0.310 C 
HETATM   11  C16 UNL     1     -16.259  -0.700  -2.473  1.00  0.00     0.103 C 
HETATM   12  N10 UNL     1     -16.851  -0.008  -3.186  1.00  0.00    -0.194 NA
ENDROOT
BRANCH   1  13
HETATM   13  C2  UNL     1     -14.982  -3.892  -1.937  1.00  0.00     0.084 C 
HETATM   14  C1  UNL     1     -14.670  -4.683  -0.684  1.00  0.00     0.029 C 
BRANCH  13  15
HETATM   15  C17 UNL     1     -15.175  -4.738  -3.151  1.00  0.00    -0.034 C 
HETATM   16  C18 UNL     1     -13.811  -5.133  -3.668  1.00  0.00     0.016 C 
HETATM   17  C19 UNL     1     -15.939  -4.030  -4.251  1.00  0.00     0.016 C 
HETATM   18  C20 UNL     1     -15.898  -6.028  -2.767  1.00  0.00     0.016 C 
ENDBRANCH  13  15
ENDBRANCH   1  13
BRANCH   8  19
HETATM   19  C4  UNL     1     -12.684   1.389  -0.128  1.00  0.00     0.140 C 
BRANCH  19  20
HETATM   20  C5  UNL     1     -13.042   2.799  -0.491  1.00  0.00     0.168 C 
BRANCH  20  21
HETATM   21  S1  UNL     1     -13.627   3.619   0.981  1.00  0.00     0.209 S 
HETATM   22  O2  UNL     1     -13.076   3.064   2.229  1.00  0.00    -0.220 OA
HETATM   23  O3  UNL     1     -13.109   5.048   0.872  1.00  0.00    -0.220 OA
BRANCH  21  24
HETATM   24  C6  UNL     1     -15.401   3.654   1.019  1.00  0.00     0.213 A 
HETATM   25  N7  UNL     1     -15.993   2.592   0.585  1.00  0.00    -0.256 N 
HETATM   26  S2  UNL     1     -17.701   2.427   0.537  1.00  0.00     0.267 S 
ATOM     27  H7  UNL     1     -15.419   1.815   0.256  1.00  0.00     0.181 HD
HETATM   28  O4  UNL     1     -18.057   1.280   1.471  1.00  0.00    -0.200 OA
HETATM   29  O5  UNL     1     -18.207   2.109  -0.839  1.00  0.00    -0.200 OA
HETATM   30  C7  UNL     1     -18.374   3.913   1.161  1.00  0.00     0.108 A 
HETATM   31  C8  UNL     1     -19.727   4.106   1.256  1.00  0.00     0.057 A 
HETATM   32  C14 UNL     1     -17.513   4.903   1.562  1.00  0.00     0.057 A 
HETATM   33  C9  UNL     1     -20.321   5.262   1.743  1.00  0.00     0.031 A 
HETATM   34  C12 UNL     1     -19.456   6.260   2.147  1.00  0.00     0.031 A 
HETATM   35  C13 UNL     1     -18.097   6.075   2.055  1.00  0.00     0.033 A 
HETATM   36  N9  UNL     1     -16.098   4.772   1.491  1.00  0.00    -0.331 N 
ATOM     37  H9  UNL     1     -15.543   5.564   1.814  1.00  0.00     0.168 HD
BRANCH  33  38
HETATM   38  N8  UNL     1     -21.726   5.388   1.811  1.00  0.00    -0.390 N 
HETATM   39  C10 UNL     1     -22.554   4.275   1.441  1.00  0.00     0.149 C 
HETATM   40  C11 UNL     1     -22.313   6.622   2.249  1.00  0.00     0.149 C 
ENDBRANCH  33  38
ENDBRANCH  21  24
ENDBRANCH  20  21
ENDBRANCH  19  20
ENDBRANCH   8  19
TORSDOF 7
ENDMDL
MODEL 2
REMARK VINA RESULT: -8.010728417      1.248      1.771
REMARK  7 active torsions:
REMARK  status: ('A' for Active; 'I' for Inactive)
REMARK    1  A    between atoms: C2_2  and  N1_3 
REMARK    2  A    between atoms: C2_2  and  C17_37 
REMARK       I    between atoms: N5_7  and  C3_8 
REMARK       I    between atoms: C3_8  and  N6_10 
REMARK    3  A    between atoms: N6_10  and  C4_12 
REMARK    4  A    between atoms: C4_12  and  C5_13 
REMARK    5  A    between atoms: C5_13  and  S1_14 
REMARK    6  A    between atoms: S1_14  and  C6_17 
REMARK    7  A    between atoms: C9_25  and  N8_26 
ROOT
HETATM    1  N1  UNL     1     -15.317  -3.514  -1.311  1.00  0.00    -0.174 NA
HETATM    2  N2  UNL     1     -15.169  -4.664  -0.574  1.00  0.00    -0.033 NA
HETATM    3  N3  UNL     1     -14.962  -4.456   0.774  1.00  0.00     0.000 NA
HETATM    4  N4  UNL     1     -13.865  -3.658   1.042  1.00  0.00    -0.003 NA
HETATM    5  N5  UNL     1     -14.128  -2.380   0.473  1.00  0.00    -0.195 N 
HETATM    6  C3  UNL     1     -13.387  -1.260   0.917  1.00  0.00     0.337 C 
HETATM    7  O1  UNL     1     -12.497  -1.441   1.781  1.00  0.00    -0.246 OA
HETATM    8  N6  UNL     1     -13.623   0.032   0.417  1.00  0.00    -0.341 N 
ATOM      9  H6  UNL     1     -14.357   0.157  -0.279  1.00  0.00     0.164 HD
HETATM   10  C15 UNL     1     -15.123  -2.302  -0.539  1.00  0.00     0.310 C 
HETATM   11  C16 UNL     1     -16.434  -1.852  -0.068  1.00  0.00     0.103 C 
HETATM   12  N10 UNL     1     -17.475  -1.517   0.306  1.00  0.00    -0.194 NA
ENDROOT
BRANCH   1  13
HETATM   13  C2  UNL     1     -14.643  -3.480  -2.570  1.00  0.00     0.084 C 
HETATM   14  C1  UNL     1     -13.499  -4.464  -2.676  1.00  0.00     0.029 C 
BRANCH  13  15
HETATM   15  C17 UNL     1     -15.590  -3.530  -3.722  1.00  0.00    -0.034 C 
HETATM   16  C18 UNL     1     -16.624  -4.593  -3.434  1.00  0.00     0.016 C 
HETATM   17  C19 UNL     1     -14.905  -3.846  -5.037  1.00  0.00     0.016 C 
HETATM   18  C20 UNL     1     -16.335  -2.200  -3.833  1.00  0.00     0.016 C 
ENDBRANCH  13  15
ENDBRANCH   1  13
BRANCH   8  19
HETATM   19  C4  UNL     1     -12.880   1.179   0.841  1.00  0.00     0.140 C 
BRANCH  19  20
HETATM   20  C5  UNL     1     -13.174   2.405   0.030  1.00  0.00     0.168 C 
BRANCH  20  21
HETATM   21  S1  UNL     1     -13.767   3.672   1.136  1.00  0.00     0.209 S 
HETATM   22  O2  UNL     1     -13.229   3.567   2.503  1.00  0.00    -0.220 OA
HETATM   23  O3  UNL     1     -13.240   4.981   0.560  1.00  0.00    -0.220 OA
BRANCH  21  24
HETATM   24  C6  UNL     1     -15.540   3.721   1.142  1.00  0.00     0.213 A 
HETATM   25  N7  UNL     1     -16.133   2.661   0.706  1.00  0.00    -0.256 N 
HETATM   26  S2  UNL     1     -17.842   2.510   0.629  1.00  0.00     0.267 S 
ATOM     27  H7  UNL     1     -15.560   1.878   0.393  1.00  0.00     0.181 HD
HETATM   28  O4  UNL     1     -18.223   1.373   1.565  1.00  0.00    -0.200 OA
HETATM   29  O5  UNL     1     -18.326   2.186  -0.753  1.00  0.00    -0.200 OA
HETATM   30  C7  UNL     1     -18.513   4.006   1.230  1.00  0.00     0.108 A 
HETATM   31  C8  UNL     1     -19.867   4.211   1.300  1.00  0.00     0.057 A 
HETATM   32  C14 UNL     1     -17.651   4.992   1.640  1.00  0.00     0.057 A 
HETATM   33  C9  UNL     1     -20.459   5.375   1.768  1.00  0.00     0.031 A 
HETATM   34  C12 UNL     1     -19.593   6.369   2.180  1.00  0.00     0.031 A 
HETATM   35  C13 UNL     1     -18.234   6.173   2.114  1.00  0.00     0.033 A 
HETATM   36  N9  UNL     1     -16.237   4.849   1.595  1.00  0.00    -0.331 N 
ATOM     37  H9  UNL     1     -15.681   5.638   1.921  1.00  0.00     0.168 HD
BRANCH  33  38
HETATM   38  N8  UNL     1     -21.864   5.513   1.811  1.00  0.00    -0.390 N 
HETATM   39  C10 UNL     1     -22.439   6.778   2.171  1.00  0.00     0.149 C 
HETATM   40  C11 UNL     1     -22.703   4.393   1.494  1.00  0.00     0.149 C 
ENDBRANCH  33  38
ENDBRANCH  21  24
ENDBRANCH  20  21
ENDBRANCH  19  20
ENDBRANCH   8  19
TORSDOF 7
ENDMDL
MODEL 3
REMARK VINA RESULT: -7.997905019      3.880      6.469
REMARK  7 active torsions:
REMARK  status: ('A' for Active; 'I' for Inactive)
REMARK    1  A    between atoms: C2_2  and  N1_3 
REMARK    2  A    between atoms: C2_2  and  C17_37 
REMARK       I    between atoms: N5_7  and  C3_8 
REMARK       I    between atoms: C3_8  and  N6_10 
REMARK    3  A    between atoms: N6_10  and  C4_12 
REMARK    4  A    between atoms: C4_12  and  C5_13 
REMARK    5  A    between atoms: C5_13  and  S1_14 
REMARK    6  A    between atoms: S1_14  and  C6_17 
REMARK    7  A    between atoms: C9_25  and  N8_26 
ROOT
HETATM    1  N1  UNL     1      -9.818   0.603   3.545  1.00  0.00    -0.174 NA
HETATM    2  N2  UNL     1      -9.878   1.905   3.978  1.00  0.00    -0.033 NA
HETATM    3  N3  UNL     1     -11.152   2.433   4.024  1.00  0.00     0.000 NA
HETATM    4  N4  UNL     1     -11.812   2.377   2.810  1.00  0.00    -0.003 NA
HETATM    5  N5  UNL     1     -11.958   1.001   2.476  1.00  0.00    -0.195 N 
HETATM    6  C3  UNL     1     -12.923   0.621   1.513  1.00  0.00     0.337 C 
HETATM    7  O1  UNL     1     -13.599   1.522   0.964  1.00  0.00    -0.246 OA
HETATM    8  N6  UNL     1     -13.135  -0.723   1.165  1.00  0.00    -0.341 N 
ATOM      9  H6  UNL     1     -12.579  -1.440   1.631  1.00  0.00     0.164 HD
HETATM   10  C15 UNL     1     -11.099   0.072   3.124  1.00  0.00     0.310 C 
HETATM   11  C16 UNL     1     -11.700  -0.617   4.266  1.00  0.00     0.103 C 
HETATM   12  N10 UNL     1     -12.168  -1.145   5.182  1.00  0.00    -0.194 NA
ENDROOT
BRANCH   1  13
HETATM   13  C2  UNL     1      -8.764   0.289   2.634  1.00  0.00     0.084 C 
HETATM   14  C1  UNL     1      -8.212   1.494   1.901  1.00  0.00     0.029 C 
BRANCH  13  15
HETATM   15  C17 UNL     1      -7.713  -0.571   3.254  1.00  0.00    -0.034 C 
HETATM   16  C18 UNL     1      -8.110  -0.835   4.687  1.00  0.00     0.016 C 
HETATM   17  C19 UNL     1      -6.337   0.063   3.227  1.00  0.00     0.016 C 
HETATM   18  C20 UNL     1      -7.673  -1.923   2.544  1.00  0.00     0.016 C 
ENDBRANCH  13  15
ENDBRANCH   1  13
BRANCH   8  19
HETATM   19  C4  UNL     1     -14.097  -1.132   0.188  1.00  0.00     0.140 C 
BRANCH  19  20
HETATM   20  C5  UNL     1     -15.341  -1.713   0.790  1.00  0.00     0.168 C 
BRANCH  20  21
HETATM   21  S1  UNL     1     -16.725  -1.228  -0.223  1.00  0.00     0.209 S 
HETATM   22  O2  UNL     1     -16.457  -1.299  -1.670  1.00  0.00    -0.220 OA
HETATM   23  O3  UNL     1     -17.811  -2.257   0.070  1.00  0.00    -0.220 OA
BRANCH  21  24
HETATM   24  C6  UNL     1     -17.316   0.378   0.245  1.00  0.00     0.213 A 
HETATM   25  N7  UNL     1     -16.408   1.253   0.516  1.00  0.00    -0.256 N 
HETATM   26  S2  UNL     1     -16.771   2.863   0.989  1.00  0.00     0.267 S 
ATOM     27  H7  UNL     1     -15.428   0.976   0.445  1.00  0.00     0.181 HD
HETATM   28  O4  UNL     1     -16.204   3.776  -0.087  1.00  0.00    -0.200 OA
HETATM   29  O5  UNL     1     -16.155   3.224   2.308  1.00  0.00    -0.200 OA
HETATM   30  C7  UNL     1     -18.512   3.006   1.013  1.00  0.00     0.108 A 
HETATM   31  C8  UNL     1     -19.133   4.179   1.356  1.00  0.00     0.057 A 
HETATM   32  C14 UNL     1     -19.263   1.908   0.677  1.00  0.00     0.057 A 
HETATM   33  C9  UNL     1     -20.509   4.354   1.391  1.00  0.00     0.031 A 
HETATM   34  C12 UNL     1     -21.267   3.249   1.054  1.00  0.00     0.031 A 
HETATM   35  C13 UNL     1     -20.653   2.069   0.709  1.00  0.00     0.033 A 
HETATM   36  N9  UNL     1     -18.686   0.660   0.313  1.00  0.00    -0.331 N 
ATOM     37  H9  UNL     1     -19.328  -0.097   0.080  1.00  0.00     0.168 HD
BRANCH  33  38
HETATM   38  N8  UNL     1     -21.078   5.595   1.754  1.00  0.00    -0.390 N 
HETATM   39  C10 UNL     1     -20.219   6.693   2.094  1.00  0.00     0.149 C 
HETATM   40  C11 UNL     1     -22.504   5.748   1.780  1.00  0.00     0.149 C 
ENDBRANCH  33  38
ENDBRANCH  21  24
ENDBRANCH  20  21
ENDBRANCH  19  20
ENDBRANCH   8  19
TORSDOF 7
ENDMDL
MODEL 4
REMARK VINA RESULT: -7.618307852      3.210      6.004
REMARK  7 active torsions:
REMARK  status: ('A' for Active; 'I' for Inactive)
REMARK    1  A    between atoms: C2_2  and  N1_3 
REMARK    2  A    between atoms: C2_2  and  C17_37 
REMARK       I    between atoms: N5_7  and  C3_8 
REMARK       I    between atoms: C3_8  and  N6_10 
REMARK    3  A    between atoms: N6_10  and  C4_12 
REMARK    4  A    between atoms: C4_12  and  C5_13 
REMARK    5  A    between atoms: C5_13  and  S1_14 
REMARK    6  A    between atoms: S1_14  and  C6_17 
REMARK    7  A    between atoms: C9_25  and  N8_26 
ROOT
HETATM    1  N1  UNL     1     -11.205   1.033   2.786  1.00  0.00    -0.174 NA
HETATM    2  N2  UNL     1     -11.243   2.404   2.700  1.00  0.00    -0.033 NA
HETATM    3  N3  UNL     1     -12.334   2.903   2.020  1.00  0.00     0.000 NA
HETATM    4  N4  UNL     1     -12.447   2.412   0.732  1.00  0.00    -0.003 NA
HETATM    5  N5  UNL     1     -12.647   1.006   0.837  1.00  0.00    -0.195 N 
HETATM    6  C3  UNL     1     -13.185   0.300  -0.265  1.00  0.00     0.337 C 
HETATM    7  O1  UNL     1     -13.441   0.940  -1.312  1.00  0.00    -0.246 OA
HETATM    8  N6  UNL     1     -13.434  -1.081  -0.211  1.00  0.00    -0.341 N 
ATOM      9  H6  UNL     1     -13.225  -1.580   0.653  1.00  0.00     0.164 HD
HETATM   10  C15 UNL     1     -12.269   0.377   2.054  1.00  0.00     0.310 C 
HETATM   11  C16 UNL     1     -13.375   0.138   2.982  1.00  0.00     0.103 C 
HETATM   12  N10 UNL     1     -14.245  -0.033   3.724  1.00  0.00    -0.194 NA
ENDROOT
BRANCH   1  13
HETATM   13  C2  UNL     1      -9.931   0.423   2.574  1.00  0.00     0.084 C 
HETATM   14  C1  UNL     1      -8.982   1.263   1.746  1.00  0.00     0.029 C 
BRANCH  13  15
HETATM   15  C17 UNL     1      -9.330  -0.092   3.839  1.00  0.00    -0.034 C 
HETATM   16  C18 UNL     1      -8.283  -1.120   3.476  1.00  0.00     0.016 C 
HETATM   17  C19 UNL     1     -10.349  -0.726   4.764  1.00  0.00     0.016 C 
HETATM   18  C20 UNL     1      -8.609   1.043   4.564  1.00  0.00     0.016 C 
ENDBRANCH  13  15
ENDBRANCH   1  13
BRANCH   8  19
HETATM   19  C4  UNL     1     -13.967  -1.820  -1.314  1.00  0.00     0.140 C 
BRANCH  19  20
HETATM   20  C5  UNL     1     -15.332  -1.359  -1.728  1.00  0.00     0.168 C 
BRANCH  20  21
HETATM   21  S1  UNL     1     -16.416  -1.501  -0.319  1.00  0.00     0.209 S 
HETATM   22  O2  UNL     1     -17.519  -2.457  -0.511  1.00  0.00    -0.220 OA
HETATM   23  O3  UNL     1     -15.542  -2.061   0.798  1.00  0.00    -0.220 OA
BRANCH  21  24
HETATM   24  C6  UNL     1     -17.021   0.093   0.172  1.00  0.00     0.213 A 
HETATM   25  N7  UNL     1     -16.123   0.954   0.513  1.00  0.00    -0.256 N 
HETATM   26  S2  UNL     1     -16.502   2.550   1.020  1.00  0.00     0.267 S 
ATOM     27  H7  UNL     1     -15.142   0.674   0.480  1.00  0.00     0.181 HD
HETATM   28  O4  UNL     1     -15.880   3.493   0.001  1.00  0.00    -0.200 OA
HETATM   29  O5  UNL     1     -15.947   2.866   2.378  1.00  0.00    -0.200 OA
HETATM   30  C7  UNL     1     -18.241   2.702   0.966  1.00  0.00     0.108 A 
HETATM   31  C8  UNL     1     -18.873   3.867   1.316  1.00  0.00     0.057 A 
HETATM   32  C14 UNL     1     -18.979   1.620   0.560  1.00  0.00     0.057 A 
HETATM   33  C9  UNL     1     -20.248   4.050   1.292  1.00  0.00     0.031 A 
HETATM   34  C12 UNL     1     -20.993   2.960   0.884  1.00  0.00     0.031 A 
HETATM   35  C13 UNL     1     -20.369   1.788   0.531  1.00  0.00     0.033 A 
HETATM   36  N9  UNL     1     -18.391   0.381   0.184  1.00  0.00    -0.331 N 
ATOM     37  H9  UNL     1     -19.025  -0.365  -0.103  1.00  0.00     0.168 HD
BRANCH  33  38
HETATM   38  N8  UNL     1     -20.828   5.281   1.667  1.00  0.00    -0.390 N 
HETATM   39  C10 UNL     1     -19.979   6.373   2.051  1.00  0.00     0.149 C 
HETATM   40  C11 UNL     1     -22.255   5.432   1.660  1.00  0.00     0.149 C 
ENDBRANCH  33  38
ENDBRANCH  21  24
ENDBRANCH  20  21
ENDBRANCH  19  20
ENDBRANCH   8  19
TORSDOF 7
ENDMDL
MODEL 5
REMARK VINA RESULT: -7.566010252      3.205      6.345
REMARK  7 active torsions:
REMARK  status: ('A' for Active; 'I' for Inactive)
REMARK    1  A    between atoms: C2_2  and  N1_3 
REMARK    2  A    between atoms: C2_2  and  C17_37 
REMARK       I    between atoms: N5_7  and  C3_8 
REMARK       I    between atoms: C3_8  and  N6_10 
REMARK    3  A    between atoms: N6_10  and  C4_12 
REMARK    4  A    between atoms: C4_12  and  C5_13 
REMARK    5  A    between atoms: C5_13  and  S1_14 
REMARK    6  A    between atoms: S1_14  and  C6_17 
REMARK    7  A    between atoms: C9_25  and  N8_26 
ROOT
HETATM    1  N1  UNL     1     -13.667   4.332  -3.440  1.00  0.00    -0.174 NA
HETATM    2  N2  UNL     1     -13.131   4.607  -4.675  1.00  0.00    -0.033 NA
HETATM    3  N3  UNL     1     -13.531   3.745  -5.675  1.00  0.00     0.000 NA
HETATM    4  N4  UNL     1     -13.254   2.419  -5.397  1.00  0.00    -0.003 NA
HETATM    5  N5  UNL     1     -14.004   2.068  -4.240  1.00  0.00    -0.195 N 
HETATM    6  C3  UNL     1     -14.236   0.702  -3.954  1.00  0.00     0.337 C 
HETATM    7  O1  UNL     1     -13.743  -0.157  -4.722  1.00  0.00    -0.246 OA
HETATM    8  N6  UNL     1     -14.996   0.294  -2.845  1.00  0.00    -0.341 N 
ATOM      9  H6  UNL     1     -15.394   1.010  -2.239  1.00  0.00     0.164 HD
HETATM   10  C15 UNL     1     -14.469   3.125  -3.412  1.00  0.00     0.310 C 
HETATM   11  C16 UNL     1     -15.864   3.504  -3.637  1.00  0.00     0.103 C 
HETATM   12  N10 UNL     1     -16.960   3.818  -3.829  1.00  0.00    -0.194 NA
ENDROOT
BRANCH   1  13
HETATM   13  C2  UNL     1     -12.774   4.428  -2.330  1.00  0.00     0.084 C 
HETATM   14  C1  UNL     1     -11.349   4.036  -2.657  1.00  0.00     0.029 C 
BRANCH  13  15
HETATM   15  C17 UNL     1     -12.891   5.735  -1.618  1.00  0.00    -0.034 C 
HETATM   16  C18 UNL     1     -13.014   5.453  -0.139  1.00  0.00     0.016 C 
HETATM   17  C19 UNL     1     -14.085   6.551  -2.070  1.00  0.00     0.016 C 
HETATM   18  C20 UNL     1     -11.608   6.542  -1.814  1.00  0.00     0.016 C 
ENDBRANCH  13  15
ENDBRANCH   1  13
BRANCH   8  19
HETATM   19  C4  UNL     1     -15.236  -1.081  -2.529  1.00  0.00     0.140 C 
BRANCH  19  20
HETATM   20  C5  UNL     1     -16.665  -1.364  -2.174  1.00  0.00     0.168 C 
BRANCH  20  21
HETATM   21  S1  UNL     1     -16.819  -1.289  -0.398  1.00  0.00     0.209 S 
HETATM   22  O2  UNL     1     -17.700  -2.326   0.166  1.00  0.00    -0.220 OA
HETATM   23  O3  UNL     1     -15.419  -1.570   0.134  1.00  0.00    -0.220 OA
BRANCH  21  24
HETATM   24  C6  UNL     1     -17.316   0.333   0.122  1.00  0.00     0.213 A 
HETATM   25  N7  UNL     1     -16.358   1.150   0.405  1.00  0.00    -0.256 N 
HETATM   26  S2  UNL     1     -16.627   2.763   0.928  1.00  0.00     0.267 S 
ATOM     27  H7  UNL     1     -15.396   0.822   0.313  1.00  0.00     0.181 HD
HETATM   28  O4  UNL     1     -16.023   3.673  -0.131  1.00  0.00    -0.200 OA
HETATM   29  O5  UNL     1     -15.976   3.052   2.248  1.00  0.00    -0.200 OA
HETATM   30  C7  UNL     1     -18.357   2.999   0.979  1.00  0.00     0.108 A 
HETATM   31  C8  UNL     1     -18.909   4.193   1.362  1.00  0.00     0.057 A 
HETATM   32  C14 UNL     1     -19.170   1.953   0.623  1.00  0.00     0.057 A 
HETATM   33  C9  UNL     1     -20.273   4.443   1.422  1.00  0.00     0.031 A 
HETATM   34  C12 UNL     1     -21.093   3.390   1.064  1.00  0.00     0.031 A 
HETATM   35  C13 UNL     1     -20.549   2.189   0.678  1.00  0.00     0.033 A 
HETATM   36  N9  UNL     1     -18.667   0.687   0.216  1.00  0.00    -0.331 N 
ATOM     37  H9  UNL     1     -19.353  -0.028  -0.028  1.00  0.00     0.168 HD
BRANCH  33  38
HETATM   38  N8  UNL     1     -20.768   5.701   1.826  1.00  0.00    -0.390 N 
HETATM   39  C10 UNL     1     -19.846   6.735   2.204  1.00  0.00     0.149 C 
HETATM   40  C11 UNL     1     -22.183   5.937   1.856  1.00  0.00     0.149 C 
ENDBRANCH  33  38
ENDBRANCH  21  24
ENDBRANCH  20  21
ENDBRANCH  19  20
ENDBRANCH   8  19
TORSDOF 7
ENDMDL
