MODEL 1
REMARK VINA RESULT: -8.453065936      0.000      0.000
REMARK  7 active torsions:
REMARK  status: ('A' for Active; 'I' for Inactive)
REMARK    1  A    between atoms: C3_7  and  C4_8 
REMARK    2  A    between atoms: C4_8  and  O1_9 
REMARK    3  A    between atoms: O1_9  and  C5_10 
REMARK    4  A    between atoms: C8_15  and  C9_16 
REMARK    5  A    between atoms: N4_17  and  N5_19 
REMARK    6  A    between atoms: N5_19  and  C10_21 
REMARK    7  A    between atoms: C16_31  and  C17_32 
ROOT
HETATM    1  C5  UNL     1       6.782  -4.855  16.279  1.00  0.00     0.154 A 
HETATM    2  N3  UNL     1       7.244  -3.818  17.001  1.00  0.00    -0.340 N 
ATOM      3  H3  UNL     1       8.127  -3.394  16.715  1.00  0.00     0.168 HD
HETATM    4  C6  UNL     1       6.619  -3.305  18.070  1.00  0.00     0.019 A 
HETATM    5  C7  UNL     1       7.153  -2.156  18.850  1.00  0.00     0.069 C 
HETATM    6  C8  UNL     1       5.416  -3.899  18.437  1.00  0.00     0.004 A 
HETATM    7  C15 UNL     1       4.910  -4.980  17.704  1.00  0.00     0.032 A 
HETATM    8  C16 UNL     1       5.594  -5.467  16.616  1.00  0.00     0.058 A 
ENDROOT
BRANCH   6   9
HETATM    9  C9  UNL     1       4.706  -3.376  19.584  1.00  0.00     0.120 C 
HETATM   10  N4  UNL     1       3.527  -2.913  19.435  1.00  0.00    -0.309 N 
ATOM     11  H4  UNL     1       3.125  -2.931  18.498  1.00  0.00     0.186 HD
BRANCH  10  12
HETATM   12  N5  UNL     1       2.753  -2.387  20.462  1.00  0.00    -0.286 N 
ATOM     13  H5  UNL     1       3.117  -1.636  21.049  1.00  0.00     0.188 HD
BRANCH  12  14
HETATM   14  C10 UNL     1       1.571  -2.858  20.666  1.00  0.00     0.120 A 
HETATM   15  C11 UNL     1       1.040  -3.828  19.821  1.00  0.00     0.051 A 
HETATM   16  C12 UNL     1      -0.221  -4.326  20.045  1.00  0.00     0.031 A 
HETATM   17  C13 UNL     1      -0.923  -3.832  21.122  1.00  0.00     0.072 A 
HETATM   18 CL1  UNL     1      -2.546  -4.415  21.483  1.00  0.00    -0.081 Cl
HETATM   19  C14 UNL     1      -0.372  -2.867  21.948  1.00  0.00     0.127 A 
HETATM   20 CL2  UNL     1      -1.289  -2.250  23.323  1.00  0.00    -0.063 Cl
HETATM   21  N6  UNL     1       0.845  -2.402  21.713  1.00  0.00    -0.331 N 
ATOM     22  H6  UNL     1       1.241  -1.692  22.329  1.00  0.00     0.168 HD
ENDBRANCH  12  14
ENDBRANCH  10  12
ENDBRANCH   6   9
BRANCH   8  23
HETATM   23  C17 UNL     1       5.066  -6.628  15.812  1.00  0.00     0.390 C 
HETATM   24  F1  UNL     1       5.417  -7.790  16.445  1.00  0.00    -0.209 F 
HETATM   25  F2  UNL     1       3.682  -6.582  15.752  1.00  0.00    -0.209 F 
ENDBRANCH   8  23
BRANCH   1  26
HETATM   26  O1  UNL     1       7.453  -5.370  15.170  1.00  0.00    -0.328 OA
BRANCH  26  27
HETATM   27  C4  UNL     1       8.656  -6.063  15.216  1.00  0.00     0.255 C 
BRANCH  27  28
HETATM   28  C3  UNL     1       8.486  -7.546  15.287  1.00  0.00     0.122 A 
HETATM   29  N2  UNL     1       7.974  -8.378  14.353  1.00  0.00    -0.286 N 
HETATM   30  N1  UNL     1       7.997  -9.634  14.809  1.00  0.00    -0.288 N 
ATOM     31  H2  UNL     1       7.623  -8.091  13.440  1.00  0.00     0.188 HD
HETATM   32  C2  UNL     1       8.531  -9.612  16.054  1.00  0.00     0.093 A 
ATOM     33  H1  UNL     1       7.671 -10.462  14.310  1.00  0.00     0.188 HD
HETATM   34  C1  UNL     1       8.755 -10.786  16.957  1.00  0.00     0.090 C 
HETATM   35  N7  UNL     1       8.821  -8.336  16.325  1.00  0.00    -0.332 N 
ATOM     36  H7  UNL     1       9.237  -8.006  17.195  1.00  0.00     0.168 HD
ENDBRANCH  27  28
ENDBRANCH  26  27
ENDBRANCH   1  26
TORSDOF 7
ENDMDL
MODEL 2
REMARK VINA RESULT: -8.309890854      2.204      2.813
REMARK  7 active torsions:
REMARK  status: ('A' for Active; 'I' for Inactive)
REMARK    1  A    between atoms: C3_7  and  C4_8 
REMARK    2  A    between atoms: C4_8  and  O1_9 
REMARK    3  A    between atoms: O1_9  and  C5_10 
REMARK    4  A    between atoms: C8_15  and  C9_16 
REMARK    5  A    between atoms: N4_17  and  N5_19 
REMARK    6  A    between atoms: N5_19  and  C10_21 
REMARK    7  A    between atoms: C16_31  and  C17_32 
ROOT
HETATM    1  C5  UNL     1       6.659  -4.351  17.329  1.00  0.00     0.154 A 
HETATM    2  N3  UNL     1       5.595  -5.168  17.438  1.00  0.00    -0.340 N 
ATOM      3  H3  UNL     1       5.561  -5.988  16.834  1.00  0.00     0.168 HD
HETATM    4  C6  UNL     1       4.578  -4.972  18.290  1.00  0.00     0.019 A 
HETATM    5  C7  UNL     1       3.413  -5.893  18.388  1.00  0.00     0.069 C 
HETATM    6  C8  UNL     1       4.650  -3.847  19.104  1.00  0.00     0.004 A 
HETATM    7  C15 UNL     1       5.747  -2.980  19.014  1.00  0.00     0.032 A 
HETATM    8  C16 UNL     1       6.762  -3.227  18.122  1.00  0.00     0.058 A 
ENDROOT
BRANCH   6   9
HETATM    9  C9  UNL     1       3.575  -3.599  20.040  1.00  0.00     0.120 C 
HETATM   10  N4  UNL     1       2.645  -2.785  19.726  1.00  0.00    -0.309 N 
ATOM     11  H4  UNL     1       2.697  -2.334  18.813  1.00  0.00     0.186 HD
BRANCH  10  12
HETATM   12  N5  UNL     1       1.566  -2.471  20.543  1.00  0.00    -0.286 N 
ATOM     13  H5  UNL     1       1.573  -1.619  21.102  1.00  0.00     0.188 HD
BRANCH  12  14
HETATM   14  C10 UNL     1       0.556  -3.270  20.587  1.00  0.00     0.120 A 
HETATM   15  C11 UNL     1       0.290  -4.136  19.530  1.00  0.00     0.051 A 
HETATM   16  C12 UNL     1      -0.789  -4.984  19.585  1.00  0.00     0.031 A 
HETATM   17  C13 UNL     1      -1.582  -4.942  20.710  1.00  0.00     0.072 A 
HETATM   18 CL1  UNL     1      -2.986  -5.995  20.864  1.00  0.00    -0.081 Cl
HETATM   19  C14 UNL     1      -1.296  -4.071  21.748  1.00  0.00     0.127 A 
HETATM   20 CL2  UNL     1      -2.326  -4.033  23.180  1.00  0.00    -0.063 Cl
HETATM   21  N6  UNL     1      -0.251  -3.262  21.673  1.00  0.00    -0.331 N 
ATOM     22  H6  UNL     1      -0.051  -2.625  22.445  1.00  0.00     0.168 HD
ENDBRANCH  12  14
ENDBRANCH  10  12
ENDBRANCH   6   9
BRANCH   8  23
HETATM   23  C17 UNL     1       7.951  -2.307  18.009  1.00  0.00     0.390 C 
HETATM   24  F1  UNL     1       7.880  -1.649  16.811  1.00  0.00    -0.209 F 
HETATM   25  F2  UNL     1       7.918  -1.355  19.016  1.00  0.00    -0.209 F 
ENDBRANCH   8  23
BRANCH   1  26
HETATM   26  O1  UNL     1       7.705  -4.577  16.434  1.00  0.00    -0.328 OA
BRANCH  26  27
HETATM   27  C4  UNL     1       7.550  -4.936  15.101  1.00  0.00     0.255 C 
BRANCH  27  28
HETATM   28  C3  UNL     1       7.520  -6.413  14.881  1.00  0.00     0.122 A 
HETATM   29  N2  UNL     1       6.786  -7.115  13.989  1.00  0.00    -0.286 N 
HETATM   30  N1  UNL     1       7.050  -8.419  14.117  1.00  0.00    -0.288 N 
ATOM     31  H2  UNL     1       6.131  -6.710  13.321  1.00  0.00     0.188 HD
HETATM   32  C2  UNL     1       7.966  -8.561  15.104  1.00  0.00     0.093 A 
ATOM     33  H1  UNL     1       6.635  -9.173  13.569  1.00  0.00     0.188 HD
HETATM   34  C1  UNL     1       8.561  -9.842  15.600  1.00  0.00     0.090 C 
HETATM   35  N7  UNL     1       8.238  -7.332  15.555  1.00  0.00    -0.332 N 
ATOM     36  H7  UNL     1       8.896  -7.120  16.304  1.00  0.00     0.168 HD
ENDBRANCH  27  28
ENDBRANCH  26  27
ENDBRANCH   1  26
TORSDOF 7
ENDMDL
MODEL 3
REMARK VINA RESULT: -8.306851776      2.006      2.479
REMARK  7 active torsions:
REMARK  status: ('A' for Active; 'I' for Inactive)
REMARK    1  A    between atoms: C3_7  and  C4_8 
REMARK    2  A    between atoms: C4_8  and  O1_9 
REMARK    3  A    between atoms: O1_9  and  C5_10 
REMARK    4  A    between atoms: C8_15  and  C9_16 
REMARK    5  A    between atoms: N4_17  and  N5_19 
REMARK    6  A    between atoms: N5_19  and  C10_21 
REMARK    7  A    between atoms: C16_31  and  C17_32 
ROOT
HETATM    1  C5  UNL     1       6.037  -5.578  16.813  1.00  0.00     0.154 A 
HETATM    2  N3  UNL     1       6.622  -4.479  17.320  1.00  0.00    -0.340 N 
ATOM      3  H3  UNL     1       7.542  -4.220  16.963  1.00  0.00     0.168 HD
HETATM    4  C6  UNL     1       6.076  -3.701  18.266  1.00  0.00     0.019 A 
HETATM    5  C7  UNL     1       6.747  -2.490  18.810  1.00  0.00     0.069 C 
HETATM    6  C8  UNL     1       4.820  -4.074  18.736  1.00  0.00     0.004 A 
HETATM    7  C15 UNL     1       4.186  -5.214  18.224  1.00  0.00     0.032 A 
HETATM    8  C16 UNL     1       4.793  -5.976  17.256  1.00  0.00     0.058 A 
ENDROOT
BRANCH   6   9
HETATM    9  C9  UNL     1       4.192  -3.262  19.754  1.00  0.00     0.120 C 
HETATM   10  N4  UNL     1       2.921  -3.167  19.786  1.00  0.00    -0.309 N 
ATOM     11  H4  UNL     1       2.389  -3.676  19.080  1.00  0.00     0.186 HD
BRANCH  10  12
HETATM   12  N5  UNL     1       2.211  -2.418  20.716  1.00  0.00    -0.286 N 
ATOM     13  H5  UNL     1       2.625  -1.582  21.129  1.00  0.00     0.188 HD
BRANCH  12  14
HETATM   14  C10 UNL     1       1.024  -2.790  21.052  1.00  0.00     0.120 A 
HETATM   15  C11 UNL     1       0.333  -3.727  20.289  1.00  0.00     0.051 A 
HETATM   16  C12 UNL     1      -0.932  -4.118  20.654  1.00  0.00     0.031 A 
HETATM   17  C13 UNL     1      -1.477  -3.555  21.787  1.00  0.00     0.072 A 
HETATM   18 CL1  UNL     1      -3.093  -4.001  22.327  1.00  0.00    -0.081 Cl
HETATM   19  C14 UNL     1      -0.768  -2.625  22.529  1.00  0.00     0.127 A 
HETATM   20 CL2  UNL     1      -1.484  -1.917  23.977  1.00  0.00    -0.063 Cl
HETATM   21  N6  UNL     1       0.450  -2.263  22.158  1.00  0.00    -0.331 N 
ATOM     22  H6  UNL     1       0.963  -1.577  22.713  1.00  0.00     0.168 HD
ENDBRANCH  12  14
ENDBRANCH  10  12
ENDBRANCH   6   9
BRANCH   8  23
HETATM   23  C17 UNL     1       4.128  -7.206  16.691  1.00  0.00     0.390 C 
HETATM   24  F1  UNL     1       4.729  -8.312  17.228  1.00  0.00    -0.209 F 
HETATM   25  F2  UNL     1       2.789  -7.236  17.053  1.00  0.00    -0.209 F 
ENDBRANCH   8  23
BRANCH   1  26
HETATM   26  O1  UNL     1       6.628  -6.371  15.829  1.00  0.00    -0.328 OA
BRANCH  26  27
HETATM   27  C4  UNL     1       6.764  -6.016  14.493  1.00  0.00     0.255 C 
BRANCH  27  28
HETATM   28  C3  UNL     1       5.799  -6.711  13.590  1.00  0.00     0.122 A 
HETATM   29  N2  UNL     1       4.546  -6.335  13.250  1.00  0.00    -0.286 N 
HETATM   30  N1  UNL     1       4.015  -7.237  12.419  1.00  0.00    -0.288 N 
ATOM     31  H2  UNL     1       4.077  -5.491  13.578  1.00  0.00     0.188 HD
HETATM   32  C2  UNL     1       4.938  -8.209  12.220  1.00  0.00     0.093 A 
ATOM     33  H1  UNL     1       3.082  -7.201  12.008  1.00  0.00     0.188 HD
HETATM   34  C1  UNL     1       4.788  -9.428  11.363  1.00  0.00     0.090 C 
HETATM   35  N7  UNL     1       6.012  -7.871  12.939  1.00  0.00    -0.332 N 
ATOM     36  H7  UNL     1       6.873  -8.415  12.989  1.00  0.00     0.168 HD
ENDBRANCH  27  28
ENDBRANCH  26  27
ENDBRANCH   1  26
TORSDOF 7
ENDMDL
MODEL 4
REMARK VINA RESULT: -8.272482802      2.386      3.179
REMARK  7 active torsions:
REMARK  status: ('A' for Active; 'I' for Inactive)
REMARK    1  A    between atoms: C3_7  and  C4_8 
REMARK    2  A    between atoms: C4_8  and  O1_9 
REMARK    3  A    between atoms: O1_9  and  C5_10 
REMARK    4  A    between atoms: C8_15  and  C9_16 
REMARK    5  A    between atoms: N4_17  and  N5_19 
REMARK    6  A    between atoms: N5_19  and  C10_21 
REMARK    7  A    between atoms: C16_31  and  C17_32 
ROOT
HETATM    1  C5  UNL     1       6.698  -4.388  17.314  1.00  0.00     0.154 A 
HETATM    2  N3  UNL     1       5.633  -5.206  17.388  1.00  0.00    -0.340 N 
ATOM      3  H3  UNL     1       5.614  -6.021  16.774  1.00  0.00     0.168 HD
HETATM    4  C6  UNL     1       4.594  -5.021  18.215  1.00  0.00     0.019 A 
HETATM    5  C7  UNL     1       3.428  -5.943  18.275  1.00  0.00     0.069 C 
HETATM    6  C8  UNL     1       4.644  -3.904  19.043  1.00  0.00     0.004 A 
HETATM    7  C15 UNL     1       5.742  -3.035  18.989  1.00  0.00     0.032 A 
HETATM    8  C16 UNL     1       6.779  -3.272  18.121  1.00  0.00     0.058 A 
ENDROOT
BRANCH   6   9
HETATM    9  C9  UNL     1       3.546  -3.667  19.954  1.00  0.00     0.120 C 
HETATM   10  N4  UNL     1       2.612  -2.867  19.616  1.00  0.00    -0.309 N 
ATOM     11  H4  UNL     1       2.678  -2.419  18.702  1.00  0.00     0.186 HD
BRANCH  10  12
HETATM   12  N5  UNL     1       1.511  -2.564  20.407  1.00  0.00    -0.286 N 
ATOM     13  H5  UNL     1       1.528  -1.755  21.027  1.00  0.00     0.188 HD
BRANCH  12  14
HETATM   14  C10 UNL     1       0.467  -3.317  20.350  1.00  0.00     0.120 A 
HETATM   15  C11 UNL     1      -0.447  -3.343  21.399  1.00  0.00     0.051 A 
HETATM   16  C12 UNL     1      -1.558  -4.148  21.330  1.00  0.00     0.031 A 
HETATM   17  C13 UNL     1      -1.725  -4.915  20.198  1.00  0.00     0.072 A 
HETATM   18 CL1  UNL     1      -3.121  -5.976  20.026  1.00  0.00    -0.081 Cl
HETATM   19  C14 UNL     1      -0.800  -4.872  19.168  1.00  0.00     0.127 A 
HETATM   20 CL2  UNL     1      -1.034  -5.862  17.727  1.00  0.00    -0.063 Cl
HETATM   21  N6  UNL     1       0.262  -4.088  19.256  1.00  0.00    -0.331 N 
ATOM     22  H6  UNL     1       0.936  -4.064  18.491  1.00  0.00     0.168 HD
ENDBRANCH  12  14
ENDBRANCH  10  12
ENDBRANCH   6   9
BRANCH   8  23
HETATM   23  C17 UNL     1       7.969  -2.350  18.048  1.00  0.00     0.390 C 
HETATM   24  F1  UNL     1       7.942  -1.698  16.844  1.00  0.00    -0.209 F 
HETATM   25  F2  UNL     1       7.897  -1.393  19.048  1.00  0.00    -0.209 F 
ENDBRANCH   8  23
BRANCH   1  26
HETATM   26  O1  UNL     1       7.766  -4.603  16.443  1.00  0.00    -0.328 OA
BRANCH  26  27
HETATM   27  C4  UNL     1       7.646  -4.986  15.113  1.00  0.00     0.255 C 
BRANCH  27  28
HETATM   28  C3  UNL     1       7.603  -6.466  14.921  1.00  0.00     0.122 A 
HETATM   29  N2  UNL     1       6.878  -7.176  14.028  1.00  0.00    -0.286 N 
HETATM   30  N1  UNL     1       7.122  -8.481  14.185  1.00  0.00    -0.288 N 
ATOM     31  H2  UNL     1       6.240  -6.777  13.339  1.00  0.00     0.188 HD
HETATM   32  C2  UNL     1       8.017  -8.615  15.193  1.00  0.00     0.093 A 
ATOM     33  H1  UNL     1       6.710  -9.240  13.643  1.00  0.00     0.188 HD
HETATM   34  C1  UNL     1       8.587  -9.893  15.724  1.00  0.00     0.090 C 
HETATM   35  N7  UNL     1       8.295  -7.381  15.626  1.00  0.00    -0.332 N 
ATOM     36  H7  UNL     1       8.941  -7.163  16.384  1.00  0.00     0.168 HD
ENDBRANCH  27  28
ENDBRANCH  26  27
ENDBRANCH   1  26
TORSDOF 7
ENDMDL
MODEL 5
REMARK VINA RESULT: -8.249177129      2.674      3.327
REMARK  7 active torsions:
REMARK  status: ('A' for Active; 'I' for Inactive)
REMARK    1  A    between atoms: C3_7  and  C4_8 
REMARK    2  A    between atoms: C4_8  and  O1_9 
REMARK    3  A    between atoms: O1_9  and  C5_10 
REMARK    4  A    between atoms: C8_15  and  C9_16 
REMARK    5  A    between atoms: N4_17  and  N5_19 
REMARK    6  A    between atoms: N5_19  and  C10_21 
REMARK    7  A    between atoms: C16_31  and  C17_32 
ROOT
HETATM    1  C5  UNL     1       6.411  -4.516  17.204  1.00  0.00     0.154 A 
HETATM    2  N3  UNL     1       5.292  -5.248  17.350  1.00  0.00    -0.340 N 
ATOM      3  H3  UNL     1       5.161  -6.047  16.730  1.00  0.00     0.168 HD
HETATM    4  C6  UNL     1       4.339  -4.995  18.259  1.00  0.00     0.019 A 
HETATM    5  C7  UNL     1       3.110  -5.822  18.398  1.00  0.00     0.069 C 
HETATM    6  C8  UNL     1       4.543  -3.901  19.093  1.00  0.00     0.004 A 
HETATM    7  C15 UNL     1       5.700  -3.122  18.964  1.00  0.00     0.032 A 
HETATM    8  C16 UNL     1       6.645  -3.426  18.014  1.00  0.00     0.058 A 
ENDROOT
BRANCH   6   9
HETATM    9  C9  UNL     1       3.541  -3.593  20.090  1.00  0.00     0.120 C 
HETATM   10  N4  UNL     1       2.572  -2.821  19.788  1.00  0.00    -0.309 N 
ATOM     11  H4  UNL     1       2.542  -2.445  18.840  1.00  0.00     0.186 HD
BRANCH  10  12
HETATM   12  N5  UNL     1       1.555  -2.457  20.661  1.00  0.00    -0.286 N 
ATOM     13  H5  UNL     1       1.619  -1.591  21.195  1.00  0.00     0.188 HD
BRANCH  12  14
HETATM   14  C10 UNL     1       0.529  -3.227  20.790  1.00  0.00     0.120 A 
HETATM   15  C11 UNL     1       0.210  -4.154  19.801  1.00  0.00     0.051 A 
HETATM   16  C12 UNL     1      -0.885  -4.970  19.946  1.00  0.00     0.031 A 
HETATM   17  C13 UNL     1      -1.640  -4.835  21.090  1.00  0.00     0.072 A 
HETATM   18 CL1  UNL     1      -3.061  -5.842  21.357  1.00  0.00    -0.081 Cl
HETATM   19  C14 UNL     1      -1.301  -3.905  22.059  1.00  0.00     0.127 A 
HETATM   20 CL2  UNL     1      -2.282  -3.748  23.516  1.00  0.00    -0.063 Cl
HETATM   21  N6  UNL     1      -0.242  -3.128  21.898  1.00  0.00    -0.331 N 
ATOM     22  H6  UNL     1      -0.002  -2.447  22.618  1.00  0.00     0.168 HD
ENDBRANCH  12  14
ENDBRANCH  10  12
ENDBRANCH   6   9
BRANCH   8  23
HETATM   23  C17 UNL     1       7.897  -2.600  17.859  1.00  0.00     0.390 C 
HETATM   24  F1  UNL     1       7.741  -1.771  16.781  1.00  0.00    -0.209 F 
HETATM   25  F2  UNL     1       8.090  -1.805  18.978  1.00  0.00    -0.209 F 
ENDBRANCH   8  23
BRANCH   1  26
HETATM   26  O1  UNL     1       7.388  -4.801  16.249  1.00  0.00    -0.328 OA
BRANCH  26  27
HETATM   27  C4  UNL     1       7.256  -4.586  14.883  1.00  0.00     0.255 C 
BRANCH  27  28
HETATM   28  C3  UNL     1       6.338  -5.555  14.214  1.00  0.00     0.122 A 
HETATM   29  N2  UNL     1       5.122  -5.323  13.671  1.00  0.00    -0.286 N 
HETATM   30  N1  UNL     1       4.627  -6.460  13.173  1.00  0.00    -0.288 N 
ATOM     31  H2  UNL     1       4.654  -4.417  13.645  1.00  0.00     0.188 HD
HETATM   32  C2  UNL     1       5.535  -7.440  13.398  1.00  0.00     0.093 A 
ATOM     33  H1  UNL     1       3.726  -6.571  12.708  1.00  0.00     0.188 HD
HETATM   34  C1  UNL     1       5.413  -8.882  13.016  1.00  0.00     0.090 C 
HETATM   35  N7  UNL     1       6.565  -6.870  14.031  1.00  0.00    -0.332 N 
ATOM     36  H7  UNL     1       7.406  -7.361  14.333  1.00  0.00     0.168 HD
ENDBRANCH  27  28
ENDBRANCH  26  27
ENDBRANCH   1  26
TORSDOF 7
ENDMDL
