MODEL 1
REMARK VINA RESULT: -7.130032028      0.000      0.000
REMARK  5 active torsions:
REMARK  status: ('A' for Active; 'I' for Inactive)
REMARK    1  A    between atoms: C2_2  and  C3_3 
REMARK    2  A    between atoms: C2_2  and  C4_6 
REMARK    3  A    between atoms: C3_3  and  O1_4 
REMARK    4  A    between atoms: C4_6  and  O3_8 
REMARK    5  A    between atoms: O3_8  and  C5_9 
ROOT
HETATM    1  C5  UNL     1       2.859  -4.974  17.849  1.00  0.00     0.159 C 
HETATM    2  C6  UNL     1       4.146  -5.468  18.479  1.00  0.00     0.103 C 
HETATM    3  C7  UNL     1       4.132  -6.606  17.507  1.00  0.00    -0.065 C 
HETATM    4  C8  UNL     1       4.747  -7.771  17.528  1.00  0.00     0.016 C 
HETATM    5  C9  UNL     1       3.207  -5.815  16.674  1.00  0.00     0.008 C 
HETATM    6  C10 UNL     1       1.983  -6.635  16.245  1.00  0.00     0.023 C 
HETATM    7  C11 UNL     1       3.797  -5.126  15.519  1.00  0.00     0.021 C 
HETATM    8  C12 UNL     1       5.244  -4.804  15.582  1.00  0.00     0.039 C 
HETATM    9  C13 UNL     1       5.710  -4.326  16.895  1.00  0.00    -0.036 A 
HETATM   10  C14 UNL     1       5.287  -4.574  18.120  1.00  0.00     0.070 A 
HETATM   11  O4  UNL     1       6.020  -3.907  19.072  1.00  0.00    -0.282 OA
HETATM   12  C15 UNL     1       7.014  -3.151  18.464  1.00  0.00     0.271 A 
HETATM   13  O5  UNL     1       7.878  -2.411  18.978  1.00  0.00    -0.264 OA
HETATM   14  C16 UNL     1       6.870  -3.380  17.017  1.00  0.00     0.113 A 
HETATM   15  C17 UNL     1       8.090  -4.010  16.401  1.00  0.00     0.025 C 
ENDROOT
BRANCH   1  16
HETATM   16  O3  UNL     1       2.773  -3.600  17.659  1.00  0.00    -0.310 OA
BRANCH  16  17
HETATM   17  C4  UNL     1       2.048  -2.828  18.573  1.00  0.00     0.291 C 
HETATM   18  O2  UNL     1       1.205  -1.997  18.090  1.00  0.00    -0.260 OA
BRANCH  17  19
HETATM   19  C2  UNL     1       2.228  -2.947  20.002  1.00  0.00     0.031 C 
HETATM   20  C1  UNL     1       1.304  -3.520  20.729  1.00  0.00     0.027 C 
BRANCH  19  21
HETATM   21  C3  UNL     1       3.447  -2.427  20.636  1.00  0.00     0.208 C 
BRANCH  21  22
HETATM   22  O1  UNL     1       4.066  -1.569  19.729  1.00  0.00    -0.396 OA
ATOM     23  H1  UNL     1       4.949  -1.408  20.038  1.00  0.00     0.209 HD
ENDBRANCH  21  22
ENDBRANCH  19  21
ENDBRANCH  17  19
ENDBRANCH  16  17
ENDBRANCH   1  16
TORSDOF 5
ENDMDL
MODEL 2
REMARK VINA RESULT: -6.773058415      1.834      4.724
REMARK  5 active torsions:
REMARK  status: ('A' for Active; 'I' for Inactive)
REMARK    1  A    between atoms: C2_2  and  C3_3 
REMARK    2  A    between atoms: C2_2  and  C4_6 
REMARK    3  A    between atoms: C3_3  and  O1_4 
REMARK    4  A    between atoms: C4_6  and  O3_8 
REMARK    5  A    between atoms: O3_8  and  C5_9 
ROOT
HETATM    1  C5  UNL     1       4.707  -4.871  16.339  1.00  0.00     0.159 C 
HETATM    2  C6  UNL     1       3.753  -5.181  15.203  1.00  0.00     0.103 C 
HETATM    3  C7  UNL     1       4.680  -6.279  14.784  1.00  0.00    -0.065 C 
HETATM    4  C8  UNL     1       4.804  -6.917  13.638  1.00  0.00     0.016 C 
HETATM    5  C9  UNL     1       5.259  -6.237  16.139  1.00  0.00     0.008 C 
HETATM    6  C10 UNL     1       6.793  -6.173  16.102  1.00  0.00     0.023 C 
HETATM    7  C11 UNL     1       4.809  -7.276  17.074  1.00  0.00     0.021 C 
HETATM    8  C12 UNL     1       3.483  -7.892  16.822  1.00  0.00     0.039 C 
HETATM    9  C13 UNL     1       2.437  -6.947  16.394  1.00  0.00    -0.036 A 
HETATM   10  C14 UNL     1       2.503  -5.813  15.722  1.00  0.00     0.070 A 
HETATM   11  O4  UNL     1       1.265  -5.243  15.537  1.00  0.00    -0.282 OA
HETATM   12  C15 UNL     1       0.285  -6.036  16.118  1.00  0.00     0.271 A 
HETATM   13  O5  UNL     1      -0.952  -5.865  16.167  1.00  0.00    -0.264 OA
HETATM   14  C16 UNL     1       0.989  -7.187  16.707  1.00  0.00     0.113 A 
HETATM   15  C17 UNL     1       0.564  -8.500  16.107  1.00  0.00     0.025 C 
ENDROOT
BRANCH   1  16
HETATM   16  O3  UNL     1       4.112  -4.586  17.562  1.00  0.00    -0.310 OA
BRANCH  16  17
HETATM   17  C4  UNL     1       4.781  -3.762  18.472  1.00  0.00     0.291 C 
HETATM   18  O2  UNL     1       6.039  -3.611  18.302  1.00  0.00    -0.260 OA
BRANCH  17  19
HETATM   19  C2  UNL     1       4.102  -3.101  19.562  1.00  0.00     0.031 C 
HETATM   20  C1  UNL     1       2.840  -3.355  19.794  1.00  0.00     0.027 C 
BRANCH  19  21
HETATM   21  C3  UNL     1       4.828  -2.145  20.410  1.00  0.00     0.208 C 
BRANCH  21  22
HETATM   22  O1  UNL     1       5.172  -1.050  19.619  1.00  0.00    -0.396 OA
ATOM     23  H1  UNL     1       5.163  -0.278  20.172  1.00  0.00     0.209 HD
ENDBRANCH  21  22
ENDBRANCH  19  21
ENDBRANCH  17  19
ENDBRANCH  16  17
ENDBRANCH   1  16
TORSDOF 5
ENDMDL
MODEL 3
REMARK VINA RESULT: -6.685348443      1.091      1.795
REMARK  5 active torsions:
REMARK  status: ('A' for Active; 'I' for Inactive)
REMARK    1  A    between atoms: C2_2  and  C3_3 
REMARK    2  A    between atoms: C2_2  and  C4_6 
REMARK    3  A    between atoms: C3_3  and  O1_4 
REMARK    4  A    between atoms: C4_6  and  O3_8 
REMARK    5  A    between atoms: O3_8  and  C5_9 
ROOT
HETATM    1  C5  UNL     1       2.840  -5.178  17.958  1.00  0.00     0.159 C 
HETATM    2  C6  UNL     1       4.175  -5.616  18.525  1.00  0.00     0.103 C 
HETATM    3  C7  UNL     1       4.197  -6.713  17.508  1.00  0.00    -0.065 C 
HETATM    4  C8  UNL     1       4.882  -7.838  17.460  1.00  0.00     0.016 C 
HETATM    5  C9  UNL     1       3.198  -5.948  16.737  1.00  0.00     0.008 C 
HETATM    6  C10 UNL     1       2.012  -6.825  16.314  1.00  0.00     0.023 C 
HETATM    7  C11 UNL     1       3.706  -5.180  15.594  1.00  0.00     0.021 C 
HETATM    8  C12 UNL     1       5.132  -4.771  15.625  1.00  0.00     0.039 C 
HETATM    9  C13 UNL     1       5.613  -4.317  16.941  1.00  0.00    -0.036 A 
HETATM   10  C14 UNL     1       5.247  -4.639  18.168  1.00  0.00     0.070 A 
HETATM   11  O4  UNL     1       5.971  -3.967  19.123  1.00  0.00    -0.282 OA
HETATM   12  C15 UNL     1       6.895  -3.127  18.516  1.00  0.00     0.271 A 
HETATM   13  O5  UNL     1       7.731  -2.356  19.033  1.00  0.00    -0.264 OA
HETATM   14  C16 UNL     1       6.716  -3.307  17.066  1.00  0.00     0.113 A 
HETATM   15  C17 UNL     1       7.951  -3.836  16.386  1.00  0.00     0.025 C 
ENDROOT
BRANCH   1  16
HETATM   16  O3  UNL     1       2.665  -3.806  17.828  1.00  0.00    -0.310 OA
BRANCH  16  17
HETATM   17  C4  UNL     1       1.498  -3.216  18.324  1.00  0.00     0.291 C 
HETATM   18  O2  UNL     1       1.400  -1.945  18.219  1.00  0.00    -0.260 OA
BRANCH  17  19
HETATM   19  C2  UNL     1       0.438  -3.988  18.932  1.00  0.00     0.031 C 
HETATM   20  C1  UNL     1       0.372  -4.091  20.233  1.00  0.00     0.027 C 
BRANCH  19  21
HETATM   21  C3  UNL     1      -0.564  -4.653  18.088  1.00  0.00     0.208 C 
BRANCH  21  22
HETATM   22  O1  UNL     1      -0.343  -4.257  16.770  1.00  0.00    -0.396 OA
ATOM     23  H1  UNL     1       0.592  -4.301  16.607  1.00  0.00     0.209 HD
ENDBRANCH  21  22
ENDBRANCH  19  21
ENDBRANCH  17  19
ENDBRANCH  16  17
ENDBRANCH   1  16
TORSDOF 5
ENDMDL
MODEL 4
REMARK VINA RESULT: -6.608171663      2.705      4.642
REMARK  5 active torsions:
REMARK  status: ('A' for Active; 'I' for Inactive)
REMARK    1  A    between atoms: C2_2  and  C3_3 
REMARK    2  A    between atoms: C2_2  and  C4_6 
REMARK    3  A    between atoms: C3_3  and  O1_4 
REMARK    4  A    between atoms: C4_6  and  O3_8 
REMARK    5  A    between atoms: O3_8  and  C5_9 
ROOT
HETATM    1  C5  UNL     1       2.313  -6.653  15.792  1.00  0.00     0.159 C 
HETATM    2  C6  UNL     1       2.604  -6.916  17.256  1.00  0.00     0.103 C 
HETATM    3  C7  UNL     1       4.028  -7.181  16.879  1.00  0.00    -0.065 C 
HETATM    4  C8  UNL     1       4.989  -7.818  17.516  1.00  0.00     0.016 C 
HETATM    5  C9  UNL     1       3.776  -6.453  15.621  1.00  0.00     0.008 C 
HETATM    6  C10 UNL     1       4.265  -7.242  14.398  1.00  0.00     0.023 C 
HETATM    7  C11 UNL     1       4.252  -5.066  15.564  1.00  0.00     0.021 C 
HETATM    8  C12 UNL     1       4.413  -4.345  16.851  1.00  0.00     0.039 C 
HETATM    9  C13 UNL     1       3.344  -4.595  17.833  1.00  0.00    -0.036 A 
HETATM   10  C14 UNL     1       2.569  -5.644  18.038  1.00  0.00     0.070 A 
HETATM   11  O4  UNL     1       1.690  -5.449  19.077  1.00  0.00    -0.282 OA
HETATM   12  C15 UNL     1       1.872  -4.186  19.623  1.00  0.00     0.271 A 
HETATM   13  O5  UNL     1       1.275  -3.635  20.573  1.00  0.00    -0.264 OA
HETATM   14  C16 UNL     1       2.955  -3.559  18.848  1.00  0.00     0.113 A 
HETATM   15  C17 UNL     1       4.155  -3.218  19.691  1.00  0.00     0.025 C 
ENDROOT
BRANCH   1  16
HETATM   16  O3  UNL     1       1.478  -5.575  15.531  1.00  0.00    -0.310 OA
BRANCH  16  17
HETATM   17  C4  UNL     1       0.152  -5.813  15.152  1.00  0.00     0.291 C 
HETATM   18  O2  UNL     1      -0.060  -6.075  13.919  1.00  0.00    -0.260 OA
BRANCH  17  19
HETATM   19  C2  UNL     1      -0.942  -5.769  16.094  1.00  0.00     0.031 C 
HETATM   20  C1  UNL     1      -0.950  -4.868  17.042  1.00  0.00     0.027 C 
BRANCH  19  21
HETATM   21  C3  UNL     1      -2.046  -6.733  15.986  1.00  0.00     0.208 C 
BRANCH  21  22
HETATM   22  O1  UNL     1      -2.819  -6.373  14.883  1.00  0.00    -0.396 OA
ATOM     23  H1  UNL     1      -2.492  -6.851  14.131  1.00  0.00     0.209 HD
ENDBRANCH  21  22
ENDBRANCH  19  21
ENDBRANCH  17  19
ENDBRANCH  16  17
ENDBRANCH   1  16
TORSDOF 5
ENDMDL
MODEL 5
REMARK VINA RESULT: -6.486906400      1.999      4.999
REMARK  5 active torsions:
REMARK  status: ('A' for Active; 'I' for Inactive)
REMARK    1  A    between atoms: C2_2  and  C3_3 
REMARK    2  A    between atoms: C2_2  and  C4_6 
REMARK    3  A    between atoms: C3_3  and  O1_4 
REMARK    4  A    between atoms: C4_6  and  O3_8 
REMARK    5  A    between atoms: O3_8  and  C5_9 
ROOT
HETATM    1  C5  UNL     1       4.180  -5.080  16.400  1.00  0.00     0.159 C 
HETATM    2  C6  UNL     1       3.376  -5.277  15.131  1.00  0.00     0.103 C 
HETATM    3  C7  UNL     1       4.340  -6.354  14.741  1.00  0.00    -0.065 C 
HETATM    4  C8  UNL     1       4.605  -6.898  13.571  1.00  0.00     0.016 C 
HETATM    5  C9  UNL     1       4.742  -6.435  16.158  1.00  0.00     0.008 C 
HETATM    6  C10 UNL     1       6.269  -6.396  16.320  1.00  0.00     0.023 C 
HETATM    7  C11 UNL     1       4.168  -7.539  16.937  1.00  0.00     0.021 C 
HETATM    8  C12 UNL     1       2.880  -8.107  16.469  1.00  0.00     0.039 C 
HETATM    9  C13 UNL     1       1.905  -7.110  15.993  1.00  0.00    -0.036 A 
HETATM   10  C14 UNL     1       2.065  -5.926  15.433  1.00  0.00     0.070 A 
HETATM   11  O4  UNL     1       0.866  -5.320  15.141  1.00  0.00    -0.282 OA
HETATM   12  C15 UNL     1      -0.187  -6.140  15.525  1.00  0.00     0.271 A 
HETATM   13  O5  UNL     1      -1.418  -5.951  15.431  1.00  0.00    -0.264 OA
HETATM   14  C16 UNL     1       0.427  -7.348  16.099  1.00  0.00     0.113 A 
HETATM   15  C17 UNL     1       0.071  -8.600  15.342  1.00  0.00     0.025 C 
ENDROOT
BRANCH   1  16
HETATM   16  O3  UNL     1       3.436  -4.886  17.557  1.00  0.00    -0.310 OA
BRANCH  16  17
HETATM   17  C4  UNL     1       3.900  -3.990  18.526  1.00  0.00     0.291 C 
HETATM   18  O2  UNL     1       5.139  -4.060  18.835  1.00  0.00    -0.260 OA
BRANCH  17  19
HETATM   19  C2  UNL     1       3.037  -3.022  19.163  1.00  0.00     0.031 C 
HETATM   20  C1  UNL     1       3.498  -2.279  20.135  1.00  0.00     0.027 C 
BRANCH  19  21
HETATM   21  C3  UNL     1       1.645  -2.872  18.717  1.00  0.00     0.208 C 
BRANCH  21  22
HETATM   22  O1  UNL     1       1.462  -1.544  18.334  1.00  0.00    -0.396 OA
ATOM     23  H1  UNL     1       1.912  -1.415  17.508  1.00  0.00     0.209 HD
ENDBRANCH  21  22
ENDBRANCH  19  21
ENDBRANCH  17  19
ENDBRANCH  16  17
ENDBRANCH   1  16
TORSDOF 5
ENDMDL
