MODEL 1
REMARK VINA RESULT: -8.828347785      0.000      0.000
REMARK  6 active torsions:
REMARK  status: ('A' for Active; 'I' for Inactive)
REMARK    1  A    between atoms: C1_2  and  C2_3 
REMARK       I    between atoms: C1_2  and  N4_24 
REMARK    2  A    between atoms: C2_3  and  N1_4 
REMARK    3  A    between atoms: C4_6  and  C5_7 
REMARK       I    between atoms: C5_7  and  N2_9 
REMARK    4  A    between atoms: N2_9  and  C6_11 
REMARK    5  A    between atoms: C12_17  and  N3_18 
REMARK    6  A    between atoms: N4_24  and  C18_26 
ROOT
HETATM    1  N1  UNL     1       6.167  -7.933  13.630  1.00  0.00    -0.383 N 
HETATM    2  C3  UNL     1       5.263  -8.451  12.677  1.00  0.00     0.136 C 
HETATM    3  C4  UNL     1       4.000  -7.636  12.516  1.00  0.00     0.098 C 
HETATM    4  C11 UNL     1       3.573  -7.038  13.869  1.00  0.00     0.053 C 
HETATM    5  C12 UNL     1       4.118  -7.933  14.936  1.00  0.00     0.241 C 
HETATM    6  C17 UNL     1       5.645  -7.704  14.930  1.00  0.00     0.158 C 
ENDROOT
BRANCH   1   7
HETATM    7  C2  UNL     1       7.543  -8.050  13.432  1.00  0.00     0.160 C 
BRANCH   7   8
HETATM    8  C1  UNL     1       8.378  -7.203  14.309  1.00  0.00     0.256 C 
HETATM    9  O1  UNL     1       9.641  -7.341  14.195  1.00  0.00    -0.267 OA
HETATM   10  N4  UNL     1       7.896  -6.273  15.240  1.00  0.00    -0.352 N 
ATOM     11  H4  UNL     1       6.887  -6.158  15.339  1.00  0.00     0.163 HD
BRANCH  10  12
HETATM   12  C18 UNL     1       8.769  -5.473  16.063  1.00  0.00     0.084 C 
HETATM   13  C19 UNL     1       8.980  -4.113  15.504  1.00  0.00     0.025 C 
HETATM   14  C20 UNL     1       9.041  -3.126  16.675  1.00  0.00     0.002 C 
HETATM   15  C21 UNL     1       7.622  -3.091  17.252  1.00  0.00     0.000 C 
HETATM   16  C22 UNL     1       7.301  -4.446  17.845  1.00  0.00     0.002 C 
HETATM   17  C23 UNL     1       8.322  -5.483  17.509  1.00  0.00     0.025 C 
ENDBRANCH  10  12
ENDBRANCH   7   8
ENDBRANCH   1   7
BRANCH   3  18
HETATM   18  C5  UNL     1       2.923  -8.582  12.129  1.00  0.00     0.223 C 
HETATM   19  O2  UNL     1       1.726  -8.432  12.488  1.00  0.00    -0.273 OA
HETATM   20  N2  UNL     1       3.210  -9.720  11.314  1.00  0.00    -0.356 N 
ATOM     21  H2  UNL     1       4.172  -9.873  11.011  1.00  0.00     0.162 HD
BRANCH  20  22
HETATM   22  C6  UNL     1       2.200 -10.661  10.903  1.00  0.00     0.084 C 
HETATM   23  C7  UNL     1       2.201 -10.997   9.453  1.00  0.00     0.025 C 
HETATM   24  C8  UNL     1       2.885 -12.344   9.316  1.00  0.00     0.002 C 
HETATM   25  C9  UNL     1       3.121 -12.881  10.694  1.00  0.00     0.002 C 
HETATM   26  C10 UNL     1       2.371 -11.989  11.627  1.00  0.00     0.025 C 
ENDBRANCH  20  22
ENDBRANCH   3  18
BRANCH   5  27
HETATM   27  N3  UNL     1       3.670  -7.689  16.262  1.00  0.00     0.094 N 
HETATM   28  C13 UNL     1       4.459  -6.763  17.006  1.00  0.00     0.273 C 
HETATM   29  C14 UNL     1       3.693  -5.447  17.045  1.00  0.00     0.032 C 
HETATM   30  C15 UNL     1       2.260  -5.964  17.124  1.00  0.00     0.032 C 
HETATM   31  C16 UNL     1       2.324  -7.130  16.167  1.00  0.00     0.273 C 
ENDBRANCH   5  27
TORSDOF 6
ENDMDL
MODEL 2
REMARK VINA RESULT: -8.685931127      1.628      4.813
REMARK  6 active torsions:
REMARK  status: ('A' for Active; 'I' for Inactive)
REMARK    1  A    between atoms: C1_2  and  C2_3 
REMARK       I    between atoms: C1_2  and  N4_24 
REMARK    2  A    between atoms: C2_3  and  N1_4 
REMARK    3  A    between atoms: C4_6  and  C5_7 
REMARK       I    between atoms: C5_7  and  N2_9 
REMARK    4  A    between atoms: N2_9  and  C6_11 
REMARK    5  A    between atoms: C12_17  and  N3_18 
REMARK    6  A    between atoms: N4_24  and  C18_26 
ROOT
HETATM    1  N1  UNL     1       6.218  -7.841  13.727  1.00  0.00    -0.383 N 
HETATM    2  C3  UNL     1       5.698  -7.227  14.888  1.00  0.00     0.136 C 
HETATM    3  C4  UNL     1       4.576  -7.996  15.545  1.00  0.00     0.098 C 
HETATM    4  C11 UNL     1       3.709  -8.692  14.481  1.00  0.00     0.053 C 
HETATM    5  C12 UNL     1       3.842  -7.899  13.220  1.00  0.00     0.241 C 
HETATM    6  C17 UNL     1       5.278  -8.162  12.714  1.00  0.00     0.158 C 
ENDROOT
BRANCH   1   7
HETATM    7  C2  UNL     1       7.575  -7.740  13.424  1.00  0.00     0.160 C 
BRANCH   7   8
HETATM    8  C1  UNL     1       8.376  -6.951  14.385  1.00  0.00     0.256 C 
HETATM    9  O1  UNL     1       9.619  -7.230  14.450  1.00  0.00    -0.267 OA
HETATM   10  N4  UNL     1       7.881  -5.935  15.213  1.00  0.00    -0.352 N 
ATOM     11  H4  UNL     1       6.888  -5.707  15.168  1.00  0.00     0.163 HD
BRANCH  10  12
HETATM   12  C18 UNL     1       8.721  -5.199  16.127  1.00  0.00     0.084 C 
HETATM   13  C19 UNL     1       8.953  -3.803  15.678  1.00  0.00     0.025 C 
HETATM   14  C20 UNL     1       8.966  -2.904  16.919  1.00  0.00     0.002 C 
HETATM   15  C21 UNL     1       7.526  -2.908  17.440  1.00  0.00     0.000 C 
HETATM   16  C22 UNL     1       7.182  -4.302  17.920  1.00  0.00     0.002 C 
HETATM   17  C23 UNL     1       8.217  -5.314  17.549  1.00  0.00     0.025 C 
ENDBRANCH  10  12
ENDBRANCH   7   8
ENDBRANCH   1   7
BRANCH   3  18
HETATM   18  C5  UNL     1       3.695  -6.998  16.202  1.00  0.00     0.223 C 
HETATM   19  O2  UNL     1       4.122  -5.898  16.638  1.00  0.00    -0.273 OA
HETATM   20  N2  UNL     1       2.299  -7.255  16.367  1.00  0.00    -0.356 N 
ATOM     21  H2  UNL     1       1.922  -8.141  16.030  1.00  0.00     0.162 HD
BRANCH  20  22
HETATM   22  C6  UNL     1       1.400  -6.316  16.989  1.00  0.00     0.084 C 
HETATM   23  C7  UNL     1       0.543  -5.543  16.049  1.00  0.00     0.025 C 
HETATM   24  C8  UNL     1      -0.826  -6.193  16.069  1.00  0.00     0.002 C 
HETATM   25  C9  UNL     1      -0.827  -7.229  17.150  1.00  0.00     0.002 C 
HETATM   26  C10 UNL     1       0.435  -7.030  17.924  1.00  0.00     0.025 C 
ENDBRANCH  20  22
ENDBRANCH   3  18
BRANCH   5  27
HETATM   27  N3  UNL     1       2.962  -8.240  12.157  1.00  0.00     0.094 N 
HETATM   28  C13 UNL     1       3.492  -9.157  11.203  1.00  0.00     0.273 C 
HETATM   29  C14 UNL     1       2.864 -10.515  11.485  1.00  0.00     0.032 C 
HETATM   30  C15 UNL     1       1.466 -10.087  11.921  1.00  0.00     0.032 C 
HETATM   31  C16 UNL     1       1.788  -8.870  12.755  1.00  0.00     0.273 C 
ENDBRANCH   5  27
TORSDOF 6
ENDMDL
MODEL 3
REMARK VINA RESULT: -8.672888511      2.835      6.380
REMARK  6 active torsions:
REMARK  status: ('A' for Active; 'I' for Inactive)
REMARK    1  A    between atoms: C1_2  and  C2_3 
REMARK       I    between atoms: C1_2  and  N4_24 
REMARK    2  A    between atoms: C2_3  and  N1_4 
REMARK    3  A    between atoms: C4_6  and  C5_7 
REMARK       I    between atoms: C5_7  and  N2_9 
REMARK    4  A    between atoms: N2_9  and  C6_11 
REMARK    5  A    between atoms: C12_17  and  N3_18 
REMARK    6  A    between atoms: N4_24  and  C18_26 
ROOT
HETATM    1  N1  UNL     1       4.767  -5.869  17.332  1.00  0.00    -0.383 N 
HETATM    2  C3  UNL     1       3.848  -6.637  16.583  1.00  0.00     0.136 C 
HETATM    3  C4  UNL     1       4.445  -7.877  15.957  1.00  0.00     0.098 C 
HETATM    4  C11 UNL     1       5.897  -7.611  15.523  1.00  0.00     0.053 C 
HETATM    5  C12 UNL     1       6.016  -6.142  15.266  1.00  0.00     0.241 C 
HETATM    6  C17 UNL     1       5.949  -5.472  16.656  1.00  0.00     0.158 C 
ENDROOT
BRANCH   1   7
HETATM    7  C2  UNL     1       4.350  -5.196  18.481  1.00  0.00     0.160 C 
BRANCH   7   8
HETATM    8  C1  UNL     1       2.913  -4.853  18.522  1.00  0.00     0.256 C 
HETATM    9  O1  UNL     1       2.609  -3.749  19.084  1.00  0.00    -0.267 OA
HETATM   10  N4  UNL     1       1.876  -5.636  17.996  1.00  0.00    -0.352 N 
ATOM     11  H4  UNL     1       2.110  -6.521  17.547  1.00  0.00     0.163 HD
BRANCH  10  12
HETATM   12  C18 UNL     1       0.491  -5.239  18.066  1.00  0.00     0.084 C 
HETATM   13  C19 UNL     1      -0.206  -5.394  16.763  1.00  0.00     0.025 C 
HETATM   14  C20 UNL     1      -1.633  -5.874  17.047  1.00  0.00     0.002 C 
HETATM   15  C21 UNL     1      -1.485  -7.303  17.578  1.00  0.00     0.000 C 
HETATM   16  C22 UNL     1      -0.772  -7.257  18.913  1.00  0.00     0.002 C 
HETATM   17  C23 UNL     1      -0.215  -5.908  19.226  1.00  0.00     0.025 C 
ENDBRANCH  10  12
ENDBRANCH   7   8
ENDBRANCH   1   7
BRANCH   3  18
HETATM   18  C5  UNL     1       3.685  -8.138  14.709  1.00  0.00     0.223 C 
HETATM   19  O2  UNL     1       4.242  -8.489  13.636  1.00  0.00    -0.273 OA
HETATM   20  N2  UNL     1       2.263  -8.001  14.678  1.00  0.00    -0.356 N 
ATOM     21  H2  UNL     1       1.782  -7.712  15.530  1.00  0.00     0.162 HD
BRANCH  20  22
HETATM   22  C6  UNL     1       1.480  -8.252  13.496  1.00  0.00     0.084 C 
HETATM   23  C7  UNL     1       0.930  -9.630  13.382  1.00  0.00     0.025 C 
HETATM   24  C8  UNL     1      -0.527  -9.556  13.796  1.00  0.00     0.002 C 
HETATM   25  C9  UNL     1      -0.880  -8.113  13.977  1.00  0.00     0.002 C 
HETATM   26  C10 UNL     1       0.272  -7.328  13.441  1.00  0.00     0.025 C 
ENDBRANCH  20  22
ENDBRANCH   3  18
BRANCH   5  27
HETATM   27  N3  UNL     1       7.219  -5.698  14.653  1.00  0.00     0.094 N 
HETATM   28  C13 UNL     1       8.126  -5.020  15.519  1.00  0.00     0.273 C 
HETATM   29  C14 UNL     1       9.249  -5.994  15.849  1.00  0.00     0.032 C 
HETATM   30  C15 UNL     1       9.364  -6.741  14.524  1.00  0.00     0.032 C 
HETATM   31  C16 UNL     1       7.909  -6.883  14.149  1.00  0.00     0.273 C 
ENDBRANCH   5  27
TORSDOF 6
ENDMDL
MODEL 4
REMARK VINA RESULT: -8.623258439      1.717      5.709
REMARK  6 active torsions:
REMARK  status: ('A' for Active; 'I' for Inactive)
REMARK    1  A    between atoms: C1_2  and  C2_3 
REMARK       I    between atoms: C1_2  and  N4_24 
REMARK    2  A    between atoms: C2_3  and  N1_4 
REMARK    3  A    between atoms: C4_6  and  C5_7 
REMARK       I    between atoms: C5_7  and  N2_9 
REMARK    4  A    between atoms: N2_9  and  C6_11 
REMARK    5  A    between atoms: C12_17  and  N3_18 
REMARK    6  A    between atoms: N4_24  and  C18_26 
ROOT
HETATM    1  N1  UNL     1       4.830  -7.250  13.316  1.00  0.00    -0.383 N 
HETATM    2  C3  UNL     1       4.144  -6.556  14.336  1.00  0.00     0.136 C 
HETATM    3  C4  UNL     1       3.304  -7.440  15.229  1.00  0.00     0.098 C 
HETATM    4  C11 UNL     1       2.694  -8.595  14.416  1.00  0.00     0.053 C 
HETATM    5  C12 UNL     1       2.586  -8.127  13.000  1.00  0.00     0.241 C 
HETATM    6  C17 UNL     1       4.037  -8.069  12.472  1.00  0.00     0.158 C 
ENDROOT
BRANCH   1   7
HETATM    7  C2  UNL     1       6.095  -6.829  12.906  1.00  0.00     0.160 C 
BRANCH   7   8
HETATM    8  C1  UNL     1       7.043  -6.529  14.000  1.00  0.00     0.256 C 
HETATM    9  O1  UNL     1       7.960  -7.392  14.208  1.00  0.00    -0.267 OA
HETATM   10  N4  UNL     1       7.012  -5.388  14.811  1.00  0.00    -0.352 N 
ATOM     11  H4  UNL     1       6.281  -4.694  14.653  1.00  0.00     0.163 HD
BRANCH  10  12
HETATM   12  C18 UNL     1       7.973  -5.154  15.861  1.00  0.00     0.084 C 
HETATM   13  C19 UNL     1       8.665  -3.848  15.712  1.00  0.00     0.025 C 
HETATM   14  C20 UNL     1       8.872  -3.261  17.112  1.00  0.00     0.002 C 
HETATM   15  C21 UNL     1       7.469  -2.901  17.614  1.00  0.00     0.000 C 
HETATM   16  C22 UNL     1       6.672  -4.175  17.793  1.00  0.00     0.002 C 
HETATM   17  C23 UNL     1       7.359  -5.374  17.227  1.00  0.00     0.025 C 
ENDBRANCH  10  12
ENDBRANCH   7   8
ENDBRANCH   1   7
BRANCH   3  18
HETATM   18  C5  UNL     1       2.159  -6.618  15.697  1.00  0.00     0.223 C 
HETATM   19  O2  UNL     1       1.184  -6.328  14.956  1.00  0.00    -0.273 OA
HETATM   20  N2  UNL     1       2.119  -6.117  17.034  1.00  0.00    -0.356 N 
ATOM     21  H2  UNL     1       2.897  -6.330  17.659  1.00  0.00     0.162 HD
BRANCH  20  22
HETATM   22  C6  UNL     1       1.028  -5.324  17.539  1.00  0.00     0.084 C 
HETATM   23  C7  UNL     1       0.339  -5.884  18.733  1.00  0.00     0.025 C 
HETATM   24  C8  UNL     1       0.865  -5.128  19.938  1.00  0.00     0.002 C 
HETATM   25  C9  UNL     1       1.722  -4.007  19.437  1.00  0.00     0.002 C 
HETATM   26  C10 UNL     1       1.511  -3.944  17.960  1.00  0.00     0.025 C 
ENDBRANCH  20  22
ENDBRANCH   3  18
BRANCH   5  27
HETATM   27  N3  UNL     1       1.856  -8.957  12.108  1.00  0.00     0.094 N 
HETATM   28  C13 UNL     1       2.648  -9.845  11.321  1.00  0.00     0.273 C 
HETATM   29  C14 UNL     1       2.507 -11.234  11.929  1.00  0.00     0.032 C 
HETATM   30  C15 UNL     1       1.051 -11.190  12.383  1.00  0.00     0.032 C 
HETATM   31  C16 UNL     1       0.963  -9.781  12.919  1.00  0.00     0.273 C 
ENDBRANCH   5  27
TORSDOF 6
ENDMDL
MODEL 5
REMARK VINA RESULT: -8.610807938      3.180      6.596
REMARK  6 active torsions:
REMARK  status: ('A' for Active; 'I' for Inactive)
REMARK    1  A    between atoms: C1_2  and  C2_3 
REMARK       I    between atoms: C1_2  and  N4_24 
REMARK    2  A    between atoms: C2_3  and  N1_4 
REMARK    3  A    between atoms: C4_6  and  C5_7 
REMARK       I    between atoms: C5_7  and  N2_9 
REMARK    4  A    between atoms: N2_9  and  C6_11 
REMARK    5  A    between atoms: C12_17  and  N3_18 
REMARK    6  A    between atoms: N4_24  and  C18_26 
ROOT
HETATM    1  N1  UNL     1       4.496  -5.784  17.496  1.00  0.00    -0.383 N 
HETATM    2  C3  UNL     1       3.575  -6.516  16.714  1.00  0.00     0.136 C 
HETATM    3  C4  UNL     1       4.164  -7.735  16.043  1.00  0.00     0.098 C 
HETATM    4  C11 UNL     1       5.620  -7.464  15.626  1.00  0.00     0.053 C 
HETATM    5  C12 UNL     1       5.753  -5.988  15.426  1.00  0.00     0.241 C 
HETATM    6  C17 UNL     1       5.685  -5.372  16.841  1.00  0.00     0.158 C 
ENDROOT
BRANCH   1   7
HETATM    7  C2  UNL     1       4.080  -5.154  18.668  1.00  0.00     0.160 C 
BRANCH   7   8
HETATM    8  C1  UNL     1       2.657  -4.753  18.695  1.00  0.00     0.256 C 
HETATM    9  O1  UNL     1       2.346  -3.720  18.014  1.00  0.00    -0.267 OA
HETATM   10  N4  UNL     1       1.641  -5.413  19.397  1.00  0.00    -0.352 N 
ATOM     11  H4  UNL     1       1.881  -6.239  19.945  1.00  0.00     0.163 HD
BRANCH  10  12
HETATM   12  C18 UNL     1       0.267  -4.970  19.376  1.00  0.00     0.084 C 
HETATM   13  C19 UNL     1      -0.620  -5.922  18.660  1.00  0.00     0.025 C 
HETATM   14  C20 UNL     1      -1.961  -5.964  19.400  1.00  0.00     0.002 C 
HETATM   15  C21 UNL     1      -1.665  -6.646  20.740  1.00  0.00     0.000 C 
HETATM   16  C22 UNL     1      -0.752  -5.753  21.552  1.00  0.00     0.002 C 
HETATM   17  C23 UNL     1      -0.213  -4.605  20.764  1.00  0.00     0.025 C 
ENDBRANCH  10  12
ENDBRANCH   7   8
ENDBRANCH   1   7
BRANCH   3  18
HETATM   18  C5  UNL     1       3.408  -7.942  14.782  1.00  0.00     0.223 C 
HETATM   19  O2  UNL     1       3.974  -8.107  13.671  1.00  0.00    -0.273 OA
HETATM   20  N2  UNL     1       1.979  -7.964  14.784  1.00  0.00    -0.356 N 
ATOM     21  H2  UNL     1       1.490  -7.827  15.669  1.00  0.00     0.162 HD
BRANCH  20  22
HETATM   22  C6  UNL     1       1.200  -8.170  13.591  1.00  0.00     0.084 C 
HETATM   23  C7  UNL     1       0.763  -9.573  13.355  1.00  0.00     0.025 C 
HETATM   24  C8  UNL     1      -0.688  -9.658  13.787  1.00  0.00     0.002 C 
HETATM   25  C9  UNL     1      -1.155  -8.272  14.103  1.00  0.00     0.002 C 
HETATM   26  C10 UNL     1      -0.080  -7.349  13.632  1.00  0.00     0.025 C 
ENDBRANCH  20  22
ENDBRANCH   3  18
BRANCH   5  27
HETATM   27  N3  UNL     1       6.961  -5.531  14.836  1.00  0.00     0.094 N 
HETATM   28  C13 UNL     1       7.887  -4.930  15.738  1.00  0.00     0.273 C 
HETATM   29  C14 UNL     1       8.990  -5.947  15.997  1.00  0.00     0.032 C 
HETATM   30  C15 UNL     1       9.083  -6.608  14.626  1.00  0.00     0.032 C 
HETATM   31  C16 UNL     1       7.623  -6.695  14.252  1.00  0.00     0.273 C 
ENDBRANCH   5  27
TORSDOF 6
ENDMDL
