MODEL 1
REMARK VINA RESULT: -6.384314418      0.000      0.000
REMARK  4 active torsions:
REMARK  status: ('A' for Active; 'I' for Inactive)
REMARK    1  A    between atoms: C2_2  and  N1_3 
REMARK    2  A    between atoms: N1_3  and  C3_4 
REMARK       I    between atoms: N1_3  and  C5_6 
REMARK       I    between atoms: C5_6  and  N2_8 
REMARK    3  A    between atoms: N2_8  and  C6_10 
REMARK    4  A    between atoms: C6_10  and  C7_11 
ROOT
HETATM    1  N1  UNL     1       4.491 138.062 351.621  1.00  0.00    -0.335 N 
HETATM    2  C5  UNL     1       3.869 139.038 350.791  1.00  0.00     0.318 C 
HETATM    3  O1  UNL     1       3.255 138.653 349.752  1.00  0.00    -0.247 OA
HETATM    4  N2  UNL     1       3.916 140.425 351.092  1.00  0.00    -0.343 N 
ATOM      5  H2  UNL     1       4.407 140.747 351.926  1.00  0.00     0.164 HD
ENDROOT
BRANCH   4   6
HETATM    6  C6  UNL     1       3.272 141.381 350.225  1.00  0.00     0.129 C 
BRANCH   6   7
HETATM    7  C7  UNL     1       3.296 142.769 350.766  1.00  0.00     0.008 C 
HETATM    8  C8  UNL     1       2.873 143.820 349.794  1.00  0.00     0.011 C 
HETATM    9  C9  UNL     1       3.715 145.072 349.964  1.00  0.00    -0.014 C 
HETATM   10  C10 UNL     1       5.121 144.817 349.417  1.00  0.00     0.005 C 
HETATM   11  C14 UNL     1       3.914 145.397 351.448  1.00  0.00     0.005 C 
HETATM   12  C11 UNL     1       5.527 143.447 349.955  1.00  0.00     0.005 C 
HETATM   13  C12 UNL     1       4.727 143.080 351.189  1.00  0.00    -0.009 C 
HETATM   14  C13 UNL     1       4.634 144.269 352.134  1.00  0.00     0.005 C 
ENDBRANCH   6   7
ENDBRANCH   4   6
BRANCH   1  15
HETATM   15  C2  UNL     1       5.209 138.427 352.825  1.00  0.00     0.123 C 
HETATM   16  C1  UNL     1       6.219 139.520 352.479  1.00  0.00     0.026 C 
ENDBRANCH   1  15
BRANCH   1  17
HETATM   17  C3  UNL     1       4.418 136.658 351.269  1.00  0.00     0.123 C 
HETATM   18  C4  UNL     1       4.826 135.820 352.470  1.00  0.00     0.026 C 
ENDBRANCH   1  17
TORSDOF 4
ENDMDL
MODEL 2
REMARK VINA RESULT: -6.333660093      1.673      5.903
REMARK  4 active torsions:
REMARK  status: ('A' for Active; 'I' for Inactive)
REMARK    1  A    between atoms: C2_2  and  N1_3 
REMARK    2  A    between atoms: N1_3  and  C3_4 
REMARK       I    between atoms: N1_3  and  C5_6 
REMARK       I    between atoms: C5_6  and  N2_8 
REMARK    3  A    between atoms: N2_8  and  C6_10 
REMARK    4  A    between atoms: C6_10  and  C7_11 
ROOT
HETATM    1  N1  UNL     1       4.958 143.048 349.979  1.00  0.00    -0.335 N 
HETATM    2  C5  UNL     1       4.873 141.710 349.498  1.00  0.00     0.318 C 
HETATM    3  O1  UNL     1       5.767 141.289 348.705  1.00  0.00    -0.247 OA
HETATM    4  N2  UNL     1       3.820 140.836 349.879  1.00  0.00    -0.343 N 
ATOM      5  H2  UNL     1       3.095 141.164 350.517  1.00  0.00     0.164 HD
ENDROOT
BRANCH   4   6
HETATM    6  C6  UNL     1       3.771 139.488 349.368  1.00  0.00     0.129 C 
BRANCH   6   7
HETATM    7  C7  UNL     1       3.853 138.455 350.439  1.00  0.00     0.008 C 
HETATM    8  C8  UNL     1       3.341 138.899 351.768  1.00  0.00     0.011 C 
HETATM    9  C9  UNL     1       4.200 138.334 352.886  1.00  0.00    -0.014 C 
HETATM   10  C10 UNL     1       5.545 139.064 352.912  1.00  0.00     0.005 C 
HETATM   11  C14 UNL     1       4.545 136.866 352.618  1.00  0.00     0.005 C 
HETATM   12  C11 UNL     1       5.996 139.140 351.455  1.00  0.00     0.005 C 
HETATM   13  C12 UNL     1       5.320 138.078 350.611  1.00  0.00    -0.009 C 
HETATM   14  C13 UNL     1       5.325 136.741 351.339  1.00  0.00     0.005 C 
ENDBRANCH   6   7
ENDBRANCH   4   6
BRANCH   1  15
HETATM   15  C2  UNL     1       3.975 143.597 350.889  1.00  0.00     0.123 C 
HETATM   16  C1  UNL     1       4.403 143.279 352.321  1.00  0.00     0.026 C 
ENDBRANCH   1  15
BRANCH   1  17
HETATM   17  C3  UNL     1       6.051 143.902 349.559  1.00  0.00     0.123 C 
HETATM   18  C4  UNL     1       5.490 145.229 349.073  1.00  0.00     0.026 C 
ENDBRANCH   1  17
TORSDOF 4
ENDMDL
MODEL 3
REMARK VINA RESULT: -6.321659283      9.888     11.718
REMARK  4 active torsions:
REMARK  status: ('A' for Active; 'I' for Inactive)
REMARK    1  A    between atoms: C2_2  and  N1_3 
REMARK    2  A    between atoms: N1_3  and  C3_4 
REMARK       I    between atoms: N1_3  and  C5_6 
REMARK       I    between atoms: C5_6  and  N2_8 
REMARK    3  A    between atoms: N2_8  and  C6_10 
REMARK    4  A    between atoms: C6_10  and  C7_11 
ROOT
HETATM    1  N1  UNL     1      10.798 133.900 344.016  1.00  0.00    -0.335 N 
HETATM    2  C5  UNL     1       9.503 133.366 344.270  1.00  0.00     0.318 C 
HETATM    3  O1  UNL     1       9.302 132.740 345.354  1.00  0.00    -0.247 OA
HETATM    4  N2  UNL     1       8.430 133.514 343.350  1.00  0.00    -0.343 N 
ATOM      5  H2  UNL     1       8.579 134.016 342.475  1.00  0.00     0.164 HD
ENDROOT
BRANCH   4   6
HETATM    6  C6  UNL     1       7.133 132.957 343.646  1.00  0.00     0.129 C 
BRANCH   6   7
HETATM    7  C7  UNL     1       6.027 133.628 342.906  1.00  0.00     0.008 C 
HETATM    8  C8  UNL     1       6.009 135.114 343.034  1.00  0.00     0.011 C 
HETATM    9  C9  UNL     1       4.581 135.623 343.128  1.00  0.00    -0.014 C 
HETATM   10  C10 UNL     1       4.008 135.276 344.503  1.00  0.00     0.005 C 
HETATM   11  C14 UNL     1       3.678 134.902 342.123  1.00  0.00     0.005 C 
HETATM   12  C11 UNL     1       4.405 133.824 344.757  1.00  0.00     0.005 C 
HETATM   13  C12 UNL     1       4.709 133.100 343.461  1.00  0.00    -0.009 C 
HETATM   14  C13 UNL     1       3.655 133.426 342.412  1.00  0.00     0.005 C 
ENDBRANCH   6   7
ENDBRANCH   4   6
BRANCH   1  15
HETATM   15  C2  UNL     1      11.100 134.628 342.801  1.00  0.00     0.123 C 
HETATM   16  C1  UNL     1      11.572 133.635 341.740  1.00  0.00     0.026 C 
ENDBRANCH   1  15
BRANCH   1  17
HETATM   17  C3  UNL     1      11.860 133.720 344.986  1.00  0.00     0.123 C 
HETATM   18  C4  UNL     1      12.317 135.081 345.484  1.00  0.00     0.026 C 
ENDBRANCH   1  17
TORSDOF 4
ENDMDL
MODEL 4
REMARK VINA RESULT: -6.318540901      1.379      2.411
REMARK  4 active torsions:
REMARK  status: ('A' for Active; 'I' for Inactive)
REMARK    1  A    between atoms: C2_2  and  N1_3 
REMARK    2  A    between atoms: N1_3  and  C3_4 
REMARK       I    between atoms: N1_3  and  C5_6 
REMARK       I    between atoms: C5_6  and  N2_8 
REMARK    3  A    between atoms: N2_8  and  C6_10 
REMARK    4  A    between atoms: C6_10  and  C7_11 
ROOT
HETATM    1  N1  UNL     1       4.668 138.544 351.177  1.00  0.00    -0.335 N 
HETATM    2  C5  UNL     1       5.225 139.687 351.817  1.00  0.00     0.318 C 
HETATM    3  O1  UNL     1       6.313 139.561 352.455  1.00  0.00    -0.247 OA
HETATM    4  N2  UNL     1       4.600 140.962 351.763  1.00  0.00    -0.343 N 
ATOM      5  H2  UNL     1       3.725 141.077 351.253  1.00  0.00     0.164 HD
ENDROOT
BRANCH   4   6
HETATM    6  C6  UNL     1       5.198 142.095 352.427  1.00  0.00     0.129 C 
BRANCH   6   7
HETATM    7  C7  UNL     1       5.307 143.294 351.549  1.00  0.00     0.008 C 
HETATM    8  C8  UNL     1       4.433 144.435 351.949  1.00  0.00     0.011 C 
HETATM    9  C9  UNL     1       3.872 145.132 350.722  1.00  0.00    -0.014 C 
HETATM   10  C10 UNL     1       2.801 144.247 350.081  1.00  0.00     0.005 C 
HETATM   11  C14 UNL     1       4.951 145.297 349.648  1.00  0.00     0.005 C 
HETATM   12  C11 UNL     1       3.394 142.840 350.057  1.00  0.00     0.005 C 
HETATM   13  C12 UNL     1       4.906 142.877 350.139  1.00  0.00    -0.009 C 
HETATM   14  C13 UNL     1       5.461 143.951 349.213  1.00  0.00     0.005 C 
ENDBRANCH   6   7
ENDBRANCH   4   6
BRANCH   1  15
HETATM   15  C2  UNL     1       3.430 138.613 350.428  1.00  0.00     0.123 C 
HETATM   16  C1  UNL     1       3.707 139.295 349.089  1.00  0.00     0.026 C 
ENDBRANCH   1  15
BRANCH   1  17
HETATM   17  C3  UNL     1       5.343 137.264 351.263  1.00  0.00     0.123 C 
HETATM   18  C4  UNL     1       4.625 136.389 352.279  1.00  0.00     0.026 C 
ENDBRANCH   1  17
TORSDOF 4
ENDMDL
MODEL 5
REMARK VINA RESULT: -6.169570617      0.711      1.579
REMARK  4 active torsions:
REMARK  status: ('A' for Active; 'I' for Inactive)
REMARK    1  A    between atoms: C2_2  and  N1_3 
REMARK    2  A    between atoms: N1_3  and  C3_4 
REMARK       I    between atoms: N1_3  and  C5_6 
REMARK       I    between atoms: C5_6  and  N2_8 
REMARK    3  A    between atoms: N2_8  and  C6_10 
REMARK    4  A    between atoms: C6_10  and  C7_11 
ROOT
HETATM    1  N1  UNL     1       4.841 138.007 351.684  1.00  0.00    -0.335 N 
HETATM    2  C5  UNL     1       4.005 138.800 350.849  1.00  0.00     0.318 C 
HETATM    3  O1  UNL     1       3.473 138.264 349.831  1.00  0.00    -0.247 OA
HETATM    4  N2  UNL     1       3.748 140.171 351.121  1.00  0.00    -0.343 N 
ATOM      5  H2  UNL     1       4.170 140.614 351.936  1.00  0.00     0.164 HD
ENDROOT
BRANCH   4   6
HETATM    6  C6  UNL     1       2.893 140.939 350.249  1.00  0.00     0.129 C 
BRANCH   6   7
HETATM    7  C7  UNL     1       3.471 142.264 349.884  1.00  0.00     0.008 C 
HETATM    8  C8  UNL     1       4.962 142.310 349.884  1.00  0.00     0.011 C 
HETATM    9  C9  UNL     1       5.454 143.641 350.424  1.00  0.00    -0.014 C 
HETATM   10  C10 UNL     1       5.232 143.689 351.937  1.00  0.00     0.005 C 
HETATM   11  C14 UNL     1       4.624 144.799 349.860  1.00  0.00     0.005 C 
HETATM   12  C11 UNL     1       3.817 143.157 352.160  1.00  0.00     0.005 C 
HETATM   13  C12 UNL     1       2.977 143.283 350.905  1.00  0.00    -0.009 C 
HETATM   14  C13 UNL     1       3.183 144.649 350.264  1.00  0.00     0.005 C 
ENDBRANCH   6   7
ENDBRANCH   4   6
BRANCH   1  15
HETATM   15  C2  UNL     1       5.481 138.551 352.864  1.00  0.00     0.123 C 
HETATM   16  C1  UNL     1       6.286 139.785 352.458  1.00  0.00     0.026 C 
ENDBRANCH   1  15
BRANCH   1  17
HETATM   17  C3  UNL     1       5.075 136.613 351.362  1.00  0.00     0.123 C 
HETATM   18  C4  UNL     1       4.545 135.744 352.491  1.00  0.00     0.026 C 
ENDBRANCH   1  17
TORSDOF 4
ENDMDL
