MODEL 1
REMARK VINA RESULT: -7.293238321      0.000      0.000
REMARK  3 active torsions:
REMARK  status: ('A' for Active; 'I' for Inactive)
REMARK    1  A    between atoms: C4_4  and  C5_5 
REMARK    2  A    between atoms: C7_9  and  C8_10 
REMARK    3  A    between atoms: C8_10  and  C9_11 
ROOT
HETATM    1  C1  UNL     1       2.179 165.975 397.850  1.00  0.00     0.017 C 
HETATM    2  C2  UNL     1       1.031 165.949 398.210  1.00  0.00    -0.089 C 
HETATM    3  C3  UNL     1      -0.373 165.918 398.673  1.00  0.00     0.066 C 
HETATM    4  C4  UNL     1      -1.325 166.099 397.824  1.00  0.00     0.039 C 
ENDROOT
BRANCH   4   5
HETATM    5  C5  UNL     1      -2.744 166.103 398.080  1.00  0.00     0.050 A 
HETATM    6  N1  UNL     1      -3.685 165.344 397.436  1.00  0.00    -0.364 N 
HETATM    7  C6  UNL     1      -4.909 165.594 397.921  1.00  0.00     0.097 A 
ATOM      8  H1  UNL     1      -3.482 164.680 396.690  1.00  0.00     0.165 HD
HETATM    9  C7  UNL     1      -4.829 166.535 398.911  1.00  0.00    -0.023 A 
HETATM   10  C12 UNL     1      -3.456 166.836 398.988  1.00  0.00     0.045 A 
HETATM   11 BR1  UNL     1      -2.813 168.128 400.252  1.00  0.00    -0.048 Br
BRANCH   9  12
HETATM   12  C8  UNL     1      -5.914 167.140 399.752  1.00  0.00     0.046 C 
BRANCH  12  13
HETATM   13  C9  UNL     1      -6.627 168.237 399.023  1.00  0.00    -0.010 A 
HETATM   14  C10 UNL     1      -7.320 169.291 399.836  1.00  0.00     0.005 A 
HETATM   15  C11 UNL     1      -8.127 168.214 399.136  1.00  0.00     0.005 A 
ENDBRANCH  12  13
ENDBRANCH   9  12
ENDBRANCH   4   5
TORSDOF 3
ENDMDL
MODEL 2
REMARK VINA RESULT: -6.975783095      1.814      2.084
REMARK  3 active torsions:
REMARK  status: ('A' for Active; 'I' for Inactive)
REMARK    1  A    between atoms: C4_4  and  C5_5 
REMARK    2  A    between atoms: C7_9  and  C8_10 
REMARK    3  A    between atoms: C8_10  and  C9_11 
ROOT
HETATM    1  C1  UNL     1       2.332 164.754 398.166  1.00  0.00     0.017 C 
HETATM    2  C2  UNL     1       1.383 165.490 398.251  1.00  0.00    -0.089 C 
HETATM    3  C3  UNL     1       0.226 166.407 398.339  1.00  0.00     0.066 C 
HETATM    4  C4  UNL     1      -0.810 166.056 399.019  1.00  0.00     0.039 C 
ENDROOT
BRANCH   4   5
HETATM    5  C5  UNL     1      -2.025 166.806 399.222  1.00  0.00     0.050 A 
HETATM    6  N1  UNL     1      -2.165 167.925 399.999  1.00  0.00    -0.364 N 
HETATM    7  C6  UNL     1      -3.428 168.371 399.965  1.00  0.00     0.097 A 
ATOM      8  H1  UNL     1      -1.411 168.359 400.531  1.00  0.00     0.165 HD
HETATM    9  C7  UNL     1      -4.181 167.561 399.160  1.00  0.00    -0.023 A 
HETATM   10  C12 UNL     1      -3.272 166.586 398.708  1.00  0.00     0.045 A 
HETATM   11 BR1  UNL     1      -3.851 165.191 397.526  1.00  0.00    -0.048 Br
BRANCH   9  12
HETATM   12  C8  UNL     1      -5.636 167.644 398.805  1.00  0.00     0.046 C 
BRANCH  12  13
HETATM   13  C9  UNL     1      -6.379 168.551 399.738  1.00  0.00    -0.010 A 
HETATM   14  C10 UNL     1      -7.874 168.434 399.797  1.00  0.00     0.005 A 
HETATM   15  C11 UNL     1      -7.228 169.600 399.072  1.00  0.00     0.005 A 
ENDBRANCH  12  13
ENDBRANCH   9  12
ENDBRANCH   4   5
TORSDOF 3
ENDMDL
MODEL 3
REMARK VINA RESULT: -6.755145843      0.852      6.410
REMARK  3 active torsions:
REMARK  status: ('A' for Active; 'I' for Inactive)
REMARK    1  A    between atoms: C4_4  and  C5_5 
REMARK    2  A    between atoms: C7_9  and  C8_10 
REMARK    3  A    between atoms: C8_10  and  C9_11 
ROOT
HETATM    1  C1  UNL     1      -8.576 167.888 399.717  1.00  0.00     0.017 C 
HETATM    2  C2  UNL     1      -7.452 167.785 399.298  1.00  0.00    -0.089 C 
HETATM    3  C3  UNL     1      -6.072 167.679 398.778  1.00  0.00     0.066 C 
HETATM    4  C4  UNL     1      -5.371 166.633 399.049  1.00  0.00     0.039 C 
ENDROOT
BRANCH   4   5
HETATM    5  C5  UNL     1      -4.018 166.349 398.636  1.00  0.00     0.050 A 
HETATM    6  N1  UNL     1      -3.641 165.485 397.642  1.00  0.00    -0.364 N 
HETATM    7  C6  UNL     1      -2.307 165.459 397.518  1.00  0.00     0.097 A 
ATOM      8  H1  UNL     1      -4.286 164.938 397.074  1.00  0.00     0.165 HD
HETATM    9  C7  UNL     1      -1.743 166.308 398.431  1.00  0.00    -0.023 A 
HETATM   10  C12 UNL     1      -2.844 166.852 399.120  1.00  0.00     0.045 A 
HETATM   11 BR1  UNL     1      -2.576 168.125 400.529  1.00  0.00    -0.048 Br
BRANCH   9  12
HETATM   12  C8  UNL     1      -0.299 166.625 398.684  1.00  0.00     0.046 C 
BRANCH  12  13
HETATM   13  C9  UNL     1       0.605 165.782 397.838  1.00  0.00    -0.010 A 
HETATM   14  C10 UNL     1       1.618 164.917 398.530  1.00  0.00     0.005 A 
HETATM   15  C11 UNL     1       2.053 166.195 397.837  1.00  0.00     0.005 A 
ENDBRANCH  12  13
ENDBRANCH   9  12
ENDBRANCH   4   5
TORSDOF 3
ENDMDL
MODEL 4
REMARK VINA RESULT: -6.673589860      1.910      2.276
REMARK  3 active torsions:
REMARK  status: ('A' for Active; 'I' for Inactive)
REMARK    1  A    between atoms: C4_4  and  C5_5 
REMARK    2  A    between atoms: C7_9  and  C8_10 
REMARK    3  A    between atoms: C8_10  and  C9_11 
ROOT
HETATM    1  C1  UNL     1       2.225 164.638 398.261  1.00  0.00     0.017 C 
HETATM    2  C2  UNL     1       1.307 165.412 398.350  1.00  0.00    -0.089 C 
HETATM    3  C3  UNL     1       0.189 166.375 398.443  1.00  0.00     0.066 C 
HETATM    4  C4  UNL     1      -0.872 166.053 399.099  1.00  0.00     0.039 C 
ENDROOT
BRANCH   4   5
HETATM    5  C5  UNL     1      -2.057 166.849 399.302  1.00  0.00     0.050 A 
HETATM    6  N1  UNL     1      -2.161 167.957 400.101  1.00  0.00    -0.364 N 
HETATM    7  C6  UNL     1      -3.402 168.457 400.060  1.00  0.00     0.097 A 
ATOM      8  H1  UNL     1      -1.397 168.347 400.652  1.00  0.00     0.165 HD
HETATM    9  C7  UNL     1      -4.178 167.696 399.228  1.00  0.00    -0.023 A 
HETATM   10  C12 UNL     1      -3.305 166.693 398.767  1.00  0.00     0.045 A 
HETATM   11 BR1  UNL     1      -3.926 165.349 397.548  1.00  0.00    -0.048 Br
BRANCH   9  12
HETATM   12  C8  UNL     1      -5.623 167.848 398.856  1.00  0.00     0.046 C 
BRANCH  12  13
HETATM   13  C9  UNL     1      -6.507 167.016 399.733  1.00  0.00    -0.010 A 
HETATM   14  C10 UNL     1      -7.422 166.023 399.077  1.00  0.00     0.005 A 
HETATM   15  C11 UNL     1      -7.978 167.319 399.635  1.00  0.00     0.005 A 
ENDBRANCH  12  13
ENDBRANCH   9  12
ENDBRANCH   4   5
TORSDOF 3
ENDMDL
MODEL 5
REMARK VINA RESULT: -6.463055897      0.888      1.041
REMARK  3 active torsions:
REMARK  status: ('A' for Active; 'I' for Inactive)
REMARK    1  A    between atoms: C4_4  and  C5_5 
REMARK    2  A    between atoms: C7_9  and  C8_10 
REMARK    3  A    between atoms: C8_10  and  C9_11 
ROOT
HETATM    1  C1  UNL     1       1.522 165.700 398.151  1.00  0.00     0.017 C 
HETATM    2  C2  UNL     1       0.362 166.020 398.203  1.00  0.00    -0.089 C 
HETATM    3  C3  UNL     1      -1.057 166.433 398.266  1.00  0.00     0.066 C 
HETATM    4  C4  UNL     1      -1.982 165.545 398.148  1.00  0.00     0.039 C 
ENDROOT
BRANCH   4   5
HETATM    5  C5  UNL     1      -3.409 165.750 398.183  1.00  0.00     0.050 A 
HETATM    6  N1  UNL     1      -4.282 165.543 397.148  1.00  0.00    -0.364 N 
HETATM    7  C6  UNL     1      -5.536 165.829 397.520  1.00  0.00     0.097 A 
ATOM      8  H1  UNL     1      -4.013 165.215 396.221  1.00  0.00     0.165 HD
HETATM    9  C7  UNL     1      -5.546 166.242 398.826  1.00  0.00    -0.023 A 
HETATM   10  C12 UNL     1      -4.195 166.182 399.215  1.00  0.00     0.045 A 
HETATM   11 BR1  UNL     1      -3.673 166.671 400.994  1.00  0.00    -0.048 Br
BRANCH   9  12
HETATM   12  C8  UNL     1      -6.696 166.668 399.689  1.00  0.00     0.046 C 
BRANCH  12  13
HETATM   13  C9  UNL     1      -7.370 167.889 399.144  1.00  0.00    -0.010 A 
HETATM   14  C10 UNL     1      -6.510 169.054 398.747  1.00  0.00     0.005 A 
HETATM   15  C11 UNL     1      -7.315 169.103 400.033  1.00  0.00     0.005 A 
ENDBRANCH  12  13
ENDBRANCH   9  12
ENDBRANCH   4   5
TORSDOF 3
ENDMDL
