MODEL 1
REMARK VINA RESULT: -6.312501234      0.000      0.000
REMARK  3 active torsions:
REMARK  status: ('A' for Active; 'I' for Inactive)
REMARK    1  A    between atoms: N1_2  and  C1_4 
REMARK    2  A    between atoms: C6_9  and  N2_10 
REMARK    3  A    between atoms: N2_10  and  N3_12 
ROOT
HETATM    1  C1  UNL     1     -10.484  11.986 -16.320  1.00  0.00     0.130 A 
HETATM    2  C2  UNL     1     -10.288  11.310 -15.087  1.00  0.00     0.038 A 
HETATM    3  C3  UNL     1     -11.104  11.602 -14.030  1.00  0.00     0.003 A 
HETATM    4  C4  UNL     1     -12.107  12.543 -14.149  1.00  0.00     0.002 A 
HETATM    5  C5  UNL     1     -12.322  13.209 -15.326  1.00  0.00     0.033 A 
HETATM    6  C6  UNL     1     -11.485  12.910 -16.418  1.00  0.00     0.081 A 
ENDROOT
BRANCH   6   7
HETATM    7  N2  UNL     1     -11.735  13.658 -17.592  1.00  0.00    -0.293 N 
ATOM      8  H2  UNL     1     -12.093  13.175 -18.416  1.00  0.00     0.187 HD
BRANCH   7   9
HETATM    9  N3  UNL     1     -11.511  15.020 -17.660  1.00  0.00    -0.278 N 
HETATM   10  C7  UNL     1     -10.350  15.689 -17.765  1.00  0.00     0.115 A 
HETATM   11  C8  UNL     1     -10.582  17.055 -17.802  1.00  0.00     0.021 A 
HETATM   12  C9  UNL     1     -11.943  17.235 -17.717  1.00  0.00     0.021 A 
HETATM   13  C10 UNL     1     -12.487  15.975 -17.631  1.00  0.00     0.115 A 
ENDBRANCH   7   9
ENDBRANCH   6   7
BRANCH   1  14
HETATM   14  N1  UNL     1      -9.568  11.741 -17.346  1.00  0.00    -0.113 N 
HETATM   15  O1  UNL     1      -9.190  12.384 -18.297  1.00  0.00    -0.532 OA
HETATM   16  O2  UNL     1      -8.920  10.470 -17.264  1.00  0.00    -0.532 OA
ENDBRANCH   1  14
TORSDOF 3
ENDMDL
MODEL 2
REMARK VINA RESULT: -6.104588822      0.848      1.089
REMARK  3 active torsions:
REMARK  status: ('A' for Active; 'I' for Inactive)
REMARK    1  A    between atoms: N1_2  and  C1_4 
REMARK    2  A    between atoms: C6_9  and  N2_10 
REMARK    3  A    between atoms: N2_10  and  N3_12 
ROOT
HETATM    1  C1  UNL     1     -10.748  12.507 -16.467  1.00  0.00     0.130 A 
HETATM    2  C2  UNL     1     -10.649  11.967 -15.158  1.00  0.00     0.038 A 
HETATM    3  C3  UNL     1     -11.579  12.318 -14.219  1.00  0.00     0.003 A 
HETATM    4  C4  UNL     1     -12.605  13.188 -14.531  1.00  0.00     0.002 A 
HETATM    5  C5  UNL     1     -12.728  13.724 -15.786  1.00  0.00     0.033 A 
HETATM    6  C6  UNL     1     -11.773  13.363 -16.755  1.00  0.00     0.081 A 
ENDROOT
BRANCH   6   7
HETATM    7  N2  UNL     1     -11.934  13.977 -18.019  1.00  0.00    -0.293 N 
ATOM      8  H2  UNL     1     -12.323  13.430 -18.787  1.00  0.00     0.187 HD
BRANCH   7   9
HETATM    9  N3  UNL     1     -11.583  15.294 -18.249  1.00  0.00    -0.278 N 
HETATM   10  C7  UNL     1     -11.941  16.109 -19.256  1.00  0.00     0.115 A 
HETATM   11  C8  UNL     1     -11.358  17.356 -19.098  1.00  0.00     0.021 A 
HETATM   12  C9  UNL     1     -10.608  17.308 -17.945  1.00  0.00     0.021 A 
HETATM   13  C10 UNL     1     -10.764  16.037 -17.446  1.00  0.00     0.115 A 
ENDBRANCH   7   9
ENDBRANCH   6   7
BRANCH   1  14
HETATM   14  N1  UNL     1      -9.723  12.211 -17.369  1.00  0.00    -0.113 N 
HETATM   15  O1  UNL     1      -9.482  12.561 -18.501  1.00  0.00    -0.532 OA
HETATM   16  O2  UNL     1      -8.733  11.315 -16.860  1.00  0.00    -0.532 OA
ENDBRANCH   1  14
TORSDOF 3
ENDMDL
MODEL 3
REMARK VINA RESULT: -6.043917945      1.985      4.870
REMARK  3 active torsions:
REMARK  status: ('A' for Active; 'I' for Inactive)
REMARK    1  A    between atoms: N1_2  and  C1_4 
REMARK    2  A    between atoms: C6_9  and  N2_10 
REMARK    3  A    between atoms: N2_10  and  N3_12 
ROOT
HETATM    1  C1  UNL     1     -11.560  15.063 -19.204  1.00  0.00     0.130 A 
HETATM    2  C2  UNL     1     -11.821  16.340 -19.768  1.00  0.00     0.038 A 
HETATM    3  C3  UNL     1     -11.393  17.459 -19.111  1.00  0.00     0.003 A 
HETATM    4  C4  UNL     1     -10.715  17.360 -17.912  1.00  0.00     0.002 A 
HETATM    5  C5  UNL     1     -10.447  16.143 -17.345  1.00  0.00     0.033 A 
HETATM    6  C6  UNL     1     -10.885  14.987 -18.019  1.00  0.00     0.081 A 
ENDROOT
BRANCH   6   7
HETATM    7  N2  UNL     1     -10.609  13.765 -17.364  1.00  0.00    -0.293 N 
ATOM      8  H2  UNL     1      -9.895  13.148 -17.752  1.00  0.00     0.187 HD
BRANCH   7   9
HETATM    9  N3  UNL     1     -11.274  13.377 -16.216  1.00  0.00    -0.278 N 
HETATM   10  C7  UNL     1     -10.949  12.427 -15.323  1.00  0.00     0.115 A 
HETATM   11  C8  UNL     1     -11.898  12.368 -14.315  1.00  0.00     0.021 A 
HETATM   12  C9  UNL     1     -12.848  13.322 -14.599  1.00  0.00     0.021 A 
HETATM   13  C10 UNL     1     -12.442  13.925 -15.766  1.00  0.00     0.115 A 
ENDBRANCH   7   9
ENDBRANCH   6   7
BRANCH   1  14
HETATM   14  N1  UNL     1     -12.104  13.948 -19.847  1.00  0.00    -0.113 N 
HETATM   15  O1  UNL     1     -12.068  12.760 -19.627  1.00  0.00    -0.532 OA
HETATM   16  O2  UNL     1     -12.880  14.257 -21.006  1.00  0.00    -0.532 OA
ENDBRANCH   1  14
TORSDOF 3
ENDMDL
MODEL 4
REMARK VINA RESULT: -5.933806402      2.198      5.013
REMARK  3 active torsions:
REMARK  status: ('A' for Active; 'I' for Inactive)
REMARK    1  A    between atoms: N1_2  and  C1_4 
REMARK    2  A    between atoms: C6_9  and  N2_10 
REMARK    3  A    between atoms: N2_10  and  N3_12 
ROOT
HETATM    1  C1  UNL     1     -11.753  14.898 -19.998  1.00  0.00     0.130 A 
HETATM    2  C2  UNL     1     -12.368  15.483 -21.137  1.00  0.00     0.038 A 
HETATM    3  C3  UNL     1     -12.626  16.826 -21.140  1.00  0.00     0.003 A 
HETATM    4  C4  UNL     1     -12.298  17.611 -20.053  1.00  0.00     0.002 A 
HETATM    5  C5  UNL     1     -11.703  17.076 -18.941  1.00  0.00     0.033 A 
HETATM    6  C6  UNL     1     -11.434  15.695 -18.935  1.00  0.00     0.081 A 
ENDROOT
BRANCH   6   7
HETATM    7  N2  UNL     1     -10.852  15.199 -17.746  1.00  0.00    -0.293 N 
ATOM      8  H2  UNL     1      -9.845  15.294 -17.613  1.00  0.00     0.187 HD
BRANCH   7   9
HETATM    9  N3  UNL     1     -11.601  14.589 -16.757  1.00  0.00    -0.278 N 
HETATM   10  C7  UNL     1     -12.922  14.659 -16.523  1.00  0.00     0.115 A 
HETATM   11  C8  UNL     1     -13.259  13.887 -15.422  1.00  0.00     0.021 A 
HETATM   12  C9  UNL     1     -12.095  13.317 -14.958  1.00  0.00     0.021 A 
HETATM   13  C10 UNL     1     -11.098  13.762 -15.793  1.00  0.00     0.115 A 
ENDBRANCH   7   9
ENDBRANCH   6   7
BRANCH   1  14
HETATM   14  N1  UNL     1     -11.601  13.510 -19.986  1.00  0.00    -0.113 N 
HETATM   15  O1  UNL     1     -12.351  12.588 -20.208  1.00  0.00    -0.532 OA
HETATM   16  O2  UNL     1     -10.284  13.065 -19.655  1.00  0.00    -0.532 OA
ENDBRANCH   1  14
TORSDOF 3
ENDMDL
MODEL 5
REMARK VINA RESULT: -5.824248022      1.879      2.362
REMARK  3 active torsions:
REMARK  status: ('A' for Active; 'I' for Inactive)
REMARK    1  A    between atoms: N1_2  and  C1_4 
REMARK    2  A    between atoms: C6_9  and  N2_10 
REMARK    3  A    between atoms: N2_10  and  N3_12 
ROOT
HETATM    1  C1  UNL     1     -10.853  13.611 -16.904  1.00  0.00     0.130 A 
HETATM    2  C2  UNL     1     -11.331  12.518 -16.134  1.00  0.00     0.038 A 
HETATM    3  C3  UNL     1     -12.569  12.596 -15.561  1.00  0.00     0.003 A 
HETATM    4  C4  UNL     1     -13.354  13.721 -15.722  1.00  0.00     0.002 A 
HETATM    5  C5  UNL     1     -12.921  14.790 -16.461  1.00  0.00     0.033 A 
HETATM    6  C6  UNL     1     -11.647  14.713 -17.054  1.00  0.00     0.081 A 
ENDROOT
BRANCH   6   7
HETATM    7  N2  UNL     1     -11.245  15.862 -17.773  1.00  0.00    -0.293 N 
ATOM      8  H2  UNL     1     -10.561  16.492 -17.353  1.00  0.00     0.187 HD
BRANCH   7   9
HETATM    9  N3  UNL     1     -11.747  16.162 -19.025  1.00  0.00    -0.278 N 
HETATM   10  C7  UNL     1     -12.049  15.337 -20.042  1.00  0.00     0.115 A 
HETATM   11  C8  UNL     1     -12.527  16.060 -21.124  1.00  0.00     0.021 A 
HETATM   12  C9  UNL     1     -12.519  17.386 -20.758  1.00  0.00     0.021 A 
HETATM   13  C10 UNL     1     -12.038  17.420 -19.470  1.00  0.00     0.115 A 
ENDBRANCH   7   9
ENDBRANCH   6   7
BRANCH   1  14
HETATM   14  N1  UNL     1      -9.544  13.541 -17.386  1.00  0.00    -0.113 N 
HETATM   15  O1  UNL     1      -8.810  14.337 -17.924  1.00  0.00    -0.532 OA
HETATM   16  O2  UNL     1      -8.917  12.270 -17.203  1.00  0.00    -0.532 OA
ENDBRANCH   1  14
TORSDOF 3
ENDMDL
