MODEL 1
REMARK VINA RESULT: -5.602832246      0.000      0.000
REMARK  2 active torsions:
REMARK  status: ('A' for Active; 'I' for Inactive)
REMARK    1  A    between atoms: C3_3  and  N1_4 
REMARK       I    between atoms: N1_4  and  C4_6 
REMARK    2  A    between atoms: C4_6  and  C5_8 
ROOT
HETATM    1  C1  UNL     1    -135.090-184.770 298.884  1.00  0.00     0.014 C 
HETATM    2  C2  UNL     1    -136.237-184.503 298.627  1.00  0.00    -0.098 C 
HETATM    3  C3  UNL     1    -137.652-184.198 298.302  1.00  0.00     0.216 C 
ENDROOT
BRANCH   3   4
HETATM    4  N1  UNL     1    -138.056-183.036 299.044  1.00  0.00    -0.348 N 
HETATM    5  C4  UNL     1    -139.315-182.898 299.674  1.00  0.00     0.258 C 
HETATM    6  O1  UNL     1    -140.133-183.832 299.590  1.00  0.00    -0.270 OA
ATOM      7  H1  UNL     1    -137.395-182.263 299.121  1.00  0.00     0.163 HD
BRANCH   5   8
HETATM    8  C5  UNL     1    -139.652-181.667 300.420  1.00  0.00     0.188 C 
HETATM    9  F1  UNL     1    -138.454-181.273 301.044  1.00  0.00    -0.232 F 
HETATM   10  C6  UNL     1    -140.605-181.958 301.564  1.00  0.00     0.060 C 
HETATM   11  C7  UNL     1    -141.289-180.644 301.883  1.00  0.00     0.008 C 
HETATM   12  C8  UNL     1    -142.295-180.447 300.739  1.00  0.00     0.011 C 
HETATM   13  C12 UNL     1    -140.334-179.473 301.787  1.00  0.00     0.091 C 
HETATM   14  C9  UNL     1    -141.499-180.197 299.504  1.00  0.00    -0.006 C 
HETATM   15  C10 UNL     1    -141.064-178.719 299.564  1.00  0.00     0.011 C 
HETATM   16  C13 UNL     1    -140.070-180.535 299.565  1.00  0.00     0.045 C 
HETATM   17  C11 UNL     1    -139.874-179.247 300.380  1.00  0.00     0.013 C 
HETATM   18 CL1  UNL     1    -141.271-178.025 302.307  1.00  0.00    -0.124 Cl
ENDBRANCH   5   8
ENDBRANCH   3   4
TORSDOF 2
ENDMDL
MODEL 2
REMARK VINA RESULT: -5.431811483      3.237      6.507
REMARK  2 active torsions:
REMARK  status: ('A' for Active; 'I' for Inactive)
REMARK    1  A    between atoms: C3_3  and  N1_4 
REMARK       I    between atoms: N1_4  and  C4_6 
REMARK    2  A    between atoms: C4_6  and  C5_8 
ROOT
HETATM    1  C1  UNL     1    -140.276-178.964 300.680  1.00  0.00     0.014 C 
HETATM    2  C2  UNL     1    -139.960-180.112 300.869  1.00  0.00    -0.098 C 
HETATM    3  C3  UNL     1    -139.590-181.527 301.118  1.00  0.00     0.216 C 
ENDROOT
BRANCH   3   4
HETATM    4  N1  UNL     1    -138.731-181.973 300.057  1.00  0.00    -0.348 N 
HETATM    5  C4  UNL     1    -138.973-183.128 299.276  1.00  0.00     0.258 C 
HETATM    6  O1  UNL     1    -139.990-183.808 299.510  1.00  0.00    -0.270 OA
ATOM      7  H1  UNL     1    -137.895-181.425 299.854  1.00  0.00     0.163 HD
BRANCH   5   8
HETATM    8  C5  UNL     1    -138.038-183.518 298.200  1.00  0.00     0.188 C 
HETATM    9  F1  UNL     1    -137.932-182.385 297.372  1.00  0.00    -0.232 F 
HETATM   10  C6  UNL     1    -138.635-184.592 297.310  1.00  0.00     0.060 C 
HETATM   11  C7  UNL     1    -137.465-185.280 296.640  1.00  0.00     0.008 C 
HETATM   12  C8  UNL     1    -136.853-186.157 297.743  1.00  0.00     0.011 C 
HETATM   13  C12 UNL     1    -136.378-184.299 296.254  1.00  0.00     0.091 C 
HETATM   14  C9  UNL     1    -136.255-185.231 298.747  1.00  0.00    -0.006 C 
HETATM   15  C10 UNL     1    -134.902-184.777 298.161  1.00  0.00     0.011 C 
HETATM   16  C13 UNL     1    -136.669-183.823 298.668  1.00  0.00     0.045 C 
HETATM   17  C11 UNL     1    -135.729-183.689 297.458  1.00  0.00     0.013 C 
HETATM   18 CL1  UNL     1    -135.132-185.258 295.375  1.00  0.00    -0.124 Cl
ENDBRANCH   5   8
ENDBRANCH   3   4
TORSDOF 2
ENDMDL
MODEL 3
REMARK VINA RESULT: -5.279530061      3.554      6.487
REMARK  2 active torsions:
REMARK  status: ('A' for Active; 'I' for Inactive)
REMARK    1  A    between atoms: C3_3  and  N1_4 
REMARK       I    between atoms: N1_4  and  C4_6 
REMARK    2  A    between atoms: C4_6  and  C5_8 
ROOT
HETATM    1  C1  UNL     1    -141.285-181.957 302.141  1.00  0.00     0.014 C 
HETATM    2  C2  UNL     1    -140.352-181.537 301.504  1.00  0.00    -0.098 C 
HETATM    3  C3  UNL     1    -139.204-180.998 300.734  1.00  0.00     0.216 C 
ENDROOT
BRANCH   3   4
HETATM    4  N1  UNL     1    -138.568-182.081 300.036  1.00  0.00    -0.348 N 
HETATM    5  C4  UNL     1    -138.787-182.378 298.670  1.00  0.00     0.258 C 
HETATM    6  O1  UNL     1    -139.575-181.667 298.020  1.00  0.00    -0.270 OA
ATOM      7  H1  UNL     1    -137.919-182.671 300.556  1.00  0.00     0.163 HD
BRANCH   5   8
HETATM    8  C5  UNL     1    -138.090-183.512 298.026  1.00  0.00     0.188 C 
HETATM    9  F1  UNL     1    -139.095-184.461 297.759  1.00  0.00    -0.232 F 
HETATM   10  C6  UNL     1    -137.152-184.207 298.995  1.00  0.00     0.060 C 
HETATM   11  C7  UNL     1    -136.135-184.937 298.143  1.00  0.00     0.008 C 
HETATM   12  C8  UNL     1    -135.207-183.830 297.619  1.00  0.00     0.011 C 
HETATM   13  C12 UNL     1    -136.767-185.551 296.911  1.00  0.00     0.091 C 
HETATM   14  C9  UNL     1    -136.012-183.008 296.671  1.00  0.00    -0.006 C 
HETATM   15  C10 UNL     1    -136.052-183.796 295.346  1.00  0.00     0.011 C 
HETATM   16  C13 UNL     1    -137.470-183.183 296.725  1.00  0.00     0.045 C 
HETATM   17  C11 UNL     1    -137.268-184.504 295.965  1.00  0.00     0.013 C 
HETATM   18 CL1  UNL     1    -135.456-186.469 296.085  1.00  0.00    -0.124 Cl
ENDBRANCH   5   8
ENDBRANCH   3   4
TORSDOF 2
ENDMDL
MODEL 4
REMARK VINA RESULT: -5.256033499      6.508      7.447
REMARK  2 active torsions:
REMARK  status: ('A' for Active; 'I' for Inactive)
REMARK    1  A    between atoms: C3_3  and  N1_4 
REMARK       I    between atoms: N1_4  and  C4_6 
REMARK    2  A    between atoms: C4_6  and  C5_8 
ROOT
HETATM    1  C1  UNL     1    -139.214-183.840 307.480  1.00  0.00     0.014 C 
HETATM    2  C2  UNL     1    -140.379-183.906 307.782  1.00  0.00    -0.098 C 
HETATM    3  C3  UNL     1    -141.806-183.990 308.178  1.00  0.00     0.216 C 
ENDROOT
BRANCH   3   4
HETATM    4  N1  UNL     1    -142.612-183.453 307.117  1.00  0.00    -0.348 N 
HETATM    5  C4  UNL     1    -142.963-182.087 307.005  1.00  0.00     0.258 C 
HETATM    6  O1  UNL     1    -142.555-181.290 307.870  1.00  0.00    -0.270 OA
ATOM      7  H1  UNL     1    -142.953-184.095 306.401  1.00  0.00     0.163 HD
BRANCH   5   8
HETATM    8  C5  UNL     1    -143.797-181.614 305.879  1.00  0.00     0.188 C 
HETATM    9  F1  UNL     1    -144.943-182.430 305.900  1.00  0.00    -0.232 F 
HETATM   10  C6  UNL     1    -143.140-181.907 304.543  1.00  0.00     0.060 C 
HETATM   11  C7  UNL     1    -143.756-180.941 303.553  1.00  0.00     0.008 C 
HETATM   12  C8  UNL     1    -143.107-179.588 303.881  1.00  0.00     0.011 C 
HETATM   13  C12 UNL     1    -145.238-180.748 303.800  1.00  0.00     0.091 C 
HETATM   14  C9  UNL     1    -143.621-179.177 305.218  1.00  0.00    -0.006 C 
HETATM   15  C10 UNL     1    -145.031-178.601 304.978  1.00  0.00     0.011 C 
HETATM   16  C13 UNL     1    -144.273-180.222 306.020  1.00  0.00     0.045 C 
HETATM   17  C11 UNL     1    -145.497-180.060 305.105  1.00  0.00     0.013 C 
HETATM   18 CL1  UNL     1    -145.827-179.677 302.477  1.00  0.00    -0.124 Cl
ENDBRANCH   5   8
ENDBRANCH   3   4
TORSDOF 2
ENDMDL
MODEL 5
REMARK VINA RESULT: -5.220145700      1.698      2.664
REMARK  2 active torsions:
REMARK  status: ('A' for Active; 'I' for Inactive)
REMARK    1  A    between atoms: C3_3  and  N1_4 
REMARK       I    between atoms: N1_4  and  C4_6 
REMARK    2  A    between atoms: C4_6  and  C5_8 
ROOT
HETATM    1  C1  UNL     1    -134.704-183.444 296.925  1.00  0.00     0.014 C 
HETATM    2  C2  UNL     1    -135.165-183.832 297.968  1.00  0.00    -0.098 C 
HETATM    3  C3  UNL     1    -135.710-184.322 299.258  1.00  0.00     0.216 C 
ENDROOT
BRANCH   3   4
HETATM    4  N1  UNL     1    -136.891-183.567 299.577  1.00  0.00    -0.348 N 
HETATM    5  C4  UNL     1    -138.119-183.692 298.887  1.00  0.00     0.258 C 
HETATM    6  O1  UNL     1    -138.198-184.503 297.945  1.00  0.00    -0.270 OA
ATOM      7  H1  UNL     1    -136.840-182.900 300.346  1.00  0.00     0.163 HD
BRANCH   5   8
HETATM    8  C5  UNL     1    -139.289-182.877 299.279  1.00  0.00     0.188 C 
HETATM    9  F1  UNL     1    -140.375-183.773 299.298  1.00  0.00    -0.232 F 
HETATM   10  C6  UNL     1    -139.642-181.865 298.205  1.00  0.00     0.060 C 
HETATM   11  C7  UNL     1    -140.434-180.777 298.899  1.00  0.00     0.008 C 
HETATM   12  C8  UNL     1    -139.382-179.979 299.685  1.00  0.00     0.011 C 
HETATM   13  C12 UNL     1    -141.374-181.342 299.944  1.00  0.00     0.091 C 
HETATM   14  C9  UNL     1    -138.886-180.872 300.771  1.00  0.00    -0.006 C 
HETATM   15  C10 UNL     1    -139.953-180.830 301.883  1.00  0.00     0.011 C 
HETATM   16  C13 UNL     1    -139.198-182.301 300.638  1.00  0.00     0.045 C 
HETATM   17  C11 UNL     1    -140.628-181.958 301.087  1.00  0.00     0.013 C 
HETATM   18 CL1  UNL     1    -142.310-179.940 300.579  1.00  0.00    -0.124 Cl
ENDBRANCH   5   8
ENDBRANCH   3   4
TORSDOF 2
ENDMDL
