MODEL 1
REMARK VINA RESULT: -4.538408412      0.000      0.000
REMARK  2 active torsions:
REMARK  status: ('A' for Active; 'I' for Inactive)
REMARK    1  A    between atoms: C4_5  and  N1_6 
REMARK    2  A    between atoms: N1_6  and  C5_8 
ROOT
HETATM    1  C5  UNL     1    -139.185-182.815 298.929  1.00  0.00     0.091 C 
HETATM    2  C6  UNL     1    -138.906-182.852 300.363  1.00  0.00     0.026 C 
HETATM    3  C7  UNL     1    -139.956-182.316 301.287  1.00  0.00     0.002 C 
HETATM    4  C8  UNL     1    -141.073-181.579 300.639  1.00  0.00     0.001 C 
HETATM    5  C9  UNL     1    -140.423-180.701 299.573  1.00  0.00     0.018 C 
HETATM    6  C10 UNL     1    -140.071-181.671 298.462  1.00  0.00     0.080 C 
HETATM    7 BR1  UNL     1    -139.144-180.564 297.129  1.00  0.00    -0.089 Br
ENDROOT
BRANCH   1   8
HETATM    8  N1  UNL     1    -137.927-182.640 298.181  1.00  0.00    -0.409 N 
ATOM      9  H1  UNL     1    -137.586-181.724 297.887  1.00  0.00     0.154 HD
BRANCH   8  10
HETATM   10  C4  UNL     1    -137.226-183.837 297.901  1.00  0.00     0.119 A 
HETATM   11  C2  UNL     1    -136.231-184.491 298.750  1.00  0.00     0.121 A 
HETATM   12  C1  UNL     1    -136.010-185.992 298.661  1.00  0.00     0.054 C 
HETATM   13  F1  UNL     1    -135.736-183.932 299.924  1.00  0.00    -0.241 F 
HETATM   14  C3  UNL     1    -135.789-183.788 297.486  1.00  0.00     0.073 A 
ENDBRANCH   8  10
ENDBRANCH   1   8
TORSDOF 2
ENDMDL
MODEL 2
REMARK VINA RESULT: -4.487523984      2.370      5.039
REMARK  2 active torsions:
REMARK  status: ('A' for Active; 'I' for Inactive)
REMARK    1  A    between atoms: C4_5  and  N1_6 
REMARK    2  A    between atoms: N1_6  and  C5_8 
ROOT
HETATM    1  C5  UNL     1    -137.274-183.958 296.938  1.00  0.00     0.091 C 
HETATM    2  C6  UNL     1    -137.360-182.541 296.589  1.00  0.00     0.026 C 
HETATM    3  C7  UNL     1    -136.242-181.957 295.782  1.00  0.00     0.002 C 
HETATM    4  C8  UNL     1    -135.041-182.819 295.621  1.00  0.00     0.001 C 
HETATM    5  C9  UNL     1    -134.796-183.441 296.993  1.00  0.00     0.018 C 
HETATM    6  C10 UNL     1    -135.867-184.507 297.111  1.00  0.00     0.080 C 
HETATM    7 BR1  UNL     1    -135.619-185.244 298.915  1.00  0.00    -0.089 Br
ENDROOT
BRANCH   1   8
HETATM    8  N1  UNL     1    -137.928-184.193 298.237  1.00  0.00    -0.409 N 
ATOM      9  H1  UNL     1    -137.905-185.098 298.707  1.00  0.00     0.154 HD
BRANCH   8  10
HETATM   10  C4  UNL     1    -138.589-183.068 298.785  1.00  0.00     0.119 A 
HETATM   11  C2  UNL     1    -139.077-182.918 300.155  1.00  0.00     0.121 A 
HETATM   12  C1  UNL     1    -139.202-181.538 300.781  1.00  0.00     0.054 C 
HETATM   13  F1  UNL     1    -139.065-183.946 301.093  1.00  0.00    -0.241 F 
HETATM   14  C3  UNL     1    -140.065-183.109 299.028  1.00  0.00     0.073 A 
ENDBRANCH   8  10
ENDBRANCH   1   8
TORSDOF 2
ENDMDL
MODEL 3
REMARK VINA RESULT: -4.394723654      0.915      1.005
REMARK  2 active torsions:
REMARK  status: ('A' for Active; 'I' for Inactive)
REMARK    1  A    between atoms: C4_5  and  N1_6 
REMARK    2  A    between atoms: N1_6  and  C5_8 
ROOT
HETATM    1  C5  UNL     1    -139.615-182.742 299.255  1.00  0.00     0.091 C 
HETATM    2  C6  UNL     1    -139.408-182.759 300.703  1.00  0.00     0.026 C 
HETATM    3  C7  UNL     1    -140.419-182.055 301.555  1.00  0.00     0.002 C 
HETATM    4  C8  UNL     1    -141.400-181.207 300.829  1.00  0.00     0.001 C 
HETATM    5  C9  UNL     1    -140.594-180.463 299.768  1.00  0.00     0.018 C 
HETATM    6  C10 UNL     1    -140.322-181.513 298.708  1.00  0.00     0.080 C 
HETATM    7 BR1  UNL     1    -139.200-180.587 297.387  1.00  0.00    -0.089 Br
ENDROOT
BRANCH   1   8
HETATM    8  N1  UNL     1    -138.313-182.760 298.565  1.00  0.00    -0.409 N 
ATOM      9  H1  UNL     1    -137.953-181.956 298.052  1.00  0.00     0.154 HD
BRANCH   8  10
HETATM   10  C4  UNL     1    -137.599-183.978 298.669  1.00  0.00     0.119 A 
HETATM   11  C2  UNL     1    -136.209-184.215 298.284  1.00  0.00     0.121 A 
HETATM   12  C1  UNL     1    -135.397-185.305 298.963  1.00  0.00     0.054 C 
HETATM   13  F1  UNL     1    -135.422-183.275 297.626  1.00  0.00    -0.241 F 
HETATM   14  C3  UNL     1    -137.325-184.794 297.445  1.00  0.00     0.073 A 
ENDBRANCH   8  10
ENDBRANCH   1   8
TORSDOF 2
ENDMDL
MODEL 4
REMARK VINA RESULT: -4.378290928      2.454      4.930
REMARK  2 active torsions:
REMARK  status: ('A' for Active; 'I' for Inactive)
REMARK    1  A    between atoms: C4_5  and  N1_6 
REMARK    2  A    between atoms: N1_6  and  C5_8 
ROOT
HETATM    1  C5  UNL     1    -138.211-183.241 298.798  1.00  0.00     0.091 C 
HETATM    2  C6  UNL     1    -137.217-183.943 299.609  1.00  0.00     0.026 C 
HETATM    3  C7  UNL     1    -136.010-184.486 298.908  1.00  0.00     0.002 C 
HETATM    4  C8  UNL     1    -136.061-184.467 297.423  1.00  0.00     0.001 C 
HETATM    5  C9  UNL     1    -137.471-184.922 297.054  1.00  0.00     0.018 C 
HETATM    6  C10 UNL     1    -138.338-183.716 297.360  1.00  0.00     0.080 C 
HETATM    7 BR1  UNL     1    -140.166-184.328 296.982  1.00  0.00    -0.089 Br
ENDROOT
BRANCH   1   8
HETATM    8  N1  UNL     1    -139.553-183.437 299.375  1.00  0.00    -0.409 N 
ATOM      9  H1  UNL     1    -140.276-183.983 298.907  1.00  0.00     0.154 HD
BRANCH   8  10
HETATM   10  C4  UNL     1    -139.763-182.810 300.626  1.00  0.00     0.119 A 
HETATM   11  C2  UNL     1    -140.770-181.798 300.943  1.00  0.00     0.121 A 
HETATM   12  C1  UNL     1    -141.296-181.652 302.361  1.00  0.00     0.054 C 
HETATM   13  F1  UNL     1    -141.595-181.210 299.989  1.00  0.00    -0.241 F 
HETATM   14  C3  UNL     1    -139.315-181.399 300.845  1.00  0.00     0.073 A 
ENDBRANCH   8  10
ENDBRANCH   1   8
TORSDOF 2
ENDMDL
MODEL 5
REMARK VINA RESULT: -4.287895195      2.305      5.206
REMARK  2 active torsions:
REMARK  status: ('A' for Active; 'I' for Inactive)
REMARK    1  A    between atoms: C4_5  and  N1_6 
REMARK    2  A    between atoms: N1_6  and  C5_8 
ROOT
HETATM    1  C5  UNL     1    -135.855-184.608 297.590  1.00  0.00     0.091 C 
HETATM    2  C6  UNL     1    -136.742-185.768 297.526  1.00  0.00     0.026 C 
HETATM    3  C7  UNL     1    -136.456-186.801 296.479  1.00  0.00     0.002 C 
HETATM    4  C8  UNL     1    -135.444-186.425 295.458  1.00  0.00     0.001 C 
HETATM    5  C9  UNL     1    -135.754-184.977 295.087  1.00  0.00     0.018 C 
HETATM    6  C10 UNL     1    -135.241-184.177 296.268  1.00  0.00     0.080 C 
HETATM    7 BR1  UNL     1    -135.726-182.321 295.842  1.00  0.00    -0.089 Br
ENDROOT
BRANCH   1   8
HETATM    8  N1  UNL     1    -136.609-183.429 298.053  1.00  0.00    -0.409 N 
ATOM      9  H1  UNL     1    -136.404-182.485 297.726  1.00  0.00     0.154 HD
BRANCH   8  10
HETATM   10  C4  UNL     1    -137.637-183.706 298.985  1.00  0.00     0.119 A 
HETATM   11  C2  UNL     1    -138.763-182.839 299.332  1.00  0.00     0.121 A 
HETATM   12  C1  UNL     1    -140.066-183.436 299.839  1.00  0.00     0.054 C 
HETATM   13  F1  UNL     1    -138.901-181.535 298.868  1.00  0.00    -0.241 F 
HETATM   14  C3  UNL     1    -137.639-183.036 300.323  1.00  0.00     0.073 A 
ENDBRANCH   8  10
ENDBRANCH   1   8
TORSDOF 2
ENDMDL
