MODEL 1
REMARK VINA RESULT: -6.297021279      0.000      0.000
REMARK  3 active torsions:
REMARK  status: ('A' for Active; 'I' for Inactive)
REMARK    1  A    between atoms: O1_3  and  C2_4 
REMARK       I    between atoms: C2_4  and  N2_6 
REMARK       I    between atoms: N2_6  and  C3_8 
REMARK       I    between atoms: C3_8  and  N4_12 
REMARK    2  A    between atoms: N4_12  and  N5_14 
REMARK    3  A    between atoms: N5_14  and  C4_16 
ROOT
HETATM    1  N1  UNL     1     -22.131 -30.991   2.355  1.00  0.00    -0.163 NA
HETATM    2  C1  UNL     1     -22.216 -30.416   1.357  1.00  0.00     0.238 C 
HETATM    3  O1  UNL     1     -22.333 -29.741   0.194  1.00  0.00    -0.185 OA
ENDROOT
BRANCH   3   4
HETATM    4  C2  UNL     1     -21.429 -29.906  -0.877  1.00  0.00     0.393 C 
HETATM    5  O2  UNL     1     -20.718 -30.929  -0.804  1.00  0.00    -0.236 OA
HETATM    6  N2  UNL     1     -21.391 -28.944  -1.915  1.00  0.00    -0.133 N 
HETATM    7  C3  UNL     1     -20.496 -29.081  -3.000  1.00  0.00     0.695 C 
ATOM      8  H2  UNL     1     -22.019 -28.141  -1.879  1.00  0.00     0.189 HD
HETATM    9  N3  UNL     1     -20.529 -28.146  -3.918  1.00  0.00    -0.233 N 
HETATM   10  N4  UNL     1     -19.583 -30.152  -3.142  1.00  0.00    -0.130 N 
ATOM     11  H32 UNL     1     -21.187 -27.374  -3.816  1.00  0.00     0.174 HD
ATOM     12  H31 UNL     1     -19.882 -28.244  -4.701  1.00  0.00     0.174 HD
ATOM     13  H4  UNL     1     -18.967 -30.433  -2.379  1.00  0.00     0.205 HD
BRANCH  10  14
HETATM   14  N5  UNL     1     -19.565 -30.811  -4.378  1.00  0.00    -0.264 N 
ATOM     15  H5  UNL     1     -20.402 -31.330  -4.645  1.00  0.00     0.189 HD
BRANCH  14  16
HETATM   16  C4  UNL     1     -18.488 -30.816  -5.280  1.00  0.00     0.200 C 
HETATM   17  N6  UNL     1     -17.414 -31.716  -5.093  1.00  0.00    -0.068 NA
HETATM   18  S1  UNL     1     -18.449 -29.800  -6.547  1.00  0.00    -0.043 SA
ENDBRANCH  14  16
ENDBRANCH  10  14
ENDBRANCH   3   4
TORSDOF 3
ENDMDL
MODEL 2
REMARK VINA RESULT: -5.975623176      3.947      6.760
REMARK  3 active torsions:
REMARK  status: ('A' for Active; 'I' for Inactive)
REMARK    1  A    between atoms: O1_3  and  C2_4 
REMARK       I    between atoms: C2_4  and  N2_6 
REMARK       I    between atoms: N2_6  and  C3_8 
REMARK       I    between atoms: C3_8  and  N4_12 
REMARK    2  A    between atoms: N4_12  and  N5_14 
REMARK    3  A    between atoms: N5_14  and  C4_16 
ROOT
HETATM    1  N1  UNL     1     -19.229 -29.515  -4.252  1.00  0.00    -0.163 NA
HETATM    2  C1  UNL     1     -19.927 -29.956  -3.444  1.00  0.00     0.238 C 
HETATM    3  O1  UNL     1     -20.751 -30.480  -2.513  1.00  0.00    -0.185 OA
ENDROOT
BRANCH   3   4
HETATM    4  C2  UNL     1     -20.934 -29.897  -1.242  1.00  0.00     0.393 C 
HETATM    5  O2  UNL     1     -22.112 -29.573  -0.983  1.00  0.00    -0.236 OA
HETATM    6  N2  UNL     1     -19.821 -29.725  -0.384  1.00  0.00    -0.133 N 
HETATM    7  C3  UNL     1     -19.972 -29.142   0.894  1.00  0.00     0.695 C 
ATOM      8  H2  UNL     1     -18.897 -30.026  -0.694  1.00  0.00     0.189 HD
HETATM    9  N3  UNL     1     -18.890 -29.023   1.624  1.00  0.00    -0.233 N 
HETATM   10  N4  UNL     1     -21.206 -28.688   1.415  1.00  0.00    -0.130 N 
ATOM     11  H32 UNL     1     -18.000 -29.350   1.248  1.00  0.00     0.174 HD
ATOM     12  H31 UNL     1     -18.999 -28.601   2.546  1.00  0.00     0.174 HD
ATOM     13  H4  UNL     1     -21.820 -28.075   0.878  1.00  0.00     0.205 HD
BRANCH  10  14
HETATM   14  N5  UNL     1     -21.548 -29.119   2.704  1.00  0.00    -0.264 N 
ATOM     15  H5  UNL     1     -20.870 -29.697   3.200  1.00  0.00     0.189 HD
BRANCH  14  16
HETATM   16  C4  UNL     1     -22.749 -28.819   3.368  1.00  0.00     0.200 C 
HETATM   17  N6  UNL     1     -23.071 -27.477   3.675  1.00  0.00    -0.068 NA
HETATM   18  S1  UNL     1     -23.788 -29.992   3.796  1.00  0.00    -0.043 SA
ENDBRANCH  14  16
ENDBRANCH  10  14
ENDBRANCH   3   4
TORSDOF 3
ENDMDL
MODEL 3
REMARK VINA RESULT: -5.944713916      3.347      4.344
REMARK  3 active torsions:
REMARK  status: ('A' for Active; 'I' for Inactive)
REMARK    1  A    between atoms: O1_3  and  C2_4 
REMARK       I    between atoms: C2_4  and  N2_6 
REMARK       I    between atoms: N2_6  and  C3_8 
REMARK       I    between atoms: C3_8  and  N4_12 
REMARK    2  A    between atoms: N4_12  and  N5_14 
REMARK    3  A    between atoms: N5_14  and  C4_16 
ROOT
HETATM    1  N1  UNL     1     -25.346 -31.361  -7.019  1.00  0.00    -0.163 NA
HETATM    2  C1  UNL     1     -24.854 -30.843  -6.112  1.00  0.00     0.238 C 
HETATM    3  O1  UNL     1     -24.292 -30.226  -5.051  1.00  0.00    -0.185 OA
ENDROOT
BRANCH   3   4
HETATM    4  C2  UNL     1     -22.962 -30.467  -4.645  1.00  0.00     0.393 C 
HETATM    5  O2  UNL     1     -22.357 -31.317  -5.329  1.00  0.00    -0.236 OA
HETATM    6  N2  UNL     1     -22.430 -29.761  -3.540  1.00  0.00    -0.133 N 
HETATM    7  C3  UNL     1     -21.102 -29.982  -3.109  1.00  0.00     0.695 C 
ATOM      8  H2  UNL     1     -23.012 -29.084  -3.048  1.00  0.00     0.189 HD
HETATM    9  N3  UNL     1     -20.689 -29.285  -2.079  1.00  0.00    -0.233 N 
HETATM   10  N4  UNL     1     -20.216 -30.901  -3.718  1.00  0.00    -0.130 N 
ATOM     11  H32 UNL     1     -21.328 -28.623  -1.640  1.00  0.00     0.174 HD
ATOM     12  H31 UNL     1     -19.731 -29.445  -1.767  1.00  0.00     0.174 HD
ATOM     13  H4  UNL     1     -20.493 -31.864  -3.908  1.00  0.00     0.205 HD
BRANCH  10  14
HETATM   14  N5  UNL     1     -18.939 -30.428  -4.047  1.00  0.00    -0.264 N 
ATOM     15  H5  UNL     1     -18.477 -29.816  -3.374  1.00  0.00     0.189 HD
BRANCH  14  16
HETATM   16  C4  UNL     1     -18.242 -30.727  -5.229  1.00  0.00     0.200 C 
HETATM   17  N6  UNL     1     -17.347 -31.822  -5.263  1.00  0.00    -0.068 NA
HETATM   18  S1  UNL     1     -18.443 -29.837  -6.572  1.00  0.00    -0.043 SA
ENDBRANCH  14  16
ENDBRANCH  10  14
ENDBRANCH   3   4
TORSDOF 3
ENDMDL
MODEL 4
REMARK VINA RESULT: -5.919098346      3.445      6.185
REMARK  3 active torsions:
REMARK  status: ('A' for Active; 'I' for Inactive)
REMARK    1  A    between atoms: O1_3  and  C2_4 
REMARK       I    between atoms: C2_4  and  N2_6 
REMARK       I    between atoms: N2_6  and  C3_8 
REMARK       I    between atoms: C3_8  and  N4_12 
REMARK    2  A    between atoms: N4_12  and  N5_14 
REMARK    3  A    between atoms: N5_14  and  C4_16 
ROOT
HETATM    1  N1  UNL     1     -17.627 -31.608  -5.385  1.00  0.00    -0.163 NA
HETATM    2  C1  UNL     1     -18.476 -30.833  -5.270  1.00  0.00     0.238 C 
HETATM    3  O1  UNL     1     -19.465 -29.922  -5.153  1.00  0.00    -0.185 OA
ENDROOT
BRANCH   3   4
HETATM    4  C2  UNL     1     -19.970 -29.502  -3.904  1.00  0.00     0.393 C 
HETATM    5  O2  UNL     1     -20.276 -28.294  -3.847  1.00  0.00    -0.236 OA
HETATM    6  N2  UNL     1     -20.089 -30.437  -2.848  1.00  0.00    -0.133 N 
HETATM    7  C3  UNL     1     -20.590 -30.047  -1.585  1.00  0.00     0.695 C 
ATOM      8  H2  UNL     1     -19.810 -31.406  -3.000  1.00  0.00     0.189 HD
HETATM    9  N3  UNL     1     -20.669 -30.976  -0.665  1.00  0.00    -0.233 N 
HETATM   10  N4  UNL     1     -20.999 -28.730  -1.270  1.00  0.00    -0.130 N 
ATOM     11  H32 UNL     1     -20.374 -31.925  -0.892  1.00  0.00     0.174 HD
ATOM     12  H31 UNL     1     -21.030 -30.694   0.247  1.00  0.00     0.174 HD
ATOM     13  H4  UNL     1     -20.408 -27.924  -1.473  1.00  0.00     0.205 HD
BRANCH  10  14
HETATM   14  N5  UNL     1     -22.255 -28.583  -0.666  1.00  0.00    -0.264 N 
ATOM     15  H5  UNL     1     -23.068 -28.910  -1.189  1.00  0.00     0.189 HD
BRANCH  14  16
HETATM   16  C4  UNL     1     -22.487 -28.021   0.600  1.00  0.00     0.200 C 
HETATM   17  N6  UNL     1     -23.564 -27.125   0.789  1.00  0.00    -0.068 NA
HETATM   18  S1  UNL     1     -21.536 -28.384   1.866  1.00  0.00    -0.043 SA
ENDBRANCH  14  16
ENDBRANCH  10  14
ENDBRANCH   3   4
TORSDOF 3
ENDMDL
MODEL 5
REMARK VINA RESULT: -5.866576097      2.042      2.286
REMARK  3 active torsions:
REMARK  status: ('A' for Active; 'I' for Inactive)
REMARK    1  A    between atoms: O1_3  and  C2_4 
REMARK       I    between atoms: C2_4  and  N2_6 
REMARK       I    between atoms: N2_6  and  C3_8 
REMARK       I    between atoms: C3_8  and  N4_12 
REMARK    2  A    between atoms: N4_12  and  N5_14 
REMARK    3  A    between atoms: N5_14  and  C4_16 
ROOT
HETATM    1  N1  UNL     1     -21.803 -30.823   0.383  1.00  0.00    -0.163 NA
HETATM    2  C1  UNL     1     -21.939 -30.601  -0.742  1.00  0.00     0.238 C 
HETATM    3  O1  UNL     1     -22.111 -30.354  -2.058  1.00  0.00    -0.185 OA
ENDROOT
BRANCH   3   4
HETATM    4  C2  UNL     1     -21.149 -29.678  -2.838  1.00  0.00     0.393 C 
HETATM    5  O2  UNL     1     -19.972 -29.822  -2.450  1.00  0.00    -0.236 OA
HETATM    6  N2  UNL     1     -21.565 -28.918  -3.957  1.00  0.00    -0.133 N 
HETATM    7  C3  UNL     1     -20.626 -28.229  -4.758  1.00  0.00     0.695 C 
ATOM      8  H2  UNL     1     -22.557 -28.867  -4.190  1.00  0.00     0.189 HD
HETATM    9  N3  UNL     1     -21.097 -27.551  -5.775  1.00  0.00    -0.233 N 
HETATM   10  N4  UNL     1     -19.231 -28.232  -4.519  1.00  0.00    -0.130 N 
ATOM     11  H32 UNL     1     -22.102 -27.549  -5.947  1.00  0.00     0.174 HD
ATOM     12  H31 UNL     1     -20.419 -27.053  -6.352  1.00  0.00     0.174 HD
ATOM     13  H4  UNL     1     -18.847 -28.029  -3.596  1.00  0.00     0.205 HD
BRANCH  10  14
HETATM   14  N5  UNL     1     -18.401 -28.527  -5.609  1.00  0.00    -0.264 N 
ATOM     15  H5  UNL     1     -17.651 -27.868  -5.818  1.00  0.00     0.189 HD
BRANCH  14  16
HETATM   16  C4  UNL     1     -18.518 -29.656  -6.436  1.00  0.00     0.200 C 
HETATM   17  N6  UNL     1     -19.113 -29.537  -7.714  1.00  0.00    -0.068 NA
HETATM   18  S1  UNL     1     -17.978 -31.110  -5.955  1.00  0.00    -0.043 SA
ENDBRANCH  14  16
ENDBRANCH  10  14
ENDBRANCH   3   4
TORSDOF 3
ENDMDL
