MODEL 1
REMARK VINA RESULT: -7.662215512      0.000      0.000
REMARK  2 active torsions:
REMARK  status: ('A' for Active; 'I' for Inactive)
REMARK       I    between atoms: C1_2  and  N6_10 
REMARK    1  A    between atoms: N2_3  and  N3_5 
REMARK    2  A    between atoms: N6_10  and  C3_12 
ROOT
HETATM    1  N1  UNL     1     -27.734 -15.844 -19.567  1.00  0.00    -0.062 NA
HETATM    2  C1  UNL     1     -28.987 -15.881 -20.224  1.00  0.00     0.209 C 
HETATM    3  N2  UNL     1     -29.572 -16.999 -20.432  1.00  0.00    -0.271 N 
ATOM      4  H2  UNL     1     -29.144 -17.872 -20.128  1.00  0.00     0.189 HD
HETATM    5  N6  UNL     1     -29.608 -14.686 -20.660  1.00  0.00    -0.308 N 
ATOM      6  H6  UNL     1     -29.920 -14.555 -21.622  1.00  0.00     0.170 HD
ENDROOT
BRANCH   5   7
HETATM    7  C3  UNL     1     -29.757 -13.756 -19.741  1.00  0.00     0.169 A 
HETATM    8  N7  UNL     1     -28.859 -12.851 -19.353  1.00  0.00    -0.277 N 
HETATM    9  N8  UNL     1     -29.173 -12.017 -18.440  1.00  0.00    -0.278 N 
ATOM     10  H7  UNL     1     -27.932 -12.826 -19.779  1.00  0.00     0.189 HD
HETATM   11  C4  UNL     1     -30.391 -12.074 -17.902  1.00  0.00     0.160 A 
ATOM     12  H8  UNL     1     -28.502 -11.316 -18.127  1.00  0.00     0.189 HD
HETATM   13  N9  UNL     1     -30.893 -11.306 -16.960  1.00  0.00    -0.379 N 
HETATM   14  S1  UNL     1     -31.096 -13.380 -18.750  1.00  0.00    -0.015 SA
ATOM     15  H92 UNL     1     -30.473 -10.527 -16.454  1.00  0.00     0.158 HD
ATOM     16  H91 UNL     1     -31.825 -11.350 -16.548  1.00  0.00     0.158 HD
ENDBRANCH   5   7
BRANCH   3  17
HETATM   17  N3  UNL     1     -30.805 -17.003 -21.081  1.00  0.00    -0.274 N 
HETATM   18  C2  UNL     1     -30.883 -17.580 -22.220  1.00  0.00     0.215 C 
HETATM   19  N4  UNL     1     -29.766 -18.211 -22.841  1.00  0.00    -0.065 NA
HETATM   20  N5  UNL     1     -32.161 -17.573 -22.873  1.00  0.00    -0.065 NA
ATOM     21  H3  UNL     1     -31.621 -16.558 -20.661  1.00  0.00     0.189 HD
ENDBRANCH   3  17
TORSDOF 2
ENDMDL
MODEL 2
REMARK VINA RESULT: -7.328802140      1.346      5.638
REMARK  2 active torsions:
REMARK  status: ('A' for Active; 'I' for Inactive)
REMARK       I    between atoms: C1_2  and  N6_10 
REMARK    1  A    between atoms: N2_3  and  N3_5 
REMARK    2  A    between atoms: N6_10  and  C3_12 
ROOT
HETATM    1  N1  UNL     1     -27.598 -15.243 -20.034  1.00  0.00    -0.062 NA
HETATM    2  C1  UNL     1     -28.724 -14.488 -19.628  1.00  0.00     0.209 C 
HETATM    3  N2  UNL     1     -28.633 -13.221 -19.484  1.00  0.00    -0.271 N 
ATOM      4  H2  UNL     1     -27.750 -12.742 -19.660  1.00  0.00     0.189 HD
HETATM    5  N6  UNL     1     -29.964 -15.123 -19.374  1.00  0.00    -0.308 N 
ATOM      6  H6  UNL     1     -30.468 -14.999 -18.496  1.00  0.00     0.170 HD
ENDROOT
BRANCH   5   7
HETATM    7  C3  UNL     1     -30.422 -15.883 -20.346  1.00  0.00     0.169 A 
HETATM    8  N7  UNL     1     -29.854 -16.975 -20.855  1.00  0.00    -0.277 N 
HETATM    9  N8  UNL     1     -30.441 -17.595 -21.803  1.00  0.00    -0.278 N 
ATOM     10  H7  UNL     1     -28.962 -17.312 -20.492  1.00  0.00     0.189 HD
HETATM   11  C4  UNL     1     -31.606 -17.131 -22.257  1.00  0.00     0.160 A 
ATOM     12  H8  UNL     1     -30.025 -18.433 -22.209  1.00  0.00     0.189 HD
HETATM   13  N9  UNL     1     -32.352 -17.629 -23.218  1.00  0.00    -0.379 N 
HETATM   14  S1  UNL     1     -31.850 -15.755 -21.274  1.00  0.00    -0.015 SA
ATOM     15  H92 UNL     1     -32.207 -18.451 -23.804  1.00  0.00     0.158 HD
ATOM     16  H91 UNL     1     -33.243 -17.275 -23.565  1.00  0.00     0.158 HD
ENDBRANCH   5   7
BRANCH   3  17
HETATM   17  N3  UNL     1     -29.759 -12.506 -19.083  1.00  0.00    -0.274 N 
HETATM   18  C2  UNL     1     -29.816 -12.105 -17.870  1.00  0.00     0.215 C 
HETATM   19  N4  UNL     1     -28.781 -12.363 -16.925  1.00  0.00    -0.065 NA
HETATM   20  N5  UNL     1     -30.984 -11.371 -17.476  1.00  0.00    -0.065 NA
ATOM     21  H3  UNL     1     -30.515 -12.308 -19.738  1.00  0.00     0.189 HD
ENDBRANCH   3  17
TORSDOF 2
ENDMDL
MODEL 3
REMARK VINA RESULT: -6.803709834      1.719      3.076
REMARK  2 active torsions:
REMARK  status: ('A' for Active; 'I' for Inactive)
REMARK       I    between atoms: C1_2  and  N6_10 
REMARK    1  A    between atoms: N2_3  and  N3_5 
REMARK    2  A    between atoms: N6_10  and  C3_12 
ROOT
HETATM    1  N1  UNL     1     -32.802 -16.251 -22.036  1.00  0.00    -0.062 NA
HETATM    2  C1  UNL     1     -31.541 -16.884 -21.919  1.00  0.00     0.209 C 
HETATM    3  N2  UNL     1     -31.062 -17.553 -22.897  1.00  0.00    -0.271 N 
ATOM      4  H2  UNL     1     -31.581 -17.638 -23.770  1.00  0.00     0.189 HD
HETATM    5  N6  UNL     1     -30.795 -16.787 -20.719  1.00  0.00    -0.308 N 
ATOM      6  H6  UNL     1     -30.447 -17.610 -20.227  1.00  0.00     0.170 HD
ENDROOT
BRANCH   5   7
HETATM    7  C3  UNL     1     -30.581 -15.565 -20.281  1.00  0.00     0.169 A 
HETATM    8  N7  UNL     1     -31.466 -14.574 -20.184  1.00  0.00    -0.277 N 
HETATM    9  N8  UNL     1     -31.084 -13.443 -19.734  1.00  0.00    -0.278 N 
ATOM     10  H7  UNL     1     -32.436 -14.717 -20.466  1.00  0.00     0.189 HD
HETATM   11  C4  UNL     1     -29.811 -13.285 -19.374  1.00  0.00     0.160 A 
ATOM     12  H8  UNL     1     -31.744 -12.669 -19.652  1.00  0.00     0.189 HD
HETATM   13  N9  UNL     1     -29.236 -12.205 -18.893  1.00  0.00    -0.379 N 
HETATM   14  S1  UNL     1     -29.153 -14.829 -19.700  1.00  0.00    -0.015 SA
ATOM     15  H92 UNL     1     -29.629 -11.284 -18.697  1.00  0.00     0.158 HD
ATOM     16  H91 UNL     1     -28.262 -12.084 -18.617  1.00  0.00     0.158 HD
ENDBRANCH   5   7
BRANCH   3  17
HETATM   17  N3  UNL     1     -29.819 -18.165 -22.750  1.00  0.00    -0.274 N 
HETATM   18  C2  UNL     1     -29.749 -19.432 -22.908  1.00  0.00     0.215 C 
HETATM   19  N4  UNL     1     -30.886 -20.232 -23.223  1.00  0.00    -0.065 NA
HETATM   20  N5  UNL     1     -28.460 -20.043 -22.752  1.00  0.00    -0.065 NA
ATOM     21  H3  UNL     1     -28.989 -17.618 -22.523  1.00  0.00     0.189 HD
ENDBRANCH   3  17
TORSDOF 2
ENDMDL
MODEL 4
REMARK VINA RESULT: -6.780414956      2.476      6.294
REMARK  2 active torsions:
REMARK  status: ('A' for Active; 'I' for Inactive)
REMARK       I    between atoms: C1_2  and  N6_10 
REMARK    1  A    between atoms: N2_3  and  N3_5 
REMARK    2  A    between atoms: N6_10  and  C3_12 
ROOT
HETATM    1  N1  UNL     1     -33.248 -14.397 -21.017  1.00  0.00    -0.062 NA
HETATM    2  C1  UNL     1     -31.991 -14.408 -20.366  1.00  0.00     0.209 C 
HETATM    3  N2  UNL     1     -31.789 -13.670 -19.342  1.00  0.00    -0.271 N 
ATOM      4  H2  UNL     1     -32.530 -13.067 -18.984  1.00  0.00     0.189 HD
HETATM    5  N6  UNL     1     -30.941 -15.231 -20.839  1.00  0.00    -0.308 N 
ATOM      6  H6  UNL     1     -30.016 -14.861 -21.057  1.00  0.00     0.170 HD
ENDROOT
BRANCH   5   7
HETATM    7  C3  UNL     1     -31.239 -16.506 -20.980  1.00  0.00     0.169 A 
HETATM    8  N7  UNL     1     -32.269 -17.160 -20.444  1.00  0.00    -0.277 N 
HETATM    9  N8  UNL     1     -32.407 -18.405 -20.686  1.00  0.00    -0.278 N 
ATOM     10  H7  UNL     1     -32.938 -16.672 -19.848  1.00  0.00     0.189 HD
HETATM   11  C4  UNL     1     -31.517 -19.015 -21.468  1.00  0.00     0.160 A 
ATOM     12  H8  UNL     1     -33.187 -18.926 -20.287  1.00  0.00     0.189 HD
HETATM   13  N9  UNL     1     -31.492 -20.279 -21.828  1.00  0.00    -0.379 N 
HETATM   14  S1  UNL     1     -30.450 -17.739 -21.860  1.00  0.00    -0.015 SA
ATOM     15  H92 UNL     1     -32.129 -21.041 -21.594  1.00  0.00     0.158 HD
ATOM     16  H91 UNL     1     -30.811 -20.747 -22.426  1.00  0.00     0.158 HD
ENDBRANCH   5   7
BRANCH   3  17
HETATM   17  N3  UNL     1     -30.542 -13.702 -18.724  1.00  0.00    -0.274 N 
HETATM   18  C2  UNL     1     -30.254 -12.767 -17.899  1.00  0.00     0.215 C 
HETATM   19  N4  UNL     1     -31.154 -11.705 -17.596  1.00  0.00    -0.065 NA
HETATM   20  N5  UNL     1     -28.964 -12.818 -17.274  1.00  0.00    -0.065 NA
ATOM     21  H3  UNL     1     -29.877 -14.449 -18.923  1.00  0.00     0.189 HD
ENDBRANCH   3  17
TORSDOF 2
ENDMDL
MODEL 5
REMARK VINA RESULT: -6.719978698      1.617      2.214
REMARK  2 active torsions:
REMARK  status: ('A' for Active; 'I' for Inactive)
REMARK       I    between atoms: C1_2  and  N6_10 
REMARK    1  A    between atoms: N2_3  and  N3_5 
REMARK    2  A    between atoms: N6_10  and  C3_12 
ROOT
HETATM    1  N1  UNL     1     -29.234 -17.631 -20.754  1.00  0.00    -0.062 NA
HETATM    2  C1  UNL     1     -30.408 -16.887 -21.021  1.00  0.00     0.209 C 
HETATM    3  N2  UNL     1     -31.510 -17.488 -21.264  1.00  0.00    -0.271 N 
ATOM      4  H2  UNL     1     -31.555 -18.507 -21.268  1.00  0.00     0.189 HD
HETATM    5  N6  UNL     1     -30.380 -15.472 -21.025  1.00  0.00    -0.308 N 
ATOM      6  H6  UNL     1     -30.719 -14.923 -21.815  1.00  0.00     0.170 HD
ENDROOT
BRANCH   5   7
HETATM    7  C3  UNL     1     -29.886 -14.911 -19.941  1.00  0.00     0.169 A 
HETATM    8  N7  UNL     1     -28.798 -15.278 -19.264  1.00  0.00    -0.277 N 
HETATM    9  N8  UNL     1     -28.461 -14.617 -18.227  1.00  0.00    -0.278 N 
ATOM     10  H7  UNL     1     -28.242 -16.077 -19.572  1.00  0.00     0.189 HD
HETATM   11  C4  UNL     1     -29.206 -13.579 -17.849  1.00  0.00     0.160 A 
ATOM     12  H8  UNL     1     -27.633 -14.880 -17.693  1.00  0.00     0.189 HD
HETATM   13  N9  UNL     1     -29.020 -12.785 -16.818  1.00  0.00    -0.379 N 
HETATM   14  S1  UNL     1     -30.432 -13.566 -19.041  1.00  0.00    -0.015 SA
ATOM     15  H92 UNL     1     -28.288 -12.792 -16.108  1.00  0.00     0.158 HD
ATOM     16  H91 UNL     1     -29.590 -11.990 -16.530  1.00  0.00     0.158 HD
ENDBRANCH   5   7
BRANCH   3  17
HETATM   17  N3  UNL     1     -32.648 -16.728 -21.523  1.00  0.00    -0.274 N 
HETATM   18  C2  UNL     1     -33.287 -16.952 -22.609  1.00  0.00     0.215 C 
HETATM   19  N4  UNL     1     -32.878 -17.938 -23.553  1.00  0.00    -0.065 NA
HETATM   20  N5  UNL     1     -34.456 -16.158 -22.858  1.00  0.00    -0.065 NA
ATOM     21  H3  UNL     1     -32.964 -16.015 -20.866  1.00  0.00     0.189 HD
ENDBRANCH   3  17
TORSDOF 2
ENDMDL
