MODEL 1
REMARK VINA RESULT: -6.914661991      0.000      0.000
REMARK  7 active torsions:
REMARK  status: ('A' for Active; 'I' for Inactive)
REMARK    1  A    between atoms: N2_4  and  N3_6 
REMARK    2  A    between atoms: N3_6  and  C1_8 
REMARK    3  A    between atoms: C1_8  and  C2_9 
REMARK    4  A    between atoms: C2_9  and  N5_13 
REMARK    5  A    between atoms: C6_17  and  C7_18 
REMARK    6  A    between atoms: C7_18  and  N6_19 
REMARK    7  A    between atoms: N6_19  and  C8_21 
ROOT
HETATM    1  C2  UNL     1       2.548  18.342 -14.500  1.00  0.00     0.092 C 
HETATM    2  N4  UNL     1       2.566  17.091 -14.223  1.00  0.00    -0.388 N 
ATOM      3  H41 UNL     1       2.853  16.779 -13.296  1.00  0.00     0.157 HD
ATOM      4  H42 UNL     1       2.295  16.375 -14.896  1.00  0.00     0.157 HD
ENDROOT
BRANCH   1   5
HETATM    5  C1  UNL     1       2.132  18.794 -15.844  1.00  0.00     0.216 C 
BRANCH   5   6
HETATM    6  N3  UNL     1       0.765  18.629 -16.177  1.00  0.00    -0.316 N 
ATOM      7  H3  UNL     1       0.046  18.821 -15.480  1.00  0.00     0.182 HD
BRANCH   6   8
HETATM    8  N2  UNL     1       0.401  18.204 -17.454  1.00  0.00    -0.253 N 
HETATM    9  N1  UNL     1       1.257  17.747 -18.267  1.00  0.00    -0.331 N 
ATOM     10  H12 UNL     1       2.230  17.696 -17.966  1.00  0.00     0.178 HD
ATOM     11  H11 UNL     1       0.990  17.437 -19.202  1.00  0.00     0.178 HD
ATOM     12  H2  UNL     1      -0.577  18.264 -17.739  1.00  0.00     0.207 HD
ENDBRANCH   6   8
ENDBRANCH   5   6
ENDBRANCH   1   5
BRANCH   1  13
HETATM   13  N5  UNL     1       2.925  19.335 -13.566  1.00  0.00    -0.363 N 
HETATM   14  C3  UNL     1       2.638  20.783 -13.747  1.00  0.00     0.125 C 
HETATM   15  C4  UNL     1       3.942  21.385 -13.258  1.00  0.00     0.022 C 
HETATM   16  C5  UNL     1       4.257  20.561 -12.051  1.00  0.00     0.028 C 
HETATM   17  C6  UNL     1       3.637  19.204 -12.327  1.00  0.00     0.103 C 
BRANCH  17  18
HETATM   18  C7  UNL     1       2.827  18.757 -11.156  1.00  0.00     0.147 C 
BRANCH  18  19
HETATM   19  N6  UNL     1       3.656  18.102 -10.186  1.00  0.00    -0.366 N 
ATOM     20  H6  UNL     1       4.064  17.196 -10.417  1.00  0.00     0.161 HD
BRANCH  19  21
HETATM   21  C8  UNL     1       3.932  18.680  -8.901  1.00  0.00     0.348 C 
HETATM   22  O1  UNL     1       4.969  19.382  -8.776  1.00  0.00    -0.284 OA
ENDBRANCH  19  21
ENDBRANCH  18  19
ENDBRANCH  17  18
ENDBRANCH   1  13
TORSDOF 7
ENDMDL
MODEL 2
REMARK VINA RESULT: -6.857235578      2.538      5.776
REMARK  7 active torsions:
REMARK  status: ('A' for Active; 'I' for Inactive)
REMARK    1  A    between atoms: N2_4  and  N3_6 
REMARK    2  A    between atoms: N3_6  and  C1_8 
REMARK    3  A    between atoms: C1_8  and  C2_9 
REMARK    4  A    between atoms: C2_9  and  N5_13 
REMARK    5  A    between atoms: C6_17  and  C7_18 
REMARK    6  A    between atoms: C7_18  and  N6_19 
REMARK    7  A    between atoms: N6_19  and  C8_21 
ROOT
HETATM    1  C2  UNL     1       3.201  19.027 -11.242  1.00  0.00     0.092 C 
HETATM    2  N4  UNL     1       2.336  18.194 -11.688  1.00  0.00    -0.388 N 
ATOM      3  H41 UNL     1       2.011  18.264 -12.652  1.00  0.00     0.157 HD
ATOM      4  H42 UNL     1       1.952  17.441 -11.117  1.00  0.00     0.157 HD
ENDROOT
BRANCH   1   5
HETATM    5  C1  UNL     1       3.672  18.925  -9.845  1.00  0.00     0.216 C 
BRANCH   5   6
HETATM    6  N3  UNL     1       3.021  19.746  -8.892  1.00  0.00    -0.316 N 
ATOM      7  H3  UNL     1       2.124  19.458  -8.501  1.00  0.00     0.182 HD
BRANCH   6   8
HETATM    8  N2  UNL     1       3.604  20.946  -8.486  1.00  0.00    -0.253 N 
HETATM    9  N1  UNL     1       3.272  21.506  -7.399  1.00  0.00    -0.331 N 
ATOM     10  H12 UNL     1       2.563  21.057  -6.821  1.00  0.00     0.178 HD
ATOM     11  H11 UNL     1       3.699  22.385  -7.102  1.00  0.00     0.178 HD
ATOM     12  H2  UNL     1       4.311  21.382  -9.076  1.00  0.00     0.207 HD
ENDBRANCH   6   8
ENDBRANCH   5   6
ENDBRANCH   1   5
BRANCH   1  13
HETATM   13  N5  UNL     1       3.733  20.072 -12.034  1.00  0.00    -0.363 N 
HETATM   14  C3  UNL     1       5.007  20.771 -11.720  1.00  0.00     0.125 C 
HETATM   15  C4  UNL     1       4.621  22.203 -12.045  1.00  0.00     0.022 C 
HETATM   16  C5  UNL     1       3.833  22.056 -13.307  1.00  0.00     0.028 C 
HETATM   17  C6  UNL     1       3.208  20.676 -13.224  1.00  0.00     0.103 C 
BRANCH  17  18
HETATM   18  C7  UNL     1       3.442  19.925 -14.492  1.00  0.00     0.147 C 
BRANCH  18  19
HETATM   19  N6  UNL     1       2.238  19.274 -14.925  1.00  0.00    -0.366 N 
ATOM     20  H6  UNL     1       1.377  19.818 -14.983  1.00  0.00     0.161 HD
BRANCH  19  21
HETATM   21  C8  UNL     1       2.207  17.883 -15.278  1.00  0.00     0.348 C 
HETATM   22  O1  UNL     1       2.608  17.046 -14.429  1.00  0.00    -0.284 OA
ENDBRANCH  19  21
ENDBRANCH  18  19
ENDBRANCH  17  18
ENDBRANCH   1  13
TORSDOF 7
ENDMDL
MODEL 3
REMARK VINA RESULT: -6.813225782      1.482      1.521
REMARK  7 active torsions:
REMARK  status: ('A' for Active; 'I' for Inactive)
REMARK    1  A    between atoms: N2_4  and  N3_6 
REMARK    2  A    between atoms: N3_6  and  C1_8 
REMARK    3  A    between atoms: C1_8  and  C2_9 
REMARK    4  A    between atoms: C2_9  and  N5_13 
REMARK    5  A    between atoms: C6_17  and  C7_18 
REMARK    6  A    between atoms: C7_18  and  N6_19 
REMARK    7  A    between atoms: N6_19  and  C8_21 
ROOT
HETATM    1  C2  UNL     1       2.873  18.826 -14.327  1.00  0.00     0.092 C 
HETATM    2  N4  UNL     1       2.673  17.600 -14.013  1.00  0.00    -0.388 N 
ATOM      3  H41 UNL     1       2.837  17.286 -13.057  1.00  0.00     0.157 HD
ATOM      4  H42 UNL     1       2.343  16.907 -14.685  1.00  0.00     0.157 HD
ENDROOT
BRANCH   1   5
HETATM    5  C1  UNL     1       2.635  19.281 -15.713  1.00  0.00     0.216 C 
BRANCH   5   6
HETATM    6  N3  UNL     1       1.287  19.504 -16.087  1.00  0.00    -0.316 N 
ATOM      7  H3  UNL     1       0.853  20.409 -15.909  1.00  0.00     0.182 HD
BRANCH   6   8
HETATM    8  N2  UNL     1       0.553  18.488 -16.699  1.00  0.00    -0.253 N 
HETATM    9  N1  UNL     1       0.933  17.962 -17.787  1.00  0.00    -0.331 N 
ATOM     10  H12 UNL     1       1.797  18.299 -18.210  1.00  0.00     0.178 HD
ATOM     11  H11 UNL     1       0.396  17.219 -18.234  1.00  0.00     0.178 HD
ATOM     12  H2  UNL     1      -0.309  18.163 -16.262  1.00  0.00     0.207 HD
ENDBRANCH   6   8
ENDBRANCH   5   6
ENDBRANCH   1   5
BRANCH   1  13
HETATM   13  N5  UNL     1       3.331  19.787 -13.395  1.00  0.00    -0.363 N 
HETATM   14  C3  UNL     1       2.650  21.087 -13.157  1.00  0.00     0.125 C 
HETATM   15  C4  UNL     1       3.851  22.007 -13.035  1.00  0.00     0.022 C 
HETATM   16  C5  UNL     1       4.806  21.201 -12.214  1.00  0.00     0.028 C 
HETATM   17  C6  UNL     1       4.480  19.755 -12.537  1.00  0.00     0.103 C 
BRANCH  17  18
HETATM   18  C7  UNL     1       4.330  18.965 -11.279  1.00  0.00     0.147 C 
BRANCH  18  19
HETATM   19  N6  UNL     1       3.208  19.433 -10.517  1.00  0.00    -0.366 N 
ATOM     20  H6  UNL     1       3.208  20.395 -10.180  1.00  0.00     0.161 HD
BRANCH  19  21
HETATM   21  C8  UNL     1       2.086  18.590 -10.213  1.00  0.00     0.348 C 
HETATM   22  O1  UNL     1       1.670  17.810 -11.108  1.00  0.00    -0.284 OA
ENDBRANCH  19  21
ENDBRANCH  18  19
ENDBRANCH  17  18
ENDBRANCH   1  13
TORSDOF 7
ENDMDL
MODEL 4
REMARK VINA RESULT: -6.664764990      2.944      6.365
REMARK  7 active torsions:
REMARK  status: ('A' for Active; 'I' for Inactive)
REMARK    1  A    between atoms: N2_4  and  N3_6 
REMARK    2  A    between atoms: N3_6  and  C1_8 
REMARK    3  A    between atoms: C1_8  and  C2_9 
REMARK    4  A    between atoms: C2_9  and  N5_13 
REMARK    5  A    between atoms: C6_17  and  C7_18 
REMARK    6  A    between atoms: C7_18  and  N6_19 
REMARK    7  A    between atoms: N6_19  and  C8_21 
ROOT
HETATM    1  C2  UNL     1       3.760  19.321 -10.138  1.00  0.00     0.092 C 
HETATM    2  N4  UNL     1       3.112  18.215 -10.097  1.00  0.00    -0.388 N 
ATOM      3  H41 UNL     1       2.742  17.810 -10.957  1.00  0.00     0.157 HD
ATOM      4  H42 UNL     1       2.952  17.704  -9.230  1.00  0.00     0.157 HD
ENDROOT
BRANCH   1   5
HETATM    5  C1  UNL     1       4.296  19.908  -8.893  1.00  0.00     0.216 C 
BRANCH   5   6
HETATM    6  N3  UNL     1       3.406  20.698  -8.126  1.00  0.00    -0.316 N 
ATOM      7  H3  UNL     1       2.486  20.935  -8.499  1.00  0.00     0.182 HD
BRANCH   6   8
HETATM    8  N2  UNL     1       3.783  21.153  -6.862  1.00  0.00    -0.253 N 
HETATM    9  N1  UNL     1       4.218  20.359  -5.977  1.00  0.00    -0.331 N 
ATOM     10  H12 UNL     1       4.289  19.369  -6.210  1.00  0.00     0.178 HD
ATOM     11  H11 UNL     1       4.494  20.693  -5.053  1.00  0.00     0.178 HD
ATOM     12  H2  UNL     1       3.705  22.147  -6.647  1.00  0.00     0.207 HD
ENDBRANCH   6   8
ENDBRANCH   5   6
ENDBRANCH   1   5
BRANCH   1  13
HETATM   13  N5  UNL     1       3.982  20.030 -11.342  1.00  0.00    -0.363 N 
HETATM   14  C3  UNL     1       5.080  21.016 -11.522  1.00  0.00     0.125 C 
HETATM   15  C4  UNL     1       4.355  22.095 -12.305  1.00  0.00     0.022 C 
HETATM   16  C5  UNL     1       3.535  21.307 -13.276  1.00  0.00     0.028 C 
HETATM   17  C6  UNL     1       3.250  19.992 -12.575  1.00  0.00     0.103 C 
BRANCH  17  18
HETATM   18  C7  UNL     1       3.560  18.846 -13.479  1.00  0.00     0.147 C 
BRANCH  18  19
HETATM   19  N6  UNL     1       2.470  17.914 -13.508  1.00  0.00    -0.366 N 
ATOM     20  H6  UNL     1       1.922  17.769 -12.660  1.00  0.00     0.161 HD
BRANCH  19  21
HETATM   21  C8  UNL     1       2.124  17.178 -14.692  1.00  0.00     0.348 C 
HETATM   22  O1  UNL     1       2.537  17.609 -15.800  1.00  0.00    -0.284 OA
ENDBRANCH  19  21
ENDBRANCH  18  19
ENDBRANCH  17  18
ENDBRANCH   1  13
TORSDOF 7
ENDMDL
MODEL 5
REMARK VINA RESULT: -6.574991590      3.033      6.101
REMARK  7 active torsions:
REMARK  status: ('A' for Active; 'I' for Inactive)
REMARK    1  A    between atoms: N2_4  and  N3_6 
REMARK    2  A    between atoms: N3_6  and  C1_8 
REMARK    3  A    between atoms: C1_8  and  C2_9 
REMARK    4  A    between atoms: C2_9  and  N5_13 
REMARK    5  A    between atoms: C6_17  and  C7_18 
REMARK    6  A    between atoms: C7_18  and  N6_19 
REMARK    7  A    between atoms: N6_19  and  C8_21 
ROOT
HETATM    1  C2  UNL     1       3.148  19.020 -11.320  1.00  0.00     0.092 C 
HETATM    2  N4  UNL     1       2.311  18.181 -11.809  1.00  0.00    -0.388 N 
ATOM      3  H41 UNL     1       2.029  18.254 -12.786  1.00  0.00     0.157 HD
ATOM      4  H42 UNL     1       1.910  17.421 -11.260  1.00  0.00     0.157 HD
ENDROOT
BRANCH   1   5
HETATM    5  C1  UNL     1       3.557  18.914  -9.904  1.00  0.00     0.216 C 
BRANCH   5   6
HETATM    6  N3  UNL     1       2.931  19.798  -8.992  1.00  0.00    -0.316 N 
ATOM      7  H3  UNL     1       1.964  19.637  -8.711  1.00  0.00     0.182 HD
BRANCH   6   8
HETATM    8  N2  UNL     1       3.633  20.888  -8.478  1.00  0.00    -0.253 N 
HETATM    9  N1  UNL     1       3.227  21.510  -7.453  1.00  0.00    -0.331 N 
ATOM     10  H12 UNL     1       2.366  21.195  -7.006  1.00  0.00     0.178 HD
ATOM     11  H11 UNL     1       3.741  22.308  -7.077  1.00  0.00     0.178 HD
ATOM     12  H2  UNL     1       4.492  21.190  -8.938  1.00  0.00     0.207 HD
ENDBRANCH   6   8
ENDBRANCH   5   6
ENDBRANCH   1   5
BRANCH   1  13
HETATM   13  N5  UNL     1       3.704  20.074 -12.082  1.00  0.00    -0.363 N 
HETATM   14  C3  UNL     1       5.013  20.708 -11.772  1.00  0.00     0.125 C 
HETATM   15  C4  UNL     1       4.679  22.166 -12.028  1.00  0.00     0.022 C 
HETATM   16  C5  UNL     1       3.857  22.105 -13.276  1.00  0.00     0.028 C 
HETATM   17  C6  UNL     1       3.177  20.749 -13.233  1.00  0.00     0.103 C 
BRANCH  17  18
HETATM   18  C7  UNL     1       3.350  20.042 -14.536  1.00  0.00     0.147 C 
BRANCH  18  19
HETATM   19  N6  UNL     1       2.075  19.706 -15.103  1.00  0.00    -0.366 N 
ATOM     20  H6  UNL     1       1.268  19.619 -14.486  1.00  0.00     0.161 HD
BRANCH  19  21
HETATM   21  C8  UNL     1       1.899  19.487 -16.512  1.00  0.00     0.348 C 
HETATM   22  O1  UNL     1       1.692  20.488 -17.246  1.00  0.00    -0.284 OA
ENDBRANCH  19  21
ENDBRANCH  18  19
ENDBRANCH  17  18
ENDBRANCH   1  13
TORSDOF 7
ENDMDL
