MODEL 1
REMARK VINA RESULT: -5.120523038      0.000      0.000
REMARK  8 active torsions:
REMARK  status: ('A' for Active; 'I' for Inactive)
REMARK    1  A    between atoms: N1_2  and  C3_4 
REMARK    2  A    between atoms: N1_2  and  C6_16 
REMARK    3  A    between atoms: C3_4  and  C4_5 
REMARK    4  A    between atoms: C4_5  and  N2_6 
REMARK    5  A    between atoms: C5_8  and  N3_9 
REMARK    6  A    between atoms: N3_9  and  N4_11 
REMARK    7  A    between atoms: C6_16  and  O1_17 
REMARK    8  A    between atoms: O1_17  and  N6_18 
ROOT
HETATM    1  C4  UNL     1     -43.131 -21.376  -3.461  1.00  0.00     0.148 C 
ENDROOT
BRANCH   1   2
HETATM    2  C3  UNL     1     -41.802 -20.971  -4.011  1.00  0.00     0.258 C 
BRANCH   2   3
HETATM    3  N1  UNL     1     -41.609 -19.575  -4.224  1.00  0.00    -0.050 N 
HETATM    4  C1  UNL     1     -40.637 -19.246  -5.232  1.00  0.00     0.274 C 
HETATM    5  C2  UNL     1     -42.897 -19.022  -4.670  1.00  0.00     0.274 C 
BRANCH   3   6
HETATM    6  C6  UNL     1     -41.199 -18.976  -2.972  1.00  0.00     0.436 C 
BRANCH   6   7
HETATM    7  O1  UNL     1     -42.219 -18.469  -2.212  1.00  0.00    -0.260 OA
BRANCH   7   8
HETATM    8  N6  UNL     1     -41.872 -17.691  -1.197  1.00  0.00    -0.309 N 
ATOM      9  H62 UNL     1     -41.000 -17.164  -1.218  1.00  0.00     0.184 HD
ATOM     10  H61 UNL     1     -42.519 -17.654  -0.410  1.00  0.00     0.184 HD
ENDBRANCH   7   8
ENDBRANCH   6   7
ENDBRANCH   3   6
ENDBRANCH   2   3
ENDBRANCH   1   2
BRANCH   1  11
HETATM   11  N2  UNL     1     -43.215 -21.365  -2.034  1.00  0.00    -0.383 N 
HETATM   12  C5  UNL     1     -42.477 -22.115  -1.288  1.00  0.00     0.194 C 
ATOM     13  H2  UNL     1     -43.885 -20.738  -1.588  1.00  0.00     0.160 HD
BRANCH  12  14
HETATM   14  N3  UNL     1     -42.606 -22.060   0.124  1.00  0.00    -0.283 N 
ATOM     15  H3  UNL     1     -42.231 -21.269   0.649  1.00  0.00     0.189 HD
BRANCH  14  16
HETATM   16  N4  UNL     1     -43.251 -23.103   0.778  1.00  0.00    -0.248 N 
HETATM   17  N5  UNL     1     -43.364 -24.222   0.210  1.00  0.00    -0.331 N 
ATOM     18  H52 UNL     1     -42.977 -24.346  -0.726  1.00  0.00     0.178 HD
ATOM     19  H51 UNL     1     -43.837 -24.988   0.691  1.00  0.00     0.178 HD
ATOM     20  H4  UNL     1     -43.632 -22.963   1.713  1.00  0.00     0.207 HD
ENDBRANCH  14  16
ENDBRANCH  12  14
ENDBRANCH   1  11
TORSDOF 8
ENDMDL
MODEL 2
REMARK VINA RESULT: -4.952880988      2.538      5.732
REMARK  8 active torsions:
REMARK  status: ('A' for Active; 'I' for Inactive)
REMARK    1  A    between atoms: N1_2  and  C3_4 
REMARK    2  A    between atoms: N1_2  and  C6_16 
REMARK    3  A    between atoms: C3_4  and  C4_5 
REMARK    4  A    between atoms: C4_5  and  N2_6 
REMARK    5  A    between atoms: C5_8  and  N3_9 
REMARK    6  A    between atoms: N3_9  and  N4_11 
REMARK    7  A    between atoms: C6_16  and  O1_17 
REMARK    8  A    between atoms: O1_17  and  N6_18 
ROOT
HETATM    1  C4  UNL     1     -41.765 -19.480  -3.422  1.00  0.00     0.148 C 
ENDROOT
BRANCH   1   2
HETATM    2  C3  UNL     1     -41.347 -18.698  -2.220  1.00  0.00     0.258 C 
BRANCH   2   3
HETATM    3  N1  UNL     1     -41.729 -19.234  -0.956  1.00  0.00    -0.050 N 
HETATM    4  C1  UNL     1     -40.649 -19.410  -0.022  1.00  0.00     0.274 C 
HETATM    5  C2  UNL     1     -42.673 -18.285  -0.349  1.00  0.00     0.274 C 
BRANCH   3   6
HETATM    6  C6  UNL     1     -42.362 -20.517  -1.179  1.00  0.00     0.436 C 
BRANCH   6   7
HETATM    7  O1  UNL     1     -41.895 -21.537  -0.393  1.00  0.00    -0.260 OA
BRANCH   7   8
HETATM    8  N6  UNL     1     -42.799 -22.386   0.072  1.00  0.00    -0.309 N 
ATOM      9  H62 UNL     1     -43.598 -22.662  -0.498  1.00  0.00     0.184 HD
ATOM     10  H61 UNL     1     -42.648 -22.740   1.017  1.00  0.00     0.184 HD
ENDBRANCH   7   8
ENDBRANCH   6   7
ENDBRANCH   3   6
ENDBRANCH   2   3
ENDBRANCH   1   2
BRANCH   1  11
HETATM   11  N2  UNL     1     -40.844 -19.432  -4.514  1.00  0.00    -0.383 N 
HETATM   12  C5  UNL     1     -41.203 -19.120  -5.713  1.00  0.00     0.194 C 
ATOM     13  H2  UNL     1     -39.864 -19.653  -4.338  1.00  0.00     0.160 HD
BRANCH  12  14
HETATM   14  N3  UNL     1     -40.242 -19.089  -6.758  1.00  0.00    -0.283 N 
ATOM     15  H3  UNL     1     -40.513 -19.299  -7.719  1.00  0.00     0.189 HD
BRANCH  14  16
HETATM   16  N4  UNL     1     -38.927 -18.767  -6.446  1.00  0.00    -0.248 N 
HETATM   17  N5  UNL     1     -38.040 -18.827  -7.339  1.00  0.00    -0.331 N 
ATOM     18  H52 UNL     1     -38.304 -19.112  -8.283  1.00  0.00     0.178 HD
ATOM     19  H51 UNL     1     -37.074 -18.590  -7.111  1.00  0.00     0.178 HD
ATOM     20  H4  UNL     1     -38.680 -18.484  -5.498  1.00  0.00     0.207 HD
ENDBRANCH  14  16
ENDBRANCH  12  14
ENDBRANCH   1  11
TORSDOF 8
ENDMDL
MODEL 3
REMARK VINA RESULT: -4.909167521      2.588      5.285
REMARK  8 active torsions:
REMARK  status: ('A' for Active; 'I' for Inactive)
REMARK    1  A    between atoms: N1_2  and  C3_4 
REMARK    2  A    between atoms: N1_2  and  C6_16 
REMARK    3  A    between atoms: C3_4  and  C4_5 
REMARK    4  A    between atoms: C4_5  and  N2_6 
REMARK    5  A    between atoms: C5_8  and  N3_9 
REMARK    6  A    between atoms: N3_9  and  N4_11 
REMARK    7  A    between atoms: C6_16  and  O1_17 
REMARK    8  A    between atoms: O1_17  and  N6_18 
ROOT
HETATM    1  C4  UNL     1     -42.302 -20.085  -2.487  1.00  0.00     0.148 C 
ENDROOT
BRANCH   1   2
HETATM    2  C3  UNL     1     -41.677 -20.356  -1.157  1.00  0.00     0.258 C 
BRANCH   2   3
HETATM    3  N1  UNL     1     -41.341 -19.213  -0.375  1.00  0.00    -0.050 N 
HETATM    4  C1  UNL     1     -40.189 -18.484  -0.835  1.00  0.00     0.274 C 
HETATM    5  C2  UNL     1     -42.486 -18.292  -0.436  1.00  0.00     0.274 C 
BRANCH   3   6
HETATM    6  C6  UNL     1     -41.102 -19.647   0.985  1.00  0.00     0.436 C 
BRANCH   6   7
HETATM    7  O1  UNL     1     -41.102 -21.004   1.167  1.00  0.00    -0.260 OA
BRANCH   7   8
HETATM    8  N6  UNL     1     -40.878 -21.437   2.399  1.00  0.00    -0.309 N 
ATOM      9  H62 UNL     1     -41.485 -21.157   3.169  1.00  0.00     0.184 HD
ATOM     10  H61 UNL     1     -40.076 -22.054   2.527  1.00  0.00     0.184 HD
ENDBRANCH   7   8
ENDBRANCH   6   7
ENDBRANCH   3   6
ENDBRANCH   2   3
ENDBRANCH   1   2
BRANCH   1  11
HETATM   11  N2  UNL     1     -41.419 -20.233  -3.601  1.00  0.00    -0.383 N 
HETATM   12  C5  UNL     1     -41.116 -19.253  -4.384  1.00  0.00     0.194 C 
ATOM     13  H2  UNL     1     -41.012 -21.150  -3.785  1.00  0.00     0.160 HD
BRANCH  12  14
HETATM   14  N3  UNL     1     -40.233 -19.462  -5.475  1.00  0.00    -0.283 N 
ATOM     15  H3  UNL     1     -39.368 -19.988  -5.350  1.00  0.00     0.189 HD
BRANCH  14  16
HETATM   16  N4  UNL     1     -40.569 -18.935  -6.717  1.00  0.00    -0.248 N 
HETATM   17  N5  UNL     1     -41.677 -19.226  -7.241  1.00  0.00    -0.331 N 
ATOM     18  H52 UNL     1     -42.315 -19.847  -6.742  1.00  0.00     0.178 HD
ATOM     19  H51 UNL     1     -41.924 -18.839  -8.152  1.00  0.00     0.178 HD
ATOM     20  H4  UNL     1     -39.920 -18.316  -7.202  1.00  0.00     0.207 HD
ENDBRANCH  14  16
ENDBRANCH  12  14
ENDBRANCH   1  11
TORSDOF 8
ENDMDL
MODEL 4
REMARK VINA RESULT: -4.903715570      2.362      5.531
REMARK  8 active torsions:
REMARK  status: ('A' for Active; 'I' for Inactive)
REMARK    1  A    between atoms: N1_2  and  C3_4 
REMARK    2  A    between atoms: N1_2  and  C6_16 
REMARK    3  A    between atoms: C3_4  and  C4_5 
REMARK    4  A    between atoms: C4_5  and  N2_6 
REMARK    5  A    between atoms: C5_8  and  N3_9 
REMARK    6  A    between atoms: N3_9  and  N4_11 
REMARK    7  A    between atoms: C6_16  and  O1_17 
REMARK    8  A    between atoms: O1_17  and  N6_18 
ROOT
HETATM    1  C4  UNL     1     -42.654 -19.214  -4.690  1.00  0.00     0.148 C 
ENDROOT
BRANCH   1   2
HETATM    2  C3  UNL     1     -42.049 -19.465  -3.347  1.00  0.00     0.258 C 
BRANCH   2   3
HETATM    3  N1  UNL     1     -42.502 -20.630  -2.661  1.00  0.00    -0.050 N 
HETATM    4  C1  UNL     1     -43.869 -20.991  -2.921  1.00  0.00     0.274 C 
HETATM    5  C2  UNL     1     -41.666 -21.752  -3.114  1.00  0.00     0.274 C 
BRANCH   3   6
HETATM    6  C6  UNL     1     -42.342 -20.411  -1.239  1.00  0.00     0.436 C 
BRANCH   6   7
HETATM    7  O1  UNL     1     -42.482 -19.110  -0.836  1.00  0.00    -0.260 OA
BRANCH   7   8
HETATM    8  N6  UNL     1     -41.583 -18.658   0.026  1.00  0.00    -0.309 N 
ATOM      9  H62 UNL     1     -41.025 -19.303   0.585  1.00  0.00     0.184 HD
ATOM     10  H61 UNL     1     -41.486 -17.645   0.094  1.00  0.00     0.184 HD
ENDBRANCH   7   8
ENDBRANCH   6   7
ENDBRANCH   3   6
ENDBRANCH   2   3
ENDBRANCH   1   2
BRANCH   1  11
HETATM   11  N2  UNL     1     -41.724 -19.239  -5.776  1.00  0.00    -0.383 N 
HETATM   12  C5  UNL     1     -40.453 -19.099  -5.607  1.00  0.00     0.194 C 
ATOM     13  H2  UNL     1     -42.080 -19.373  -6.722  1.00  0.00     0.160 HD
BRANCH  12  14
HETATM   14  N3  UNL     1     -39.579 -19.133  -6.724  1.00  0.00    -0.283 N 
ATOM     15  H3  UNL     1     -39.858 -19.599  -7.588  1.00  0.00     0.189 HD
BRANCH  14  16
HETATM   16  N4  UNL     1     -38.336 -18.520  -6.619  1.00  0.00    -0.248 N 
HETATM   17  N5  UNL     1     -37.489 -18.661  -7.541  1.00  0.00    -0.331 N 
ATOM     18  H52 UNL     1     -37.730 -19.227  -8.355  1.00  0.00     0.178 HD
ATOM     19  H51 UNL     1     -36.577 -18.210  -7.464  1.00  0.00     0.178 HD
ATOM     20  H4  UNL     1     -38.111 -17.957  -5.799  1.00  0.00     0.207 HD
ENDBRANCH  14  16
ENDBRANCH  12  14
ENDBRANCH   1  11
TORSDOF 8
ENDMDL
MODEL 5
REMARK VINA RESULT: -4.898407055      2.349      5.249
REMARK  8 active torsions:
REMARK  status: ('A' for Active; 'I' for Inactive)
REMARK    1  A    between atoms: N1_2  and  C3_4 
REMARK    2  A    between atoms: N1_2  and  C6_16 
REMARK    3  A    between atoms: C3_4  and  C4_5 
REMARK    4  A    between atoms: C4_5  and  N2_6 
REMARK    5  A    between atoms: C5_8  and  N3_9 
REMARK    6  A    between atoms: N3_9  and  N4_11 
REMARK    7  A    between atoms: C6_16  and  O1_17 
REMARK    8  A    between atoms: O1_17  and  N6_18 
ROOT
HETATM    1  C4  UNL     1     -42.542 -20.191  -2.862  1.00  0.00     0.148 C 
ENDROOT
BRANCH   1   2
HETATM    2  C3  UNL     1     -41.697 -19.103  -2.283  1.00  0.00     0.258 C 
BRANCH   2   3
HETATM    3  N1  UNL     1     -41.526 -19.124  -0.868  1.00  0.00    -0.050 N 
HETATM    4  C1  UNL     1     -40.245 -18.658  -0.407  1.00  0.00     0.274 C 
HETATM    5  C2  UNL     1     -42.542 -18.231  -0.294  1.00  0.00     0.274 C 
BRANCH   3   6
HETATM    6  C6  UNL     1     -41.717 -20.484  -0.408  1.00  0.00     0.436 C 
BRANCH   6   7
HETATM    7  O1  UNL     1     -40.729 -20.961   0.411  1.00  0.00    -0.260 OA
BRANCH   7   8
HETATM    8  N6  UNL     1     -41.095 -21.322   1.632  1.00  0.00    -0.309 N 
ATOM      9  H62 UNL     1     -40.451 -21.231   2.418  1.00  0.00     0.184 HD
ATOM     10  H61 UNL     1     -42.041 -21.689   1.735  1.00  0.00     0.184 HD
ENDBRANCH   7   8
ENDBRANCH   6   7
ENDBRANCH   3   6
ENDBRANCH   2   3
ENDBRANCH   1   2
BRANCH   1  11
HETATM   11  N2  UNL     1     -42.497 -20.285  -4.288  1.00  0.00    -0.383 N 
HETATM   12  C5  UNL     1     -42.188 -19.285  -5.042  1.00  0.00     0.194 C 
ATOM     13  H2  UNL     1     -42.719 -21.179  -4.726  1.00  0.00     0.160 HD
BRANCH  12  14
HETATM   14  N3  UNL     1     -42.161 -19.439  -6.452  1.00  0.00    -0.283 N 
ATOM     15  H3  UNL     1     -42.965 -19.826  -6.948  1.00  0.00     0.189 HD
BRANCH  14  16
HETATM   16  N4  UNL     1     -41.019 -19.054  -7.145  1.00  0.00    -0.248 N 
HETATM   17  N5  UNL     1     -39.911 -19.007  -6.547  1.00  0.00    -0.331 N 
ATOM     18  H52 UNL     1     -39.869 -19.254  -5.558  1.00  0.00     0.178 HD
ATOM     19  H51 UNL     1     -39.073 -18.725  -7.056  1.00  0.00     0.178 HD
ATOM     20  H4  UNL     1     -41.078 -18.811  -8.133  1.00  0.00     0.207 HD
ENDBRANCH  14  16
ENDBRANCH  12  14
ENDBRANCH   1  11
TORSDOF 8
ENDMDL
