MODEL 1
REMARK VINA RESULT: -6.584529559      0.000      0.000
REMARK  6 active torsions:
REMARK  status: ('A' for Active; 'I' for Inactive)
REMARK    1  A    between atoms: C3_3  and  C4_4 
REMARK    2  A    between atoms: C7_10  and  C8_11 
REMARK    3  A    between atoms: C9_12  and  C10_13 
REMARK    4  A    between atoms: C10_13  and  C11_14 
REMARK    5  A    between atoms: C11_14  and  C12_15 
REMARK    6  A    between atoms: C12_15  and  C13_16 
ROOT
HETATM    1  C1  UNL     1    -110.461-175.569 305.446  1.00  0.00     0.112 C 
HETATM    2  C2  UNL     1    -110.595-175.687 306.908  1.00  0.00    -0.105 C 
HETATM    3  C3  UNL     1    -110.686-175.783 308.115  1.00  0.00    -0.063 C 
ENDROOT
BRANCH   3   4
HETATM    4  C4  UNL     1    -110.779-175.875 309.546  1.00  0.00     0.071 A 
HETATM    5  C5  UNL     1    -109.862-176.349 310.461  1.00  0.00     0.048 A 
HETATM    6 BR1  UNL     1    -108.152-177.028 309.963  1.00  0.00    -0.048 Br
HETATM    7  C6  UNL     1    -110.394-176.240 311.737  1.00  0.00     0.109 A 
HETATM    8  N1  UNL     1    -111.621-175.707 311.596  1.00  0.00    -0.356 N 
HETATM    9  C7  UNL     1    -111.879-175.476 310.276  1.00  0.00     0.107 A 
ATOM     10  H1  UNL     1    -112.264-175.505 312.363  1.00  0.00     0.166 HD
BRANCH   9  11
HETATM   11  C8  UNL     1    -113.083-174.913 309.724  1.00  0.00    -0.047 C 
HETATM   12  C9  UNL     1    -114.101-174.460 309.264  1.00  0.00    -0.100 C 
BRANCH  12  13
HETATM   13  C10 UNL     1    -115.360-173.906 308.705  1.00  0.00     0.094 C 
BRANCH  13  14
HETATM   14  C11 UNL     1    -116.352-175.045 308.722  1.00  0.00     0.014 C 
BRANCH  14  15
HETATM   15  C12 UNL     1    -117.588-174.759 307.913  1.00  0.00     0.032 C 
BRANCH  15  16
HETATM   16  C13 UNL     1    -118.701-174.364 308.827  1.00  0.00     0.222 C 
HETATM   17  F1  UNL     1    -118.321-174.721 310.119  1.00  0.00    -0.255 F 
ENDBRANCH  15  16
ENDBRANCH  14  15
ENDBRANCH  13  14
ENDBRANCH  12  13
ENDBRANCH   9  11
ENDBRANCH   3   4
TORSDOF 6
ENDMDL
MODEL 2
REMARK VINA RESULT: -6.554996636      1.386      1.429
REMARK  6 active torsions:
REMARK  status: ('A' for Active; 'I' for Inactive)
REMARK    1  A    between atoms: C3_3  and  C4_4 
REMARK    2  A    between atoms: C7_10  and  C8_11 
REMARK    3  A    between atoms: C9_12  and  C10_13 
REMARK    4  A    between atoms: C10_13  and  C11_14 
REMARK    5  A    between atoms: C11_14  and  C12_15 
REMARK    6  A    between atoms: C12_15  and  C13_16 
ROOT
HETATM    1  C1  UNL     1    -110.312-175.566 305.349  1.00  0.00     0.112 C 
HETATM    2  C2  UNL     1    -110.587-175.904 306.757  1.00  0.00    -0.105 C 
HETATM    3  C3  UNL     1    -110.805-176.200 307.914  1.00  0.00    -0.063 C 
ENDROOT
BRANCH   3   4
HETATM    4  C4  UNL     1    -111.039-176.557 309.285  1.00  0.00     0.071 A 
HETATM    5  C5  UNL     1    -110.142-176.937 310.263  1.00  0.00     0.048 A 
HETATM    6 BR1  UNL     1    -108.266-177.073 309.957  1.00  0.00    -0.048 Br
HETATM    7  C6  UNL     1    -110.831-177.185 311.440  1.00  0.00     0.109 A 
HETATM    8  N1  UNL     1    -112.131-176.959 311.180  1.00  0.00    -0.356 N 
HETATM    9  C7  UNL     1    -112.284-176.576 309.879  1.00  0.00     0.107 A 
ATOM     10  H1  UNL     1    -112.890-177.058 311.854  1.00  0.00     0.166 HD
BRANCH   9  11
HETATM   11  C8  UNL     1    -113.521-176.245 309.223  1.00  0.00    -0.047 C 
HETATM   12  C9  UNL     1    -114.547-175.959 308.657  1.00  0.00    -0.100 C 
BRANCH  12  13
HETATM   13  C10 UNL     1    -115.807-175.609 307.954  1.00  0.00     0.094 C 
BRANCH  13  14
HETATM   14  C11 UNL     1    -116.642-174.856 308.962  1.00  0.00     0.014 C 
BRANCH  14  15
HETATM   15  C12 UNL     1    -117.797-174.121 308.336  1.00  0.00     0.032 C 
BRANCH  15  16
HETATM   16  C13 UNL     1    -118.670-175.093 307.612  1.00  0.00     0.222 C 
HETATM   17  F1  UNL     1    -118.498-174.867 306.248  1.00  0.00    -0.255 F 
ENDBRANCH  15  16
ENDBRANCH  14  15
ENDBRANCH  13  14
ENDBRANCH  12  13
ENDBRANCH   9  11
ENDBRANCH   3   4
TORSDOF 6
ENDMDL
MODEL 3
REMARK VINA RESULT: -6.303197256      1.677      1.875
REMARK  6 active torsions:
REMARK  status: ('A' for Active; 'I' for Inactive)
REMARK    1  A    between atoms: C3_3  and  C4_4 
REMARK    2  A    between atoms: C7_10  and  C8_11 
REMARK    3  A    between atoms: C9_12  and  C10_13 
REMARK    4  A    between atoms: C10_13  and  C11_14 
REMARK    5  A    between atoms: C11_14  and  C12_15 
REMARK    6  A    between atoms: C12_15  and  C13_16 
ROOT
HETATM    1  C1  UNL     1    -110.417-175.958 305.449  1.00  0.00     0.112 C 
HETATM    2  C2  UNL     1    -110.396-175.908 306.922  1.00  0.00    -0.105 C 
HETATM    3  C3  UNL     1    -110.363-175.853 308.134  1.00  0.00    -0.063 C 
ENDROOT
BRANCH   3   4
HETATM    4  C4  UNL     1    -110.327-175.763 309.568  1.00  0.00     0.071 A 
HETATM    5  C5  UNL     1    -109.382-176.232 310.457  1.00  0.00     0.048 A 
HETATM    6 BR1  UNL     1    -107.812-177.165 309.911  1.00  0.00    -0.048 Br
HETATM    7  C6  UNL     1    -109.773-175.910 311.748  1.00  0.00     0.109 A 
HETATM    8  N1  UNL     1    -110.943-175.255 311.642  1.00  0.00    -0.356 N 
HETATM    9  C7  UNL     1    -111.301-175.152 310.329  1.00  0.00     0.107 A 
ATOM     10  H1  UNL     1    -111.483-174.888 312.427  1.00  0.00     0.166 HD
BRANCH   9  11
HETATM   11  C8  UNL     1    -112.485-174.519 309.811  1.00  0.00    -0.047 C 
HETATM   12  C9  UNL     1    -113.474-173.999 309.358  1.00  0.00    -0.100 C 
BRANCH  12  13
HETATM   13  C10 UNL     1    -114.694-173.366 308.798  1.00  0.00     0.094 C 
BRANCH  13  14
HETATM   14  C11 UNL     1    -115.762-174.433 308.834  1.00  0.00     0.014 C 
BRANCH  14  15
HETATM   15  C12 UNL     1    -115.352-175.698 308.129  1.00  0.00     0.032 C 
BRANCH  15  16
HETATM   16  C13 UNL     1    -115.250-176.810 309.122  1.00  0.00     0.222 C 
HETATM   17  F1  UNL     1    -113.998-177.397 308.956  1.00  0.00    -0.255 F 
ENDBRANCH  15  16
ENDBRANCH  14  15
ENDBRANCH  13  14
ENDBRANCH  12  13
ENDBRANCH   9  11
ENDBRANCH   3   4
TORSDOF 6
ENDMDL
MODEL 4
REMARK VINA RESULT: -6.122164139      1.986      2.433
REMARK  6 active torsions:
REMARK  status: ('A' for Active; 'I' for Inactive)
REMARK    1  A    between atoms: C3_3  and  C4_4 
REMARK    2  A    between atoms: C7_10  and  C8_11 
REMARK    3  A    between atoms: C9_12  and  C10_13 
REMARK    4  A    between atoms: C10_13  and  C11_14 
REMARK    5  A    between atoms: C11_14  and  C12_15 
REMARK    6  A    between atoms: C12_15  and  C13_16 
ROOT
HETATM    1  C1  UNL     1    -110.413-175.560 305.590  1.00  0.00     0.112 C 
HETATM    2  C2  UNL     1    -110.545-175.994 306.992  1.00  0.00    -0.105 C 
HETATM    3  C3  UNL     1    -110.636-176.342 308.152  1.00  0.00    -0.063 C 
ENDROOT
BRANCH   3   4
HETATM    4  C4  UNL     1    -110.740-176.731 309.531  1.00  0.00     0.071 A 
HETATM    5  C5  UNL     1    -109.749-177.069 310.429  1.00  0.00     0.048 A 
HETATM    6 BR1  UNL     1    -107.897-177.087 309.976  1.00  0.00    -0.048 Br
HETATM    7  C6  UNL     1    -110.327-177.375 311.651  1.00  0.00     0.109 A 
HETATM    8  N1  UNL     1    -111.655-177.224 311.496  1.00  0.00    -0.356 N 
HETATM    9  C7  UNL     1    -111.931-176.834 310.218  1.00  0.00     0.107 A 
ATOM     10  H1  UNL     1    -112.351-177.378 312.226  1.00  0.00     0.166 HD
BRANCH   9  11
HETATM   11  C8  UNL     1    -113.234-176.570 309.666  1.00  0.00    -0.047 C 
HETATM   12  C9  UNL     1    -114.324-176.329 309.211  1.00  0.00    -0.100 C 
BRANCH  12  13
HETATM   13  C10 UNL     1    -115.664-176.025 308.649  1.00  0.00     0.094 C 
BRANCH  13  14
HETATM   14  C11 UNL     1    -115.723-174.520 308.522  1.00  0.00     0.014 C 
BRANCH  14  15
HETATM   15  C12 UNL     1    -114.610-173.825 309.257  1.00  0.00     0.032 C 
BRANCH  15  16
HETATM   16  C13 UNL     1    -113.811-173.009 308.294  1.00  0.00     0.222 C 
HETATM   17  F1  UNL     1    -112.542-173.579 308.222  1.00  0.00    -0.255 F 
ENDBRANCH  15  16
ENDBRANCH  14  15
ENDBRANCH  13  14
ENDBRANCH  12  13
ENDBRANCH   9  11
ENDBRANCH   3   4
TORSDOF 6
ENDMDL
MODEL 5
REMARK VINA RESULT: -6.090363065      1.368      1.454
REMARK  6 active torsions:
REMARK  status: ('A' for Active; 'I' for Inactive)
REMARK    1  A    between atoms: C3_3  and  C4_4 
REMARK    2  A    between atoms: C7_10  and  C8_11 
REMARK    3  A    between atoms: C9_12  and  C10_13 
REMARK    4  A    between atoms: C10_13  and  C11_14 
REMARK    5  A    between atoms: C11_14  and  C12_15 
REMARK    6  A    between atoms: C12_15  and  C13_16 
ROOT
HETATM    1  C1  UNL     1    -110.984-175.111 305.027  1.00  0.00     0.112 C 
HETATM    2  C2  UNL     1    -111.229-175.613 306.391  1.00  0.00    -0.105 C 
HETATM    3  C3  UNL     1    -111.421-176.010 307.522  1.00  0.00    -0.063 C 
ENDROOT
BRANCH   3   4
HETATM    4  C4  UNL     1    -111.660-176.458 308.865  1.00  0.00     0.071 A 
HETATM    5  C5  UNL     1    -110.780-176.982 309.790  1.00  0.00     0.048 A 
HETATM    6 BR1  UNL     1    -108.924-177.231 309.434  1.00  0.00    -0.048 Br
HETATM    7  C6  UNL     1    -111.467-177.272 310.959  1.00  0.00     0.109 A 
HETATM    8  N1  UNL     1    -112.750-176.930 310.744  1.00  0.00    -0.356 N 
HETATM    9  C7  UNL     1    -112.893-176.433 309.482  1.00  0.00     0.107 A 
ATOM     10  H1  UNL     1    -113.504-177.027 311.425  1.00  0.00     0.166 HD
BRANCH   9  11
HETATM   11  C8  UNL     1    -114.112-175.960 308.881  1.00  0.00    -0.047 C 
HETATM   12  C9  UNL     1    -115.141-175.558 308.396  1.00  0.00    -0.100 C 
BRANCH  12  13
HETATM   13  C10 UNL     1    -116.406-175.056 307.804  1.00  0.00     0.094 C 
BRANCH  13  14
HETATM   14  C11 UNL     1    -117.341-174.830 308.970  1.00  0.00     0.014 C 
BRANCH  14  15
HETATM   15  C12 UNL     1    -118.465-173.884 308.646  1.00  0.00     0.032 C 
BRANCH  15  16
HETATM   16  C13 UNL     1    -119.682-174.272 309.421  1.00  0.00     0.222 C 
HETATM   17  F1  UNL     1    -120.034-175.559 309.020  1.00  0.00    -0.255 F 
ENDBRANCH  15  16
ENDBRANCH  14  15
ENDBRANCH  13  14
ENDBRANCH  12  13
ENDBRANCH   9  11
ENDBRANCH   3   4
TORSDOF 6
ENDMDL
