MODEL 1
REMARK VINA RESULT: -8.686073554      0.000      0.000
REMARK  6 active torsions:
REMARK  status: ('A' for Active; 'I' for Inactive)
REMARK       I    between atoms: C1_2  and  N1_3 
REMARK       I    between atoms: C1_2  and  N3_15 
REMARK    1  A    between atoms: N1_3  and  C2_5 
REMARK    2  A    between atoms: C2_5  and  C3_6 
REMARK    3  A    between atoms: C3_6  and  C4_7 
REMARK    4  A    between atoms: C4_7  and  C5_8 
REMARK    5  A    between atoms: C5_8  and  N2_9 
REMARK    6  A    between atoms: N3_15  and  C10_17 
ROOT
HETATM    1  O1  UNL     1      35.720 -17.245   0.694  1.00  0.00    -0.247 OA
HETATM    2  C1  UNL     1      35.664 -17.607  -0.511  1.00  0.00     0.316 C 
HETATM    3  N1  UNL     1      34.404 -18.032  -1.011  1.00  0.00    -0.343 N 
ATOM      4  H1  UNL     1      34.311 -18.334  -1.981  1.00  0.00     0.164 HD
HETATM    5  N3  UNL     1      36.805 -17.600  -1.360  1.00  0.00    -0.334 N 
ATOM      6  H3  UNL     1      36.689 -17.905  -2.327  1.00  0.00     0.165 HD
ENDROOT
BRANCH   3   7
HETATM    7  C2  UNL     1      33.271 -18.033  -0.148  1.00  0.00     0.124 C 
BRANCH   7   8
HETATM    8  C3  UNL     1      32.354 -16.893  -0.151  1.00  0.00     0.021 C 
BRANCH   8   9
HETATM    9  C4  UNL     1      32.804 -15.680   0.576  1.00  0.00     0.021 C 
BRANCH   9  10
HETATM   10  C5  UNL     1      31.764 -15.026   1.388  1.00  0.00     0.126 C 
BRANCH  10  11
HETATM   11  N2  UNL     1      31.875 -15.448   2.813  1.00  0.00    -0.352 N 
HETATM   12  C6  UNL     1      32.973 -16.181   3.403  1.00  0.00     0.126 C 
HETATM   13  C7  UNL     1      33.013 -15.653   4.820  1.00  0.00     0.029 C 
HETATM   14  C8  UNL     1      31.616 -15.219   5.155  1.00  0.00     0.104 C 
HETATM   15  C9  UNL     1      30.935 -15.214   3.850  1.00  0.00     0.219 C 
HETATM   16  O2  UNL     1      29.695 -15.034   3.618  1.00  0.00    -0.273 OA
ENDBRANCH  10  11
ENDBRANCH   9  10
ENDBRANCH   8   9
ENDBRANCH   7   8
ENDBRANCH   3   7
BRANCH   5  17
HETATM   17  C10 UNL     1      38.105 -17.188  -0.932  1.00  0.00     0.035 C 
HETATM   18  C11 UNL     1      38.163 -15.736  -0.540  1.00  0.00     0.035 C 
HETATM   19  C12 UNL     1      39.529 -15.401   0.028  1.00  0.00    -0.012 C 
HETATM   20  C13 UNL     1      40.528 -15.610  -1.086  1.00  0.00     0.009 C 
HETATM   21  C17 UNL     1      39.790 -16.255   1.228  1.00  0.00     0.009 C 
HETATM   22  C14 UNL     1      40.519 -17.063  -1.485  1.00  0.00    -0.012 C 
HETATM   23  C15 UNL     1      40.915 -17.900  -0.305  1.00  0.00     0.009 C 
HETATM   24  C19 UNL     1      39.155 -17.406  -2.028  1.00  0.00     0.035 C 
HETATM   25  C16 UNL     1      39.871 -17.701   0.778  1.00  0.00    -0.012 C 
HETATM   26  C18 UNL     1      38.542 -18.085   0.228  1.00  0.00     0.035 C 
ENDBRANCH   5  17
TORSDOF 6
ENDMDL
MODEL 2
REMARK VINA RESULT: -8.555724416      0.099      1.494
REMARK  6 active torsions:
REMARK  status: ('A' for Active; 'I' for Inactive)
REMARK       I    between atoms: C1_2  and  N1_3 
REMARK       I    between atoms: C1_2  and  N3_15 
REMARK    1  A    between atoms: N1_3  and  C2_5 
REMARK    2  A    between atoms: C2_5  and  C3_6 
REMARK    3  A    between atoms: C3_6  and  C4_7 
REMARK    4  A    between atoms: C4_7  and  C5_8 
REMARK    5  A    between atoms: C5_8  and  N2_9 
REMARK    6  A    between atoms: N3_15  and  C10_17 
ROOT
HETATM    1  O1  UNL     1      35.703 -17.373   0.671  1.00  0.00    -0.247 OA
HETATM    2  C1  UNL     1      35.641 -17.686  -0.547  1.00  0.00     0.316 C 
HETATM    3  N1  UNL     1      34.370 -18.051  -1.067  1.00  0.00    -0.343 N 
ATOM      4  H1  UNL     1      34.273 -18.311  -2.049  1.00  0.00     0.164 HD
HETATM    5  N3  UNL     1      36.785 -17.680  -1.392  1.00  0.00    -0.334 N 
ATOM      6  H3  UNL     1      36.664 -17.943  -2.370  1.00  0.00     0.165 HD
ENDROOT
BRANCH   3   7
HETATM    7  C2  UNL     1      33.235 -18.052  -0.208  1.00  0.00     0.124 C 
BRANCH   7   8
HETATM    8  C3  UNL     1      32.347 -16.889  -0.178  1.00  0.00     0.021 C 
BRANCH   8   9
HETATM    9  C4  UNL     1      32.838 -15.701   0.563  1.00  0.00     0.021 C 
BRANCH   9  10
HETATM   10  C5  UNL     1      31.818 -15.015   1.375  1.00  0.00     0.126 C 
BRANCH  10  11
HETATM   11  N2  UNL     1      31.911 -15.444   2.799  1.00  0.00    -0.352 N 
HETATM   12  C6  UNL     1      32.994 -16.195   3.395  1.00  0.00     0.126 C 
HETATM   13  C7  UNL     1      33.031 -15.674   4.814  1.00  0.00     0.029 C 
HETATM   14  C8  UNL     1      31.638 -15.220   5.140  1.00  0.00     0.104 C 
HETATM   15  C9  UNL     1      30.968 -15.200   3.830  1.00  0.00     0.219 C 
HETATM   16  O2  UNL     1      29.733 -15.000   3.590  1.00  0.00    -0.273 OA
ENDBRANCH  10  11
ENDBRANCH   9  10
ENDBRANCH   8   9
ENDBRANCH   7   8
ENDBRANCH   3   7
BRANCH   5  17
HETATM   17  C10 UNL     1      38.095 -17.326  -0.944  1.00  0.00     0.035 C 
HETATM   18  C11 UNL     1      39.143 -17.474  -2.015  1.00  0.00     0.035 C 
HETATM   19  C12 UNL     1      40.479 -16.957  -1.515  1.00  0.00    -0.012 C 
HETATM   20  C13 UNL     1      40.884 -17.842  -0.359  1.00  0.00     0.009 C 
HETATM   21  C17 UNL     1      40.344 -15.515  -1.141  1.00  0.00     0.009 C 
HETATM   22  C14 UNL     1      39.872 -17.696   0.746  1.00  0.00    -0.012 C 
HETATM   23  C15 UNL     1      39.844 -16.268   1.205  1.00  0.00     0.009 C 
HETATM   24  C19 UNL     1      38.536 -18.187   0.246  1.00  0.00     0.035 C 
HETATM   25  C16 UNL     1      39.393 -15.413   0.036  1.00  0.00    -0.012 C 
HETATM   26  C18 UNL     1      38.057 -15.893  -0.412  1.00  0.00     0.035 C 
ENDBRANCH   5  17
TORSDOF 6
ENDMDL
MODEL 3
REMARK VINA RESULT: -8.507484723      0.092      1.518
REMARK  6 active torsions:
REMARK  status: ('A' for Active; 'I' for Inactive)
REMARK       I    between atoms: C1_2  and  N1_3 
REMARK       I    between atoms: C1_2  and  N3_15 
REMARK    1  A    between atoms: N1_3  and  C2_5 
REMARK    2  A    between atoms: C2_5  and  C3_6 
REMARK    3  A    between atoms: C3_6  and  C4_7 
REMARK    4  A    between atoms: C4_7  and  C5_8 
REMARK    5  A    between atoms: C5_8  and  N2_9 
REMARK    6  A    between atoms: N3_15  and  C10_17 
ROOT
HETATM    1  O1  UNL     1      35.674 -17.348   0.715  1.00  0.00    -0.247 OA
HETATM    2  C1  UNL     1      35.666 -17.654  -0.506  1.00  0.00     0.316 C 
HETATM    3  N1  UNL     1      34.424 -18.038  -1.079  1.00  0.00    -0.343 N 
ATOM      4  H1  UNL     1      34.370 -18.294  -2.065  1.00  0.00     0.164 HD
HETATM    5  N3  UNL     1      36.843 -17.623  -1.305  1.00  0.00    -0.334 N 
ATOM      6  H3  UNL     1      36.765 -17.881  -2.288  1.00  0.00     0.165 HD
ENDROOT
BRANCH   3   7
HETATM    7  C2  UNL     1      33.255 -18.064  -0.266  1.00  0.00     0.124 C 
BRANCH   7   8
HETATM    8  C3  UNL     1      32.369 -16.900  -0.231  1.00  0.00     0.021 C 
BRANCH   8   9
HETATM    9  C4  UNL     1      32.828 -15.743   0.578  1.00  0.00     0.021 C 
BRANCH   9  10
HETATM   10  C5  UNL     1      31.775 -15.090   1.373  1.00  0.00     0.126 C 
BRANCH  10  11
HETATM   11  N2  UNL     1      31.892 -15.474   2.808  1.00  0.00    -0.352 N 
HETATM   12  C6  UNL     1      32.988 -16.202   3.410  1.00  0.00     0.126 C 
HETATM   13  C7  UNL     1      33.043 -15.637   4.812  1.00  0.00     0.029 C 
HETATM   14  C8  UNL     1      31.653 -15.181   5.145  1.00  0.00     0.104 C 
HETATM   15  C9  UNL     1      30.963 -15.204   3.845  1.00  0.00     0.219 C 
HETATM   16  O2  UNL     1      29.723 -15.018   3.618  1.00  0.00    -0.273 OA
ENDBRANCH  10  11
ENDBRANCH   9  10
ENDBRANCH   8   9
ENDBRANCH   7   8
ENDBRANCH   3   7
BRANCH   5  17
HETATM   17  C10 UNL     1      38.128 -17.249  -0.803  1.00  0.00     0.035 C 
HETATM   18  C11 UNL     1      38.553 -18.064   0.389  1.00  0.00     0.035 C 
HETATM   19  C12 UNL     1      39.974 -17.708   0.787  1.00  0.00    -0.012 C 
HETATM   20  C13 UNL     1      39.958 -16.257   1.210  1.00  0.00     0.009 C 
HETATM   21  C17 UNL     1      40.892 -17.982  -0.362  1.00  0.00     0.009 C 
HETATM   22  C14 UNL     1      39.564 -15.407   0.031  1.00  0.00    -0.012 C 
HETATM   23  C15 UNL     1      40.571 -15.589  -1.066  1.00  0.00     0.009 C 
HETATM   24  C19 UNL     1      38.161 -15.775  -0.382  1.00  0.00     0.035 C 
HETATM   25  C16 UNL     1      40.532 -17.043  -1.498  1.00  0.00    -0.012 C 
HETATM   26  C18 UNL     1      39.147 -17.367  -1.937  1.00  0.00     0.035 C 
ENDBRANCH   5  17
TORSDOF 6
ENDMDL
MODEL 4
REMARK VINA RESULT: -8.420443034      1.309      2.174
REMARK  6 active torsions:
REMARK  status: ('A' for Active; 'I' for Inactive)
REMARK       I    between atoms: C1_2  and  N1_3 
REMARK       I    between atoms: C1_2  and  N3_15 
REMARK    1  A    between atoms: N1_3  and  C2_5 
REMARK    2  A    between atoms: C2_5  and  C3_6 
REMARK    3  A    between atoms: C3_6  and  C4_7 
REMARK    4  A    between atoms: C4_7  and  C5_8 
REMARK    5  A    between atoms: C5_8  and  N2_9 
REMARK    6  A    between atoms: N3_15  and  C10_17 
ROOT
HETATM    1  O1  UNL     1      35.674 -18.270   0.106  1.00  0.00    -0.247 OA
HETATM    2  C1  UNL     1      35.828 -18.323  -1.142  1.00  0.00     0.316 C 
HETATM    3  N1  UNL     1      34.743 -18.809  -1.918  1.00  0.00    -0.343 N 
ATOM      4  H1  UNL     1      34.823 -18.869  -2.934  1.00  0.00     0.164 HD
HETATM    5  N3  UNL     1      37.035 -17.915  -1.776  1.00  0.00    -0.334 N 
ATOM      6  H3  UNL     1      37.093 -17.983  -2.792  1.00  0.00     0.165 HD
ENDROOT
BRANCH   3   7
HETATM    7  C2  UNL     1      33.542 -19.213  -1.269  1.00  0.00     0.124 C 
BRANCH   7   8
HETATM    8  C3  UNL     1      32.307 -18.460  -1.491  1.00  0.00     0.021 C 
BRANCH   8   9
HETATM    9  C4  UNL     1      31.829 -17.625  -0.362  1.00  0.00     0.021 C 
BRANCH   9  10
HETATM   10  C5  UNL     1      32.721 -16.511   0.002  1.00  0.00     0.126 C 
BRANCH  10  11
HETATM   11  N2  UNL     1      32.519 -16.125   1.427  1.00  0.00    -0.352 N 
HETATM   12  C6  UNL     1      31.981 -16.969   2.471  1.00  0.00     0.126 C 
HETATM   13  C7  UNL     1      32.706 -16.487   3.707  1.00  0.00     0.029 C 
HETATM   14  C8  UNL     1      33.053 -15.047   3.466  1.00  0.00     0.104 C 
HETATM   15  C9  UNL     1      32.811 -14.872   2.024  1.00  0.00     0.219 C 
HETATM   16  O2  UNL     1      32.842 -13.789   1.355  1.00  0.00    -0.273 OA
ENDBRANCH  10  11
ENDBRANCH   9  10
ENDBRANCH   8   9
ENDBRANCH   7   8
ENDBRANCH   3   7
BRANCH   5  17
HETATM   17  C10 UNL     1      38.171 -17.416  -1.066  1.00  0.00     0.035 C 
HETATM   18  C11 UNL     1      38.491 -18.218   0.168  1.00  0.00     0.035 C 
HETATM   19  C12 UNL     1      39.778 -17.718   0.797  1.00  0.00    -0.012 C 
HETATM   20  C13 UNL     1      39.527 -16.294   1.233  1.00  0.00     0.009 C 
HETATM   21  C17 UNL     1      40.895 -17.849  -0.190  1.00  0.00     0.009 C 
HETATM   22  C14 UNL     1      39.231 -15.455   0.018  1.00  0.00    -0.012 C 
HETATM   23  C15 UNL     1      40.415 -15.485  -0.902  1.00  0.00     0.009 C 
HETATM   24  C19 UNL     1      37.964 -15.963  -0.624  1.00  0.00     0.035 C 
HETATM   25  C16 UNL     1      40.615 -16.919  -1.356  1.00  0.00    -0.012 C 
HETATM   26  C18 UNL     1      39.365 -17.381  -2.020  1.00  0.00     0.035 C 
ENDBRANCH   5  17
TORSDOF 6
ENDMDL
MODEL 5
REMARK VINA RESULT: -8.392236321      0.993      1.268
REMARK  6 active torsions:
REMARK  status: ('A' for Active; 'I' for Inactive)
REMARK       I    between atoms: C1_2  and  N1_3 
REMARK       I    between atoms: C1_2  and  N3_15 
REMARK    1  A    between atoms: N1_3  and  C2_5 
REMARK    2  A    between atoms: C2_5  and  C3_6 
REMARK    3  A    between atoms: C3_6  and  C4_7 
REMARK    4  A    between atoms: C4_7  and  C5_8 
REMARK    5  A    between atoms: C5_8  and  N2_9 
REMARK    6  A    between atoms: N3_15  and  C10_17 
ROOT
HETATM    1  O1  UNL     1      35.570 -17.221   0.633  1.00  0.00    -0.247 OA
HETATM    2  C1  UNL     1      35.550 -17.727  -0.520  1.00  0.00     0.316 C 
HETATM    3  N1  UNL     1      34.314 -18.247  -0.988  1.00  0.00    -0.343 N 
ATOM      4  H1  UNL     1      34.250 -18.666  -1.916  1.00  0.00     0.164 HD
HETATM    5  N3  UNL     1      36.709 -17.787  -1.344  1.00  0.00    -0.334 N 
ATOM      6  H3  UNL     1      36.622 -18.209  -2.268  1.00  0.00     0.165 HD
ENDROOT
BRANCH   3   7
HETATM    7  C2  UNL     1      33.163 -18.179  -0.151  1.00  0.00     0.124 C 
BRANCH   7   8
HETATM    8  C3  UNL     1      32.248 -17.043  -0.265  1.00  0.00     0.021 C 
BRANCH   8   9
HETATM    9  C4  UNL     1      32.171 -16.136   0.907  1.00  0.00     0.021 C 
BRANCH   9  10
HETATM   10  C5  UNL     1      31.840 -16.799   2.180  1.00  0.00     0.126 C 
BRANCH  10  11
HETATM   11  N2  UNL     1      31.388 -15.797   3.187  1.00  0.00    -0.352 N 
HETATM   12  C6  UNL     1      30.026 -15.577   3.619  1.00  0.00     0.126 C 
HETATM   13  C7  UNL     1      30.190 -15.155   5.063  1.00  0.00     0.029 C 
HETATM   14  C8  UNL     1      31.542 -14.514   5.170  1.00  0.00     0.104 C 
HETATM   15  C9  UNL     1      32.198 -14.880   3.904  1.00  0.00     0.219 C 
HETATM   16  O2  UNL     1      33.320 -14.470   3.461  1.00  0.00    -0.273 OA
ENDBRANCH  10  11
ENDBRANCH   9  10
ENDBRANCH   8   9
ENDBRANCH   7   8
ENDBRANCH   3   7
BRANCH   5  17
HETATM   17  C10 UNL     1      37.987 -17.288  -0.945  1.00  0.00     0.035 C 
HETATM   18  C11 UNL     1      37.955 -15.834  -0.555  1.00  0.00     0.035 C 
HETATM   19  C12 UNL     1      39.308 -15.406  -0.018  1.00  0.00    -0.012 C 
HETATM   20  C13 UNL     1      40.293 -15.549  -1.155  1.00  0.00     0.009 C 
HETATM   21  C17 UNL     1      39.653 -16.238   1.176  1.00  0.00     0.009 C 
HETATM   22  C14 UNL     1      40.374 -16.999  -1.553  1.00  0.00    -0.012 C 
HETATM   23  C15 UNL     1      40.852 -17.806  -0.382  1.00  0.00     0.009 C 
HETATM   24  C19 UNL     1      39.024 -17.435  -2.065  1.00  0.00     0.035 C 
HETATM   25  C16 UNL     1      39.822 -17.677   0.724  1.00  0.00    -0.012 C 
HETATM   26  C18 UNL     1      38.510 -18.151   0.204  1.00  0.00     0.035 C 
ENDBRANCH   5  17
TORSDOF 6
ENDMDL
