MODEL 1
REMARK VINA RESULT: -7.972159776      0.000      0.000
REMARK  9 active torsions:
REMARK  status: ('A' for Active; 'I' for Inactive)
REMARK    1  A    between atoms: C2_2  and  C3_3 
REMARK    2  A    between atoms: C3_3  and  C4_4 
REMARK    3  A    between atoms: C4_4  and  C5_5 
REMARK    4  A    between atoms: C5_5  and  N1_6 
REMARK    5  A    between atoms: C5_5  and  N4_20 
REMARK       I    between atoms: N1_6  and  C6_8 
REMARK    6  A    between atoms: C6_8  and  C7_10 
REMARK    7  A    between atoms: C7_10  and  C8_11 
REMARK    8  A    between atoms: C8_11  and  C9_12 
REMARK    9  A    between atoms: N4_20  and  C13_22 
ROOT
HETATM    1  C5  UNL     1      34.481 -17.292  -0.031  1.00  0.00     0.085 C 
ENDROOT
BRANCH   1   2
HETATM    2  C4  UNL     1      33.414 -18.101  -0.724  1.00  0.00     0.076 C 
BRANCH   2   3
HETATM    3  C3  UNL     1      33.291 -19.403  -0.005  1.00  0.00     0.007 C 
BRANCH   3   4
HETATM    4  C2  UNL     1      32.438 -19.338   1.220  1.00  0.00    -0.004 C 
HETATM    5  C1  UNL     1      31.103 -18.708   0.991  1.00  0.00     0.005 C 
ENDBRANCH   3   4
ENDBRANCH   2   3
ENDBRANCH   1   2
BRANCH   1   6
HETATM    6  N1  UNL     1      34.168 -16.112   0.300  1.00  0.00    -0.317 N 
HETATM    7  C6  UNL     1      33.250 -15.692   1.276  1.00  0.00     0.223 C 
HETATM    8  O1  UNL     1      32.316 -14.929   0.864  1.00  0.00    -0.273 OA
ATOM      9  H1  UNL     1      34.644 -15.367  -0.210  1.00  0.00     0.170 HD
BRANCH   7  10
HETATM   10  C7  UNL     1      33.276 -16.047   2.691  1.00  0.00     0.109 C 
BRANCH  10  11
HETATM   11  C8  UNL     1      32.777 -14.895   3.538  1.00  0.00     0.068 C 
BRANCH  11  12
HETATM   12  C9  UNL     1      31.396 -15.206   4.028  1.00  0.00     0.033 A 
HETATM   13  N2  UNL     1      30.410 -15.803   3.296  1.00  0.00    -0.354 N 
HETATM   14  C10 UNL     1      29.342 -15.895   4.100  1.00  0.00     0.180 A 
ATOM     15  H2  UNL     1      30.474 -16.116   2.327  1.00  0.00     0.166 HD
HETATM   16  N3  UNL     1      29.596 -15.388   5.314  1.00  0.00    -0.354 N 
HETATM   17  C11 UNL     1      30.882 -14.954   5.275  1.00  0.00     0.029 A 
ATOM     18  H3  UNL     1      28.955 -15.338   6.105  1.00  0.00     0.166 HD
HETATM   19  C12 UNL     1      31.598 -14.311   6.418  1.00  0.00     0.070 C 
ENDBRANCH  11  12
ENDBRANCH  10  11
ENDBRANCH   7  10
ENDBRANCH   1   6
BRANCH   1  20
HETATM   20  N4  UNL     1      35.707 -17.927   0.176  1.00  0.00    -0.332 N 
ATOM     21  H4  UNL     1      35.743 -18.554   0.980  1.00  0.00     0.168 HD
BRANCH  20  22
HETATM   22  C13 UNL     1      36.781 -17.839  -0.486  1.00  0.00     0.107 A 
HETATM   23  C14 UNL     1      37.972 -17.927   0.243  1.00  0.00     0.055 A 
HETATM   24  C15 UNL     1      39.204 -17.844  -0.370  1.00  0.00    -0.057 A 
HETATM   25  C16 UNL     1      40.475 -17.942   0.436  1.00  0.00     0.048 C 
HETATM   26  C17 UNL     1      39.234 -17.671  -1.737  1.00  0.00     0.031 A 
HETATM   27  C18 UNL     1      38.074 -17.583  -2.468  1.00  0.00     0.007 A 
HETATM   28  C19 UNL     1      38.089 -17.395  -3.949  1.00  0.00     0.068 C 
HETATM   29  N5  UNL     1      36.903 -17.672  -1.804  1.00  0.00    -0.346 N 
ATOM     30  H5  UNL     1      36.045 -17.607  -2.353  1.00  0.00     0.167 HD
ENDBRANCH  20  22
ENDBRANCH   1  20
TORSDOF 9
ENDMDL
MODEL 2
REMARK VINA RESULT: -7.919335068      4.033      8.288
REMARK  9 active torsions:
REMARK  status: ('A' for Active; 'I' for Inactive)
REMARK    1  A    between atoms: C2_2  and  C3_3 
REMARK    2  A    between atoms: C3_3  and  C4_4 
REMARK    3  A    between atoms: C4_4  and  C5_5 
REMARK    4  A    between atoms: C5_5  and  N1_6 
REMARK    5  A    between atoms: C5_5  and  N4_20 
REMARK       I    between atoms: N1_6  and  C6_8 
REMARK    6  A    between atoms: C6_8  and  C7_10 
REMARK    7  A    between atoms: C7_10  and  C8_11 
REMARK    8  A    between atoms: C8_11  and  C9_12 
REMARK    9  A    between atoms: N4_20  and  C13_22 
ROOT
HETATM    1  C5  UNL     1      37.579 -16.783  -0.748  1.00  0.00     0.085 C 
ENDROOT
BRANCH   1   2
HETATM    2  C4  UNL     1      38.428 -18.016  -0.926  1.00  0.00     0.076 C 
BRANCH   2   3
HETATM    3  C3  UNL     1      39.190 -18.229   0.340  1.00  0.00     0.007 C 
BRANCH   3   4
HETATM    4  C2  UNL     1      40.627 -17.825   0.255  1.00  0.00    -0.004 C 
HETATM    5  C1  UNL     1      41.092 -17.543  -1.136  1.00  0.00     0.005 C 
ENDBRANCH   3   4
ENDBRANCH   2   3
ENDBRANCH   1   2
BRANCH   1   6
HETATM    6  N1  UNL     1      37.914 -15.766  -1.422  1.00  0.00    -0.317 N 
HETATM    7  C6  UNL     1      38.395 -14.531  -0.958  1.00  0.00     0.223 C 
HETATM    8  O1  UNL     1      37.724 -13.508  -1.315  1.00  0.00    -0.273 OA
ATOM      9  H1  UNL     1      37.823 -15.854  -2.434  1.00  0.00     0.170 HD
BRANCH   7  10
HETATM   10  C7  UNL     1      39.572 -14.325  -0.121  1.00  0.00     0.109 C 
BRANCH  10  11
HETATM   11  C8  UNL     1      40.734 -13.820  -0.950  1.00  0.00     0.068 C 
BRANCH  11  12
HETATM   12  C9  UNL     1      40.820 -12.330  -0.822  1.00  0.00     0.033 A 
HETATM   13  N2  UNL     1      40.537 -11.613   0.305  1.00  0.00    -0.354 N 
HETATM   14  C10 UNL     1      40.739 -10.324  -0.004  1.00  0.00     0.180 A 
ATOM     15  H2  UNL     1      40.232 -11.985   1.204  1.00  0.00     0.166 HD
HETATM   16  N3  UNL     1      41.139 -10.181  -1.274  1.00  0.00    -0.354 N 
HETATM   17  C11 UNL     1      41.192 -11.435  -1.792  1.00  0.00     0.029 A 
ATOM     18  H3  UNL     1      41.359  -9.308  -1.754  1.00  0.00     0.166 HD
HETATM   19  C12 UNL     1      41.593 -11.760  -3.195  1.00  0.00     0.070 C 
ENDBRANCH  11  12
ENDBRANCH  10  11
ENDBRANCH   7  10
ENDBRANCH   1   6
BRANCH   1  20
HETATM   20  N4  UNL     1      36.508 -16.888   0.141  1.00  0.00    -0.332 N 
ATOM     21  H4  UNL     1      36.750 -16.788   1.127  1.00  0.00     0.168 HD
BRANCH  20  22
HETATM   22  C13 UNL     1      35.282 -17.089  -0.095  1.00  0.00     0.107 A 
HETATM   23  C14 UNL     1      34.379 -16.189   0.482  1.00  0.00     0.055 A 
HETATM   24  C15 UNL     1      33.019 -16.307   0.295  1.00  0.00    -0.057 A 
HETATM   25  C16 UNL     1      32.065 -15.324   0.927  1.00  0.00     0.048 C 
HETATM   26  C17 UNL     1      32.563 -17.346  -0.486  1.00  0.00     0.031 A 
HETATM   27  C18 UNL     1      33.435 -18.239  -1.061  1.00  0.00     0.007 A 
HETATM   28  C19 UNL     1      32.958 -19.371  -1.910  1.00  0.00     0.068 C 
HETATM   29  N5  UNL     1      34.754 -18.065  -0.837  1.00  0.00    -0.346 N 
ATOM     30  H5  UNL     1      35.396 -18.730  -1.267  1.00  0.00     0.167 HD
ENDBRANCH  20  22
ENDBRANCH   1  20
TORSDOF 9
ENDMDL
MODEL 3
REMARK VINA RESULT: -7.914957115      0.561      1.711
REMARK  9 active torsions:
REMARK  status: ('A' for Active; 'I' for Inactive)
REMARK    1  A    between atoms: C2_2  and  C3_3 
REMARK    2  A    between atoms: C3_3  and  C4_4 
REMARK    3  A    between atoms: C4_4  and  C5_5 
REMARK    4  A    between atoms: C5_5  and  N1_6 
REMARK    5  A    between atoms: C5_5  and  N4_20 
REMARK       I    between atoms: N1_6  and  C6_8 
REMARK    6  A    between atoms: C6_8  and  C7_10 
REMARK    7  A    between atoms: C7_10  and  C8_11 
REMARK    8  A    between atoms: C8_11  and  C9_12 
REMARK    9  A    between atoms: N4_20  and  C13_22 
ROOT
HETATM    1  C5  UNL     1      34.511 -17.496   0.009  1.00  0.00     0.085 C 
ENDROOT
BRANCH   1   2
HETATM    2  C4  UNL     1      33.398 -18.266  -0.656  1.00  0.00     0.076 C 
BRANCH   2   3
HETATM    3  C3  UNL     1      33.229 -19.551   0.083  1.00  0.00     0.007 C 
BRANCH   3   4
HETATM    4  C2  UNL     1      32.379 -19.436   1.308  1.00  0.00    -0.004 C 
HETATM    5  C1  UNL     1      31.078 -18.742   1.074  1.00  0.00     0.005 C 
ENDBRANCH   3   4
ENDBRANCH   2   3
ENDBRANCH   1   2
BRANCH   1   6
HETATM    6  N1  UNL     1      34.263 -16.292   0.308  1.00  0.00    -0.317 N 
HETATM    7  C6  UNL     1      33.361 -15.797   1.263  1.00  0.00     0.223 C 
HETATM    8  O1  UNL     1      32.477 -14.991   0.823  1.00  0.00    -0.273 OA
ATOM      9  H1  UNL     1      34.788 -15.588  -0.213  1.00  0.00     0.170 HD
BRANCH   7  10
HETATM   10  C7  UNL     1      33.352 -16.119   2.686  1.00  0.00     0.109 C 
BRANCH  10  11
HETATM   11  C8  UNL     1      32.857 -14.939   3.496  1.00  0.00     0.068 C 
BRANCH  11  12
HETATM   12  C9  UNL     1      31.469 -15.222   3.984  1.00  0.00     0.033 A 
HETATM   13  N2  UNL     1      30.482 -15.827   3.260  1.00  0.00    -0.354 N 
HETATM   14  C10 UNL     1      29.407 -15.887   4.058  1.00  0.00     0.180 A 
ATOM     15  H2  UNL     1      30.549 -16.165   2.300  1.00  0.00     0.166 HD
HETATM   16  N3  UNL     1      29.658 -15.352   5.260  1.00  0.00    -0.354 N 
HETATM   17  C11 UNL     1      30.950 -14.933   5.219  1.00  0.00     0.029 A 
ATOM     18  H3  UNL     1      29.012 -15.274   6.045  1.00  0.00     0.166 HD
HETATM   19  C12 UNL     1      31.664 -14.268   6.351  1.00  0.00     0.070 C 
ENDBRANCH  11  12
ENDBRANCH  10  11
ENDBRANCH   7  10
ENDBRANCH   1   6
BRANCH   1  20
HETATM   20  N4  UNL     1      35.703 -18.189   0.227  1.00  0.00    -0.332 N 
ATOM     21  H4  UNL     1      35.655 -18.929   0.928  1.00  0.00     0.168 HD
BRANCH  20  22
HETATM   22  C13 UNL     1      36.835 -18.035  -0.317  1.00  0.00     0.107 A 
HETATM   23  C14 UNL     1      36.839 -17.827  -1.700  1.00  0.00     0.055 A 
HETATM   24  C15 UNL     1      38.011 -17.645  -2.402  1.00  0.00    -0.057 A 
HETATM   25  C16 UNL     1      37.991 -17.422  -3.894  1.00  0.00     0.048 C 
HETATM   26  C17 UNL     1      39.195 -17.674  -1.698  1.00  0.00     0.031 A 
HETATM   27  C18 UNL     1      39.210 -17.878  -0.339  1.00  0.00     0.007 A 
HETATM   28  C19 UNL     1      40.484 -17.912   0.438  1.00  0.00     0.068 C 
HETATM   29  N5  UNL     1      38.026 -18.047   0.285  1.00  0.00    -0.346 N 
ATOM     30  H5  UNL     1      38.043 -18.197   1.294  1.00  0.00     0.167 HD
ENDBRANCH  20  22
ENDBRANCH   1  20
TORSDOF 9
ENDMDL
MODEL 4
REMARK VINA RESULT: -7.870826032      1.312      1.579
REMARK  9 active torsions:
REMARK  status: ('A' for Active; 'I' for Inactive)
REMARK    1  A    between atoms: C2_2  and  C3_3 
REMARK    2  A    between atoms: C3_3  and  C4_4 
REMARK    3  A    between atoms: C4_4  and  C5_5 
REMARK    4  A    between atoms: C5_5  and  N1_6 
REMARK    5  A    between atoms: C5_5  and  N4_20 
REMARK       I    between atoms: N1_6  and  C6_8 
REMARK    6  A    between atoms: C6_8  and  C7_10 
REMARK    7  A    between atoms: C7_10  and  C8_11 
REMARK    8  A    between atoms: C8_11  and  C9_12 
REMARK    9  A    between atoms: N4_20  and  C13_22 
ROOT
HETATM    1  C5  UNL     1      34.823 -17.251  -0.147  1.00  0.00     0.085 C 
ENDROOT
BRANCH   1   2
HETATM    2  C4  UNL     1      33.899 -18.427   0.046  1.00  0.00     0.076 C 
BRANCH   2   3
HETATM    3  C3  UNL     1      33.160 -18.639  -1.233  1.00  0.00     0.007 C 
BRANCH   3   4
HETATM    4  C2  UNL     1      31.701 -18.323  -1.148  1.00  0.00    -0.004 C 
HETATM    5  C1  UNL     1      31.103 -18.599   0.193  1.00  0.00     0.005 C 
ENDBRANCH   3   4
ENDBRANCH   2   3
ENDBRANCH   1   2
BRANCH   1   6
HETATM    6  N1  UNL     1      34.375 -16.120   0.202  1.00  0.00    -0.317 N 
HETATM    7  C6  UNL     1      33.376 -15.828   1.144  1.00  0.00     0.223 C 
HETATM    8  O1  UNL     1      32.388 -15.150   0.710  1.00  0.00    -0.273 OA
ATOM      9  H1  UNL     1      34.796 -15.314  -0.262  1.00  0.00     0.170 HD
BRANCH   7  10
HETATM   10  C7  UNL     1      33.374 -16.226   2.548  1.00  0.00     0.109 C 
BRANCH  10  11
HETATM   11  C8  UNL     1      32.956 -15.068   3.429  1.00  0.00     0.068 C 
BRANCH  11  12
HETATM   12  C9  UNL     1      31.563 -15.304   3.927  1.00  0.00     0.033 A 
HETATM   13  N2  UNL     1      30.571 -15.939   3.236  1.00  0.00    -0.354 N 
HETATM   14  C10 UNL     1      29.493 -15.938   4.031  1.00  0.00     0.180 A 
ATOM     15  H2  UNL     1      30.638 -16.335   2.298  1.00  0.00     0.166 HD
HETATM   16  N3  UNL     1      29.746 -15.335   5.201  1.00  0.00    -0.354 N 
HETATM   17  C11 UNL     1      31.043 -14.935   5.141  1.00  0.00     0.029 A 
ATOM     18  H3  UNL     1      29.098 -15.203   5.977  1.00  0.00     0.166 HD
HETATM   19  C12 UNL     1      31.761 -14.213   6.234  1.00  0.00     0.070 C 
ENDBRANCH  11  12
ENDBRANCH  10  11
ENDBRANCH   7  10
ENDBRANCH   1   6
BRANCH   1  20
HETATM   20  N4  UNL     1      36.078 -17.528  -0.692  1.00  0.00    -0.332 N 
ATOM     21  H4  UNL     1      36.098 -18.285  -1.376  1.00  0.00     0.168 HD
BRANCH  20  22
HETATM   22  C13 UNL     1      37.194 -16.979  -0.462  1.00  0.00     0.107 A 
HETATM   23  C14 UNL     1      38.193 -17.798   0.074  1.00  0.00     0.055 A 
HETATM   24  C15 UNL     1      39.450 -17.311   0.366  1.00  0.00    -0.057 A 
HETATM   25  C16 UNL     1      40.512 -18.214   0.943  1.00  0.00     0.048 C 
HETATM   26  C17 UNL     1      39.701 -15.981   0.112  1.00  0.00     0.031 A 
HETATM   27  C18 UNL     1      38.731 -15.162  -0.414  1.00  0.00     0.007 A 
HETATM   28  C19 UNL     1      38.987 -13.718  -0.695  1.00  0.00     0.068 C 
HETATM   29  N5  UNL     1      37.524 -15.704  -0.676  1.00  0.00    -0.346 N 
ATOM     30  H5  UNL     1      36.808 -15.091  -1.068  1.00  0.00     0.167 HD
ENDBRANCH  20  22
ENDBRANCH   1  20
TORSDOF 9
ENDMDL
MODEL 5
REMARK VINA RESULT: -7.763132122      3.978      8.308
REMARK  9 active torsions:
REMARK  status: ('A' for Active; 'I' for Inactive)
REMARK    1  A    between atoms: C2_2  and  C3_3 
REMARK    2  A    between atoms: C3_3  and  C4_4 
REMARK    3  A    between atoms: C4_4  and  C5_5 
REMARK    4  A    between atoms: C5_5  and  N1_6 
REMARK    5  A    between atoms: C5_5  and  N4_20 
REMARK       I    between atoms: N1_6  and  C6_8 
REMARK    6  A    between atoms: C6_8  and  C7_10 
REMARK    7  A    between atoms: C7_10  and  C8_11 
REMARK    8  A    between atoms: C8_11  and  C9_12 
REMARK    9  A    between atoms: N4_20  and  C13_22 
ROOT
HETATM    1  C5  UNL     1      37.615 -17.106  -0.921  1.00  0.00     0.085 C 
ENDROOT
BRANCH   1   2
HETATM    2  C4  UNL     1      38.073 -17.244   0.509  1.00  0.00     0.076 C 
BRANCH   2   3
HETATM    3  C3  UNL     1      39.030 -18.387   0.571  1.00  0.00     0.007 C 
BRANCH   3   4
HETATM    4  C2  UNL     1      40.465 -17.980   0.471  1.00  0.00    -0.004 C 
HETATM    5  C1  UNL     1      40.826 -16.827   1.349  1.00  0.00     0.005 C 
ENDBRANCH   3   4
ENDBRANCH   2   3
ENDBRANCH   1   2
BRANCH   1   6
HETATM    6  N1  UNL     1      38.429 -16.564  -1.724  1.00  0.00    -0.317 N 
HETATM    7  C6  UNL     1      38.540 -15.209  -2.074  1.00  0.00     0.223 C 
HETATM    8  O1  UNL     1      38.438 -14.949  -3.318  1.00  0.00    -0.273 OA
ATOM      9  H1  UNL     1      39.092 -17.194  -2.177  1.00  0.00     0.170 HD
BRANCH   7  10
HETATM   10  C7  UNL     1      38.757 -14.097  -1.154  1.00  0.00     0.109 C 
BRANCH  10  11
HETATM   11  C8  UNL     1      40.229 -13.950  -0.834  1.00  0.00     0.068 C 
BRANCH  11  12
HETATM   12  C9  UNL     1      40.584 -12.495  -0.797  1.00  0.00     0.033 A 
HETATM   13  N2  UNL     1      40.402 -11.662   0.270  1.00  0.00    -0.354 N 
HETATM   14  C10 UNL     1      40.846 -10.456  -0.110  1.00  0.00     0.180 A 
ATOM     15  H2  UNL     1      40.007 -11.909   1.177  1.00  0.00     0.166 HD
HETATM   16  N3  UNL     1      41.304 -10.475  -1.369  1.00  0.00    -0.354 N 
HETATM   17  C11 UNL     1      41.142 -11.751  -1.805  1.00  0.00     0.029 A 
ATOM     18  H3  UNL     1      41.694  -9.692  -1.892  1.00  0.00     0.166 HD
HETATM   19  C12 UNL     1      41.519 -12.239  -3.166  1.00  0.00     0.070 C 
ENDBRANCH  11  12
ENDBRANCH  10  11
ENDBRANCH   7  10
ENDBRANCH   1   6
BRANCH   1  20
HETATM   20  N4  UNL     1      36.338 -17.589  -1.215  1.00  0.00    -0.332 N 
ATOM     21  H4  UNL     1      36.206 -17.915  -2.173  1.00  0.00     0.168 HD
BRANCH  20  22
HETATM   22  C13 UNL     1      35.322 -17.682  -0.468  1.00  0.00     0.107 A 
HETATM   23  C14 UNL     1      34.694 -16.482  -0.118  1.00  0.00     0.055 A 
HETATM   24  C15 UNL     1      33.577 -16.458   0.690  1.00  0.00    -0.057 A 
HETATM   25  C16 UNL     1      32.916 -15.152   1.055  1.00  0.00     0.048 C 
HETATM   26  C17 UNL     1      33.088 -17.661   1.150  1.00  0.00     0.031 A 
HETATM   27  C18 UNL     1      33.692 -18.849   0.816  1.00  0.00     0.007 A 
HETATM   28  C19 UNL     1      33.175 -20.161   1.306  1.00  0.00     0.068 C 
HETATM   29  N5  UNL     1      34.781 -18.800   0.021  1.00  0.00    -0.346 N 
ATOM     30  H5  UNL     1      35.225 -19.685  -0.225  1.00  0.00     0.167 HD
ENDBRANCH  20  22
ENDBRANCH   1  20
TORSDOF 9
ENDMDL
