MODEL 1
REMARK VINA RESULT: -7.983330212      0.000      0.000
REMARK  8 active torsions:
REMARK  status: ('A' for Active; 'I' for Inactive)
REMARK    1  A    between atoms: N1_1  and  C1_5 
REMARK    2  A    between atoms: C1_5  and  C2_6 
REMARK    3  A    between atoms: C1_5  and  C9_14 
REMARK    4  A    between atoms: C2_6  and  C3_7 
REMARK    5  A    between atoms: C3_7  and  C4_8 
REMARK    6  A    between atoms: C4_8  and  N2_9 
REMARK    7  A    between atoms: C9_14  and  N3_16 
REMARK    8  A    between atoms: N3_16  and  C10_18 
ROOT
HETATM    1  C9  UNL     1      35.527 -18.526  -0.578  1.00  0.00     0.104 C 
HETATM    2  S1  UNL     1      35.406 -19.920   0.245  1.00  0.00    -0.063 SA
ENDROOT
BRANCH   1   3
HETATM    3  C1  UNL     1      34.421 -17.539  -0.624  1.00  0.00     0.244 C 
BRANCH   3   4
HETATM    4  N1  UNL     1      33.152 -18.127  -1.045  1.00  0.00    -0.069 N 
ATOM      5  H13 UNL     1      32.631 -17.500  -1.656  1.00  0.00     0.275 HD
ATOM      6  H12 UNL     1      33.292 -18.898  -1.698  1.00  0.00     0.275 HD
ATOM      7  H11 UNL     1      32.599 -18.413  -0.237  1.00  0.00     0.275 HD
ENDBRANCH   3   4
BRANCH   3   8
HETATM    8  C2  UNL     1      34.239 -16.701   0.583  1.00  0.00     0.042 C 
BRANCH   8   9
HETATM    9  C3  UNL     1      32.978 -15.925   0.697  1.00  0.00     0.033 C 
BRANCH   9  10
HETATM   10  C4  UNL     1      32.147 -16.347   1.895  1.00  0.00     0.272 C 
BRANCH  10  11
HETATM   11  N2  UNL     1      31.771 -15.282   2.760  1.00  0.00     0.088 N 
HETATM   12  C5  UNL     1      32.784 -14.826   3.656  1.00  0.00     0.272 C 
HETATM   13  C6  UNL     1      32.120 -14.520   4.978  1.00  0.00     0.032 C 
HETATM   14  C7  UNL     1      30.688 -14.913   4.844  1.00  0.00     0.032 C 
HETATM   15  C8  UNL     1      30.624 -15.664   3.555  1.00  0.00     0.272 C 
ENDBRANCH  10  11
ENDBRANCH   9  10
ENDBRANCH   8   9
ENDBRANCH   3   8
ENDBRANCH   1   3
BRANCH   1  16
HETATM   16  N3  UNL     1      36.723 -18.236  -1.263  1.00  0.00    -0.373 N 
ATOM     17  H3  UNL     1      36.723 -18.478  -2.254  1.00  0.00     0.161 HD
BRANCH  16  18
HETATM   18  C10 UNL     1      37.934 -17.659  -0.785  1.00  0.00     0.032 C 
HETATM   19  C11 UNL     1      38.941 -17.646  -1.965  1.00  0.00     0.035 C 
HETATM   20  C12 UNL     1      40.187 -16.920  -1.599  1.00  0.00    -0.012 C 
HETATM   21  C13 UNL     1      39.900 -15.507  -1.217  1.00  0.00     0.009 C 
HETATM   22  C17 UNL     1      40.834 -17.662  -0.449  1.00  0.00     0.009 C 
HETATM   23  C14 UNL     1      38.976 -15.508  -0.009  1.00  0.00    -0.012 C 
HETATM   24  C15 UNL     1      39.664 -16.205   1.118  1.00  0.00     0.009 C 
HETATM   25  C19 UNL     1      37.703 -16.206  -0.451  1.00  0.00     0.035 C 
HETATM   26  C16 UNL     1      39.881 -17.638   0.725  1.00  0.00    -0.012 C 
HETATM   27  C18 UNL     1      38.579 -18.335   0.373  1.00  0.00     0.035 C 
ENDBRANCH  16  18
ENDBRANCH   1  16
TORSDOF 8
ENDMDL
MODEL 2
REMARK VINA RESULT: -7.968443180      0.098      1.536
REMARK  8 active torsions:
REMARK  status: ('A' for Active; 'I' for Inactive)
REMARK    1  A    between atoms: N1_1  and  C1_5 
REMARK    2  A    between atoms: C1_5  and  C2_6 
REMARK    3  A    between atoms: C1_5  and  C9_14 
REMARK    4  A    between atoms: C2_6  and  C3_7 
REMARK    5  A    between atoms: C3_7  and  C4_8 
REMARK    6  A    between atoms: C4_8  and  N2_9 
REMARK    7  A    between atoms: C9_14  and  N3_16 
REMARK    8  A    between atoms: N3_16  and  C10_18 
ROOT
HETATM    1  C9  UNL     1      35.611 -18.623  -0.535  1.00  0.00     0.104 C 
HETATM    2  S1  UNL     1      35.479 -20.002   0.311  1.00  0.00    -0.063 SA
ENDROOT
BRANCH   1   3
HETATM    3  C1  UNL     1      34.519 -17.621  -0.583  1.00  0.00     0.244 C 
BRANCH   3   4
HETATM    4  N1  UNL     1      33.257 -18.178  -1.060  1.00  0.00    -0.069 N 
ATOM      5  H13 UNL     1      33.268 -18.325  -2.069  1.00  0.00     0.275 HD
ATOM      6  H12 UNL     1      33.137 -19.147  -0.764  1.00  0.00     0.275 HD
ATOM      7  H11 UNL     1      32.471 -17.596  -0.771  1.00  0.00     0.275 HD
ENDBRANCH   3   4
BRANCH   3   8
HETATM    8  C2  UNL     1      34.311 -16.817   0.644  1.00  0.00     0.042 C 
BRANCH   8   9
HETATM    9  C3  UNL     1      33.112 -15.943   0.697  1.00  0.00     0.033 C 
BRANCH   9  10
HETATM   10  C4  UNL     1      32.158 -16.338   1.808  1.00  0.00     0.272 C 
BRANCH  10  11
HETATM   11  N2  UNL     1      31.812 -15.282   2.697  1.00  0.00     0.088 N 
HETATM   12  C5  UNL     1      32.839 -14.868   3.596  1.00  0.00     0.272 C 
HETATM   13  C6  UNL     1      32.189 -14.573   4.927  1.00  0.00     0.032 C 
HETATM   14  C7  UNL     1      30.747 -14.928   4.792  1.00  0.00     0.032 C 
HETATM   15  C8  UNL     1      30.660 -15.651   3.490  1.00  0.00     0.272 C 
ENDBRANCH  10  11
ENDBRANCH   9  10
ENDBRANCH   8   9
ENDBRANCH   3   8
ENDBRANCH   1   3
BRANCH   1  16
HETATM   16  N3  UNL     1      36.804 -18.362  -1.236  1.00  0.00    -0.373 N 
ATOM     17  H3  UNL     1      36.865 -18.791  -2.160  1.00  0.00     0.161 HD
BRANCH  16  18
HETATM   18  C10 UNL     1      37.939 -17.591  -0.856  1.00  0.00     0.032 C 
HETATM   19  C11 UNL     1      38.603 -18.305   0.351  1.00  0.00     0.035 C 
HETATM   20  C12 UNL     1      39.887 -17.650   0.720  1.00  0.00    -0.012 C 
HETATM   21  C13 UNL     1      40.852 -17.665  -0.416  1.00  0.00     0.009 C 
HETATM   22  C17 UNL     1      39.578 -16.229   1.139  1.00  0.00     0.009 C 
HETATM   23  C14 UNL     1      40.244 -16.899  -1.580  1.00  0.00    -0.012 C 
HETATM   24  C15 UNL     1      39.998 -15.491  -1.148  1.00  0.00     0.009 C 
HETATM   25  C19 UNL     1      38.972 -17.637  -1.955  1.00  0.00     0.035 C 
HETATM   26  C16 UNL     1      38.976 -15.508  -0.046  1.00  0.00    -0.012 C 
HETATM   27  C18 UNL     1      37.683 -16.174  -0.479  1.00  0.00     0.035 C 
ENDBRANCH  16  18
ENDBRANCH   1  16
TORSDOF 8
ENDMDL
MODEL 3
REMARK VINA RESULT: -7.856923335      1.460      2.083
REMARK  8 active torsions:
REMARK  status: ('A' for Active; 'I' for Inactive)
REMARK    1  A    between atoms: N1_1  and  C1_5 
REMARK    2  A    between atoms: C1_5  and  C2_6 
REMARK    3  A    between atoms: C1_5  and  C9_14 
REMARK    4  A    between atoms: C2_6  and  C3_7 
REMARK    5  A    between atoms: C3_7  and  C4_8 
REMARK    6  A    between atoms: C4_8  and  N2_9 
REMARK    7  A    between atoms: C9_14  and  N3_16 
REMARK    8  A    between atoms: N3_16  and  C10_18 
ROOT
HETATM    1  C9  UNL     1      36.109 -18.059  -1.676  1.00  0.00     0.104 C 
HETATM    2  S1  UNL     1      36.248 -18.873  -3.074  1.00  0.00    -0.063 SA
ENDROOT
BRANCH   1   3
HETATM    3  C1  UNL     1      35.119 -18.438  -0.639  1.00  0.00     0.244 C 
BRANCH   3   4
HETATM    4  N1  UNL     1      35.430 -19.710   0.005  1.00  0.00    -0.069 N 
ATOM      5  H13 UNL     1      36.293 -19.657   0.546  1.00  0.00     0.275 HD
ATOM      6  H12 UNL     1      34.783 -19.915   0.767  1.00  0.00     0.275 HD
ATOM      7  H11 UNL     1      35.459 -20.467  -0.678  1.00  0.00     0.275 HD
ENDBRANCH   3   4
BRANCH   3   8
HETATM    8  C2  UNL     1      34.794 -17.402   0.368  1.00  0.00     0.042 C 
BRANCH   8   9
HETATM    9  C3  UNL     1      33.671 -16.479   0.067  1.00  0.00     0.033 C 
BRANCH   9  10
HETATM   10  C4  UNL     1      32.371 -16.921   0.712  1.00  0.00     0.272 C 
BRANCH  10  11
HETATM   11  N2  UNL     1      32.028 -16.217   1.899  1.00  0.00     0.088 N 
HETATM   12  C5  UNL     1      32.582 -14.908   2.024  1.00  0.00     0.272 C 
HETATM   13  C6  UNL     1      32.973 -14.714   3.471  1.00  0.00     0.032 C 
HETATM   14  C7  UNL     1      32.713 -16.007   4.166  1.00  0.00     0.032 C 
HETATM   15  C8  UNL     1      32.429 -16.974   3.065  1.00  0.00     0.272 C 
ENDBRANCH  10  11
ENDBRANCH   9  10
ENDBRANCH   8   9
ENDBRANCH   3   8
ENDBRANCH   1   3
BRANCH   1  16
HETATM   16  N3  UNL     1      36.962 -16.965  -1.433  1.00  0.00    -0.373 N 
ATOM     17  H3  UNL     1      36.559 -16.050  -1.636  1.00  0.00     0.161 HD
BRANCH  16  18
HETATM   18  C10 UNL     1      38.301 -16.939  -0.949  1.00  0.00     0.032 C 
HETATM   19  C11 UNL     1      38.613 -15.480  -0.524  1.00  0.00     0.035 C 
HETATM   20  C12 UNL     1      39.943 -15.388   0.138  1.00  0.00    -0.012 C 
HETATM   21  C13 UNL     1      40.006 -16.250   1.353  1.00  0.00     0.009 C 
HETATM   22  C17 UNL     1      40.991 -15.809  -0.870  1.00  0.00     0.009 C 
HETATM   23  C14 UNL     1      39.780 -17.694   0.936  1.00  0.00    -0.012 C 
HETATM   24  C15 UNL     1      40.858 -18.090  -0.018  1.00  0.00     0.009 C 
HETATM   25  C19 UNL     1      38.393 -17.746   0.323  1.00  0.00     0.035 C 
HETATM   26  C16 UNL     1      40.726 -17.247  -1.255  1.00  0.00    -0.012 C 
HETATM   27  C18 UNL     1      39.358 -17.387  -1.896  1.00  0.00     0.035 C 
ENDBRANCH  16  18
ENDBRANCH   1  16
TORSDOF 8
ENDMDL
MODEL 4
REMARK VINA RESULT: -7.789744133      0.850      1.961
REMARK  8 active torsions:
REMARK  status: ('A' for Active; 'I' for Inactive)
REMARK    1  A    between atoms: N1_1  and  C1_5 
REMARK    2  A    between atoms: C1_5  and  C2_6 
REMARK    3  A    between atoms: C1_5  and  C9_14 
REMARK    4  A    between atoms: C2_6  and  C3_7 
REMARK    5  A    between atoms: C3_7  and  C4_8 
REMARK    6  A    between atoms: C4_8  and  N2_9 
REMARK    7  A    between atoms: C9_14  and  N3_16 
REMARK    8  A    between atoms: N3_16  and  C10_18 
ROOT
HETATM    1  C9  UNL     1      34.976 -18.830  -0.741  1.00  0.00     0.104 C 
HETATM    2  S1  UNL     1      34.809 -20.223  -1.558  1.00  0.00    -0.063 SA
ENDROOT
BRANCH   1   3
HETATM    3  C1  UNL     1      33.889 -17.825  -0.669  1.00  0.00     0.244 C 
BRANCH   3   4
HETATM    4  N1  UNL     1      32.631 -18.307  -1.231  1.00  0.00    -0.069 N 
ATOM      5  H13 UNL     1      32.308 -19.153  -0.762  1.00  0.00     0.275 HD
ATOM      6  H12 UNL     1      31.852 -17.692  -0.995  1.00  0.00     0.275 HD
ATOM      7  H11 UNL     1      32.711 -18.442  -2.239  1.00  0.00     0.275 HD
ENDBRANCH   3   4
BRANCH   3   8
HETATM    8  C2  UNL     1      33.668 -17.191   0.651  1.00  0.00     0.042 C 
BRANCH   8   9
HETATM    9  C3  UNL     1      33.466 -15.720   0.682  1.00  0.00     0.033 C 
BRANCH   9  10
HETATM   10  C4  UNL     1      32.159 -15.330   1.345  1.00  0.00     0.272 C 
BRANCH  10  11
HETATM   11  N2  UNL     1      32.072 -15.659   2.727  1.00  0.00     0.088 N 
HETATM   12  C5  UNL     1      30.760 -15.644   3.285  1.00  0.00     0.272 C 
HETATM   13  C6  UNL     1      30.862 -15.061   4.676  1.00  0.00     0.032 C 
HETATM   14  C7  UNL     1      32.282 -14.645   4.866  1.00  0.00     0.032 C 
HETATM   15  C8  UNL     1      32.891 -14.759   3.509  1.00  0.00     0.272 C 
ENDBRANCH  10  11
ENDBRANCH   9  10
ENDBRANCH   8   9
ENDBRANCH   3   8
ENDBRANCH   1   3
BRANCH   1  16
HETATM   16  N3  UNL     1      36.187 -18.571  -0.070  1.00  0.00    -0.373 N 
ATOM     17  H3  UNL     1      36.247 -18.950   0.875  1.00  0.00     0.161 HD
BRANCH  16  18
HETATM   18  C10 UNL     1      37.341 -17.859  -0.506  1.00  0.00     0.032 C 
HETATM   19  C11 UNL     1      37.099 -16.356  -0.211  1.00  0.00     0.035 C 
HETATM   20  C12 UNL     1      38.319 -15.551  -0.496  1.00  0.00    -0.012 C 
HETATM   21  C13 UNL     1      39.475 -16.007   0.327  1.00  0.00     0.009 C 
HETATM   22  C17 UNL     1      38.628 -15.688  -1.971  1.00  0.00     0.009 C 
HETATM   23  C14 UNL     1      39.772 -17.459  -0.013  1.00  0.00    -0.012 C 
HETATM   24  C15 UNL     1      40.120 -17.549  -1.462  1.00  0.00     0.009 C 
HETATM   25  C19 UNL     1      38.524 -18.242   0.349  1.00  0.00     0.035 C 
HETATM   26  C16 UNL     1      38.914 -17.143  -2.262  1.00  0.00    -0.012 C 
HETATM   27  C18 UNL     1      37.704 -18.002  -1.943  1.00  0.00     0.035 C 
ENDBRANCH  16  18
ENDBRANCH   1  16
TORSDOF 8
ENDMDL
MODEL 5
REMARK VINA RESULT: -7.772576113      1.506      2.335
REMARK  8 active torsions:
REMARK  status: ('A' for Active; 'I' for Inactive)
REMARK    1  A    between atoms: N1_1  and  C1_5 
REMARK    2  A    between atoms: C1_5  and  C2_6 
REMARK    3  A    between atoms: C1_5  and  C9_14 
REMARK    4  A    between atoms: C2_6  and  C3_7 
REMARK    5  A    between atoms: C3_7  and  C4_8 
REMARK    6  A    between atoms: C4_8  and  N2_9 
REMARK    7  A    between atoms: C9_14  and  N3_16 
REMARK    8  A    between atoms: N3_16  and  C10_18 
ROOT
HETATM    1  C9  UNL     1      36.343 -18.352  -1.846  1.00  0.00     0.104 C 
HETATM    2  S1  UNL     1      36.537 -18.538  -3.447  1.00  0.00    -0.063 SA
ENDROOT
BRANCH   1   3
HETATM    3  C1  UNL     1      35.002 -18.274  -1.219  1.00  0.00     0.244 C 
BRANCH   3   4
HETATM    4  N1  UNL     1      34.362 -19.579  -1.084  1.00  0.00    -0.069 N 
ATOM      5  H13 UNL     1      33.360 -19.528  -1.266  1.00  0.00     0.275 HD
ATOM      6  H12 UNL     1      34.624 -20.209  -1.841  1.00  0.00     0.275 HD
ATOM      7  H11 UNL     1      34.558 -19.987  -0.170  1.00  0.00     0.275 HD
ENDBRANCH   3   4
BRANCH   3   8
HETATM    8  C2  UNL     1      34.911 -17.508   0.045  1.00  0.00     0.042 C 
BRANCH   8   9
HETATM    9  C3  UNL     1      33.947 -16.380   0.097  1.00  0.00     0.033 C 
BRANCH   9  10
HETATM   10  C4  UNL     1      32.575 -16.814   0.578  1.00  0.00     0.272 C 
BRANCH  10  11
HETATM   11  N2  UNL     1      32.141 -16.187   1.779  1.00  0.00     0.088 N 
HETATM   12  C5  UNL     1      32.629 -14.864   1.997  1.00  0.00     0.272 C 
HETATM   13  C6  UNL     1      32.936 -14.728   3.470  1.00  0.00     0.032 C 
HETATM   14  C7  UNL     1      32.699 -16.066   4.086  1.00  0.00     0.032 C 
HETATM   15  C8  UNL     1      32.515 -16.985   2.925  1.00  0.00     0.272 C 
ENDBRANCH  10  11
ENDBRANCH   9  10
ENDBRANCH   8   9
ENDBRANCH   3   8
ENDBRANCH   1   3
BRANCH   1  16
HETATM   16  N3  UNL     1      37.483 -18.273  -1.023  1.00  0.00    -0.373 N 
ATOM     17  H3  UNL     1      37.658 -19.098  -0.448  1.00  0.00     0.161 HD
BRANCH  16  18
HETATM   18  C10 UNL     1      38.430 -17.221  -0.868  1.00  0.00     0.032 C 
HETATM   19  C11 UNL     1      38.583 -16.954   0.652  1.00  0.00     0.035 C 
HETATM   20  C12 UNL     1      39.669 -15.970   0.916  1.00  0.00    -0.012 C 
HETATM   21  C13 UNL     1      40.979 -16.453   0.394  1.00  0.00     0.009 C 
HETATM   22  C17 UNL     1      39.280 -14.665   0.256  1.00  0.00     0.009 C 
HETATM   23  C14 UNL     1      40.863 -16.643  -1.110  1.00  0.00    -0.012 C 
HETATM   24  C15 UNL     1      40.527 -15.328  -1.733  1.00  0.00     0.009 C 
HETATM   25  C19 UNL     1      39.789 -17.694  -1.323  1.00  0.00     0.035 C 
HETATM   26  C16 UNL     1      39.176 -14.902  -1.234  1.00  0.00    -0.012 C 
HETATM   27  C18 UNL     1      38.105 -15.933  -1.539  1.00  0.00     0.035 C 
ENDBRANCH  16  18
ENDBRANCH   1  16
TORSDOF 8
ENDMDL
