MODEL 1
REMARK VINA RESULT: -7.731243896      0.000      0.000
REMARK  6 active torsions:
REMARK  status: ('A' for Active; 'I' for Inactive)
REMARK    1  A    between atoms: C2_2  and  C4_4 
REMARK    2  A    between atoms: C4_4  and  C5_5 
REMARK    3  A    between atoms: C5_5  and  C6_6 
REMARK    4  A    between atoms: C6_6  and  N1_7 
REMARK       I    between atoms: N1_7  and  C7_9 
REMARK       I    between atoms: C7_9  and  N3_13 
REMARK    5  A    between atoms: N4_21  and  C15_22 
REMARK    6  A    between atoms: C15_22  and  C16_23 
ROOT
HETATM    1  N1  UNL     1      35.788 -17.863  -0.477  1.00  0.00    -0.226 N 
ATOM      2  H1  UNL     1      35.880 -18.869  -0.617  1.00  0.00     0.177 HD
HETATM    3  C7  UNL     1      34.563 -17.352  -0.003  1.00  0.00     0.673 C 
HETATM    4  N2  UNL     1      34.451 -16.118   0.329  1.00  0.00    -0.235 N 
ATOM      5  H21 UNL     1      33.564 -15.748   0.673  1.00  0.00     0.174 HD
ATOM      6  H22 UNL     1      35.266 -15.509   0.244  1.00  0.00     0.174 HD
HETATM    7  N3  UNL     1      33.432 -18.197   0.115  1.00  0.00    -0.194 N 
HETATM    8  C8  UNL     1      32.323 -18.004  -0.753  1.00  0.00     0.106 C 
HETATM    9  C9  UNL     1      31.158 -18.582  -0.507  1.00  0.00     0.010 C 
HETATM   10  C10 UNL     1      31.028 -19.428   0.681  1.00  0.00     0.063 C 
HETATM   11  C11 UNL     1      32.300 -20.164   1.041  1.00  0.00     0.044 C 
HETATM   12  C12 UNL     1      33.462 -19.231   1.129  1.00  0.00     0.148 C 
HETATM   13  C13 UNL     1      29.928 -20.422   0.441  1.00  0.00     0.043 C 
HETATM   14  C14 UNL     1      28.697 -19.643   0.860  1.00  0.00     0.127 C 
HETATM   15  N4  UNL     1      29.141 -19.049   2.111  1.00  0.00    -0.351 N 
HETATM   16  C19 UNL     1      30.517 -18.689   1.866  1.00  0.00     0.232 C 
HETATM   17  O1  UNL     1      31.210 -17.876   2.534  1.00  0.00    -0.272 OA
ENDROOT
BRANCH   1  18
HETATM   18  C6  UNL     1      36.927 -17.007  -0.775  1.00  0.00     0.138 C 
BRANCH  18  19
HETATM   19  C5  UNL     1      38.191 -17.801  -0.943  1.00  0.00     0.020 C 
BRANCH  19  20
HETATM   20  C4  UNL     1      38.883 -18.060   0.376  1.00  0.00     0.005 C 
BRANCH  20  21
HETATM   21  C2  UNL     1      40.369 -17.937   0.289  1.00  0.00    -0.023 C 
HETATM   22  C1  UNL     1      40.706 -17.516  -1.138  1.00  0.00     0.009 C 
HETATM   23  C3  UNL     1      40.818 -16.807   1.199  1.00  0.00     0.009 C 
ENDBRANCH  20  21
ENDBRANCH  19  20
ENDBRANCH  18  19
ENDBRANCH   1  18
BRANCH  15  24
HETATM   24  C15 UNL     1      28.454 -18.826   3.342  1.00  0.00     0.129 C 
BRANCH  24  25
HETATM   25  C16 UNL     1      27.566 -17.613   3.322  1.00  0.00    -0.005 C 
HETATM   26  C17 UNL     1      26.217 -17.921   3.947  1.00  0.00     0.011 C 
HETATM   27  C18 UNL     1      28.225 -16.526   4.176  1.00  0.00     0.011 C 
ENDBRANCH  24  25
ENDBRANCH  15  24
TORSDOF 6
ENDMDL
MODEL 2
REMARK VINA RESULT: -7.620167271      2.352      3.444
REMARK  6 active torsions:
REMARK  status: ('A' for Active; 'I' for Inactive)
REMARK    1  A    between atoms: C2_2  and  C4_4 
REMARK    2  A    between atoms: C4_4  and  C5_5 
REMARK    3  A    between atoms: C5_5  and  C6_6 
REMARK    4  A    between atoms: C6_6  and  N1_7 
REMARK       I    between atoms: N1_7  and  C7_9 
REMARK       I    between atoms: C7_9  and  N3_13 
REMARK    5  A    between atoms: N4_21  and  C15_22 
REMARK    6  A    between atoms: C15_22  and  C16_23 
ROOT
HETATM    1  N1  UNL     1      35.684 -16.753  -0.046  1.00  0.00    -0.226 N 
ATOM      2  H1  UNL     1      35.866 -15.750  -0.020  1.00  0.00     0.177 HD
HETATM    3  C7  UNL     1      34.613 -17.269   0.711  1.00  0.00     0.673 C 
HETATM    4  N2  UNL     1      34.256 -18.496   0.593  1.00  0.00    -0.235 N 
ATOM      5  H21 UNL     1      33.480 -18.869   1.140  1.00  0.00     0.174 HD
ATOM      6  H22 UNL     1      34.761 -19.094  -0.060  1.00  0.00     0.174 HD
HETATM    7  N3  UNL     1      33.911 -16.437   1.619  1.00  0.00    -0.194 N 
HETATM    8  C8  UNL     1      34.033 -16.668   3.015  1.00  0.00     0.106 C 
HETATM    9  C9  UNL     1      33.201 -16.101   3.874  1.00  0.00     0.010 C 
HETATM   10  C10 UNL     1      32.146 -15.226   3.359  1.00  0.00     0.063 C 
HETATM   11  C11 UNL     1      32.546 -14.462   2.115  1.00  0.00     0.044 C 
HETATM   12  C12 UNL     1      33.091 -15.376   1.069  1.00  0.00     0.148 C 
HETATM   13  C13 UNL     1      31.763 -14.254   4.438  1.00  0.00     0.043 C 
HETATM   14  C14 UNL     1      30.731 -15.039   5.223  1.00  0.00     0.127 C 
HETATM   15  N4  UNL     1      29.914 -15.594   4.156  1.00  0.00    -0.351 N 
HETATM   16  C19 UNL     1      30.864 -15.941   3.125  1.00  0.00     0.232 C 
HETATM   17  O1  UNL     1      30.668 -16.726   2.159  1.00  0.00    -0.272 OA
ENDROOT
BRANCH   1  18
HETATM   18  C6  UNL     1      36.541 -17.601  -0.862  1.00  0.00     0.138 C 
BRANCH  18  19
HETATM   19  C5  UNL     1      37.991 -17.242  -0.704  1.00  0.00     0.020 C 
BRANCH  19  20
HETATM   20  C4  UNL     1      38.706 -18.160   0.262  1.00  0.00     0.005 C 
BRANCH  20  21
HETATM   21  C2  UNL     1      40.182 -17.935   0.296  1.00  0.00    -0.023 C 
HETATM   22  C1  UNL     1      40.611 -17.529  -1.111  1.00  0.00     0.009 C 
HETATM   23  C3  UNL     1      40.473 -16.753   1.203  1.00  0.00     0.009 C 
ENDBRANCH  20  21
ENDBRANCH  19  20
ENDBRANCH  18  19
ENDBRANCH   1  18
BRANCH  15  24
HETATM   24  C15 UNL     1      28.504 -15.794   4.057  1.00  0.00     0.129 C 
BRANCH  24  25
HETATM   25  C16 UNL     1      28.051 -17.133   4.572  1.00  0.00    -0.005 C 
HETATM   26  C17 UNL     1      26.690 -17.024   5.234  1.00  0.00     0.011 C 
HETATM   27  C18 UNL     1      27.901 -18.076   3.375  1.00  0.00     0.011 C 
ENDBRANCH  24  25
ENDBRANCH  15  24
TORSDOF 6
ENDMDL
MODEL 3
REMARK VINA RESULT: -7.612178963      0.766      1.237
REMARK  6 active torsions:
REMARK  status: ('A' for Active; 'I' for Inactive)
REMARK    1  A    between atoms: C2_2  and  C4_4 
REMARK    2  A    between atoms: C4_4  and  C5_5 
REMARK    3  A    between atoms: C5_5  and  C6_6 
REMARK    4  A    between atoms: C6_6  and  N1_7 
REMARK       I    between atoms: N1_7  and  C7_9 
REMARK       I    between atoms: C7_9  and  N3_13 
REMARK    5  A    between atoms: N4_21  and  C15_22 
REMARK    6  A    between atoms: C15_22  and  C16_23 
ROOT
HETATM    1  N1  UNL     1      35.811 -17.895  -0.546  1.00  0.00    -0.226 N 
ATOM      2  H1  UNL     1      35.907 -18.903  -0.670  1.00  0.00     0.177 HD
HETATM    3  C7  UNL     1      34.585 -17.382  -0.076  1.00  0.00     0.673 C 
HETATM    4  N2  UNL     1      34.469 -16.143   0.236  1.00  0.00    -0.235 N 
ATOM      5  H21 UNL     1      33.581 -15.771   0.576  1.00  0.00     0.174 HD
ATOM      6  H22 UNL     1      35.280 -15.533   0.139  1.00  0.00     0.174 HD
HETATM    7  N3  UNL     1      33.458 -18.230   0.058  1.00  0.00    -0.194 N 
HETATM    8  C8  UNL     1      32.346 -18.056  -0.810  1.00  0.00     0.106 C 
HETATM    9  C9  UNL     1      31.184 -18.634  -0.551  1.00  0.00     0.010 C 
HETATM   10  C10 UNL     1      31.061 -19.461   0.651  1.00  0.00     0.063 C 
HETATM   11  C11 UNL     1      32.337 -20.186   1.019  1.00  0.00     0.044 C 
HETATM   12  C12 UNL     1      33.495 -19.247   1.089  1.00  0.00     0.148 C 
HETATM   13  C13 UNL     1      29.965 -20.464   0.430  1.00  0.00     0.043 C 
HETATM   14  C14 UNL     1      28.732 -19.684   0.839  1.00  0.00     0.127 C 
HETATM   15  N4  UNL     1      29.176 -19.067   2.079  1.00  0.00    -0.351 N 
HETATM   16  C19 UNL     1      30.550 -18.706   1.824  1.00  0.00     0.232 C 
HETATM   17  O1  UNL     1      31.241 -17.879   2.478  1.00  0.00    -0.272 OA
ENDROOT
BRANCH   1  18
HETATM   18  C6  UNL     1      36.946 -17.039  -0.860  1.00  0.00     0.138 C 
BRANCH  18  19
HETATM   19  C5  UNL     1      38.215 -17.829  -1.005  1.00  0.00     0.020 C 
BRANCH  19  20
HETATM   20  C4  UNL     1      38.853 -18.137   0.331  1.00  0.00     0.005 C 
BRANCH  20  21
HETATM   21  C2  UNL     1      40.336 -17.957   0.325  1.00  0.00    -0.023 C 
HETATM   22  C1  UNL     1      40.729 -17.492  -1.074  1.00  0.00     0.009 C 
HETATM   23  C3  UNL     1      40.693 -16.831   1.279  1.00  0.00     0.009 C 
ENDBRANCH  20  21
ENDBRANCH  19  20
ENDBRANCH  18  19
ENDBRANCH   1  18
BRANCH  15  24
HETATM   24  C15 UNL     1      28.491 -18.827   3.308  1.00  0.00     0.129 C 
BRANCH  24  25
HETATM   25  C16 UNL     1      27.975 -20.080   3.961  1.00  0.00    -0.005 C 
HETATM   26  C17 UNL     1      29.121 -20.948   4.447  1.00  0.00     0.011 C 
HETATM   27  C18 UNL     1      27.159 -19.673   5.191  1.00  0.00     0.011 C 
ENDBRANCH  24  25
ENDBRANCH  15  24
TORSDOF 6
ENDMDL
MODEL 4
REMARK VINA RESULT: -7.585852100      4.505     10.404
REMARK  6 active torsions:
REMARK  status: ('A' for Active; 'I' for Inactive)
REMARK    1  A    between atoms: C2_2  and  C4_4 
REMARK    2  A    between atoms: C4_4  and  C5_5 
REMARK    3  A    between atoms: C5_5  and  C6_6 
REMARK    4  A    between atoms: C6_6  and  N1_7 
REMARK       I    between atoms: N1_7  and  C7_9 
REMARK       I    between atoms: C7_9  and  N3_13 
REMARK    5  A    between atoms: N4_21  and  C15_22 
REMARK    6  A    between atoms: C15_22  and  C16_23 
ROOT
HETATM    1  N1  UNL     1      37.053 -18.051  -1.786  1.00  0.00    -0.226 N 
ATOM      2  H1  UNL     1      37.322 -18.005  -2.769  1.00  0.00     0.177 HD
HETATM    3  C7  UNL     1      37.655 -17.159  -0.875  1.00  0.00     0.673 C 
HETATM    4  N2  UNL     1      37.240 -17.079   0.337  1.00  0.00    -0.235 N 
ATOM      5  H21 UNL     1      37.676 -16.434   0.996  1.00  0.00     0.174 HD
ATOM      6  H22 UNL     1      36.466 -17.674   0.632  1.00  0.00     0.174 HD
HETATM    7  N3  UNL     1      38.731 -16.333  -1.285  1.00  0.00    -0.194 N 
HETATM    8  C8  UNL     1      40.031 -16.571  -0.763  1.00  0.00     0.106 C 
HETATM    9  C9  UNL     1      40.995 -15.675  -0.906  1.00  0.00     0.010 C 
HETATM   10  C10 UNL     1      40.699 -14.428  -1.613  1.00  0.00     0.063 C 
HETATM   11  C11 UNL     1      39.680 -14.587  -2.720  1.00  0.00     0.044 C 
HETATM   12  C12 UNL     1      38.447 -15.272  -2.230  1.00  0.00     0.148 C 
HETATM   13  C13 UNL     1      41.978 -13.890  -2.188  1.00  0.00     0.043 C 
HETATM   14  C14 UNL     1      42.542 -13.098  -1.025  1.00  0.00     0.127 C 
HETATM   15  N4  UNL     1      41.366 -12.376  -0.567  1.00  0.00    -0.351 N 
HETATM   16  C19 UNL     1      40.289 -13.328  -0.701  1.00  0.00     0.232 C 
HETATM   17  O1  UNL     1      39.161 -13.266  -0.143  1.00  0.00    -0.272 OA
ENDROOT
BRANCH   1  18
HETATM   18  C6  UNL     1      36.063 -19.035  -1.375  1.00  0.00     0.138 C 
BRANCH  18  19
HETATM   19  C5  UNL     1      34.663 -18.517  -1.536  1.00  0.00     0.020 C 
BRANCH  19  20
HETATM   20  C4  UNL     1      33.966 -18.326  -0.208  1.00  0.00     0.005 C 
BRANCH  20  21
HETATM   21  C2  UNL     1      33.533 -16.916   0.026  1.00  0.00    -0.023 C 
HETATM   22  C1  UNL     1      32.013 -16.881  -0.102  1.00  0.00     0.009 C 
HETATM   23  C3  UNL     1      33.863 -16.537   1.459  1.00  0.00     0.009 C 
ENDBRANCH  20  21
ENDBRANCH  19  20
ENDBRANCH  18  19
ENDBRANCH   1  18
BRANCH  15  24
HETATM   24  C15 UNL     1      41.211 -11.043  -0.079  1.00  0.00     0.129 C 
BRANCH  24  25
HETATM   25  C16 UNL     1      40.430 -10.153  -1.006  1.00  0.00    -0.005 C 
HETATM   26  C17 UNL     1      40.177  -8.799  -0.368  1.00  0.00     0.011 C 
HETATM   27  C18 UNL     1      41.276  -9.914  -2.260  1.00  0.00     0.011 C 
ENDBRANCH  24  25
ENDBRANCH  15  24
TORSDOF 6
ENDMDL
MODEL 5
REMARK VINA RESULT: -7.503979488      2.421      8.723
REMARK  6 active torsions:
REMARK  status: ('A' for Active; 'I' for Inactive)
REMARK    1  A    between atoms: C2_2  and  C4_4 
REMARK    2  A    between atoms: C4_4  and  C5_5 
REMARK    3  A    between atoms: C5_5  and  C6_6 
REMARK    4  A    between atoms: C6_6  and  N1_7 
REMARK       I    between atoms: N1_7  and  C7_9 
REMARK       I    between atoms: C7_9  and  N3_13 
REMARK    5  A    between atoms: N4_21  and  C15_22 
REMARK    6  A    between atoms: C15_22  and  C16_23 
ROOT
HETATM    1  N1  UNL     1      30.470 -15.557   3.312  1.00  0.00    -0.226 N 
ATOM      2  H1  UNL     1      29.938 -15.459   2.447  1.00  0.00     0.177 HD
HETATM    3  C7  UNL     1      31.721 -16.205   3.270  1.00  0.00     0.673 C 
HETATM    4  N2  UNL     1      32.488 -16.219   4.299  1.00  0.00    -0.235 N 
ATOM      5  H21 UNL     1      33.394 -16.688   4.269  1.00  0.00     0.174 HD
ATOM      6  H22 UNL     1      32.176 -15.752   5.151  1.00  0.00     0.174 HD
HETATM    7  N3  UNL     1      32.153 -16.854   2.087  1.00  0.00    -0.194 N 
HETATM    8  C8  UNL     1      32.254 -18.271   2.065  1.00  0.00     0.106 C 
HETATM    9  C9  UNL     1      32.897 -18.893   1.090  1.00  0.00     0.010 C 
HETATM   10  C10 UNL     1      33.509 -18.092   0.028  1.00  0.00     0.063 C 
HETATM   11  C11 UNL     1      32.745 -16.825  -0.291  1.00  0.00     0.044 C 
HETATM   12  C12 UNL     1      32.475 -16.028   0.941  1.00  0.00     0.148 C 
HETATM   13  C13 UNL     1      33.610 -18.937  -1.210  1.00  0.00     0.043 C 
HETATM   14  C14 UNL     1      34.925 -19.660  -0.996  1.00  0.00     0.127 C 
HETATM   15  N4  UNL     1      35.785 -18.574  -0.553  1.00  0.00    -0.351 N 
HETATM   16  C19 UNL     1      34.936 -17.770   0.293  1.00  0.00     0.232 C 
HETATM   17  O1  UNL     1      35.313 -16.915   1.139  1.00  0.00    -0.272 OA
ENDROOT
BRANCH   1  18
HETATM   18  C6  UNL     1      29.908 -15.024   4.545  1.00  0.00     0.138 C 
BRANCH  18  19
HETATM   19  C5  UNL     1      28.452 -15.360   4.683  1.00  0.00     0.020 C 
BRANCH  19  20
HETATM   20  C4  UNL     1      28.098 -16.666   4.008  1.00  0.00     0.005 C 
BRANCH  20  21
HETATM   21  C2  UNL     1      26.693 -17.096   4.269  1.00  0.00    -0.023 C 
HETATM   22  C1  UNL     1      26.218 -17.866   3.040  1.00  0.00     0.009 C 
HETATM   23  C3  UNL     1      26.691 -18.076   5.429  1.00  0.00     0.009 C 
ENDBRANCH  20  21
ENDBRANCH  19  20
ENDBRANCH  18  19
ENDBRANCH   1  18
BRANCH  15  24
HETATM   24  C15 UNL     1      37.155 -18.286  -0.831  1.00  0.00     0.129 C 
BRANCH  24  25
HETATM   25  C16 UNL     1      37.346 -17.125  -1.768  1.00  0.00    -0.005 C 
HETATM   26  C17 UNL     1      37.961 -15.941  -1.043  1.00  0.00     0.011 C 
HETATM   27  C18 UNL     1      38.331 -17.552  -2.860  1.00  0.00     0.011 C 
ENDBRANCH  24  25
ENDBRANCH  15  24
TORSDOF 6
ENDMDL
