MODEL 1
REMARK VINA RESULT: -6.323136440      0.000      0.000
REMARK  7 active torsions:
REMARK  status: ('A' for Active; 'I' for Inactive)
REMARK    1  A    between atoms: C2_2  and  C4_4 
REMARK    2  A    between atoms: C13_15  and  C14_16 
REMARK    3  A    between atoms: C14_16  and  N1_17 
REMARK    4  A    between atoms: N1_17  and  C15_19 
REMARK    5  A    between atoms: C15_19  and  C16_20 
REMARK    6  A    between atoms: N2_22  and  O1_24 
REMARK    7  A    between atoms: C21_29  and  O2_30 
ROOT
HETATM    1  C14 UNL     1       9.449 -16.155 -20.657  1.00  0.00     0.094 C 
ENDROOT
BRANCH   1   2
HETATM    2  C13 UNL     1       9.496 -17.592 -20.972  1.00  0.00     0.296 C 
HETATM    3  C12 UNL     1       9.287 -18.100 -22.328  1.00  0.00     0.283 C 
HETATM    4  C6  UNL     1      10.202 -19.279 -22.685  1.00  0.00     0.030 C 
HETATM    5  F1  UNL     1       9.630 -17.105 -23.254  1.00  0.00    -0.203 F 
HETATM    6  F2  UNL     1       8.000 -18.497 -22.632  1.00  0.00    -0.203 F 
HETATM    7  C5  UNL     1      10.342 -20.262 -21.524  1.00  0.00     0.049 C 
HETATM    8  C7  UNL     1       9.529 -20.055 -23.779  1.00  0.00     0.015 C 
HETATM    9  C11 UNL     1      11.550 -18.750 -23.018  1.00  0.00     0.015 C 
HETATM   10  C4  UNL     1      10.348 -19.601 -20.199  1.00  0.00     0.191 C 
HETATM   11  N3  UNL     1      10.683 -18.201 -20.318  1.00  0.00    -0.056 N 
ATOM     12  H32 UNL     1      10.946 -17.759 -19.437  1.00  0.00     0.278 HD
ATOM     13  H31 UNL     1      11.563 -18.023 -20.801  1.00  0.00     0.278 HD
HETATM   14  C8  UNL     1       9.797 -19.531 -25.170  1.00  0.00     0.001 C 
HETATM   15  C9  UNL     1      11.314 -19.711 -25.347  1.00  0.00     0.000 C 
HETATM   16  C10 UNL     1      11.930 -18.693 -24.452  1.00  0.00     0.001 C 
BRANCH  10  17
HETATM   17  C2  UNL     1      11.190 -20.345 -19.195  1.00  0.00     0.008 C 
HETATM   18  C1  UNL     1      10.407 -21.146 -18.204  1.00  0.00     0.011 C 
HETATM   19  C3  UNL     1      12.105 -19.411 -18.457  1.00  0.00     0.011 C 
ENDBRANCH  10  17
ENDBRANCH   1   2
BRANCH   1  20
HETATM   20  N1  UNL     1      10.242 -15.527 -19.716  1.00  0.00    -0.399 N 
ATOM     21  H1  UNL     1      11.158 -15.198 -20.020  1.00  0.00     0.158 HD
BRANCH  20  22
HETATM   22  C15 UNL     1       9.896 -15.311 -18.403  1.00  0.00     0.134 C 
BRANCH  22  23
HETATM   23  C16 UNL     1      10.546 -16.316 -17.431  1.00  0.00     0.084 C 
HETATM   24  C17 UNL     1      11.084 -15.646 -16.234  1.00  0.00     0.024 C 
HETATM   25  N2  UNL     1      11.538 -14.447 -16.191  1.00  0.00    -0.276 N 
HETATM   26  C18 UNL     1      10.989 -16.633 -15.129  1.00  0.00     0.094 C 
ATOM     27  H2  UNL     1      11.542 -13.876 -17.036  1.00  0.00     0.193 HD
HETATM   28  C19 UNL     1       9.831 -17.480 -15.582  1.00  0.00    -0.043 A 
HETATM   29  C20 UNL     1       9.071 -18.358 -14.809  1.00  0.00     0.044 A 
HETATM   30  C24 UNL     1       9.585 -17.280 -16.918  1.00  0.00    -0.040 A 
HETATM   31  C21 UNL     1       8.041 -19.060 -15.362  1.00  0.00     0.066 A 
HETATM   32  C22 UNL     1       7.768 -18.878 -16.711  1.00  0.00     0.037 A 
HETATM   33  C23 UNL     1       8.523 -18.010 -17.466  1.00  0.00     0.011 A 
BRANCH  25  34
HETATM   34  O1  UNL     1      12.011 -13.932 -15.030  1.00  0.00    -0.290 OA
ATOM     35  H1  UNL     1      11.949 -13.000 -14.856  1.00  0.00     0.244 HD
ENDBRANCH  25  34
BRANCH  31  36
HETATM   36  O2  UNL     1       7.235 -19.958 -14.651  1.00  0.00    -0.361 OA
ATOM     37  H2  UNL     1       7.474 -20.860 -14.475  1.00  0.00     0.217 HD
ENDBRANCH  31  36
ENDBRANCH  22  23
ENDBRANCH  20  22
ENDBRANCH   1  20
TORSDOF 7
ENDMDL
MODEL 2
REMARK VINA RESULT: -6.097023531      3.865      5.375
REMARK  7 active torsions:
REMARK  status: ('A' for Active; 'I' for Inactive)
REMARK    1  A    between atoms: C2_2  and  C4_4 
REMARK    2  A    between atoms: C13_15  and  C14_16 
REMARK    3  A    between atoms: C14_16  and  N1_17 
REMARK    4  A    between atoms: N1_17  and  C15_19 
REMARK    5  A    between atoms: C15_19  and  C16_20 
REMARK    6  A    between atoms: N2_22  and  O1_24 
REMARK    7  A    between atoms: C21_29  and  O2_30 
ROOT
HETATM    1  C14 UNL     1       5.387 -17.634 -19.701  1.00  0.00     0.094 C 
ENDROOT
BRANCH   1   2
HETATM    2  C13 UNL     1       5.570 -17.076 -21.051  1.00  0.00     0.296 C 
HETATM    3  C12 UNL     1       6.626 -17.542 -21.950  1.00  0.00     0.283 C 
HETATM    4  C6  UNL     1       6.183 -17.630 -23.417  1.00  0.00     0.030 C 
HETATM    5  F1  UNL     1       6.973 -18.859 -21.616  1.00  0.00    -0.203 F 
HETATM    6  F2  UNL     1       7.796 -16.809 -21.938  1.00  0.00    -0.203 F 
HETATM    7  C5  UNL     1       5.317 -16.437 -23.821  1.00  0.00     0.049 C 
HETATM    8  C7  UNL     1       7.415 -17.528 -24.266  1.00  0.00     0.015 C 
HETATM    9  C11 UNL     1       5.387 -18.871 -23.599  1.00  0.00     0.015 C 
HETATM   10  C4  UNL     1       4.434 -15.963 -22.732  1.00  0.00     0.191 C 
HETATM   11  N3  UNL     1       4.251 -16.985 -21.728  1.00  0.00    -0.056 N 
ATOM     12  H32 UNL     1       3.469 -16.814 -21.096  1.00  0.00     0.278 HD
ATOM     13  H31 UNL     1       3.909 -17.873 -22.095  1.00  0.00     0.278 HD
HETATM   14  C8  UNL     1       8.129 -18.840 -24.488  1.00  0.00     0.001 C 
HETATM   15  C9  UNL     1       7.108 -19.690 -25.263  1.00  0.00     0.000 C 
HETATM   16  C10 UNL     1       6.047 -20.018 -24.271  1.00  0.00     0.001 C 
BRANCH  10  17
HETATM   17  C2  UNL     1       3.144 -15.387 -23.256  1.00  0.00     0.008 C 
HETATM   18  C1  UNL     1       1.927 -15.800 -22.491  1.00  0.00     0.011 C 
HETATM   19  C3  UNL     1       2.950 -15.723 -24.706  1.00  0.00     0.011 C 
ENDBRANCH  10  17
ENDBRANCH   1   2
BRANCH   1  20
HETATM   20  N1  UNL     1       5.621 -16.949 -18.525  1.00  0.00    -0.399 N 
ATOM     21  H1  UNL     1       4.857 -16.386 -18.151  1.00  0.00     0.158 HD
BRANCH  20  22
HETATM   22  C15 UNL     1       6.800 -16.964 -17.818  1.00  0.00     0.134 C 
BRANCH  22  23
HETATM   23  C16 UNL     1       8.033 -16.653 -18.689  1.00  0.00     0.084 C 
HETATM   24  C17 UNL     1       8.737 -15.444 -18.225  1.00  0.00     0.024 C 
HETATM   25  N2  UNL     1       8.191 -14.439 -17.643  1.00  0.00    -0.276 N 
HETATM   26  C18 UNL     1      10.169 -15.640 -18.570  1.00  0.00     0.094 C 
ATOM     27  H2  UNL     1       7.186 -14.441 -17.469  1.00  0.00     0.193 HD
HETATM   28  C19 UNL     1      10.276 -17.142 -18.559  1.00  0.00    -0.043 A 
HETATM   29  C20 UNL     1      11.441 -17.906 -18.491  1.00  0.00     0.044 A 
HETATM   30  C24 UNL     1       9.029 -17.711 -18.624  1.00  0.00    -0.040 A 
HETATM   31  C21 UNL     1      11.381 -19.268 -18.486  1.00  0.00     0.066 A 
HETATM   32  C22 UNL     1      10.133 -19.874 -18.550  1.00  0.00     0.037 A 
HETATM   33  C23 UNL     1       8.989 -19.111 -18.618  1.00  0.00     0.011 A 
BRANCH  25  34
HETATM   34  O1  UNL     1       8.940 -13.377 -17.259  1.00  0.00    -0.290 OA
ATOM     35  H1  UNL     1       8.554 -12.511 -17.202  1.00  0.00     0.244 HD
ENDBRANCH  25  34
BRANCH  31  36
HETATM   36  O2  UNL     1      12.505 -20.101 -18.419  1.00  0.00    -0.361 OA
ATOM     37  H2  UNL     1      12.641 -20.855 -18.980  1.00  0.00     0.217 HD
ENDBRANCH  31  36
ENDBRANCH  22  23
ENDBRANCH  20  22
ENDBRANCH   1  20
TORSDOF 7
ENDMDL
MODEL 3
REMARK VINA RESULT: -6.050946684     13.452     15.861
REMARK  7 active torsions:
REMARK  status: ('A' for Active; 'I' for Inactive)
REMARK    1  A    between atoms: C2_2  and  C4_4 
REMARK    2  A    between atoms: C13_15  and  C14_16 
REMARK    3  A    between atoms: C14_16  and  N1_17 
REMARK    4  A    between atoms: N1_17  and  C15_19 
REMARK    5  A    between atoms: C15_19  and  C16_20 
REMARK    6  A    between atoms: N2_22  and  O1_24 
REMARK    7  A    between atoms: C21_29  and  O2_30 
ROOT
HETATM    1  C14 UNL     1      -0.665 -11.369 -27.666  1.00  0.00     0.094 C 
ENDROOT
BRANCH   1   2
HETATM    2  C13 UNL     1       0.618 -12.027 -27.364  1.00  0.00     0.296 C 
HETATM    3  C12 UNL     1       0.697 -13.254 -26.570  1.00  0.00     0.283 C 
HETATM    4  C6  UNL     1       1.752 -14.244 -27.081  1.00  0.00     0.030 C 
HETATM    5  F1  UNL     1      -0.513 -13.953 -26.676  1.00  0.00    -0.203 F 
HETATM    6  F2  UNL     1       0.940 -13.084 -25.222  1.00  0.00    -0.203 F 
HETATM    7  C5  UNL     1       3.037 -13.536 -27.508  1.00  0.00     0.049 C 
HETATM    8  C7  UNL     1       2.147 -15.116 -25.927  1.00  0.00     0.015 C 
HETATM    9  C11 UNL     1       1.198 -14.962 -28.258  1.00  0.00     0.015 C 
HETATM   10  C4  UNL     1       2.795 -12.214 -28.130  1.00  0.00     0.191 C 
HETATM   11  N3  UNL     1       1.435 -12.103 -28.603  1.00  0.00    -0.056 N 
ATOM     12  H32 UNL     1       1.280 -11.332 -29.252  1.00  0.00     0.278 HD
ATOM     13  H31 UNL     1       1.154 -12.847 -29.242  1.00  0.00     0.278 HD
HETATM   14  C8  UNL     1       1.248 -16.310 -25.710  1.00  0.00     0.001 C 
HETATM   15  C9  UNL     1       1.423 -17.141 -26.992  1.00  0.00     0.000 C 
HETATM   16  C10 UNL     1       0.736 -16.358 -28.056  1.00  0.00     0.001 C 
BRANCH  10  17
HETATM   17  C2  UNL     1       3.831 -11.875 -29.169  1.00  0.00     0.008 C 
HETATM   18  C1  UNL     1       4.201 -10.427 -29.224  1.00  0.00     0.011 C 
HETATM   19  C3  UNL     1       3.394 -12.321 -30.535  1.00  0.00     0.011 C 
ENDBRANCH  10  17
ENDBRANCH   1   2
BRANCH   1  20
HETATM   20  N1  UNL     1      -0.904 -10.015 -27.546  1.00  0.00    -0.399 N 
ATOM     21  H1  UNL     1      -1.833  -9.729 -27.238  1.00  0.00     0.158 HD
BRANCH  20  22
HETATM   22  C15 UNL     1       0.008  -9.021 -27.808  1.00  0.00     0.134 C 
BRANCH  22  23
HETATM   23  C16 UNL     1      -0.430  -8.081 -28.948  1.00  0.00     0.084 C 
HETATM   24  C17 UNL     1       0.123  -6.725 -28.780  1.00  0.00     0.024 C 
HETATM   25  N2  UNL     1       0.392  -6.163 -27.659  1.00  0.00    -0.276 N 
HETATM   26  C18 UNL     1       0.293  -6.174 -30.149  1.00  0.00     0.094 C 
ATOM     27  H2  UNL     1       0.223  -6.665 -26.788  1.00  0.00     0.193 HD
HETATM   28  C19 UNL     1       0.482  -7.430 -30.956  1.00  0.00    -0.043 A 
HETATM   29  C20 UNL     1       1.005  -7.537 -32.245  1.00  0.00     0.044 A 
HETATM   30  C24 UNL     1       0.062  -8.525 -30.243  1.00  0.00    -0.040 A 
HETATM   31  C21 UNL     1       1.120  -8.753 -32.851  1.00  0.00     0.066 A 
HETATM   32  C22 UNL     1       0.704  -9.880 -32.154  1.00  0.00     0.037 A 
HETATM   33  C23 UNL     1       0.189  -9.764 -30.884  1.00  0.00     0.011 A 
BRANCH  25  34
HETATM   34  O1  UNL     1       0.899  -4.907 -27.624  1.00  0.00    -0.290 OA
ATOM     35  H1  UNL     1       0.386  -4.189 -27.272  1.00  0.00     0.244 HD
ENDBRANCH  25  34
BRANCH  31  36
HETATM   36  O2  UNL     1       1.635  -8.939 -34.140  1.00  0.00    -0.361 OA
ATOM     37  H2  UNL     1       2.007  -9.756 -34.450  1.00  0.00     0.217 HD
ENDBRANCH  31  36
ENDBRANCH  22  23
ENDBRANCH  20  22
ENDBRANCH   1  20
TORSDOF 7
ENDMDL
MODEL 4
REMARK VINA RESULT: -5.996202436      5.918      7.953
REMARK  7 active torsions:
REMARK  status: ('A' for Active; 'I' for Inactive)
REMARK    1  A    between atoms: C2_2  and  C4_4 
REMARK    2  A    between atoms: C13_15  and  C14_16 
REMARK    3  A    between atoms: C14_16  and  N1_17 
REMARK    4  A    between atoms: N1_17  and  C15_19 
REMARK    5  A    between atoms: C15_19  and  C16_20 
REMARK    6  A    between atoms: N2_22  and  O1_24 
REMARK    7  A    between atoms: C21_29  and  O2_30 
ROOT
HETATM    1  C14 UNL     1       7.566 -15.993 -23.456  1.00  0.00     0.094 C 
ENDROOT
BRANCH   1   2
HETATM    2  C13 UNL     1       8.245 -16.906 -22.521  1.00  0.00     0.296 C 
HETATM    3  C12 UNL     1       8.725 -18.226 -22.930  1.00  0.00     0.283 C 
HETATM    4  C6  UNL     1      10.073 -18.606 -22.303  1.00  0.00     0.030 C 
HETATM    5  F1  UNL     1       8.977 -18.220 -24.310  1.00  0.00    -0.203 F 
HETATM    6  F2  UNL     1       7.869 -19.280 -22.689  1.00  0.00    -0.203 F 
HETATM    7  C5  UNL     1      10.150 -18.196 -20.832  1.00  0.00     0.049 C 
HETATM    8  C7  UNL     1      10.160 -20.104 -22.299  1.00  0.00     0.015 C 
HETATM    9  C11 UNL     1      11.156 -17.908 -23.043  1.00  0.00     0.015 C 
HETATM   10  C4  UNL     1       9.450 -16.924 -20.545  1.00  0.00     0.191 C 
HETATM   11  N3  UNL     1       9.264 -16.149 -21.749  1.00  0.00    -0.056 N 
ATOM     12  H32 UNL     1       9.021 -15.172 -21.583  1.00  0.00     0.278 HD
ATOM     13  H31 UNL     1      10.125 -15.965 -22.264  1.00  0.00     0.278 HD
HETATM   14  C8  UNL     1      10.683 -20.700 -23.584  1.00  0.00     0.001 C 
HETATM   15  C9  UNL     1      12.118 -20.158 -23.687  1.00  0.00     0.000 C 
HETATM   16  C10 UNL     1      11.962 -18.710 -23.996  1.00  0.00     0.001 C 
BRANCH  10  17
HETATM   17  C2  UNL     1      10.100 -16.158 -19.422  1.00  0.00     0.008 C 
HETATM   18  C1  UNL     1      11.183 -16.903 -18.711  1.00  0.00     0.011 C 
HETATM   19  C3  UNL     1       9.081 -15.699 -18.419  1.00  0.00     0.011 C 
ENDBRANCH  10  17
ENDBRANCH   1   2
BRANCH   1  20
HETATM   20  N1  UNL     1       6.315 -16.208 -24.000  1.00  0.00    -0.399 N 
ATOM     21  H1  UNL     1       6.154 -17.102 -24.465  1.00  0.00     0.158 HD
BRANCH  20  22
HETATM   22  C15 UNL     1       5.270 -15.316 -23.965  1.00  0.00     0.134 C 
BRANCH  22  23
HETATM   23  C16 UNL     1       3.903 -15.972 -24.246  1.00  0.00     0.084 C 
HETATM   24  C17 UNL     1       3.142 -16.200 -23.004  1.00  0.00     0.024 C 
HETATM   25  N2  UNL     1       3.651 -16.431 -21.849  1.00  0.00    -0.276 N 
HETATM   26  C18 UNL     1       1.707 -16.106 -23.374  1.00  0.00     0.094 C 
ATOM     27  H2  UNL     1       4.665 -16.468 -21.741  1.00  0.00     0.193 HD
HETATM   28  C19 UNL     1       1.765 -15.191 -24.568  1.00  0.00    -0.043 A 
HETATM   29  C20 UNL     1       0.709 -14.482 -25.142  1.00  0.00     0.044 A 
HETATM   30  C24 UNL     1       3.045 -15.121 -25.056  1.00  0.00    -0.040 A 
HETATM   31  C21 UNL     1       0.916 -13.682 -26.226  1.00  0.00     0.066 A 
HETATM   32  C22 UNL     1       2.202 -13.591 -26.744  1.00  0.00     0.037 A 
HETATM   33  C23 UNL     1       3.236 -14.295 -26.171  1.00  0.00     0.011 A 
BRANCH  25  34
HETATM   34  O1  UNL     1       2.852 -16.627 -20.773  1.00  0.00    -0.290 OA
ATOM     35  H1  UNL     1       2.509 -17.492 -20.578  1.00  0.00     0.244 HD
ENDBRANCH  25  34
BRANCH  31  36
HETATM   36  O2  UNL     1      -0.092 -12.941 -26.856  1.00  0.00    -0.361 OA
ATOM     37  H2  UNL     1      -0.766 -12.460 -26.392  1.00  0.00     0.217 HD
ENDBRANCH  31  36
ENDBRANCH  22  23
ENDBRANCH  20  22
ENDBRANCH   1  20
TORSDOF 7
ENDMDL
MODEL 5
REMARK VINA RESULT: -5.900434111      5.770      7.204
REMARK  7 active torsions:
REMARK  status: ('A' for Active; 'I' for Inactive)
REMARK    1  A    between atoms: C2_2  and  C4_4 
REMARK    2  A    between atoms: C13_15  and  C14_16 
REMARK    3  A    between atoms: C14_16  and  N1_17 
REMARK    4  A    between atoms: N1_17  and  C15_19 
REMARK    5  A    between atoms: C15_19  and  C16_20 
REMARK    6  A    between atoms: N2_22  and  O1_24 
REMARK    7  A    between atoms: C21_29  and  O2_30 
ROOT
HETATM    1  C14 UNL     1       4.971 -18.628 -22.126  1.00  0.00     0.094 C 
ENDROOT
BRANCH   1   2
HETATM    2  C13 UNL     1       3.960 -17.558 -22.103  1.00  0.00     0.296 C 
HETATM    3  C12 UNL     1       3.734 -16.674 -23.246  1.00  0.00     0.283 C 
HETATM    4  C6  UNL     1       2.254 -16.339 -23.476  1.00  0.00     0.030 C 
HETATM    5  F1  UNL     1       4.125 -17.329 -24.423  1.00  0.00    -0.203 F 
HETATM    6  F2  UNL     1       4.409 -15.471 -23.220  1.00  0.00    -0.203 F 
HETATM    7  C5  UNL     1       1.521 -16.076 -22.161  1.00  0.00     0.049 C 
HETATM    8  C7  UNL     1       2.198 -15.041 -24.225  1.00  0.00     0.015 C 
HETATM    9  C11 UNL     1       1.605 -17.492 -24.153  1.00  0.00     0.015 C 
HETATM   10  C4  UNL     1       1.999 -16.927 -21.047  1.00  0.00     0.191 C 
HETATM   11  N3  UNL     1       2.691 -18.093 -21.544  1.00  0.00    -0.056 N 
ATOM     12  H32 UNL     1       2.819 -18.830 -20.849  1.00  0.00     0.278 HD
ATOM     13  H31 UNL     1       2.148 -18.651 -22.202  1.00  0.00     0.278 HD
HETATM   14  C8  UNL     1       2.314 -15.181 -25.724  1.00  0.00     0.001 C 
HETATM   15  C9  UNL     1       1.067 -15.991 -26.118  1.00  0.00     0.000 C 
HETATM   16  C10 UNL     1       1.323 -17.365 -25.604  1.00  0.00     0.001 C 
BRANCH  10  17
HETATM   17  C2  UNL     1       0.904 -17.243 -20.062  1.00  0.00     0.008 C 
HETATM   18  C1  UNL     1      -0.372 -16.498 -20.295  1.00  0.00     0.011 C 
HETATM   19  C3  UNL     1       1.359 -17.005 -18.651  1.00  0.00     0.011 C 
ENDBRANCH  10  17
ENDBRANCH   1   2
BRANCH   1  20
HETATM   20  N1  UNL     1       6.322 -18.433 -22.330  1.00  0.00    -0.399 N 
ATOM     21  H1  UNL     1       6.847 -19.196 -22.758  1.00  0.00     0.158 HD
BRANCH  20  22
HETATM   22  C15 UNL     1       7.018 -17.293 -22.004  1.00  0.00     0.134 C 
BRANCH  22  23
HETATM   23  C16 UNL     1       8.224 -17.562 -21.082  1.00  0.00     0.084 C 
HETATM   24  C17 UNL     1       9.224 -16.482 -21.164  1.00  0.00     0.024 C 
HETATM   25  N2  UNL     1       9.454 -15.755 -22.195  1.00  0.00    -0.276 N 
HETATM   26  C18 UNL     1       9.882 -16.425 -19.834  1.00  0.00     0.094 C 
ATOM     27  H2  UNL     1       8.920 -15.906 -23.051  1.00  0.00     0.193 HD
HETATM   28  C19 UNL     1       8.795 -16.958 -18.939  1.00  0.00    -0.043 A 
HETATM   29  C20 UNL     1       8.707 -16.838 -17.552  1.00  0.00     0.044 A 
HETATM   30  C24 UNL     1       7.841 -17.609 -19.680  1.00  0.00    -0.040 A 
HETATM   31  C21 UNL     1       7.653 -17.372 -16.873  1.00  0.00     0.066 A 
HETATM   32  C22 UNL     1       6.671 -18.037 -17.595  1.00  0.00     0.037 A 
HETATM   33  C23 UNL     1       6.767 -18.151 -18.963  1.00  0.00     0.011 A 
BRANCH  25  34
HETATM   34  O1  UNL     1      10.402 -14.787 -22.157  1.00  0.00    -0.290 OA
ATOM     35  H1  UNL     1      11.210 -14.884 -22.646  1.00  0.00     0.244 HD
ENDBRANCH  25  34
BRANCH  31  36
HETATM   36  O2  UNL     1       7.496 -17.293 -15.483  1.00  0.00    -0.361 OA
ATOM     37  H2  UNL     1       7.700 -18.001 -14.884  1.00  0.00     0.217 HD
ENDBRANCH  31  36
ENDBRANCH  22  23
ENDBRANCH  20  22
ENDBRANCH   1  20
TORSDOF 7
ENDMDL
