MODEL 1
REMARK VINA RESULT: -5.215921022      0.000      0.000
REMARK  3 active torsions:
REMARK  status: ('A' for Active; 'I' for Inactive)
REMARK    1  A    between atoms: C2_2  and  C3_3 
REMARK    2  A    between atoms: N1_8  and  C7_10 
REMARK    3  A    between atoms: C7_10  and  C8_11 
ROOT
HETATM    1  C8  UNL     1      -6.446 -44.895   2.207  1.00  0.00     0.013 C 
HETATM    2  C9  UNL     1      -7.483 -45.125   1.107  1.00  0.00     0.015 C 
HETATM    3  C10 UNL     1      -6.784 -44.758  -0.074  1.00  0.00     0.044 C 
HETATM    4  C11 UNL     1      -5.365 -45.315   0.154  1.00  0.00     0.027 C 
HETATM    5  C12 UNL     1      -5.309 -46.772   0.314  1.00  0.00     0.024 C 
HETATM    6  C13 UNL     1      -5.136 -44.601   1.463  1.00  0.00     0.023 C 
HETATM    7  C14 UNL     1      -4.741 -44.757  -1.033  1.00  0.00     0.173 C 
HETATM    8  O3  UNL     1      -3.625 -44.280  -1.096  1.00  0.00    -0.294 OA
HETATM    9  C15 UNL     1      -5.760 -44.901  -2.128  1.00  0.00     0.190 C 
HETATM   10 CL1  UNL     1      -5.315 -46.159  -3.283  1.00  0.00    -0.095 Cl
HETATM   11 BR1  UNL     1      -5.923 -43.187  -3.011  1.00  0.00    -0.056 Br
HETATM   12  C16 UNL     1      -7.071 -45.220  -1.419  1.00  0.00     0.156 C 
HETATM   13 CL2  UNL     1      -7.577 -46.873  -1.605  1.00  0.00    -0.098 Cl
HETATM   14 CL3  UNL     1      -8.346 -44.167  -2.133  1.00  0.00    -0.098 Cl
ENDROOT
BRANCH   1  15
HETATM   15  C7  UNL     1      -6.855 -43.655   2.932  1.00  0.00     0.241 C 
BRANCH  15  16
HETATM   16  N1  UNL     1      -7.725 -43.798   4.048  1.00  0.00    -0.070 N 
HETATM   17  C5  UNL     1      -7.940 -45.104   4.580  1.00  0.00     0.238 C 
HETATM   18  C4  UNL     1      -6.685 -45.703   5.177  1.00  0.00     0.048 C 
HETATM   19  C2  UNL     1      -6.136 -44.856   6.277  1.00  0.00     0.048 C 
HETATM   20  C1  UNL     1      -4.686 -44.541   5.981  1.00  0.00     0.027 C 
HETATM   21  C18 UNL     1      -6.964 -43.597   6.392  1.00  0.00     0.048 C 
HETATM   22  C17 UNL     1      -7.207 -42.900   5.099  1.00  0.00     0.238 C 
HETATM   23  C6  UNL     1      -9.071 -43.282   3.694  1.00  0.00     0.272 C 
BRANCH  19  24
HETATM   24  C3  UNL     1      -6.136 -45.581   7.587  1.00  0.00     0.181 C 
HETATM   25  O1  UNL     1      -5.737 -46.764   7.622  1.00  0.00    -0.647 OA
HETATM   26  O2  UNL     1      -6.561 -44.986   8.756  1.00  0.00    -0.647 OA
ENDBRANCH  19  24
ENDBRANCH  15  16
ENDBRANCH   1  15
TORSDOF 3
ENDMDL
MODEL 2
REMARK VINA RESULT: -5.067204185      2.967      3.943
REMARK  3 active torsions:
REMARK  status: ('A' for Active; 'I' for Inactive)
REMARK    1  A    between atoms: C2_2  and  C3_3 
REMARK    2  A    between atoms: N1_8  and  C7_10 
REMARK    3  A    between atoms: C7_10  and  C8_11 
ROOT
HETATM    1  C8  UNL     1      -5.977 -45.357   1.685  1.00  0.00     0.013 C 
HETATM    2  C9  UNL     1      -5.297 -45.936   0.444  1.00  0.00     0.015 C 
HETATM    3  C10 UNL     1      -6.342 -45.950  -0.518  1.00  0.00     0.044 C 
HETATM    4  C11 UNL     1      -7.091 -44.627  -0.260  1.00  0.00     0.027 C 
HETATM    5  C12 UNL     1      -6.274 -43.425  -0.454  1.00  0.00     0.024 C 
HETATM    6  C13 UNL     1      -7.357 -44.892   1.201  1.00  0.00     0.023 C 
HETATM    7  C14 UNL     1      -8.187 -44.838  -1.191  1.00  0.00     0.173 C 
HETATM    8  O3  UNL     1      -9.352 -44.549  -0.998  1.00  0.00    -0.294 OA
HETATM    9  C15 UNL     1      -7.568 -45.474  -2.404  1.00  0.00     0.190 C 
HETATM   10 CL1  UNL     1      -7.489 -44.355  -3.767  1.00  0.00    -0.095 Cl
HETATM   11 BR1  UNL     1      -8.622 -47.031  -2.856  1.00  0.00    -0.056 Br
HETATM   12  C16 UNL     1      -6.182 -45.924  -1.959  1.00  0.00     0.156 C 
HETATM   13 CL2  UNL     1      -4.894 -44.949  -2.602  1.00  0.00    -0.098 Cl
HETATM   14 CL3  UNL     1      -5.944 -47.611  -2.545  1.00  0.00    -0.098 Cl
ENDROOT
BRANCH   1  15
HETATM   15  C7  UNL     1      -6.178 -46.493   2.635  1.00  0.00     0.241 C 
BRANCH  15  16
HETATM   16  N1  UNL     1      -5.655 -46.355   3.950  1.00  0.00    -0.070 N 
HETATM   17  C5  UNL     1      -5.175 -47.522   4.617  1.00  0.00     0.238 C 
HETATM   18  C4  UNL     1      -3.963 -48.123   3.938  1.00  0.00     0.048 C 
HETATM   19  C2  UNL     1      -2.831 -47.153   3.864  1.00  0.00     0.048 C 
HETATM   20  C1  UNL     1      -2.376 -47.033   2.427  1.00  0.00     0.027 C 
HETATM   21  C18 UNL     1      -3.286 -45.820   4.415  1.00  0.00     0.048 C 
HETATM   22  C17 UNL     1      -4.585 -45.340   3.870  1.00  0.00     0.238 C 
HETATM   23  C6  UNL     1      -6.697 -45.785   4.839  1.00  0.00     0.272 C 
BRANCH  19  24
HETATM   24  C3  UNL     1      -1.638 -47.634   4.630  1.00  0.00     0.181 C 
HETATM   25  O1  UNL     1      -0.721 -46.826   4.887  1.00  0.00    -0.647 OA
HETATM   26  O2  UNL     1      -1.518 -48.937   5.063  1.00  0.00    -0.647 OA
ENDBRANCH  19  24
ENDBRANCH  15  16
ENDBRANCH   1  15
TORSDOF 3
ENDMDL
MODEL 3
REMARK VINA RESULT: -4.953871740      2.427      3.694
REMARK  3 active torsions:
REMARK  status: ('A' for Active; 'I' for Inactive)
REMARK    1  A    between atoms: C2_2  and  C3_3 
REMARK    2  A    between atoms: N1_8  and  C7_10 
REMARK    3  A    between atoms: C7_10  and  C8_11 
ROOT
HETATM    1  C8  UNL     1      -3.884 -46.161   1.169  1.00  0.00     0.013 C 
HETATM    2  C9  UNL     1      -3.745 -46.917  -0.152  1.00  0.00     0.015 C 
HETATM    3  C10 UNL     1      -4.977 -46.649  -0.806  1.00  0.00     0.044 C 
HETATM    4  C11 UNL     1      -5.250 -45.168  -0.474  1.00  0.00     0.027 C 
HETATM    5  C12 UNL     1      -4.229 -44.242  -0.973  1.00  0.00     0.024 C 
HETATM    6  C13 UNL     1      -5.169 -45.335   1.023  1.00  0.00     0.023 C 
HETATM    7  C14 UNL     1      -6.573 -45.075  -1.068  1.00  0.00     0.173 C 
HETATM    8  O3  UNL     1      -7.522 -44.472  -0.606  1.00  0.00    -0.294 OA
HETATM    9  C15 UNL     1      -6.499 -45.867  -2.343  1.00  0.00     0.190 C 
HETATM   10 CL1  UNL     1      -6.500 -44.827  -3.768  1.00  0.00    -0.095 Cl
HETATM   11 BR1  UNL     1      -8.010 -47.076  -2.374  1.00  0.00    -0.056 Br
HETATM   12  C16 UNL     1      -5.214 -46.681  -2.236  1.00  0.00     0.156 C 
HETATM   13 CL2  UNL     1      -3.940 -46.107  -3.270  1.00  0.00    -0.098 Cl
HETATM   14 CL3  UNL     1      -5.601 -48.373  -2.721  1.00  0.00    -0.098 Cl
ENDROOT
BRANCH   1  15
HETATM   15  C7  UNL     1      -4.112 -47.188   2.231  1.00  0.00     0.241 C 
BRANCH  15  16
HETATM   16  N1  UNL     1      -3.447 -47.012   3.475  1.00  0.00    -0.070 N 
HETATM   17  C5  UNL     1      -3.366 -45.697   4.024  1.00  0.00     0.238 C 
HETATM   18  C4  UNL     1      -4.723 -45.137   4.395  1.00  0.00     0.048 C 
HETATM   19  C2  UNL     1      -5.423 -45.996   5.394  1.00  0.00     0.048 C 
HETATM   20  C1  UNL     1      -6.791 -46.359   4.862  1.00  0.00     0.027 C 
HETATM   21  C18 UNL     1      -4.586 -47.227   5.660  1.00  0.00     0.048 C 
HETATM   22  C17 UNL     1      -4.107 -47.921   4.434  1.00  0.00     0.238 C 
HETATM   23  C6  UNL     1      -2.046 -47.485   3.358  1.00  0.00     0.272 C 
BRANCH  19  24
HETATM   24  C3  UNL     1      -5.666 -45.266   6.679  1.00  0.00     0.181 C 
HETATM   25  O1  UNL     1      -5.671 -45.912   7.748  1.00  0.00    -0.647 OA
HETATM   26  O2  UNL     1      -5.884 -43.905   6.721  1.00  0.00    -0.647 OA
ENDBRANCH  19  24
ENDBRANCH  15  16
ENDBRANCH   1  15
TORSDOF 3
ENDMDL
MODEL 4
REMARK VINA RESULT: -4.898322727      2.596      3.229
REMARK  3 active torsions:
REMARK  status: ('A' for Active; 'I' for Inactive)
REMARK    1  A    between atoms: C2_2  and  C3_3 
REMARK    2  A    between atoms: N1_8  and  C7_10 
REMARK    3  A    between atoms: C7_10  and  C8_11 
ROOT
HETATM    1  C8  UNL     1      -4.908 -46.122   1.595  1.00  0.00     0.013 C 
HETATM    2  C9  UNL     1      -6.308 -46.425   1.062  1.00  0.00     0.015 C 
HETATM    3  C10 UNL     1      -6.460 -45.487   0.006  1.00  0.00     0.044 C 
HETATM    4  C11 UNL     1      -5.070 -45.465  -0.663  1.00  0.00     0.027 C 
HETATM    5  C12 UNL     1      -4.651 -46.754  -1.221  1.00  0.00     0.024 C 
HETATM    6  C13 UNL     1      -4.308 -45.126   0.594  1.00  0.00     0.023 C 
HETATM    7  C14 UNL     1      -5.324 -44.389  -1.605  1.00  0.00     0.173 C 
HETATM    8  O3  UNL     1      -4.544 -43.506  -1.907  1.00  0.00    -0.294 OA
HETATM    9  C15 UNL     1      -6.724 -44.611  -2.103  1.00  0.00     0.190 C 
HETATM   10 CL1  UNL     1      -6.747 -45.196  -3.768  1.00  0.00    -0.095 Cl
HETATM   11 BR1  UNL     1      -7.677 -42.934  -1.952  1.00  0.00    -0.056 Br
HETATM   12  C16 UNL     1      -7.338 -45.620  -1.140  1.00  0.00     0.156 C 
HETATM   13 CL2  UNL     1      -7.527 -47.207  -1.822  1.00  0.00    -0.098 Cl
HETATM   14 CL3  UNL     1      -8.973 -45.014  -0.688  1.00  0.00    -0.098 Cl
ENDROOT
BRANCH   1  15
HETATM   15  C7  UNL     1      -5.087 -45.416   2.900  1.00  0.00     0.241 C 
BRANCH  15  16
HETATM   16  N1  UNL     1      -5.384 -46.207   4.044  1.00  0.00    -0.070 N 
HETATM   17  C5  UNL     1      -5.283 -47.626   3.936  1.00  0.00     0.238 C 
HETATM   18  C4  UNL     1      -3.865 -48.091   3.684  1.00  0.00     0.048 C 
HETATM   19  C2  UNL     1      -2.939 -47.659   4.772  1.00  0.00     0.048 C 
HETATM   20  C1  UNL     1      -1.775 -46.909   4.161  1.00  0.00     0.027 C 
HETATM   21  C18 UNL     1      -3.698 -46.798   5.755  1.00  0.00     0.048 C 
HETATM   22  C17 UNL     1      -4.509 -45.717   5.128  1.00  0.00     0.238 C 
HETATM   23  C6  UNL     1      -6.775 -45.935   4.485  1.00  0.00     0.272 C 
BRANCH  19  24
HETATM   24  C3  UNL     1      -2.339 -48.829   5.487  1.00  0.00     0.181 C 
HETATM   25  O1  UNL     1      -2.611 -49.003   6.694  1.00  0.00    -0.647 OA
HETATM   26  O2  UNL     1      -1.497 -49.722   4.858  1.00  0.00    -0.647 OA
ENDBRANCH  19  24
ENDBRANCH  15  16
ENDBRANCH   1  15
TORSDOF 3
ENDMDL
MODEL 5
REMARK VINA RESULT: -4.801422508      2.961      3.695
REMARK  3 active torsions:
REMARK  status: ('A' for Active; 'I' for Inactive)
REMARK    1  A    between atoms: C2_2  and  C3_3 
REMARK    2  A    between atoms: N1_8  and  C7_10 
REMARK    3  A    between atoms: C7_10  and  C8_11 
ROOT
HETATM    1  C8  UNL     1      -3.437 -46.357   1.555  1.00  0.00     0.013 C 
HETATM    2  C9  UNL     1      -4.665 -47.037   0.950  1.00  0.00     0.015 C 
HETATM    3  C10 UNL     1      -5.104 -46.101  -0.024  1.00  0.00     0.044 C 
HETATM    4  C11 UNL     1      -3.791 -45.576  -0.640  1.00  0.00     0.027 C 
HETATM    5  C12 UNL     1      -2.979 -46.607  -1.295  1.00  0.00     0.024 C 
HETATM    6  C13 UNL     1      -3.182 -45.132   0.667  1.00  0.00     0.023 C 
HETATM    7  C14 UNL     1      -4.371 -44.553  -1.493  1.00  0.00     0.173 C 
HETATM    8  O3  UNL     1      -3.913 -43.444  -1.690  1.00  0.00    -0.294 OA
HETATM    9  C15 UNL     1      -5.625 -45.160  -2.056  1.00  0.00     0.190 C 
HETATM   10 CL1  UNL     1      -5.452 -45.563  -3.766  1.00  0.00    -0.095 Cl
HETATM   11 BR1  UNL     1      -7.064 -43.895  -1.792  1.00  0.00    -0.056 Br
HETATM   12  C16 UNL     1      -5.889 -46.397  -1.206  1.00  0.00     0.156 C 
HETATM   13 CL2  UNL     1      -5.557 -47.891  -2.032  1.00  0.00    -0.098 Cl
HETATM   14 CL3  UNL     1      -7.634 -46.387  -0.759  1.00  0.00    -0.098 Cl
ENDROOT
BRANCH   1  15
HETATM   15  C7  UNL     1      -3.839 -45.870   2.910  1.00  0.00     0.241 C 
BRANCH  15  16
HETATM   16  N1  UNL     1      -4.569 -46.762   3.743  1.00  0.00    -0.070 N 
HETATM   17  C5  UNL     1      -4.349 -48.164   3.597  1.00  0.00     0.238 C 
HETATM   18  C4  UNL     1      -2.943 -48.576   3.978  1.00  0.00     0.048 C 
HETATM   19  C2  UNL     1      -2.625 -48.219   5.392  1.00  0.00     0.048 C 
HETATM   20  C1  UNL     1      -1.357 -47.396   5.420  1.00  0.00     0.027 C 
HETATM   21  C18 UNL     1      -3.791 -47.461   5.985  1.00  0.00     0.048 C 
HETATM   22  C17 UNL     1      -4.298 -46.348   5.135  1.00  0.00     0.238 C 
HETATM   23  C6  UNL     1      -6.023 -46.558   3.530  1.00  0.00     0.272 C 
BRANCH  19  24
HETATM   24  C3  UNL     1      -2.341 -49.433   6.220  1.00  0.00     0.181 C 
HETATM   25  O1  UNL     1      -1.852 -50.441   5.665  1.00  0.00    -0.647 OA
HETATM   26  O2  UNL     1      -2.599 -49.477   7.574  1.00  0.00    -0.647 OA
ENDBRANCH  19  24
ENDBRANCH  15  16
ENDBRANCH   1  15
TORSDOF 3
ENDMDL
