MODEL 1
REMARK VINA RESULT: -6.285719384      0.000      0.000
REMARK  2 active torsions:
REMARK  status: ('A' for Active; 'I' for Inactive)
REMARK    1  A    between atoms: C8_10  and  C9_11 
REMARK    2  A    between atoms: C9_11  and  C10_12 
ROOT
HETATM    1  C1  UNL     1      24.928 -11.069 -19.108  1.00  0.00     0.060 C 
HETATM    2  N1  UNL     1      25.985 -10.804 -18.439  1.00  0.00    -0.397 N 
ATOM      3  H1  UNL     1      25.807 -10.433 -17.505  1.00  0.00     0.159 HD
HETATM    4  C2  UNL     1      27.394 -10.937 -18.770  1.00  0.00     0.081 C 
HETATM    5  C3  UNL     1      27.640 -12.407 -18.997  1.00  0.00     0.029 C 
HETATM    6  C4  UNL     1      27.115 -12.908 -20.297  1.00  0.00    -0.011 C 
HETATM    7  C5  UNL     1      25.638 -12.946 -20.427  1.00  0.00     0.014 C 
HETATM    8  C6  UNL     1      24.957 -11.628 -20.513  1.00  0.00     0.025 C 
HETATM    9  C7  UNL     1      25.676 -10.606 -21.346  1.00  0.00     0.019 C 
HETATM   10  C8  UNL     1      27.161 -10.662 -21.252  1.00  0.00    -0.036 C 
HETATM   11  C13 UNL     1      27.692 -12.092 -21.416  1.00  0.00     0.014 C 
HETATM   12  C14 UNL     1      27.654 -10.087 -19.964  1.00  0.00     0.034 C 
ENDROOT
BRANCH  10  13
HETATM   13  C9  UNL     1      27.737  -9.922 -22.437  1.00  0.00     0.042 C 
BRANCH  13  14
HETATM   14  C10 UNL     1      29.122  -9.392 -22.186  1.00  0.00     0.188 A 
HETATM   15  C11 UNL     1      29.304  -8.075 -22.912  1.00  0.00     0.060 A 
HETATM   16  C12 UNL     1      30.412  -8.684 -23.712  1.00  0.00     0.235 A 
HETATM   17  N2  UNL     1      30.165  -9.942 -23.027  1.00  0.00    -0.071 N 
ATOM     18  H22 UNL     1      30.951 -10.412 -22.578  1.00  0.00     0.277 HD
ATOM     19  H21 UNL     1      29.950 -10.765 -23.589  1.00  0.00     0.277 HD
ENDBRANCH  13  14
ENDBRANCH  10  13
TORSDOF 2
ENDMDL
MODEL 2
REMARK VINA RESULT: -6.190500990      1.023      1.091
REMARK  2 active torsions:
REMARK  status: ('A' for Active; 'I' for Inactive)
REMARK    1  A    between atoms: C8_10  and  C9_11 
REMARK    2  A    between atoms: C9_11  and  C10_12 
ROOT
HETATM    1  C1  UNL     1      24.412 -11.086 -19.707  1.00  0.00     0.060 C 
HETATM    2  N1  UNL     1      25.227 -11.244 -18.734  1.00  0.00    -0.397 N 
ATOM      3  H1  UNL     1      24.881 -10.898 -17.839  1.00  0.00     0.159 HD
HETATM    4  C2  UNL     1      26.557 -11.829 -18.675  1.00  0.00     0.081 C 
HETATM    5  C3  UNL     1      26.403 -13.276 -19.071  1.00  0.00     0.029 C 
HETATM    6  C4  UNL     1      26.196 -13.478 -20.531  1.00  0.00    -0.011 C 
HETATM    7  C5  UNL     1      24.901 -13.000 -21.074  1.00  0.00     0.014 C 
HETATM    8  C6  UNL     1      24.719 -11.525 -21.122  1.00  0.00     0.025 C 
HETATM    9  C7  UNL     1      25.942 -10.758 -21.534  1.00  0.00     0.019 C 
HETATM   10  C8  UNL     1      27.227 -11.324 -21.039  1.00  0.00    -0.036 C 
HETATM   11  C13 UNL     1      27.321 -12.835 -21.288  1.00  0.00     0.014 C 
HETATM   12  C14 UNL     1      27.431 -11.041 -19.586  1.00  0.00     0.034 C 
ENDROOT
BRANCH  10  13
HETATM   13  C9  UNL     1      28.349 -10.748 -21.872  1.00  0.00     0.042 C 
BRANCH  13  14
HETATM   14  C10 UNL     1      28.393  -9.245 -21.844  1.00  0.00     0.188 A 
HETATM   15  C11 UNL     1      28.580  -8.714 -23.251  1.00  0.00     0.060 A 
HETATM   16  C12 UNL     1      29.871  -8.086 -22.827  1.00  0.00     0.235 A 
HETATM   17  N2  UNL     1      29.674  -8.662 -21.507  1.00  0.00    -0.071 N 
ATOM     18  H22 UNL     1      29.727  -8.044 -20.696  1.00  0.00     0.277 HD
ATOM     19  H21 UNL     1      30.400  -9.272 -21.131  1.00  0.00     0.277 HD
ENDBRANCH  13  14
ENDBRANCH  10  13
TORSDOF 2
ENDMDL
MODEL 3
REMARK VINA RESULT: -6.104155832      2.108      5.900
REMARK  2 active torsions:
REMARK  status: ('A' for Active; 'I' for Inactive)
REMARK    1  A    between atoms: C8_10  and  C9_11 
REMARK    2  A    between atoms: C9_11  and  C10_12 
ROOT
HETATM    1  C1  UNL     1      29.979 -10.599 -26.477  1.00  0.00     0.060 C 
HETATM    2  N1  UNL     1      30.937 -10.597 -25.631  1.00  0.00    -0.397 N 
ATOM      3  H1  UNL     1      31.753 -11.136 -25.921  1.00  0.00     0.159 HD
HETATM    4  C2  UNL     1      31.074  -9.964 -24.329  1.00  0.00     0.081 C 
HETATM    5  C3  UNL     1      30.988  -8.477 -24.569  1.00  0.00     0.029 C 
HETATM    6  C4  UNL     1      29.608  -7.994 -24.847  1.00  0.00    -0.011 C 
HETATM    7  C5  UNL     1      29.019  -8.423 -26.138  1.00  0.00     0.014 C 
HETATM    8  C6  UNL     1      28.676  -9.865 -26.252  1.00  0.00     0.025 C 
HETATM    9  C7  UNL     1      28.076 -10.463 -25.012  1.00  0.00     0.019 C 
HETATM   10  C8  UNL     1      28.636  -9.939 -23.736  1.00  0.00    -0.036 C 
HETATM   11  C13 UNL     1      28.700  -8.406 -23.725  1.00  0.00     0.014 C 
HETATM   12  C14 UNL     1      29.993 -10.500 -23.457  1.00  0.00     0.034 C 
ENDROOT
BRANCH  10  13
HETATM   13  C9  UNL     1      27.669 -10.270 -22.624  1.00  0.00     0.042 C 
BRANCH  13  14
HETATM   14  C10 UNL     1      28.327 -10.357 -21.275  1.00  0.00     0.188 A 
HETATM   15  C11 UNL     1      27.613 -11.388 -20.424  1.00  0.00     0.060 A 
HETATM   16  C12 UNL     1      27.270 -10.316 -19.437  1.00  0.00     0.235 A 
HETATM   17  N2  UNL     1      27.919  -9.354 -20.313  1.00  0.00    -0.071 N 
ATOM     18  H22 UNL     1      28.635  -8.744 -19.916  1.00  0.00     0.277 HD
ATOM     19  H21 UNL     1      27.376  -8.557 -20.645  1.00  0.00     0.277 HD
ENDBRANCH  13  14
ENDBRANCH  10  13
TORSDOF 2
ENDMDL
MODEL 4
REMARK VINA RESULT: -6.086939075      0.859      2.021
REMARK  2 active torsions:
REMARK  status: ('A' for Active; 'I' for Inactive)
REMARK    1  A    between atoms: C8_10  and  C9_11 
REMARK    2  A    between atoms: C9_11  and  C10_12 
ROOT
HETATM    1  C1  UNL     1      25.754 -13.521 -20.714  1.00  0.00     0.060 C 
HETATM    2  N1  UNL     1      24.857 -12.641 -20.478  1.00  0.00    -0.397 N 
ATOM      3  H1  UNL     1      23.905 -13.010 -20.457  1.00  0.00     0.159 HD
HETATM    4  C2  UNL     1      24.948 -11.211 -20.233  1.00  0.00     0.081 C 
HETATM    5  C3  UNL     1      25.755 -11.047 -18.970  1.00  0.00     0.029 C 
HETATM    6  C4  UNL     1      27.213 -11.278 -19.156  1.00  0.00    -0.011 C 
HETATM    7  C5  UNL     1      27.615 -12.675 -19.451  1.00  0.00     0.014 C 
HETATM    8  C6  UNL     1      27.230 -13.197 -20.789  1.00  0.00     0.025 C 
HETATM    9  C7  UNL     1      27.376 -12.208 -21.910  1.00  0.00     0.019 C 
HETATM   10  C8  UNL     1      27.047 -10.802 -21.545  1.00  0.00    -0.036 C 
HETATM   11  C13 UNL     1      27.727 -10.375 -20.238  1.00  0.00     0.014 C 
HETATM   12  C14 UNL     1      25.572 -10.592 -21.435  1.00  0.00     0.034 C 
ENDROOT
BRANCH  10  13
HETATM   13  C9  UNL     1      27.653  -9.890 -22.586  1.00  0.00     0.042 C 
BRANCH  13  14
HETATM   14  C10 UNL     1      29.045  -9.442 -22.240  1.00  0.00     0.188 A 
HETATM   15  C11 UNL     1      29.327  -8.102 -22.890  1.00  0.00     0.060 A 
HETATM   16  C12 UNL     1      30.447  -8.727 -23.661  1.00  0.00     0.235 A 
HETATM   17  N2  UNL     1      30.105 -10.002 -23.052  1.00  0.00    -0.071 N 
ATOM     18  H22 UNL     1      30.844 -10.531 -22.587  1.00  0.00     0.277 HD
ATOM     19  H21 UNL     1      29.882 -10.787 -23.664  1.00  0.00     0.277 HD
ENDBRANCH  13  14
ENDBRANCH  10  13
TORSDOF 2
ENDMDL
MODEL 5
REMARK VINA RESULT: -5.913527615      1.372      2.508
REMARK  2 active torsions:
REMARK  status: ('A' for Active; 'I' for Inactive)
REMARK    1  A    between atoms: C8_10  and  C9_11 
REMARK    2  A    between atoms: C9_11  and  C10_12 
ROOT
HETATM    1  C1  UNL     1      26.212 -13.195 -18.919  1.00  0.00     0.060 C 
HETATM    2  N1  UNL     1      25.854 -13.838 -19.964  1.00  0.00    -0.397 N 
ATOM      3  H1  UNL     1      25.710 -14.837 -19.812  1.00  0.00     0.159 HD
HETATM    4  C2  UNL     1      25.616 -13.403 -21.331  1.00  0.00     0.081 C 
HETATM    5  C3  UNL     1      24.470 -12.425 -21.271  1.00  0.00     0.029 C 
HETATM    6  C4  UNL     1      24.849 -11.090 -20.733  1.00  0.00    -0.011 C 
HETATM    7  C5  UNL     1      25.202 -11.048 -19.293  1.00  0.00     0.014 C 
HETATM    8  C6  UNL     1      26.480 -11.706 -18.915  1.00  0.00     0.025 C 
HETATM    9  C7  UNL     1      27.605 -11.490 -19.887  1.00  0.00     0.019 C 
HETATM   10  C8  UNL     1      27.192 -11.451 -21.317  1.00  0.00    -0.036 C 
HETATM   11  C13 UNL     1      25.984 -10.531 -21.540  1.00  0.00     0.014 C 
HETATM   12  C14 UNL     1      26.887 -12.816 -21.840  1.00  0.00     0.034 C 
ENDROOT
BRANCH  10  13
HETATM   13  C9  UNL     1      28.299 -10.796 -22.110  1.00  0.00     0.042 C 
BRANCH  13  14
HETATM   14  C10 UNL     1      28.288  -9.296 -22.012  1.00  0.00     0.188 A 
HETATM   15  C11 UNL     1      28.668  -8.694 -23.350  1.00  0.00     0.060 A 
HETATM   16  C12 UNL     1      29.858  -8.052 -22.708  1.00  0.00     0.235 A 
HETATM   17  N2  UNL     1      29.483  -8.694 -21.458  1.00  0.00    -0.071 N 
ATOM     18  H22 UNL     1      29.392  -8.115 -20.624  1.00  0.00     0.277 HD
ATOM     19  H21 UNL     1      30.164  -9.302 -21.002  1.00  0.00     0.277 HD
ENDBRANCH  13  14
ENDBRANCH  10  13
TORSDOF 2
ENDMDL
