MODEL 1
REMARK VINA RESULT: -7.753382415      0.000      0.000
REMARK  5 active torsions:
REMARK  status: ('A' for Active; 'I' for Inactive)
REMARK    1  A    between atoms: C3_3  and  N1_4 
REMARK    2  A    between atoms: C3_3  and  C15_23 
REMARK       I    between atoms: N1_4  and  C4_6 
REMARK       I    between atoms: C4_6  and  N2_8 
REMARK    3  A    between atoms: C8_13  and  C9_14 
REMARK    4  A    between atoms: C9_14  and  N3_15 
REMARK    5  A    between atoms: C15_23  and  O2_24 
ROOT
HETATM    1  C1  UNL     1      -8.220  -4.636  -6.209  1.00  0.00     0.014 C 
HETATM    2  C2  UNL     1      -7.817  -5.757  -6.468  1.00  0.00    -0.089 C 
HETATM    3  C3  UNL     1      -7.341  -7.105  -6.802  1.00  0.00     0.201 C 
ENDROOT
BRANCH   3   4
HETATM    4  N1  UNL     1      -7.932  -8.083  -5.919  1.00  0.00    -0.325 N 
HETATM    5  C4  UNL     1      -7.548  -8.106  -4.548  1.00  0.00     0.319 C 
HETATM    6  O1  UNL     1      -6.705  -7.298  -4.076  1.00  0.00    -0.247 OA
HETATM    7  N2  UNL     1      -8.122  -9.058  -3.690  1.00  0.00    -0.325 N 
HETATM    8  C5  UNL     1      -7.846  -9.213  -2.288  1.00  0.00     0.165 C 
HETATM    9  C8  UNL     1      -9.108 -10.090  -3.991  1.00  0.00     0.120 C 
HETATM   10  C6  UNL     1      -7.666 -10.695  -2.125  1.00  0.00     0.190 C 
HETATM   11  F1  UNL     1      -6.342 -11.091  -2.153  1.00  0.00    -0.248 F 
HETATM   12  C7  UNL     1      -8.485 -11.288  -3.245  1.00  0.00     0.066 C 
ATOM     13  H1  UNL     1      -8.618  -8.750  -6.273  1.00  0.00     0.165 HD
BRANCH   9  14
HETATM   14  C9  UNL     1     -10.451  -9.763  -3.415  1.00  0.00     0.305 C 
BRANCH  14  15
HETATM   15  N3  UNL     1     -11.202 -10.940  -3.166  1.00  0.00     0.162 N 
HETATM   16  C10 UNL     1     -10.786 -11.551  -1.877  1.00  0.00     0.280 C 
HETATM   17  C11 UNL     1     -11.249 -12.968  -1.926  1.00  0.00     0.031 C 
HETATM   18  C12 UNL     1     -12.690 -13.166  -2.262  1.00  0.00     0.009 C 
HETATM   19  C13 UNL     1     -13.223 -12.160  -3.249  1.00  0.00     0.114 C 
HETATM   20  C14 UNL     1     -12.629 -10.768  -2.971  1.00  0.00     0.437 C 
HETATM   21  F2  UNL     1     -13.235  -9.869  -3.747  1.00  0.00    -0.172 F 
HETATM   22  F3  UNL     1     -12.951 -10.492  -1.645  1.00  0.00    -0.172 F 
ENDBRANCH  14  15
ENDBRANCH   9  14
ENDBRANCH   3   4
BRANCH   3  23
HETATM   23  C15 UNL     1      -7.696  -7.350  -8.252  1.00  0.00     0.117 C 
HETATM   24  C16 UNL     1      -7.589  -6.023  -8.965  1.00  0.00     0.073 C 
HETATM   25  C17 UNL     1      -6.113  -5.955  -9.282  1.00  0.00     0.275 C 
HETATM   26  N4  UNL     1      -5.852  -7.302  -9.752  1.00  0.00     0.087 N 
HETATM   27  C18 UNL     1      -6.293  -7.403 -11.134  1.00  0.00     0.310 C 
HETATM   28  C19 UNL     1      -6.674  -8.188  -8.961  1.00  0.00     0.312 C 
BRANCH  23  29
HETATM   29  O2  UNL     1      -8.983  -7.850  -8.401  1.00  0.00    -0.385 OA
ATOM     30  H2  UNL     1      -9.293  -7.785  -9.297  1.00  0.00     0.210 HD
ENDBRANCH  23  29
ENDBRANCH   3  23
TORSDOF 5
ENDMDL
MODEL 2
REMARK VINA RESULT: -7.265739602     11.050     15.579
REMARK  5 active torsions:
REMARK  status: ('A' for Active; 'I' for Inactive)
REMARK    1  A    between atoms: C3_3  and  N1_4 
REMARK    2  A    between atoms: C3_3  and  C15_23 
REMARK       I    between atoms: N1_4  and  C4_6 
REMARK       I    between atoms: C4_6  and  N2_8 
REMARK    3  A    between atoms: C8_13  and  C9_14 
REMARK    4  A    between atoms: C9_14  and  N3_15 
REMARK    5  A    between atoms: C15_23  and  O2_24 
ROOT
HETATM    1  C1  UNL     1     -17.381 -15.374   3.883  1.00  0.00     0.014 C 
HETATM    2  C2  UNL     1     -18.056 -16.280   3.424  1.00  0.00    -0.089 C 
HETATM    3  C3  UNL     1     -18.857 -17.387   2.887  1.00  0.00     0.201 C 
ENDROOT
BRANCH   3   4
HETATM    4  N1  UNL     1     -18.631 -17.532   1.468  1.00  0.00    -0.325 N 
HETATM    5  C4  UNL     1     -19.641 -17.113   0.556  1.00  0.00     0.319 C 
HETATM    6  O1  UNL     1     -20.731 -16.618   0.946  1.00  0.00    -0.247 OA
HETATM    7  N2  UNL     1     -19.422 -17.255  -0.824  1.00  0.00    -0.325 N 
HETATM    8  C5  UNL     1     -20.334 -16.883  -1.871  1.00  0.00     0.165 C 
HETATM    9  C8  UNL     1     -18.259 -17.794  -1.519  1.00  0.00     0.120 C 
HETATM   10  C6  UNL     1     -20.313 -18.067  -2.795  1.00  0.00     0.190 C 
HETATM   11  F1  UNL     1     -21.353 -18.950  -2.574  1.00  0.00    -0.248 F 
HETATM   12  C7  UNL     1     -18.955 -18.683  -2.569  1.00  0.00     0.066 C 
ATOM     13  H1  UNL     1     -17.758 -17.929   1.123  1.00  0.00     0.165 HD
BRANCH   9  14
HETATM   14  C9  UNL     1     -17.465 -16.719  -2.195  1.00  0.00     0.305 C 
BRANCH  14  15
HETATM   15  N3  UNL     1     -16.098 -16.779  -1.821  1.00  0.00     0.162 N 
HETATM   16  C10 UNL     1     -15.235 -16.423  -2.978  1.00  0.00     0.280 C 
HETATM   17  C11 UNL     1     -13.879 -16.959  -2.658  1.00  0.00     0.031 C 
HETATM   18  C12 UNL     1     -13.324 -16.561  -1.332  1.00  0.00     0.009 C 
HETATM   19  C13 UNL     1     -14.366 -16.445  -0.250  1.00  0.00     0.114 C 
HETATM   20  C14 UNL     1     -15.660 -15.831  -0.815  1.00  0.00     0.437 C 
HETATM   21  F2  UNL     1     -16.505 -15.589   0.187  1.00  0.00    -0.172 F 
HETATM   22  F3  UNL     1     -15.274 -14.613  -1.370  1.00  0.00    -0.172 F 
ENDBRANCH  14  15
ENDBRANCH   9  14
ENDBRANCH   3   4
BRANCH   3  23
HETATM   23  C15 UNL     1     -18.468 -18.627   3.661  1.00  0.00     0.117 C 
HETATM   24  C16 UNL     1     -19.120 -18.525   5.019  1.00  0.00     0.073 C 
HETATM   25  C17 UNL     1     -20.505 -19.064   4.745  1.00  0.00     0.275 C 
HETATM   26  N4  UNL     1     -20.210 -20.224   3.926  1.00  0.00     0.087 N 
HETATM   27  C18 UNL     1     -19.800 -21.313   4.797  1.00  0.00     0.310 C 
HETATM   28  C19 UNL     1     -19.081 -19.873   3.095  1.00  0.00     0.312 C 
BRANCH  23  29
HETATM   29  O2  UNL     1     -17.093 -18.740   3.818  1.00  0.00    -0.385 OA
ATOM     30  H2  UNL     1     -16.837 -18.780   4.732  1.00  0.00     0.210 HD
ENDBRANCH  23  29
ENDBRANCH   3  23
TORSDOF 5
ENDMDL
MODEL 3
REMARK VINA RESULT: -7.127513894      4.030      6.491
REMARK  5 active torsions:
REMARK  status: ('A' for Active; 'I' for Inactive)
REMARK    1  A    between atoms: C3_3  and  N1_4 
REMARK    2  A    between atoms: C3_3  and  C15_23 
REMARK       I    between atoms: N1_4  and  C4_6 
REMARK       I    between atoms: C4_6  and  N2_8 
REMARK    3  A    between atoms: C8_13  and  C9_14 
REMARK    4  A    between atoms: C9_14  and  N3_15 
REMARK    5  A    between atoms: C15_23  and  O2_24 
ROOT
HETATM    1  C1  UNL     1      -6.943 -14.186  -0.778  1.00  0.00     0.014 C 
HETATM    2  C2  UNL     1      -7.467 -13.321  -1.458  1.00  0.00    -0.089 C 
HETATM    3  C3  UNL     1      -8.087 -12.262  -2.264  1.00  0.00     0.201 C 
ENDROOT
BRANCH   3   4
HETATM    4  N1  UNL     1      -9.525 -12.306  -2.137  1.00  0.00    -0.325 N 
HETATM    5  C4  UNL     1     -10.329 -11.604  -3.078  1.00  0.00     0.319 C 
HETATM    6  O1  UNL     1      -9.828 -10.942  -4.025  1.00  0.00    -0.247 OA
HETATM    7  N2  UNL     1     -11.728 -11.645  -2.953  1.00  0.00    -0.325 N 
HETATM    8  C5  UNL     1     -12.677 -10.997  -3.816  1.00  0.00     0.165 C 
HETATM    9  C8  UNL     1     -12.540 -12.332  -1.955  1.00  0.00     0.120 C 
HETATM   10  C6  UNL     1     -13.645 -10.361  -2.861  1.00  0.00     0.190 C 
HETATM   11  F1  UNL     1     -13.372  -9.029  -2.612  1.00  0.00    -0.248 F 
HETATM   12  C7  UNL     1     -13.562 -11.224  -1.626  1.00  0.00     0.066 C 
ATOM     13  H1  UNL     1      -9.959 -12.834  -1.380  1.00  0.00     0.165 HD
BRANCH   9  14
HETATM   14  C9  UNL     1     -13.239 -13.525  -2.529  1.00  0.00     0.305 C 
BRANCH  14  15
HETATM   15  N3  UNL     1     -13.621 -14.435  -1.511  1.00  0.00     0.162 N 
HETATM   16  C10 UNL     1     -15.030 -14.188  -1.106  1.00  0.00     0.280 C 
HETATM   17  C11 UNL     1     -15.189 -14.823   0.235  1.00  0.00     0.031 C 
HETATM   18  C12 UNL     1     -14.764 -16.251   0.328  1.00  0.00     0.009 C 
HETATM   19  C13 UNL     1     -13.572 -16.584  -0.531  1.00  0.00     0.114 C 
HETATM   20  C14 UNL     1     -13.654 -15.838  -1.875  1.00  0.00     0.437 C 
HETATM   21  F2  UNL     1     -12.681 -16.271  -2.677  1.00  0.00    -0.172 F 
HETATM   22  F3  UNL     1     -14.877 -16.213  -2.426  1.00  0.00    -0.172 F 
ENDBRANCH  14  15
ENDBRANCH   9  14
ENDBRANCH   3   4
BRANCH   3  23
HETATM   23  C15 UNL     1      -7.506 -10.949  -1.786  1.00  0.00     0.117 C 
HETATM   24  C16 UNL     1      -6.180 -10.770  -2.484  1.00  0.00     0.073 C 
HETATM   25  C17 UNL     1      -6.597 -10.168  -3.805  1.00  0.00     0.275 C 
HETATM   26  N4  UNL     1      -7.579  -9.187  -3.381  1.00  0.00     0.087 N 
HETATM   27  C18 UNL     1      -6.877  -8.009  -2.898  1.00  0.00     0.310 C 
HETATM   28  C19 UNL     1      -8.292  -9.765  -2.265  1.00  0.00     0.312 C 
BRANCH  23  29
HETATM   29  O2  UNL     1      -7.310 -10.931  -0.411  1.00  0.00    -0.385 OA
ATOM     30  H2  UNL     1      -6.445 -10.618  -0.176  1.00  0.00     0.210 HD
ENDBRANCH  23  29
ENDBRANCH   3  23
TORSDOF 5
ENDMDL
MODEL 4
REMARK VINA RESULT: -6.923593392      8.809     12.748
REMARK  5 active torsions:
REMARK  status: ('A' for Active; 'I' for Inactive)
REMARK    1  A    between atoms: C3_3  and  N1_4 
REMARK    2  A    between atoms: C3_3  and  C15_23 
REMARK       I    between atoms: N1_4  and  C4_6 
REMARK       I    between atoms: C4_6  and  N2_8 
REMARK    3  A    between atoms: C8_13  and  C9_14 
REMARK    4  A    between atoms: C9_14  and  N3_15 
REMARK    5  A    between atoms: C15_23  and  O2_24 
ROOT
HETATM    1  C1  UNL     1     -13.492 -17.914  -1.858  1.00  0.00     0.014 C 
HETATM    2  C2  UNL     1     -14.308 -17.026  -2.040  1.00  0.00    -0.089 C 
HETATM    3  C3  UNL     1     -15.278 -15.943  -2.243  1.00  0.00     0.201 C 
ENDROOT
BRANCH   3   4
HETATM    4  N1  UNL     1     -16.608 -16.384  -1.889  1.00  0.00    -0.325 N 
HETATM    5  C4  UNL     1     -17.284 -17.305  -2.738  1.00  0.00     0.319 C 
HETATM    6  O1  UNL     1     -16.761 -17.752  -3.792  1.00  0.00    -0.247 OA
HETATM    7  N2  UNL     1     -18.578 -17.732  -2.396  1.00  0.00    -0.325 N 
HETATM    8  C5  UNL     1     -19.392 -18.654  -3.139  1.00  0.00     0.165 C 
HETATM    9  C8  UNL     1     -19.391 -17.364  -1.243  1.00  0.00     0.120 C 
HETATM   10  C6  UNL     1     -20.738 -17.990  -3.170  1.00  0.00     0.190 C 
HETATM   11  F1  UNL     1     -20.968 -17.275  -4.330  1.00  0.00    -0.248 F 
HETATM   12  C7  UNL     1     -20.751 -17.130  -1.931  1.00  0.00     0.066 C 
ATOM     13  H1  UNL     1     -17.057 -16.039  -1.042  1.00  0.00     0.165 HD
BRANCH   9  14
HETATM   14  C9  UNL     1     -19.497 -18.484  -0.254  1.00  0.00     0.305 C 
BRANCH  14  15
HETATM   15  N3  UNL     1     -18.885 -18.141   0.978  1.00  0.00     0.162 N 
HETATM   16  C10 UNL     1     -18.774 -16.663   1.101  1.00  0.00     0.280 C 
HETATM   17  C11 UNL     1     -17.733 -16.415   2.141  1.00  0.00     0.031 C 
HETATM   18  C12 UNL     1     -17.933 -17.127   3.437  1.00  0.00     0.009 C 
HETATM   19  C13 UNL     1     -18.543 -18.496   3.288  1.00  0.00     0.114 C 
HETATM   20  C14 UNL     1     -19.613 -18.489   2.182  1.00  0.00     0.437 C 
HETATM   21  F2  UNL     1     -20.249 -19.661   2.179  1.00  0.00    -0.172 F 
HETATM   22  F3  UNL     1     -20.518 -17.499   2.557  1.00  0.00    -0.172 F 
ENDBRANCH  14  15
ENDBRANCH   9  14
ENDBRANCH   3   4
BRANCH   3  23
HETATM   23  C15 UNL     1     -14.816 -14.775  -1.399  1.00  0.00     0.117 C 
HETATM   24  C16 UNL     1     -13.320 -14.905  -1.243  1.00  0.00     0.073 C 
HETATM   25  C17 UNL     1     -12.814 -14.260  -2.512  1.00  0.00     0.275 C 
HETATM   26  N4  UNL     1     -13.654 -13.080  -2.595  1.00  0.00     0.087 N 
HETATM   27  C18 UNL     1     -13.123 -12.069  -1.695  1.00  0.00     0.310 C 
HETATM   28  C19 UNL     1     -14.960 -13.462  -2.108  1.00  0.00     0.312 C 
BRANCH  23  29
HETATM   29  O2  UNL     1     -15.411 -14.765  -0.144  1.00  0.00    -0.385 OA
ATOM     30  H2  UNL     1     -14.843 -15.128   0.525  1.00  0.00     0.210 HD
ENDBRANCH  23  29
ENDBRANCH   3  23
TORSDOF 5
ENDMDL
MODEL 5
REMARK VINA RESULT: -6.854790736      9.432     11.503
REMARK  5 active torsions:
REMARK  status: ('A' for Active; 'I' for Inactive)
REMARK    1  A    between atoms: C3_3  and  N1_4 
REMARK    2  A    between atoms: C3_3  and  C15_23 
REMARK       I    between atoms: N1_4  and  C4_6 
REMARK       I    between atoms: C4_6  and  N2_8 
REMARK    3  A    between atoms: C8_13  and  C9_14 
REMARK    4  A    between atoms: C9_14  and  N3_15 
REMARK    5  A    between atoms: C15_23  and  O2_24 
ROOT
HETATM    1  C1  UNL     1     -19.733  -4.012   0.704  1.00  0.00     0.014 C 
HETATM    2  C2  UNL     1     -19.183  -3.391  -0.190  1.00  0.00    -0.089 C 
HETATM    3  C3  UNL     1     -18.531  -2.658  -1.282  1.00  0.00     0.201 C 
ENDROOT
BRANCH   3   4
HETATM    4  N1  UNL     1     -17.096  -2.676  -1.116  1.00  0.00    -0.325 N 
HETATM    5  C4  UNL     1     -16.369  -1.456  -1.212  1.00  0.00     0.319 C 
HETATM    6  O1  UNL     1     -16.936  -0.355  -1.439  1.00  0.00    -0.247 OA
HETATM    7  N2  UNL     1     -14.973  -1.474  -1.052  1.00  0.00    -0.325 N 
HETATM    8  C5  UNL     1     -14.097  -0.336  -1.118  1.00  0.00     0.165 C 
HETATM    9  C8  UNL     1     -14.094  -2.606  -0.787  1.00  0.00     0.120 C 
HETATM   10  C6  UNL     1     -12.966  -0.812  -1.984  1.00  0.00     0.190 C 
HETATM   11  F1  UNL     1     -13.101  -0.443  -3.309  1.00  0.00    -0.248 F 
HETATM   12  C7  UNL     1     -12.955  -2.307  -1.783  1.00  0.00     0.066 C 
ATOM     13  H1  UNL     1     -16.609  -3.553  -0.931  1.00  0.00     0.165 HD
BRANCH   9  14
HETATM   14  C9  UNL     1     -13.571  -2.590   0.616  1.00  0.00     0.305 C 
BRANCH  14  15
HETATM   15  N3  UNL     1     -13.649  -3.876   1.208  1.00  0.00     0.162 N 
HETATM   16  C10 UNL     1     -14.862  -4.589   0.728  1.00  0.00     0.280 C 
HETATM   17  C11 UNL     1     -15.117  -5.676   1.717  1.00  0.00     0.031 C 
HETATM   18  C12 UNL     1     -13.957  -6.568   2.011  1.00  0.00     0.009 C 
HETATM   19  C13 UNL     1     -12.629  -5.857   1.993  1.00  0.00     0.114 C 
HETATM   20  C14 UNL     1     -12.595  -4.811   0.865  1.00  0.00     0.437 C 
HETATM   21  F2  UNL     1     -11.362  -4.313   0.764  1.00  0.00    -0.172 F 
HETATM   22  F3  UNL     1     -12.878  -5.522  -0.299  1.00  0.00    -0.172 F 
ENDBRANCH  14  15
ENDBRANCH   9  14
ENDBRANCH   3   4
BRANCH   3  23
HETATM   23  C15 UNL     1     -18.969  -3.314  -2.574  1.00  0.00     0.117 C 
HETATM   24  C16 UNL     1     -20.445  -3.041  -2.731  1.00  0.00     0.073 C 
HETATM   25  C17 UNL     1     -20.447  -1.669  -3.363  1.00  0.00     0.275 C 
HETATM   26  N4  UNL     1     -19.402  -1.805  -4.360  1.00  0.00     0.087 N 
HETATM   27  C18 UNL     1     -19.951  -2.498  -5.514  1.00  0.00     0.310 C 
HETATM   28  C19 UNL     1     -18.381  -2.650  -3.783  1.00  0.00     0.312 C 
BRANCH  23  29
HETATM   29  O2  UNL     1     -18.751  -4.685  -2.567  1.00  0.00    -0.385 OA
ATOM     30  H2  UNL     1     -19.540  -5.175  -2.770  1.00  0.00     0.210 HD
ENDBRANCH  23  29
ENDBRANCH   3  23
TORSDOF 5
ENDMDL
