MODEL 1
REMARK VINA RESULT: -5.547949828      0.000      0.000
REMARK  1 active torsions:
REMARK  status: ('A' for Active; 'I' for Inactive)
REMARK    1  A    between atoms: C10_13  and  N2_14 
ROOT
HETATM    1  C1  UNL     1      -2.092   5.368  82.044  1.00  0.00     0.013 C 
HETATM    2  C2  UNL     1      -0.860   5.097  82.772  1.00  0.00     0.026 C 
HETATM    3  C3  UNL     1      -0.983   4.900  84.290  1.00  0.00     0.004 C 
HETATM    4  C4  UNL     1      -2.259   4.343  84.681  1.00  0.00     0.039 C 
HETATM    5  C5  UNL     1      -2.535   2.908  84.442  1.00  0.00     0.191 C 
HETATM    6  N1  UNL     1      -1.920   2.041  85.465  1.00  0.00    -0.066 N 
ATOM      7  H11 UNL     1      -2.477   1.243  85.771  1.00  0.00     0.278 HD
ATOM      8  H12 UNL     1      -1.837   2.440  86.401  1.00  0.00     0.278 HD
HETATM    9  C6  UNL     1      -0.666   1.725  84.791  1.00  0.00     0.192 C 
HETATM   10  C7  UNL     1       0.269   2.854  85.052  1.00  0.00     0.045 C 
HETATM   11  C8  UNL     1       0.189   4.004  84.164  1.00  0.00    -0.001 C 
HETATM   12  C9  UNL     1       1.489   4.823  84.210  1.00  0.00     0.018 C 
HETATM   13  C10 UNL     1      -0.191   3.768  82.742  1.00  0.00     0.174 C 
HETATM   14  C13 UNL     1      -1.014   2.603  82.449  1.00  0.00     0.038 A 
HETATM   15  C14 UNL     1      -2.239   2.334  83.142  1.00  0.00     0.030 A 
HETATM   16  C15 UNL     1      -1.003   1.472  83.381  1.00  0.00     0.030 A 
ENDROOT
BRANCH  13  17
HETATM   17  N2  UNL     1       0.953   3.864  81.818  1.00  0.00     0.091 N 
HETATM   18  C11 UNL     1       1.759   2.685  81.810  1.00  0.00     0.310 C 
HETATM   19  C12 UNL     1       0.513   4.155  80.475  1.00  0.00     0.310 C 
ENDBRANCH  13  17
TORSDOF 1
ENDMDL
MODEL 2
REMARK VINA RESULT: -5.433291691      1.429      2.816
REMARK  1 active torsions:
REMARK  status: ('A' for Active; 'I' for Inactive)
REMARK    1  A    between atoms: C10_13  and  N2_14 
ROOT
HETATM    1  C1  UNL     1       1.170   6.420  84.023  1.00  0.00     0.013 C 
HETATM    2  C2  UNL     1       1.228   5.507  82.890  1.00  0.00     0.026 C 
HETATM    3  C3  UNL     1       1.716   4.079  83.178  1.00  0.00     0.004 C 
HETATM    4  C4  UNL     1       1.402   3.640  84.520  1.00  0.00     0.039 C 
HETATM    5  C5  UNL     1       0.011   3.266  84.861  1.00  0.00     0.191 C 
HETATM    6  N1  UNL     1      -0.330   1.904  84.409  1.00  0.00    -0.066 N 
ATOM      7  H11 UNL     1      -0.907   1.352  85.044  1.00  0.00     0.278 HD
ATOM      8  H12 UNL     1       0.436   1.231  84.396  1.00  0.00     0.278 HD
HETATM    9  C6  UNL     1      -0.925   2.222  83.117  1.00  0.00     0.192 C 
HETATM   10  C7  UNL     1       0.191   2.365  82.142  1.00  0.00     0.045 C 
HETATM   11  C8  UNL     1       0.839   3.665  82.059  1.00  0.00    -0.001 C 
HETATM   12  C9  UNL     1       1.578   3.824  80.721  1.00  0.00     0.018 C 
HETATM   13  C10 UNL     1       0.011   4.880  82.308  1.00  0.00     0.174 C 
HETATM   14  C13 UNL     1      -1.154   4.736  83.169  1.00  0.00     0.038 A 
HETATM   15  C14 UNL     1      -1.077   4.145  84.473  1.00  0.00     0.030 A 
HETATM   16  C15 UNL     1      -1.765   3.413  83.325  1.00  0.00     0.030 A 
ENDROOT
BRANCH  13  17
HETATM   17  N2  UNL     1      -0.321   5.612  81.072  1.00  0.00     0.091 N 
HETATM   18  C11 UNL     1      -1.519   5.139  80.454  1.00  0.00     0.310 C 
HETATM   19  C12 UNL     1      -0.437   7.028  81.323  1.00  0.00     0.310 C 
ENDBRANCH  13  17
TORSDOF 1
ENDMDL
MODEL 3
REMARK VINA RESULT: -5.343010799      1.344      3.855
REMARK  1 active torsions:
REMARK  status: ('A' for Active; 'I' for Inactive)
REMARK    1  A    between atoms: C10_13  and  N2_14 
ROOT
HETATM    1  C1  UNL     1       1.165   3.193  84.984  1.00  0.00     0.013 C 
HETATM    2  C2  UNL     1      -0.233   3.477  84.691  1.00  0.00     0.026 C 
HETATM    3  C3  UNL     1      -0.621   4.955  84.537  1.00  0.00     0.004 C 
HETATM    4  C4  UNL     1       0.464   5.769  84.034  1.00  0.00     0.039 C 
HETATM    5  C5  UNL     1       0.838   5.688  82.604  1.00  0.00     0.191 C 
HETATM    6  N1  UNL     1      -0.063   6.477  81.743  1.00  0.00    -0.066 N 
ATOM      7  H11 UNL     1       0.379   6.980  80.973  1.00  0.00     0.278 HD
ATOM      8  H12 UNL     1      -0.463   7.316  82.163  1.00  0.00     0.278 HD
HETATM    9  C6  UNL     1      -1.011   5.435  81.367  1.00  0.00     0.192 C 
HETATM   10  C7  UNL     1      -2.006   5.329  82.469  1.00  0.00     0.045 C 
HETATM   11  C8  UNL     1      -1.661   4.478  83.598  1.00  0.00    -0.001 C 
HETATM   12  C9  UNL     1      -2.920   4.058  84.373  1.00  0.00     0.018 C 
HETATM   13  C10 UNL     1      -0.821   3.273  83.339  1.00  0.00     0.174 C 
HETATM   14  C13 UNL     1       0.079   3.314  82.196  1.00  0.00     0.038 A 
HETATM   15  C14 UNL     1       1.008   4.385  81.987  1.00  0.00     0.030 A 
HETATM   16  C15 UNL     1      -0.215   4.228  81.089  1.00  0.00     0.030 A 
ENDROOT
BRANCH  13  17
HETATM   17  N2  UNL     1      -1.593   2.018  83.372  1.00  0.00     0.091 N 
HETATM   18  C11 UNL     1      -1.700   1.400  82.089  1.00  0.00     0.310 C 
HETATM   19  C12 UNL     1      -1.021   1.082  84.310  1.00  0.00     0.310 C 
ENDBRANCH  13  17
TORSDOF 1
ENDMDL
MODEL 4
REMARK VINA RESULT: -5.269378503      1.157      3.758
REMARK  1 active torsions:
REMARK  status: ('A' for Active; 'I' for Inactive)
REMARK    1  A    between atoms: C10_13  and  N2_14 
ROOT
HETATM    1  C1  UNL     1      -2.930   4.504  84.516  1.00  0.00     0.013 C 
HETATM    2  C2  UNL     1      -2.372   3.402  83.745  1.00  0.00     0.026 C 
HETATM    3  C3  UNL     1      -1.718   3.758  82.402  1.00  0.00     0.004 C 
HETATM    4  C4  UNL     1      -1.144   5.086  82.393  1.00  0.00     0.039 C 
HETATM    5  C5  UNL     1       0.125   5.339  83.112  1.00  0.00     0.191 C 
HETATM    6  N1  UNL     1       1.303   4.898  82.341  1.00  0.00    -0.066 N 
ATOM      7  H11 UNL     1       2.121   5.506  82.387  1.00  0.00     0.278 HD
ATOM      8  H12 UNL     1       1.221   4.955  81.326  1.00  0.00     0.278 HD
HETATM    9  C6  UNL     1       1.467   3.560  82.897  1.00  0.00     0.192 C 
HETATM   10  C7  UNL     1       0.535   2.662  82.162  1.00  0.00     0.045 C 
HETATM   11  C8  UNL     1      -0.838   2.591  82.640  1.00  0.00    -0.001 C 
HETATM   12  C9  UNL     1      -1.522   1.304  82.153  1.00  0.00     0.018 C 
HETATM   13  C10 UNL     1      -1.082   2.753  84.102  1.00  0.00     0.174 C 
HETATM   14  C13 UNL     1      -0.118   3.535  84.863  1.00  0.00     0.038 A 
HETATM   15  C14 UNL     1       0.280   4.855  84.472  1.00  0.00     0.030 A 
HETATM   16  C15 UNL     1       1.246   3.681  84.347  1.00  0.00     0.030 A 
ENDROOT
BRANCH  13  17
HETATM   17  N2  UNL     1      -1.393   1.479  84.776  1.00  0.00     0.091 N 
HETATM   18  C11 UNL     1      -0.301   0.981  85.550  1.00  0.00     0.310 C 
HETATM   19  C12 UNL     1      -2.559   1.609  85.616  1.00  0.00     0.310 C 
ENDBRANCH  13  17
TORSDOF 1
ENDMDL
MODEL 5
REMARK VINA RESULT: -4.995918741      1.289      3.023
REMARK  1 active torsions:
REMARK  status: ('A' for Active; 'I' for Inactive)
REMARK    1  A    between atoms: C10_13  and  N2_14 
ROOT
HETATM    1  C1  UNL     1       1.598   2.936  81.661  1.00  0.00     0.013 C 
HETATM    2  C2  UNL     1       0.629   4.023  81.689  1.00  0.00     0.026 C 
HETATM    3  C3  UNL     1      -0.848   3.637  81.519  1.00  0.00     0.004 C 
HETATM    4  C4  UNL     1      -1.142   2.314  82.025  1.00  0.00     0.039 C 
HETATM    5  C5  UNL     1      -1.221   2.090  83.486  1.00  0.00     0.191 C 
HETATM    6  N1  UNL     1      -2.515   2.520  84.051  1.00  0.00    -0.066 N 
ATOM      7  H11 UNL     1      -2.909   1.920  84.776  1.00  0.00     0.278 HD
ATOM      8  H12 UNL     1      -3.323   2.436  83.434  1.00  0.00     0.278 HD
HETATM    9  C6  UNL     1      -2.161   3.873  84.460  1.00  0.00     0.192 C 
HETATM   10  C7  UNL     1      -2.290   4.744  83.260  1.00  0.00     0.045 C 
HETATM   11  C8  UNL     1      -1.146   4.816  82.364  1.00  0.00    -0.001 C 
HETATM   12  C9  UNL     1      -1.207   6.084  81.497  1.00  0.00     0.018 C 
HETATM   13  C10 UNL     1       0.218   4.692  82.953  1.00  0.00     0.174 C 
HETATM   14  C13 UNL     1       0.349   3.938  84.192  1.00  0.00     0.038 A 
HETATM   15  C14 UNL     1      -0.172   2.612  84.343  1.00  0.00     0.030 A 
HETATM   16  C15 UNL     1      -0.820   3.790  85.063  1.00  0.00     0.030 A 
ENDROOT
BRANCH  13  17
HETATM   17  N2  UNL     1       0.930   5.980  83.030  1.00  0.00     0.091 N 
HETATM   18  C11 UNL     1       0.798   6.611  84.304  1.00  0.00     0.310 C 
HETATM   19  C12 UNL     1       2.329   5.819  82.715  1.00  0.00     0.310 C 
ENDBRANCH  13  17
TORSDOF 1
ENDMDL
