MODEL 1
REMARK VINA RESULT: -5.494258524      0.000      0.000
REMARK  3 active torsions:
REMARK  status: ('A' for Active; 'I' for Inactive)
REMARK    1  A    between atoms: C2_2  and  C3_3 
REMARK    2  A    between atoms: C3_3  and  N1_5 
REMARK    3  A    between atoms: N1_5  and  C4_7 
ROOT
HETATM    1  C4  UNL     1      -0.589   3.095  84.064  1.00  0.00     0.097 C 
HETATM    2  C5  UNL     1       0.597   3.231  83.195  1.00  0.00     0.038 C 
HETATM    3  C6  UNL     1       0.270   3.729  81.800  1.00  0.00     0.014 C 
HETATM    4  C7  UNL     1      -0.389   5.062  81.908  1.00  0.00     0.015 C 
HETATM    5  C8  UNL     1       0.468   6.056  82.647  1.00  0.00     0.277 C 
HETATM    6  N2  UNL     1       0.801   5.562  83.965  1.00  0.00     0.090 N 
HETATM    7  C9  UNL     1       1.488   4.320  83.818  1.00  0.00     0.279 C 
HETATM    8  C10 UNL     1      -0.420   5.451  84.729  1.00  0.00     0.283 C 
HETATM    9  C11 UNL     1      -1.318   4.437  84.072  1.00  0.00     0.004 C 
HETATM   10  C12 UNL     1      -2.597   4.246  84.855  1.00  0.00     0.019 C 
HETATM   11  C13 UNL     1      -1.669   4.895  82.690  1.00  0.00     0.019 C 
ENDROOT
BRANCH   1  12
HETATM   12  N1  UNL     1      -1.467   1.999  83.828  1.00  0.00    -0.379 N 
ATOM     13  H1  UNL     1      -2.454   2.249  83.777  1.00  0.00     0.160 HD
BRANCH  12  14
HETATM   14  C3  UNL     1      -1.202   0.650  83.654  1.00  0.00     0.073 C 
HETATM   15  S1  UNL     1      -1.122  -0.317  84.971  1.00  0.00    -0.066 SA
BRANCH  14  16
HETATM   16  C2  UNL     1      -0.985   0.017  82.339  1.00  0.00     0.065 C 
HETATM   17  C1  UNL     1      -1.796   0.640  81.223  1.00  0.00     0.012 C 
ENDBRANCH  14  16
ENDBRANCH  12  14
ENDBRANCH   1  12
TORSDOF 3
ENDMDL
MODEL 2
REMARK VINA RESULT: -5.409055907      1.543      2.070
REMARK  3 active torsions:
REMARK  status: ('A' for Active; 'I' for Inactive)
REMARK    1  A    between atoms: C2_2  and  C3_3 
REMARK    2  A    between atoms: C3_3  and  N1_5 
REMARK    3  A    between atoms: N1_5  and  C4_7 
ROOT
HETATM    1  C4  UNL     1      -0.767   3.141  84.682  1.00  0.00     0.097 C 
HETATM    2  C5  UNL     1       0.384   2.979  83.772  1.00  0.00     0.038 C 
HETATM    3  C6  UNL     1       0.029   3.161  82.309  1.00  0.00     0.014 C 
HETATM    4  C7  UNL     1      -0.532   4.528  82.118  1.00  0.00     0.015 C 
HETATM    5  C8  UNL     1       0.423   5.599  82.576  1.00  0.00     0.277 C 
HETATM    6  N2  UNL     1       0.781   5.403  83.964  1.00  0.00     0.090 N 
HETATM    7  C9  UNL     1       1.374   4.111  84.096  1.00  0.00     0.279 C 
HETATM    8  C10 UNL     1      -0.409   5.567  84.767  1.00  0.00     0.283 C 
HETATM    9  C11 UNL     1      -1.403   4.500  84.393  1.00  0.00     0.004 C 
HETATM   10  C12 UNL     1      -2.655   4.595  85.235  1.00  0.00     0.019 C 
HETATM   11  C13 UNL     1      -1.784   4.648  82.953  1.00  0.00     0.019 C 
ENDROOT
BRANCH   1  12
HETATM   12  N1  UNL     1      -1.728   2.091  84.736  1.00  0.00    -0.379 N 
ATOM     13  H1  UNL     1      -2.450   2.139  84.019  1.00  0.00     0.160 HD
BRANCH  12  14
HETATM   14  C3  UNL     1      -1.842   1.014  85.601  1.00  0.00     0.073 C 
HETATM   15  S1  UNL     1      -1.126  -0.402  85.204  1.00  0.00    -0.066 SA
BRANCH  14  16
HETATM   16  C2  UNL     1      -2.579   1.061  86.879  1.00  0.00     0.065 C 
HETATM   17  C1  UNL     1      -3.870   0.273  86.866  1.00  0.00     0.012 C 
ENDBRANCH  14  16
ENDBRANCH  12  14
ENDBRANCH   1  12
TORSDOF 3
ENDMDL
MODEL 3
REMARK VINA RESULT: -5.361177660      1.011      1.556
REMARK  3 active torsions:
REMARK  status: ('A' for Active; 'I' for Inactive)
REMARK    1  A    between atoms: C2_2  and  C3_3 
REMARK    2  A    between atoms: C3_3  and  N1_5 
REMARK    3  A    between atoms: N1_5  and  C4_7 
ROOT
HETATM    1  C4  UNL     1      -0.545   3.073  83.985  1.00  0.00     0.097 C 
HETATM    2  C5  UNL     1       0.610   3.258  83.083  1.00  0.00     0.038 C 
HETATM    3  C6  UNL     1       0.229   3.788  81.714  1.00  0.00     0.014 C 
HETATM    4  C7  UNL     1      -0.453   5.102  81.880  1.00  0.00     0.015 C 
HETATM    5  C8  UNL     1       0.407   6.094  82.619  1.00  0.00     0.277 C 
HETATM    6  N2  UNL     1       0.791   5.571  83.912  1.00  0.00     0.090 N 
HETATM    7  C9  UNL     1       1.498   4.348  83.709  1.00  0.00     0.279 C 
HETATM    8  C10 UNL     1      -0.403   5.413  84.710  1.00  0.00     0.283 C 
HETATM    9  C11 UNL     1      -1.301   4.399  84.053  1.00  0.00     0.004 C 
HETATM   10  C12 UNL     1      -2.550   4.159  84.870  1.00  0.00     0.019 C 
HETATM   11  C13 UNL     1      -1.704   4.887  82.696  1.00  0.00     0.019 C 
ENDROOT
BRANCH   1  12
HETATM   12  N1  UNL     1      -1.407   1.966  83.745  1.00  0.00    -0.379 N 
ATOM     13  H1  UNL     1      -2.368   2.218  83.514  1.00  0.00     0.160 HD
BRANCH  12  14
HETATM   14  C3  UNL     1      -1.158   0.603  83.773  1.00  0.00     0.073 C 
HETATM   15  S1  UNL     1      -0.896  -0.184  82.363  1.00  0.00    -0.066 SA
BRANCH  14  16
HETATM   16  C2  UNL     1      -1.111  -0.199  85.010  1.00  0.00     0.065 C 
HETATM   17  C1  UNL     1      -1.837   0.437  86.175  1.00  0.00     0.012 C 
ENDBRANCH  14  16
ENDBRANCH  12  14
ENDBRANCH   1  12
TORSDOF 3
ENDMDL
MODEL 4
REMARK VINA RESULT: -5.306372201      1.889      3.070
REMARK  3 active torsions:
REMARK  status: ('A' for Active; 'I' for Inactive)
REMARK    1  A    between atoms: C2_2  and  C3_3 
REMARK    2  A    between atoms: C3_3  and  N1_5 
REMARK    3  A    between atoms: N1_5  and  C4_7 
ROOT
HETATM    1  C4  UNL     1      -0.389   2.354  84.039  1.00  0.00     0.097 C 
HETATM    2  C5  UNL     1      -1.675   2.459  83.323  1.00  0.00     0.038 C 
HETATM    3  C6  UNL     1      -2.581   3.550  83.862  1.00  0.00     0.014 C 
HETATM    4  C7  UNL     1      -1.875   4.858  83.753  1.00  0.00     0.015 C 
HETATM    5  C8  UNL     1      -1.458   5.157  82.337  1.00  0.00     0.277 C 
HETATM    6  N2  UNL     1      -0.620   4.099  81.818  1.00  0.00     0.090 N 
HETATM    7  C9  UNL     1      -1.352   2.876  81.877  1.00  0.00     0.279 C 
HETATM    8  C10 UNL     1       0.602   4.069  82.590  1.00  0.00     0.283 C 
HETATM    9  C11 UNL     1       0.270   3.733  84.019  1.00  0.00     0.004 C 
HETATM   10  C12 UNL     1       1.517   3.644  84.868  1.00  0.00     0.019 C 
HETATM   11  C13 UNL     1      -0.622   4.791  84.592  1.00  0.00     0.019 C 
ENDROOT
BRANCH   1  12
HETATM   12  N1  UNL     1      -0.395   1.772  85.339  1.00  0.00    -0.379 N 
ATOM     13  H1  UNL     1       0.323   2.131  85.968  1.00  0.00     0.160 HD
BRANCH  12  14
HETATM   14  C3  UNL     1      -1.214   0.800  85.890  1.00  0.00     0.073 C 
HETATM   15  S1  UNL     1      -1.088  -0.740  85.351  1.00  0.00    -0.066 SA
BRANCH  14  16
HETATM   16  C2  UNL     1      -2.207   1.064  86.948  1.00  0.00     0.065 C 
HETATM   17  C1  UNL     1      -3.498   0.294  86.777  1.00  0.00     0.012 C 
ENDBRANCH  14  16
ENDBRANCH  12  14
ENDBRANCH   1  12
TORSDOF 3
ENDMDL
MODEL 5
REMARK VINA RESULT: -5.138983228      1.532      2.922
REMARK  3 active torsions:
REMARK  status: ('A' for Active; 'I' for Inactive)
REMARK    1  A    between atoms: C2_2  and  C3_3 
REMARK    2  A    between atoms: C3_3  and  N1_5 
REMARK    3  A    between atoms: N1_5  and  C4_7 
ROOT
HETATM    1  C4  UNL     1      -1.044   3.341  83.303  1.00  0.00     0.097 C 
HETATM    2  C5  UNL     1      -0.233   4.163  84.223  1.00  0.00     0.038 C 
HETATM    3  C6  UNL     1       1.224   3.747  84.282  1.00  0.00     0.014 C 
HETATM    4  C7  UNL     1       1.810   3.854  82.915  1.00  0.00     0.015 C 
HETATM    5  C8  UNL     1       1.671   5.243  82.350  1.00  0.00     0.277 C 
HETATM    6  N2  UNL     1       0.282   5.646  82.324  1.00  0.00     0.090 N 
HETATM    7  C9  UNL     1      -0.225   5.594  83.657  1.00  0.00     0.279 C 
HETATM    8  C10 UNL     1      -0.426   4.777  81.412  1.00  0.00     0.283 C 
HETATM    9  C11 UNL     1      -0.366   3.366  81.934  1.00  0.00     0.004 C 
HETATM   10  C12 UNL     1      -1.130   2.416  81.041  1.00  0.00     0.019 C 
HETATM   11  C13 UNL     1       1.059   2.914  82.003  1.00  0.00     0.019 C 
ENDROOT
BRANCH   1  12
HETATM   12  N1  UNL     1      -1.389   2.023  83.716  1.00  0.00    -0.379 N 
ATOM     13  H1  UNL     1      -1.264   1.307  83.000  1.00  0.00     0.160 HD
BRANCH  12  14
HETATM   14  C3  UNL     1      -1.866   1.551  84.929  1.00  0.00     0.073 C 
HETATM   15  S1  UNL     1      -1.170   0.228  85.593  1.00  0.00    -0.066 SA
BRANCH  14  16
HETATM   16  C2  UNL     1      -2.976   2.173  85.674  1.00  0.00     0.065 C 
HETATM   17  C1  UNL     1      -3.341   1.442  86.947  1.00  0.00     0.012 C 
ENDBRANCH  14  16
ENDBRANCH  12  14
ENDBRANCH   1  12
TORSDOF 3
ENDMDL
