MODEL 1
REMARK VINA RESULT: -6.849619947      0.000      0.000
REMARK  3 active torsions:
REMARK  status: ('A' for Active; 'I' for Inactive)
REMARK    1  A    between atoms: O1_1  and  C1_3 
REMARK    2  A    between atoms: N1_6  and  C4_7 
REMARK    3  A    between atoms: C4_7  and  C5_8 
ROOT
HETATM    1  C5  UNL     1      -0.747   5.938  83.233  1.00  0.00    -0.007 C 
HETATM    2  C6  UNL     1       0.089   6.463  84.378  1.00  0.00     0.019 C 
HETATM    3  C7  UNL     1       1.171   7.358  83.886  1.00  0.00    -0.013 C 
HETATM    4  C8  UNL     1       2.106   6.700  82.907  1.00  0.00     0.009 C 
HETATM    5  C9  UNL     1       1.281   6.207  81.752  1.00  0.00    -0.013 C 
HETATM    6  C10 UNL     1       0.570   7.340  81.017  1.00  0.00     0.009 C 
HETATM    7  C11 UNL     1      -0.271   8.048  82.045  1.00  0.00    -0.013 C 
HETATM    8  C12 UNL     1       0.584   8.556  83.186  1.00  0.00     0.009 C 
HETATM    9  C13 UNL     1      -1.353   7.107  82.534  1.00  0.00     0.019 C 
HETATM   10  C14 UNL     1       0.246   5.265  82.269  1.00  0.00     0.019 C 
ENDROOT
BRANCH   1  11
HETATM   11  C4  UNL     1      -1.683   4.851  83.620  1.00  0.00     0.072 C 
BRANCH  11  12
HETATM   12  N1  UNL     1      -1.662   4.357  84.929  1.00  0.00    -0.373 N 
HETATM   13  C3  UNL     1      -2.794   4.418  85.745  1.00  0.00     0.065 C 
HETATM   14  C2  UNL     1      -3.220   3.118  86.386  1.00  0.00     0.076 C 
HETATM   15  C1  UNL     1      -2.109   2.239  86.836  1.00  0.00     0.124 C 
HETATM   16  C16 UNL     1      -1.097   2.114  85.747  1.00  0.00     0.052 C 
HETATM   17  C15 UNL     1      -0.629   3.442  85.223  1.00  0.00     0.129 C 
BRANCH  15  18
HETATM   18  O1  UNL     1      -2.664   0.946  87.015  1.00  0.00    -0.395 OA
ATOM     19  H1  UNL     1      -2.015   0.327  86.703  1.00  0.00     0.210 HD
ENDBRANCH  15  18
ENDBRANCH  11  12
ENDBRANCH   1  11
TORSDOF 3
ENDMDL
MODEL 2
REMARK VINA RESULT: -6.766343757      0.131      1.725
REMARK  3 active torsions:
REMARK  status: ('A' for Active; 'I' for Inactive)
REMARK    1  A    between atoms: O1_1  and  C1_3 
REMARK    2  A    between atoms: N1_6  and  C4_7 
REMARK    3  A    between atoms: C4_7  and  C5_8 
ROOT
HETATM    1  C5  UNL     1      -0.568   5.822  83.274  1.00  0.00    -0.007 C 
HETATM    2  C6  UNL     1       0.362   5.149  82.291  1.00  0.00     0.019 C 
HETATM    3  C7  UNL     1       1.313   6.127  81.698  1.00  0.00    -0.013 C 
HETATM    4  C8  UNL     1       0.643   7.268  80.980  1.00  0.00     0.009 C 
HETATM    5  C9  UNL     1      -0.258   7.958  81.964  1.00  0.00    -0.013 C 
HETATM    6  C10 UNL     1       0.511   8.547  83.144  1.00  0.00     0.009 C 
HETATM    7  C11 UNL     1       1.258   7.403  83.774  1.00  0.00    -0.013 C 
HETATM    8  C12 UNL     1       2.176   6.738  82.771  1.00  0.00     0.009 C 
HETATM    9  C13 UNL     1       0.263   6.421  84.357  1.00  0.00     0.019 C 
HETATM   10  C14 UNL     1      -1.239   6.966  82.495  1.00  0.00     0.019 C 
ENDROOT
BRANCH   1  11
HETATM   11  C4  UNL     1      -1.698   4.963  83.717  1.00  0.00     0.072 C 
BRANCH  11  12
HETATM   12  N1  UNL     1      -1.698   4.438  85.013  1.00  0.00    -0.373 N 
HETATM   13  C3  UNL     1      -2.847   4.465  85.806  1.00  0.00     0.065 C 
HETATM   14  C2  UNL     1      -3.270   3.145  86.406  1.00  0.00     0.076 C 
HETATM   15  C1  UNL     1      -2.158   2.267  86.857  1.00  0.00     0.124 C 
HETATM   16  C16 UNL     1      -1.122   2.182  85.787  1.00  0.00     0.052 C 
HETATM   17  C15 UNL     1      -0.660   3.527  85.306  1.00  0.00     0.129 C 
BRANCH  15  18
HETATM   18  O1  UNL     1      -2.701   0.964  86.993  1.00  0.00    -0.395 OA
ATOM     19  H1  UNL     1      -2.527   0.690  87.886  1.00  0.00     0.210 HD
ENDBRANCH  15  18
ENDBRANCH  11  12
ENDBRANCH   1  11
TORSDOF 3
ENDMDL
MODEL 3
REMARK VINA RESULT: -6.746022341      3.248      5.010
REMARK  3 active torsions:
REMARK  status: ('A' for Active; 'I' for Inactive)
REMARK    1  A    between atoms: O1_1  and  C1_3 
REMARK    2  A    between atoms: N1_6  and  C4_7 
REMARK    3  A    between atoms: C4_7  and  C5_8 
ROOT
HETATM    1  C5  UNL     1      -0.901   4.034  82.764  1.00  0.00    -0.007 C 
HETATM    2  C6  UNL     1       0.321   4.823  83.176  1.00  0.00     0.019 C 
HETATM    3  C7  UNL     1       0.293   5.132  84.632  1.00  0.00    -0.013 C 
HETATM    4  C8  UNL     1      -0.919   5.914  85.063  1.00  0.00     0.009 C 
HETATM    5  C9  UNL     1      -2.134   5.117  84.683  1.00  0.00    -0.013 C 
HETATM    6  C10 UNL     1      -2.186   3.763  85.387  1.00  0.00     0.009 C 
HETATM    7  C11 UNL     1      -0.912   3.050  85.026  1.00  0.00    -0.013 C 
HETATM    8  C12 UNL     1       0.298   3.861  85.439  1.00  0.00     0.009 C 
HETATM    9  C13 UNL     1      -0.908   2.761  83.539  1.00  0.00     0.019 C 
HETATM   10  C14 UNL     1      -2.109   4.876  83.211  1.00  0.00     0.019 C 
ENDROOT
BRANCH   1  11
HETATM   11  C4  UNL     1      -1.064   3.905  81.292  1.00  0.00     0.072 C 
BRANCH  11  12
HETATM   12  N1  UNL     1      -0.535   2.788  80.636  1.00  0.00    -0.373 N 
HETATM   13  C3  UNL     1       0.844   2.608  80.509  1.00  0.00     0.065 C 
HETATM   14  C2  UNL     1       1.384   1.275  80.971  1.00  0.00     0.076 C 
HETATM   15  C1  UNL     1       0.519   0.103  80.673  1.00  0.00     0.124 C 
HETATM   16  C16 UNL     1      -0.885   0.401  81.080  1.00  0.00     0.052 C 
HETATM   17  C15 UNL     1      -1.405   1.686  80.502  1.00  0.00     0.129 C 
BRANCH  15  18
HETATM   18  O1  UNL     1       0.964  -0.951  81.512  1.00  0.00    -0.395 OA
ATOM     19  H1  UNL     1       0.722  -1.761  81.080  1.00  0.00     0.210 HD
ENDBRANCH  15  18
ENDBRANCH  11  12
ENDBRANCH   1  11
TORSDOF 3
ENDMDL
MODEL 4
REMARK VINA RESULT: -6.693676540      0.277      1.703
REMARK  3 active torsions:
REMARK  status: ('A' for Active; 'I' for Inactive)
REMARK    1  A    between atoms: O1_1  and  C1_3 
REMARK    2  A    between atoms: N1_6  and  C4_7 
REMARK    3  A    between atoms: C4_7  and  C5_8 
ROOT
HETATM    1  C5  UNL     1      -0.879   5.730  83.184  1.00  0.00    -0.007 C 
HETATM    2  C6  UNL     1      -1.389   7.034  82.614  1.00  0.00     0.019 C 
HETATM    3  C7  UNL     1      -0.268   7.970  82.330  1.00  0.00    -0.013 C 
HETATM    4  C8  UNL     1       0.569   8.299  83.538  1.00  0.00     0.009 C 
HETATM    5  C9  UNL     1       1.103   7.007  84.087  1.00  0.00    -0.013 C 
HETATM    6  C10 UNL     1       2.001   6.278  83.091  1.00  0.00     0.009 C 
HETATM    7  C11 UNL     1       1.173   6.061  81.854  1.00  0.00    -0.013 C 
HETATM    8  C12 UNL     1       0.665   7.378  81.306  1.00  0.00     0.009 C 
HETATM    9  C13 UNL     1       0.034   5.116  82.179  1.00  0.00     0.019 C 
HETATM   10  C14 UNL     1      -0.046   6.115  84.419  1.00  0.00     0.019 C 
ENDROOT
BRANCH   1  11
HETATM   11  C4  UNL     1      -1.949   4.849  83.720  1.00  0.00     0.072 C 
BRANCH  11  12
HETATM   12  N1  UNL     1      -1.817   4.305  85.002  1.00  0.00    -0.373 N 
HETATM   13  C3  UNL     1      -2.865   4.360  85.924  1.00  0.00     0.065 C 
HETATM   14  C2  UNL     1      -3.261   3.046  86.556  1.00  0.00     0.076 C 
HETATM   15  C1  UNL     1      -2.135   2.125  86.865  1.00  0.00     0.124 C 
HETATM   16  C16 UNL     1      -1.234   2.021  85.681  1.00  0.00     0.052 C 
HETATM   17  C15 UNL     1      -0.784   3.357  85.163  1.00  0.00     0.129 C 
BRANCH  15  18
HETATM   18  O1  UNL     1      -2.703   0.839  87.050  1.00  0.00    -0.395 OA
ATOM     19  H1  UNL     1      -3.615   0.907  86.794  1.00  0.00     0.210 HD
ENDBRANCH  15  18
ENDBRANCH  11  12
ENDBRANCH   1  11
TORSDOF 3
ENDMDL
MODEL 5
REMARK VINA RESULT: -6.546054044      3.005      4.597
REMARK  3 active torsions:
REMARK  status: ('A' for Active; 'I' for Inactive)
REMARK    1  A    between atoms: O1_1  and  C1_3 
REMARK    2  A    between atoms: N1_6  and  C4_7 
REMARK    3  A    between atoms: C4_7  and  C5_8 
ROOT
HETATM    1  C5  UNL     1      -0.679   4.907  82.386  1.00  0.00    -0.007 C 
HETATM    2  C6  UNL     1       0.728   5.094  82.905  1.00  0.00     0.019 C 
HETATM    3  C7  UNL     1       0.720   5.534  84.327  1.00  0.00    -0.013 C 
HETATM    4  C8  UNL     1      -0.025   6.821  84.560  1.00  0.00     0.009 C 
HETATM    5  C9  UNL     1      -1.433   6.626  84.074  1.00  0.00    -0.013 C 
HETATM    6  C10 UNL     1      -2.165   5.526  84.838  1.00  0.00     0.009 C 
HETATM    7  C11 UNL     1      -1.340   4.279  84.678  1.00  0.00    -0.013 C 
HETATM    8  C12 UNL     1       0.067   4.492  85.196  1.00  0.00     0.009 C 
HETATM    9  C13 UNL     1      -1.341   3.865  83.221  1.00  0.00     0.019 C 
HETATM   10  C14 UNL     1      -1.394   6.246  82.631  1.00  0.00     0.019 C 
ENDROOT
BRANCH   1  11
HETATM   11  C4  UNL     1      -0.755   4.711  80.914  1.00  0.00     0.072 C 
BRANCH  11  12
HETATM   12  N1  UNL     1      -0.365   3.487  80.361  1.00  0.00    -0.373 N 
HETATM   13  C3  UNL     1       0.972   3.082  80.368  1.00  0.00     0.065 C 
HETATM   14  C2  UNL     1       1.247   1.710  80.937  1.00  0.00     0.076 C 
HETATM   15  C1  UNL     1       0.229   0.675  80.618  1.00  0.00     0.124 C 
HETATM   16  C16 UNL     1      -1.136   1.217  80.883  1.00  0.00     0.052 C 
HETATM   17  C15 UNL     1      -1.390   2.531  80.201  1.00  0.00     0.129 C 
BRANCH  15  18
HETATM   18  O1  UNL     1       0.425  -0.383  81.542  1.00  0.00    -0.395 OA
ATOM     19  H1  UNL     1      -0.048  -1.133  81.200  1.00  0.00     0.210 HD
ENDBRANCH  15  18
ENDBRANCH  11  12
ENDBRANCH   1  11
TORSDOF 3
ENDMDL
