MODEL 1
REMARK VINA RESULT: -5.891516333      0.000      0.000
REMARK  4 active torsions:
REMARK  status: ('A' for Active; 'I' for Inactive)
REMARK    1  A    between atoms: C5_6  and  C6_7 
REMARK    2  A    between atoms: C5_6  and  C11_13 
REMARK    3  A    between atoms: C6_7  and  N2_8 
REMARK    4  A    between atoms: C11_13  and  O1_14 
ROOT
HETATM    1  C1  UNL     1       9.798   0.784  76.322  1.00  0.00     0.154 C 
HETATM    2  N1  UNL     1       9.406  -0.185  75.377  1.00  0.00    -0.377 N 
HETATM    3  C2  UNL     1       8.192   0.062  74.755  1.00  0.00     0.062 C 
HETATM    4  C3  UNL     1       7.752  -0.960  73.760  1.00  0.00     0.046 C 
HETATM    5  C4  UNL     1       7.970  -2.314  74.423  1.00  0.00     0.025 C 
HETATM    6  C5  UNL     1       9.412  -2.586  74.699  1.00  0.00     0.049 C 
HETATM    7  C16 UNL     1      10.051  -1.411  75.390  1.00  0.00     0.077 C 
ENDROOT
BRANCH   6   8
HETATM    8  C6  UNL     1       9.590  -3.786  75.549  1.00  0.00     0.290 C 
BRANCH   8   9
HETATM    9  N2  UNL     1       8.502  -4.781  75.583  1.00  0.00     0.089 N 
HETATM   10  C7  UNL     1       8.016  -4.819  76.970  1.00  0.00     0.272 C 
HETATM   11  C8  UNL     1       7.908  -6.224  77.414  1.00  0.00     0.032 C 
HETATM   12  C9  UNL     1       8.746  -7.018  76.483  1.00  0.00     0.032 C 
HETATM   13  C10 UNL     1       9.019  -6.119  75.337  1.00  0.00     0.272 C 
ENDBRANCH   8   9
ENDBRANCH   6   8
BRANCH   6  14
HETATM   14  C11 UNL     1      10.113  -2.901  73.380  1.00  0.00     0.072 C 
HETATM   15  C12 UNL     1      11.212  -3.930  73.470  1.00  0.00     0.039 C 
HETATM   16  C13 UNL     1      12.538  -3.220  73.428  1.00  0.00     0.003 C 
HETATM   17  C14 UNL     1      12.217  -2.115  72.447  1.00  0.00     0.003 C 
HETATM   18  C15 UNL     1      10.719  -1.833  72.624  1.00  0.00     0.039 C 
BRANCH  14  19
HETATM   19  O1  UNL     1       9.108  -3.576  72.628  1.00  0.00    -0.389 OA
ATOM     20  H1  UNL     1       9.468  -3.595  71.749  1.00  0.00     0.210 HD
ENDBRANCH  14  19
ENDBRANCH   6  14
TORSDOF 4
ENDMDL
MODEL 2
REMARK VINA RESULT: -5.855845890      1.718      3.718
REMARK  4 active torsions:
REMARK  status: ('A' for Active; 'I' for Inactive)
REMARK    1  A    between atoms: C5_6  and  C6_7 
REMARK    2  A    between atoms: C5_6  and  C11_13 
REMARK    3  A    between atoms: C6_7  and  N2_8 
REMARK    4  A    between atoms: C11_13  and  O1_14 
ROOT
HETATM    1  C1  UNL     1      10.839  -2.779  70.817  1.00  0.00     0.154 C 
HETATM    2  N1  UNL     1      10.965  -2.501  72.192  1.00  0.00    -0.377 N 
HETATM    3  C2  UNL     1      12.266  -2.475  72.667  1.00  0.00     0.062 C 
HETATM    4  C3  UNL     1      12.422  -2.195  74.126  1.00  0.00     0.046 C 
HETATM    5  C4  UNL     1      11.404  -3.082  74.834  1.00  0.00     0.025 C 
HETATM    6  C5  UNL     1       9.997  -2.725  74.481  1.00  0.00     0.049 C 
HETATM    7  C16 UNL     1       9.836  -2.611  72.988  1.00  0.00     0.077 C 
ENDROOT
BRANCH   6   8
HETATM    8  C6  UNL     1       9.035  -3.733  74.984  1.00  0.00     0.290 C 
BRANCH   8   9
HETATM    9  N2  UNL     1       9.519  -4.732  75.954  1.00  0.00     0.089 N 
HETATM   10  C7  UNL     1       9.437  -6.037  75.282  1.00  0.00     0.272 C 
HETATM   11  C8  UNL     1       8.785  -7.011  76.181  1.00  0.00     0.032 C 
HETATM   12  C9  UNL     1       8.064  -6.214  77.203  1.00  0.00     0.032 C 
HETATM   13  C10 UNL     1       8.605  -4.840  77.081  1.00  0.00     0.272 C 
ENDBRANCH   8   9
ENDBRANCH   6   8
BRANCH   6  14
HETATM   14  C11 UNL     1       9.634  -1.417  75.178  1.00  0.00     0.072 C 
HETATM   15  C12 UNL     1       8.179  -1.274  75.550  1.00  0.00     0.039 C 
HETATM   16  C13 UNL     1       7.520  -0.349  74.562  1.00  0.00     0.003 C 
HETATM   17  C14 UNL     1       8.643   0.637  74.332  1.00  0.00     0.003 C 
HETATM   18  C15 UNL     1       9.937  -0.161  74.537  1.00  0.00     0.039 C 
BRANCH  14  19
HETATM   19  O1  UNL     1      10.275  -1.532  76.446  1.00  0.00    -0.389 OA
ATOM     20  H1  UNL     1       9.764  -0.955  77.002  1.00  0.00     0.210 HD
ENDBRANCH  14  19
ENDBRANCH   6  14
TORSDOF 4
ENDMDL
MODEL 3
REMARK VINA RESULT: -5.699217316      1.943      3.751
REMARK  4 active torsions:
REMARK  status: ('A' for Active; 'I' for Inactive)
REMARK    1  A    between atoms: C5_6  and  C6_7 
REMARK    2  A    between atoms: C5_6  and  C11_13 
REMARK    3  A    between atoms: C6_7  and  N2_8 
REMARK    4  A    between atoms: C11_13  and  O1_14 
ROOT
HETATM    1  C1  UNL     1       9.819  -2.959  71.380  1.00  0.00     0.154 C 
HETATM    2  N1  UNL     1      10.349  -2.258  72.482  1.00  0.00    -0.377 N 
HETATM    3  C2  UNL     1      11.725  -2.090  72.462  1.00  0.00     0.062 C 
HETATM    4  C3  UNL     1      12.308  -1.362  73.628  1.00  0.00     0.046 C 
HETATM    5  C4  UNL     1      11.665  -1.971  74.867  1.00  0.00     0.025 C 
HETATM    6  C5  UNL     1      10.191  -1.737  74.916  1.00  0.00     0.049 C 
HETATM    7  C16 UNL     1       9.551  -2.103  73.603  1.00  0.00     0.077 C 
ENDROOT
BRANCH   6   8
HETATM    8  C6  UNL     1       9.546  -2.526  75.991  1.00  0.00     0.290 C 
BRANCH   8   9
HETATM    9  N2  UNL     1       8.892  -3.795  75.623  1.00  0.00     0.089 N 
HETATM   10  C7  UNL     1       7.757  -3.960  76.543  1.00  0.00     0.272 C 
HETATM   11  C8  UNL     1       7.767  -5.330  77.095  1.00  0.00     0.032 C 
HETATM   12  C9  UNL     1       9.138  -5.853  76.880  1.00  0.00     0.032 C 
HETATM   13  C10 UNL     1       9.763  -4.925  75.909  1.00  0.00     0.272 C 
ENDBRANCH   8   9
ENDBRANCH   6   8
BRANCH   6  14
HETATM   14  C11 UNL     1       9.938  -0.272  75.265  1.00  0.00     0.072 C 
HETATM   15  C12 UNL     1       8.545   0.037  75.756  1.00  0.00     0.039 C 
HETATM   16  C13 UNL     1       7.777   0.690  74.638  1.00  0.00     0.003 C 
HETATM   17  C14 UNL     1       8.875   1.522  74.012  1.00  0.00     0.003 C 
HETATM   18  C15 UNL     1      10.173   0.747  74.272  1.00  0.00     0.039 C 
BRANCH  14  19
HETATM   19  O1  UNL     1      10.735  -0.070  76.429  1.00  0.00    -0.389 OA
ATOM     20  H1  UNL     1      11.513  -0.587  76.254  1.00  0.00     0.210 HD
ENDBRANCH  14  19
ENDBRANCH   6  14
TORSDOF 4
ENDMDL
MODEL 4
REMARK VINA RESULT: -5.690615517      1.618      5.139
REMARK  4 active torsions:
REMARK  status: ('A' for Active; 'I' for Inactive)
REMARK    1  A    between atoms: C5_6  and  C6_7 
REMARK    2  A    between atoms: C5_6  and  C11_13 
REMARK    3  A    between atoms: C6_7  and  N2_8 
REMARK    4  A    between atoms: C11_13  and  O1_14 
ROOT
HETATM    1  C1  UNL     1      13.122  -2.828  74.953  1.00  0.00     0.154 C 
HETATM    2  N1  UNL     1      11.816  -2.798  74.424  1.00  0.00    -0.377 N 
HETATM    3  C2  UNL     1      11.745  -2.818  73.040  1.00  0.00     0.062 C 
HETATM    4  C3  UNL     1      10.371  -2.773  72.459  1.00  0.00     0.046 C 
HETATM    5  C4  UNL     1       9.632  -1.673  73.211  1.00  0.00     0.025 C 
HETATM    6  C5  UNL     1       9.469  -1.988  74.662  1.00  0.00     0.049 C 
HETATM    7  C16 UNL     1      10.779  -2.422  75.262  1.00  0.00     0.077 C 
ENDROOT
BRANCH   6   8
HETATM    8  C6  UNL     1       8.966  -0.820  75.422  1.00  0.00     0.290 C 
BRANCH   8   9
HETATM    9  N2  UNL     1       9.276   0.528  74.910  1.00  0.00     0.089 N 
HETATM   10  C7  UNL     1       9.816   1.289  76.046  1.00  0.00     0.272 C 
HETATM   11  C8  UNL     1       9.147   2.605  76.116  1.00  0.00     0.032 C 
HETATM   12  C9  UNL     1       7.899   2.478  75.326  1.00  0.00     0.032 C 
HETATM   13  C10 UNL     1       8.057   1.232  74.541  1.00  0.00     0.272 C 
ENDBRANCH   8   9
ENDBRANCH   6   8
BRANCH   6  14
HETATM   14  C11 UNL     1       8.406  -3.073  74.811  1.00  0.00     0.072 C 
HETATM   15  C12 UNL     1       7.756  -3.148  76.171  1.00  0.00     0.039 C 
HETATM   16  C13 UNL     1       8.340  -4.320  76.915  1.00  0.00     0.003 C 
HETATM   17  C14 UNL     1       8.504  -5.303  75.778  1.00  0.00     0.003 C 
HETATM   18  C15 UNL     1       8.744  -4.445  74.528  1.00  0.00     0.039 C 
BRANCH  14  19
HETATM   19  O1  UNL     1       7.344  -2.608  73.980  1.00  0.00    -0.389 OA
ATOM     20  H1  UNL     1       7.152  -3.359  73.430  1.00  0.00     0.210 HD
ENDBRANCH  14  19
ENDBRANCH   6  14
TORSDOF 4
ENDMDL
MODEL 5
REMARK VINA RESULT: -5.465508422      1.688      5.148
REMARK  4 active torsions:
REMARK  status: ('A' for Active; 'I' for Inactive)
REMARK    1  A    between atoms: C5_6  and  C6_7 
REMARK    2  A    between atoms: C5_6  and  C11_13 
REMARK    3  A    between atoms: C6_7  and  N2_8 
REMARK    4  A    between atoms: C11_13  and  O1_14 
ROOT
HETATM    1  C1  UNL     1      13.568  -2.720  75.305  1.00  0.00     0.154 C 
HETATM    2  N1  UNL     1      12.472  -2.917  74.441  1.00  0.00    -0.377 N 
HETATM    3  C2  UNL     1      12.803  -3.338  73.163  1.00  0.00     0.062 C 
HETATM    4  C3  UNL     1      11.657  -3.540  72.227  1.00  0.00     0.046 C 
HETATM    5  C4  UNL     1      10.766  -2.313  72.384  1.00  0.00     0.025 C 
HETATM    6  C5  UNL     1      10.181  -2.207  73.754  1.00  0.00     0.049 C 
HETATM    7  C16 UNL     1      11.249  -2.376  74.802  1.00  0.00     0.077 C 
ENDROOT
BRANCH   6   8
HETATM    8  C6  UNL     1       9.515  -0.901  73.966  1.00  0.00     0.290 C 
BRANCH   8   9
HETATM    9  N2  UNL     1      10.164   0.071  74.865  1.00  0.00     0.089 N 
HETATM   10  C7  UNL     1       9.117   0.555  75.777  1.00  0.00     0.272 C 
HETATM   11  C8  UNL     1       9.171   2.030  75.846  1.00  0.00     0.032 C 
HETATM   12  C9  UNL     1       9.928   2.473  74.650  1.00  0.00     0.032 C 
HETATM   13  C10 UNL     1      10.585   1.253  74.128  1.00  0.00     0.272 C 
ENDBRANCH   8   9
ENDBRANCH   6   8
BRANCH   6  14
HETATM   14  C11 UNL     1       9.088  -3.262  73.904  1.00  0.00     0.072 C 
HETATM   15  C12 UNL     1       7.863  -2.810  74.659  1.00  0.00     0.039 C 
HETATM   16  C13 UNL     1       7.916  -3.390  76.047  1.00  0.00     0.003 C 
HETATM   17  C14 UNL     1       8.521  -4.744  75.747  1.00  0.00     0.003 C 
HETATM   18  C15 UNL     1       9.402  -4.532  74.510  1.00  0.00     0.039 C 
BRANCH  14  19
HETATM   19  O1  UNL     1       8.599  -3.418  72.573  1.00  0.00    -0.389 OA
ATOM     20  H1  UNL     1       9.183  -4.068  72.200  1.00  0.00     0.210 HD
ENDBRANCH  14  19
ENDBRANCH   6  14
TORSDOF 4
ENDMDL
