MODEL 1
REMARK VINA RESULT: -7.161066069      0.000      0.000
REMARK  2 active torsions:
REMARK  status: ('A' for Active; 'I' for Inactive)
REMARK       I    between atoms: C1_2  and  N1_3 
REMARK    1  A    between atoms: C1_2  and  C6_10 
REMARK    2  A    between atoms: N1_3  and  C2_5 
ROOT
HETATM    1  C6  UNL     1      16.237   5.596  14.099  1.00  0.00     0.042 C 
HETATM    2  C7  UNL     1      17.372   5.985  15.047  1.00  0.00     0.024 C 
HETATM    3  C8  UNL     1      17.603   7.460  15.022  1.00  0.00    -0.013 C 
HETATM    4  C9  UNL     1      16.310   8.147  15.407  1.00  0.00     0.009 C 
HETATM    5  C10 UNL     1      15.281   7.868  14.357  1.00  0.00    -0.013 C 
HETATM    6  C11 UNL     1      15.736   8.214  12.968  1.00  0.00     0.009 C 
HETATM    7  C12 UNL     1      16.981   7.405  12.635  1.00  0.00    -0.013 C 
HETATM    8  C13 UNL     1      18.049   7.836  13.622  1.00  0.00     0.009 C 
HETATM    9  C14 UNL     1      16.714   5.922  12.707  1.00  0.00     0.024 C 
HETATM   10  C15 UNL     1      14.991   6.365  14.364  1.00  0.00     0.024 C 
ENDROOT
BRANCH   1  11
HETATM   11  C1  UNL     1      15.998   4.156  14.302  1.00  0.00     0.226 C 
HETATM   12  O1  UNL     1      16.089   3.384  13.315  1.00  0.00    -0.273 OA
HETATM   13  N1  UNL     1      15.668   3.585  15.556  1.00  0.00    -0.354 N 
ATOM     14  H1  UNL     1      15.592   4.209  16.360  1.00  0.00     0.163 HD
BRANCH  13  15
HETATM   15  C2  UNL     1      15.433   2.182  15.767  1.00  0.00     0.110 C 
HETATM   16  C3  UNL     1      14.564   1.882  16.964  1.00  0.00     0.053 C 
HETATM   17  C4  UNL     1      15.336   0.880  17.780  1.00  0.00     0.169 C 
HETATM   18  O2  UNL     1      16.295   0.373  16.935  1.00  0.00    -0.389 OA
HETATM   19  C5  UNL     1      16.680   1.392  16.092  1.00  0.00     0.192 C 
ENDBRANCH  13  15
ENDBRANCH   1  11
TORSDOF 2
ENDMDL
MODEL 2
REMARK VINA RESULT: -7.143223390      0.493      1.508
REMARK  2 active torsions:
REMARK  status: ('A' for Active; 'I' for Inactive)
REMARK       I    between atoms: C1_2  and  N1_3 
REMARK    1  A    between atoms: C1_2  and  C6_10 
REMARK    2  A    between atoms: N1_3  and  C2_5 
ROOT
HETATM    1  C6  UNL     1      16.554   5.611  14.190  1.00  0.00     0.042 C 
HETATM    2  C7  UNL     1      15.603   6.406  15.085  1.00  0.00     0.024 C 
HETATM    3  C8  UNL     1      15.803   7.874  14.902  1.00  0.00    -0.013 C 
HETATM    4  C9  UNL     1      15.579   8.203  13.442  1.00  0.00     0.009 C 
HETATM    5  C10 UNL     1      16.640   7.532  12.626  1.00  0.00    -0.013 C 
HETATM    6  C11 UNL     1      18.034   7.843  13.088  1.00  0.00     0.009 C 
HETATM    7  C12 UNL     1      18.194   7.390  14.532  1.00  0.00    -0.013 C 
HETATM    8  C13 UNL     1      17.213   8.210  15.349  1.00  0.00     0.009 C 
HETATM    9  C14 UNL     1      17.949   5.909  14.679  1.00  0.00     0.024 C 
HETATM   10  C15 UNL     1      16.457   6.018  12.762  1.00  0.00     0.024 C 
ENDROOT
BRANCH   1  11
HETATM   11  C1  UNL     1      16.183   4.193  14.341  1.00  0.00     0.226 C 
HETATM   12  O1  UNL     1      16.110   3.476  13.313  1.00  0.00    -0.273 OA
HETATM   13  N1  UNL     1      15.900   3.586  15.589  1.00  0.00    -0.354 N 
ATOM     14  H1  UNL     1      15.957   4.166  16.427  1.00  0.00     0.163 HD
BRANCH  13  15
HETATM   15  C2  UNL     1      15.536   2.204  15.750  1.00  0.00     0.110 C 
HETATM   16  C3  UNL     1      14.625   1.945  16.925  1.00  0.00     0.053 C 
HETATM   17  C4  UNL     1      15.291   0.851  17.716  1.00  0.00     0.169 C 
HETATM   18  O2  UNL     1      16.214   0.287  16.867  1.00  0.00    -0.389 OA
HETATM   19  C5  UNL     1      16.702   1.295  16.064  1.00  0.00     0.192 C 
ENDBRANCH  13  15
ENDBRANCH   1  11
TORSDOF 2
ENDMDL
MODEL 3
REMARK VINA RESULT: -7.081485754      0.632      2.018
REMARK  2 active torsions:
REMARK  status: ('A' for Active; 'I' for Inactive)
REMARK       I    between atoms: C1_2  and  N1_3 
REMARK    1  A    between atoms: C1_2  and  C6_10 
REMARK    2  A    between atoms: N1_3  and  C2_5 
ROOT
HETATM    1  C6  UNL     1      16.642   5.681  14.338  1.00  0.00     0.042 C 
HETATM    2  C7  UNL     1      16.255   6.144  12.933  1.00  0.00     0.024 C 
HETATM    3  C8  UNL     1      16.764   7.523  12.668  1.00  0.00    -0.013 C 
HETATM    4  C9  UNL     1      18.268   7.512  12.844  1.00  0.00     0.009 C 
HETATM    5  C10 UNL     1      18.587   7.217  14.276  1.00  0.00    -0.013 C 
HETATM    6  C11 UNL     1      17.892   8.131  15.243  1.00  0.00     0.009 C 
HETATM    7  C12 UNL     1      16.387   8.001  15.059  1.00  0.00    -0.013 C 
HETATM    8  C13 UNL     1      16.087   8.464  13.646  1.00  0.00     0.009 C 
HETATM    9  C14 UNL     1      15.919   6.588  15.300  1.00  0.00     0.024 C 
HETATM   10  C15 UNL     1      18.105   5.797  14.587  1.00  0.00     0.024 C 
ENDROOT
BRANCH   1  11
HETATM   11  C1  UNL     1      16.219   4.274  14.445  1.00  0.00     0.226 C 
HETATM   12  O1  UNL     1      16.040   3.616  13.391  1.00  0.00    -0.273 OA
HETATM   13  N1  UNL     1      15.997   3.614  15.680  1.00  0.00    -0.354 N 
ATOM     14  H1  UNL     1      16.140   4.146  16.538  1.00  0.00     0.163 HD
BRANCH  13  15
HETATM   15  C2  UNL     1      15.584   2.242  15.798  1.00  0.00     0.110 C 
HETATM   16  C3  UNL     1      14.669   1.979  16.969  1.00  0.00     0.053 C 
HETATM   17  C4  UNL     1      15.297   0.837  17.722  1.00  0.00     0.169 C 
HETATM   18  O2  UNL     1      16.195   0.267  16.850  1.00  0.00    -0.389 OA
HETATM   19  C5  UNL     1      16.716   1.281  16.076  1.00  0.00     0.192 C 
ENDBRANCH  13  15
ENDBRANCH   1  11
TORSDOF 2
ENDMDL
MODEL 4
REMARK VINA RESULT: -6.801765674      1.066      1.310
REMARK  2 active torsions:
REMARK  status: ('A' for Active; 'I' for Inactive)
REMARK       I    between atoms: C1_2  and  N1_3 
REMARK    1  A    between atoms: C1_2  and  C6_10 
REMARK    2  A    between atoms: N1_3  and  C2_5 
ROOT
HETATM    1  C6  UNL     1      16.663   5.996  14.311  1.00  0.00     0.042 C 
HETATM    2  C7  UNL     1      18.149   5.673  14.153  1.00  0.00     0.024 C 
HETATM    3  C8  UNL     1      18.941   6.917  13.914  1.00  0.00    -0.013 C 
HETATM    4  C9  UNL     1      18.706   7.857  15.077  1.00  0.00     0.009 C 
HETATM    5  C10 UNL     1      17.268   8.272  15.084  1.00  0.00    -0.013 C 
HETATM    6  C11 UNL     1      16.804   8.837  13.773  1.00  0.00     0.009 C 
HETATM    7  C12 UNL     1      16.987   7.790  12.684  1.00  0.00    -0.013 C 
HETATM    8  C13 UNL     1      18.477   7.516  12.600  1.00  0.00     0.009 C 
HETATM    9  C14 UNL     1      16.201   6.537  12.982  1.00  0.00     0.024 C 
HETATM   10  C15 UNL     1      16.416   7.029  15.354  1.00  0.00     0.024 C 
ENDROOT
BRANCH   1  11
HETATM   11  C1  UNL     1      15.998   4.733  14.679  1.00  0.00     0.226 C 
HETATM   12  O1  UNL     1      14.812   4.547  14.313  1.00  0.00    -0.273 OA
HETATM   13  N1  UNL     1      16.625   3.708  15.430  1.00  0.00    -0.354 N 
ATOM     14  H1  UNL     1      17.589   3.856  15.731  1.00  0.00     0.163 HD
BRANCH  13  15
HETATM   15  C2  UNL     1      15.988   2.472  15.796  1.00  0.00     0.110 C 
HETATM   16  C3  UNL     1      15.047   2.593  16.969  1.00  0.00     0.053 C 
HETATM   17  C4  UNL     1      15.479   1.529  17.942  1.00  0.00     0.169 C 
HETATM   18  O2  UNL     1      16.265   0.661  17.220  1.00  0.00    -0.389 OA
HETATM   19  C5  UNL     1      16.945   1.408  16.283  1.00  0.00     0.192 C 
ENDBRANCH  13  15
ENDBRANCH   1  11
TORSDOF 2
ENDMDL
MODEL 5
REMARK VINA RESULT: -6.348318534      1.237      2.403
REMARK  2 active torsions:
REMARK  status: ('A' for Active; 'I' for Inactive)
REMARK       I    between atoms: C1_2  and  N1_3 
REMARK    1  A    between atoms: C1_2  and  C6_10 
REMARK    2  A    between atoms: N1_3  and  C2_5 
ROOT
HETATM    1  C6  UNL     1      17.454   4.944  13.724  1.00  0.00     0.042 C 
HETATM    2  C7  UNL     1      16.495   6.130  13.625  1.00  0.00     0.024 C 
HETATM    3  C8  UNL     1      17.208   7.351  13.144  1.00  0.00    -0.013 C 
HETATM    4  C9  UNL     1      17.828   7.037  11.800  1.00  0.00     0.009 C 
HETATM    5  C10 UNL     1      18.878   5.986  11.984  1.00  0.00    -0.013 C 
HETATM    6  C11 UNL     1      19.896   6.336  13.030  1.00  0.00     0.009 C 
HETATM    7  C12 UNL     1      19.192   6.537  14.364  1.00  0.00    -0.013 C 
HETATM    8  C13 UNL     1      18.254   7.716  14.179  1.00  0.00     0.009 C 
HETATM    9  C14 UNL     1      18.455   5.294  14.796  1.00  0.00     0.024 C 
HETATM   10  C15 UNL     1      18.188   4.702  12.453  1.00  0.00     0.024 C 
ENDROOT
BRANCH   1  11
HETATM   11  C1  UNL     1      16.632   3.770  14.068  1.00  0.00     0.226 C 
HETATM   12  O1  UNL     1      16.040   3.158  13.146  1.00  0.00    -0.273 OA
HETATM   13  N1  UNL     1      16.468   3.288  15.390  1.00  0.00    -0.354 N 
ATOM     14  H1  UNL     1      16.947   3.784  16.143  1.00  0.00     0.163 HD
BRANCH  13  15
HETATM   15  C2  UNL     1      15.669   2.144  15.739  1.00  0.00     0.110 C 
HETATM   16  C3  UNL     1      14.985   2.263  17.079  1.00  0.00     0.053 C 
HETATM   17  C4  UNL     1      15.356   1.012  17.831  1.00  0.00     0.169 C 
HETATM   18  O2  UNL     1      15.818   0.131  16.882  1.00  0.00    -0.389 OA
HETATM   19  C5  UNL     1      16.463   0.871  15.915  1.00  0.00     0.192 C 
ENDBRANCH  13  15
ENDBRANCH   1  11
TORSDOF 2
ENDMDL
