MODEL 1
REMARK VINA RESULT: -5.736930123      0.000      0.000
REMARK  5 active torsions:
REMARK  status: ('A' for Active; 'I' for Inactive)
REMARK    1  A    between atoms: C1_2  and  C2_3 
REMARK       I    between atoms: C1_2  and  N2_12 
REMARK    2  A    between atoms: C2_3  and  S1_4 
REMARK    3  A    between atoms: S1_4  and  C3_5 
REMARK    4  A    between atoms: C3_5  and  N1_7 
REMARK    5  A    between atoms: N1_7  and  C4_9 
ROOT
HETATM    1  C2  UNL     1      16.477   3.340  13.249  1.00  0.00     0.184 C 
ENDROOT
BRANCH   1   2
HETATM    2  C1  UNL     1      16.589   2.107  14.041  1.00  0.00     0.229 C 
HETATM    3  O1  UNL     1      16.976   1.036  13.522  1.00  0.00    -0.273 OA
HETATM    4  N2  UNL     1      16.251   2.116  15.437  1.00  0.00    -0.351 N 
HETATM    5  C7  UNL     1      16.351   0.918  16.235  1.00  0.00     0.125 C 
HETATM    6  C11 UNL     1      15.807   3.330  16.079  1.00  0.00     0.125 C 
HETATM    7  C8  UNL     1      15.508   1.047  17.465  1.00  0.00     0.020 C 
HETATM    8  C9  UNL     1      14.215   1.712  17.054  1.00  0.00     0.003 C 
HETATM    9  C10 UNL     1      14.488   3.148  16.782  1.00  0.00     0.020 C 
ENDBRANCH   1   2
BRANCH   1  10
HETATM   10  S1  UNL     1      18.078   3.805  12.551  1.00  0.00    -0.091 SA
BRANCH  10  11
HETATM   11  C3  UNL     1      18.673   5.257  13.369  1.00  0.00     0.135 C 
HETATM   12  S2  UNL     1      20.003   5.998  12.819  1.00  0.00    -0.053 SA
BRANCH  11  13
HETATM   13  N1  UNL     1      17.997   5.768  14.491  1.00  0.00    -0.371 N 
ATOM     14  H1  UNL     1      18.136   5.354  15.413  1.00  0.00     0.161 HD
BRANCH  13  15
HETATM   15  C4  UNL     1      17.097   6.897  14.318  1.00  0.00     0.083 A 
HETATM   16  C5  UNL     1      15.713   6.813  14.894  1.00  0.00     0.027 A 
HETATM   17  C6  UNL     1      16.750   7.595  15.631  1.00  0.00     0.027 A 
ENDBRANCH  13  15
ENDBRANCH  11  13
ENDBRANCH  10  11
ENDBRANCH   1  10
TORSDOF 5
ENDMDL
MODEL 2
REMARK VINA RESULT: -5.561445714      2.047      3.255
REMARK  5 active torsions:
REMARK  status: ('A' for Active; 'I' for Inactive)
REMARK    1  A    between atoms: C1_2  and  C2_3 
REMARK       I    between atoms: C1_2  and  N2_12 
REMARK    2  A    between atoms: C2_3  and  S1_4 
REMARK    3  A    between atoms: S1_4  and  C3_5 
REMARK    4  A    between atoms: C3_5  and  N1_7 
REMARK    5  A    between atoms: N1_7  and  C4_9 
ROOT
HETATM    1  C2  UNL     1      16.470   3.632  13.365  1.00  0.00     0.184 C 
ENDROOT
BRANCH   1   2
HETATM    2  C1  UNL     1      16.632   2.351  14.067  1.00  0.00     0.229 C 
HETATM    3  O1  UNL     1      17.082   1.342  13.481  1.00  0.00    -0.273 OA
HETATM    4  N2  UNL     1      16.270   2.240  15.453  1.00  0.00    -0.351 N 
HETATM    5  C7  UNL     1      16.418   0.993  16.164  1.00  0.00     0.125 C 
HETATM    6  C11 UNL     1      15.752   3.380  16.173  1.00  0.00     0.125 C 
HETATM    7  C8  UNL     1      15.548   0.989  17.382  1.00  0.00     0.020 C 
HETATM    8  C9  UNL     1      14.230   1.617  16.994  1.00  0.00     0.003 C 
HETATM    9  C10 UNL     1      14.433   3.080  16.832  1.00  0.00     0.020 C 
ENDBRANCH   1   2
BRANCH   1  10
HETATM   10  S1  UNL     1      17.773   3.860  12.133  1.00  0.00    -0.091 SA
BRANCH  10  11
HETATM   11  C3  UNL     1      19.272   4.325  12.949  1.00  0.00     0.135 C 
HETATM   12  S2  UNL     1      19.205   5.184  14.320  1.00  0.00    -0.053 SA
BRANCH  11  13
HETATM   13  N1  UNL     1      20.519   3.953  12.414  1.00  0.00    -0.371 N 
ATOM     14  H1  UNL     1      21.087   3.240  12.871  1.00  0.00     0.161 HD
BRANCH  13  15
HETATM   15  C4  UNL     1      20.985   4.600  11.199  1.00  0.00     0.083 A 
HETATM   16  C5  UNL     1      22.026   5.676  11.306  1.00  0.00     0.027 A 
HETATM   17  C6  UNL     1      22.451   4.308  10.887  1.00  0.00     0.027 A 
ENDBRANCH  13  15
ENDBRANCH  11  13
ENDBRANCH  10  11
ENDBRANCH   1  10
TORSDOF 5
ENDMDL
MODEL 3
REMARK VINA RESULT: -5.494448911      1.006      1.199
REMARK  5 active torsions:
REMARK  status: ('A' for Active; 'I' for Inactive)
REMARK    1  A    between atoms: C1_2  and  C2_3 
REMARK       I    between atoms: C1_2  and  N2_12 
REMARK    2  A    between atoms: C2_3  and  S1_4 
REMARK    3  A    between atoms: S1_4  and  C3_5 
REMARK    4  A    between atoms: C3_5  and  N1_7 
REMARK    5  A    between atoms: N1_7  and  C4_9 
ROOT
HETATM    1  C2  UNL     1      16.431   3.369  13.363  1.00  0.00     0.184 C 
ENDROOT
BRANCH   1   2
HETATM    2  C1  UNL     1      16.553   2.119  14.126  1.00  0.00     0.229 C 
HETATM    3  O1  UNL     1      16.959   1.066  13.587  1.00  0.00    -0.273 OA
HETATM    4  N2  UNL     1      16.202   2.091  15.519  1.00  0.00    -0.351 N 
HETATM    5  C7  UNL     1      16.311   0.876  16.290  1.00  0.00     0.125 C 
HETATM    6  C11 UNL     1      15.735   3.283  16.186  1.00  0.00     0.125 C 
HETATM    7  C8  UNL     1      15.456   0.965  17.515  1.00  0.00     0.020 C 
HETATM    8  C9  UNL     1      14.157   1.621  17.107  1.00  0.00     0.003 C 
HETATM    9  C10 UNL     1      14.412   3.066  16.871  1.00  0.00     0.020 C 
ENDBRANCH   1   2
BRANCH   1  10
HETATM   10  S1  UNL     1      17.676   3.448  12.055  1.00  0.00    -0.091 SA
BRANCH  10  11
HETATM   11  C3  UNL     1      19.119   4.265  12.672  1.00  0.00     0.135 C 
HETATM   12  S2  UNL     1      20.390   4.493  11.695  1.00  0.00    -0.053 SA
BRANCH  11  13
HETATM   13  N1  UNL     1      19.168   4.715  14.004  1.00  0.00    -0.371 N 
ATOM     14  H1  UNL     1      19.289   4.052  14.770  1.00  0.00     0.161 HD
BRANCH  13  15
HETATM   15  C4  UNL     1      19.042   6.137  14.272  1.00  0.00     0.083 A 
HETATM   16  C5  UNL     1      18.028   6.932  13.501  1.00  0.00     0.027 A 
HETATM   17  C6  UNL     1      17.701   6.515  14.897  1.00  0.00     0.027 A 
ENDBRANCH  13  15
ENDBRANCH  11  13
ENDBRANCH  10  11
ENDBRANCH   1  10
TORSDOF 5
ENDMDL
MODEL 4
REMARK VINA RESULT: -5.382919156      1.569      1.833
REMARK  5 active torsions:
REMARK  status: ('A' for Active; 'I' for Inactive)
REMARK    1  A    between atoms: C1_2  and  C2_3 
REMARK       I    between atoms: C1_2  and  N2_12 
REMARK    2  A    between atoms: C2_3  and  S1_4 
REMARK    3  A    between atoms: S1_4  and  C3_5 
REMARK    4  A    between atoms: C3_5  and  N1_7 
REMARK    5  A    between atoms: N1_7  and  C4_9 
ROOT
HETATM    1  C2  UNL     1      16.421   3.307  13.319  1.00  0.00     0.184 C 
ENDROOT
BRANCH   1   2
HETATM    2  C1  UNL     1      16.564   2.080  14.116  1.00  0.00     0.229 C 
HETATM    3  O1  UNL     1      17.002   1.024  13.607  1.00  0.00    -0.273 OA
HETATM    4  N2  UNL     1      16.200   2.079  15.505  1.00  0.00    -0.351 N 
HETATM    5  C7  UNL     1      16.329   0.887  16.308  1.00  0.00     0.125 C 
HETATM    6  C11 UNL     1      15.697   3.276  16.136  1.00  0.00     0.125 C 
HETATM    7  C8  UNL     1      15.458   0.986  17.521  1.00  0.00     0.020 C 
HETATM    8  C9  UNL     1      14.149   1.600  17.083  1.00  0.00     0.003 C 
HETATM    9  C10 UNL     1      14.372   3.045  16.813  1.00  0.00     0.020 C 
ENDBRANCH   1   2
BRANCH   1  10
HETATM   10  S1  UNL     1      17.968   4.242  13.294  1.00  0.00    -0.091 SA
BRANCH  10  11
HETATM   11  C3  UNL     1      17.646   5.916  13.766  1.00  0.00     0.135 C 
HETATM   12  S2  UNL     1      16.118   6.414  13.958  1.00  0.00    -0.053 SA
BRANCH  11  13
HETATM   13  N1  UNL     1      18.709   6.814  13.974  1.00  0.00    -0.371 N 
ATOM     14  H1  UNL     1      19.621   6.646  13.548  1.00  0.00     0.161 HD
BRANCH  13  15
HETATM   15  C4  UNL     1      18.489   7.986  14.805  1.00  0.00     0.083 A 
HETATM   16  C5  UNL     1      19.678   8.761  15.293  1.00  0.00     0.027 A 
HETATM   17  C6  UNL     1      18.907   9.289  14.128  1.00  0.00     0.027 A 
ENDBRANCH  13  15
ENDBRANCH  11  13
ENDBRANCH  10  11
ENDBRANCH   1  10
TORSDOF 5
ENDMDL
MODEL 5
REMARK VINA RESULT: -5.233294413      1.688      1.867
REMARK  5 active torsions:
REMARK  status: ('A' for Active; 'I' for Inactive)
REMARK    1  A    between atoms: C1_2  and  C2_3 
REMARK       I    between atoms: C1_2  and  N2_12 
REMARK    2  A    between atoms: C2_3  and  S1_4 
REMARK    3  A    between atoms: S1_4  and  C3_5 
REMARK    4  A    between atoms: C3_5  and  N1_7 
REMARK    5  A    between atoms: N1_7  and  C4_9 
ROOT
HETATM    1  C2  UNL     1      16.433   3.033  12.944  1.00  0.00     0.184 C 
ENDROOT
BRANCH   1   2
HETATM    2  C1  UNL     1      16.610   1.943  13.914  1.00  0.00     0.229 C 
HETATM    3  O1  UNL     1      17.024   0.817  13.556  1.00  0.00    -0.273 OA
HETATM    4  N2  UNL     1      16.306   2.159  15.301  1.00  0.00    -0.351 N 
HETATM    5  C7  UNL     1      16.469   1.104  16.272  1.00  0.00     0.125 C 
HETATM    6  C11 UNL     1      15.832   3.443  15.760  1.00  0.00     0.125 C 
HETATM    7  C8  UNL     1      15.652   1.396  17.491  1.00  0.00     0.020 C 
HETATM    8  C9  UNL     1      14.325   1.946  17.020  1.00  0.00     0.003 C 
HETATM    9  C10 UNL     1      14.538   3.329  16.521  1.00  0.00     0.020 C 
ENDBRANCH   1   2
BRANCH   1  10
HETATM   10  S1  UNL     1      17.994   3.901  12.659  1.00  0.00    -0.091 SA
BRANCH  10  11
HETATM   11  C3  UNL     1      17.752   5.635  12.916  1.00  0.00     0.135 C 
HETATM   12  S2  UNL     1      18.251   6.317  14.297  1.00  0.00    -0.053 SA
BRANCH  11  13
HETATM   13  N1  UNL     1      17.130   6.420  11.929  1.00  0.00    -0.371 N 
ATOM     14  H1  UNL     1      17.531   6.491  10.994  1.00  0.00     0.161 HD
BRANCH  13  15
HETATM   15  C4  UNL     1      15.906   7.130  12.261  1.00  0.00     0.083 A 
HETATM   16  C5  UNL     1      15.844   8.612  12.035  1.00  0.00     0.027 A 
HETATM   17  C6  UNL     1      15.196   7.708  11.039  1.00  0.00     0.027 A 
ENDBRANCH  13  15
ENDBRANCH  11  13
ENDBRANCH  10  11
ENDBRANCH   1  10
TORSDOF 5
ENDMDL
