MODEL 1
REMARK VINA RESULT: -6.337758088      0.000      0.000
REMARK  7 active torsions:
REMARK  status: ('A' for Active; 'I' for Inactive)
REMARK       I    between atoms: N1_1  and  C1_4 
REMARK       I    between atoms: C1_4  and  N3_6 
REMARK    1  A    between atoms: N3_6  and  C2_8 
REMARK    2  A    between atoms: C3_11  and  C4_12 
REMARK    3  A    between atoms: C4_12  and  O1_13 
REMARK    4  A    between atoms: C4_12  and  C5_15 
REMARK    5  A    between atoms: C5_15  and  N5_16 
REMARK    6  A    between atoms: N9_28  and  C9_29 
REMARK    7  A    between atoms: C10_33  and  O4_34 
ROOT
HETATM    1  C2  UNL     1      -2.582  -4.341   4.505  1.00  0.00     0.707 A 
HETATM    2  N4  UNL     1      -3.543  -3.710   5.204  1.00  0.00    -0.175 N 
ATOM      3  H4  UNL     1      -4.533  -3.675   4.963  1.00  0.00     0.185 HD
HETATM    4  C3  UNL     1      -2.973  -3.134   6.275  1.00  0.00     0.143 A 
HETATM    5  N8  UNL     1      -1.665  -3.428   6.206  1.00  0.00    -0.266 N 
ATOM      6  H8  UNL     1      -0.964  -3.129   6.884  1.00  0.00     0.189 HD
HETATM    7  N9  UNL     1      -1.416  -4.160   5.136  1.00  0.00    -0.065 N 
ENDROOT
BRANCH   4   8
HETATM    8  C4  UNL     1      -3.674  -2.324   7.332  1.00  0.00     0.207 C 
BRANCH   8   9
HETATM    9  O1  UNL     1      -2.854  -1.261   7.675  1.00  0.00    -0.386 OA
ATOM     10  H1  UNL     1      -3.052  -1.012   8.570  1.00  0.00     0.210 HD
ENDBRANCH   8   9
BRANCH   8  11
HETATM   11  C5  UNL     1      -4.964  -1.766   6.774  1.00  0.00     0.193 C 
BRANCH  11  12
HETATM   12  N5  UNL     1      -4.778  -0.351   6.543  1.00  0.00    -0.240 N 
HETATM   13  N6  UNL     1      -5.000   0.507   7.522  1.00  0.00    -0.300 N 
HETATM   14  C6  UNL     1      -4.843   1.838   7.364  1.00  0.00     0.181 A 
ATOM     15  H6  UNL     1      -5.301   0.152   8.430  1.00  0.00     0.186 HD
HETATM   16  C7  UNL     1      -4.441   2.324   6.151  1.00  0.00     0.266 A 
HETATM   17  O2  UNL     1      -4.299   3.565   6.016  1.00  0.00    -0.267 OA
HETATM   18  N7  UNL     1      -4.213   1.463   5.147  1.00  0.00    -0.273 N 
HETATM   19  C8  UNL     1      -4.385   0.138   5.359  1.00  0.00     0.344 A 
ATOM     20  H7  UNL     1      -3.912   1.804   4.234  1.00  0.00     0.173 HD
HETATM   21  O3  UNL     1      -4.159  -0.636   4.387  1.00  0.00    -0.245 OA
ENDBRANCH  11  12
ENDBRANCH   8  11
ENDBRANCH   4   8
BRANCH   1  22
HETATM   22  N3  UNL     1      -2.730  -5.011   3.413  1.00  0.00    -0.162 N 
HETATM   23  C1  UNL     1      -3.660  -6.089   3.322  1.00  0.00     0.200 C 
HETATM   24  N1  UNL     1      -3.499  -7.086   4.116  1.00  0.00    -0.373 N 
HETATM   25  N2  UNL     1      -4.731  -6.082   2.396  1.00  0.00    -0.063 NA
ATOM     26  H12 UNL     1      -4.164  -7.857   4.051  1.00  0.00     0.158 HD
ATOM     27  H11 UNL     1      -2.727  -7.091   4.783  1.00  0.00     0.158 HD
ATOM     28  H3  UNL     1      -2.170  -4.765   2.596  1.00  0.00     0.187 HD
ENDBRANCH   1  22
BRANCH   7  29
HETATM   29  C9  UNL     1      -0.093  -4.669   4.735  1.00  0.00     0.476 C 
HETATM   30  N10 UNL     1      -0.163  -6.121   4.581  1.00  0.00     0.022 N 
HETATM   31  C10 UNL     1       0.729  -5.863   3.456  1.00  0.00     0.475 C 
ATOM     32 2H10 UNL     1       0.061  -6.774   5.333  1.00  0.00     0.288 HD
ATOM     33 1H10 UNL     1      -1.042  -6.632   4.492  1.00  0.00     0.288 HD
HETATM   34  O5  UNL     1       0.157  -4.582   3.390  1.00  0.00    -0.287 OA
BRANCH  31  35
HETATM   35  O4  UNL     1       0.454  -6.640   2.322  1.00  0.00    -0.349 OA
ATOM     36  H4  UNL     1       0.307  -6.132   1.532  1.00  0.00     0.214 HD
ENDBRANCH  31  35
ENDBRANCH   7  29
TORSDOF 7
ENDMDL
MODEL 2
REMARK VINA RESULT: -6.139843667      1.545      2.926
REMARK  7 active torsions:
REMARK  status: ('A' for Active; 'I' for Inactive)
REMARK       I    between atoms: N1_1  and  C1_4 
REMARK       I    between atoms: C1_4  and  N3_6 
REMARK    1  A    between atoms: N3_6  and  C2_8 
REMARK    2  A    between atoms: C3_11  and  C4_12 
REMARK    3  A    between atoms: C4_12  and  O1_13 
REMARK    4  A    between atoms: C4_12  and  C5_15 
REMARK    5  A    between atoms: C5_15  and  N5_16 
REMARK    6  A    between atoms: N9_28  and  C9_29 
REMARK    7  A    between atoms: C10_33  and  O4_34 
ROOT
HETATM    1  C2  UNL     1      -1.923  -5.052   6.136  1.00  0.00     0.707 A 
HETATM    2  N4  UNL     1      -2.022  -3.973   6.934  1.00  0.00    -0.175 N 
ATOM      3  H4  UNL     1      -1.291  -3.615   7.548  1.00  0.00     0.185 HD
HETATM    4  C3  UNL     1      -3.249  -3.449   6.781  1.00  0.00     0.143 A 
HETATM    5  N8  UNL     1      -3.879  -4.227   5.887  1.00  0.00    -0.266 N 
ATOM      6  H8  UNL     1      -4.834  -4.084   5.561  1.00  0.00     0.189 HD
HETATM    7  N9  UNL     1      -3.084  -5.203   5.488  1.00  0.00    -0.065 N 
ENDROOT
BRANCH   4   8
HETATM    8  C4  UNL     1      -3.794  -2.234   7.481  1.00  0.00     0.207 C 
BRANCH   8   9
HETATM    9  O1  UNL     1      -2.810  -1.258   7.480  1.00  0.00    -0.386 OA
ATOM     10  H1  UNL     1      -2.745  -0.906   6.600  1.00  0.00     0.210 HD
ENDBRANCH   8   9
BRANCH   8  11
HETATM   11  C5  UNL     1      -4.988  -1.701   6.721  1.00  0.00     0.193 C 
BRANCH  11  12
HETATM   12  N5  UNL     1      -4.796  -0.283   6.518  1.00  0.00    -0.240 N 
HETATM   13  N6  UNL     1      -4.990   0.555   7.520  1.00  0.00    -0.300 N 
HETATM   14  C6  UNL     1      -4.825   1.888   7.388  1.00  0.00     0.181 A 
ATOM     15  H6  UNL     1      -5.274   0.182   8.426  1.00  0.00     0.186 HD
HETATM   16  C7  UNL     1      -4.444   2.398   6.178  1.00  0.00     0.266 A 
HETATM   17  O2  UNL     1      -4.294   3.640   6.069  1.00  0.00    -0.267 OA
HETATM   18  N7  UNL     1      -4.243   1.558   5.151  1.00  0.00    -0.273 N 
HETATM   19  C8  UNL     1      -4.422   0.230   5.337  1.00  0.00     0.344 A 
ATOM     20  H7  UNL     1      -3.959   1.916   4.240  1.00  0.00     0.173 HD
HETATM   21  O3  UNL     1      -4.223  -0.524   4.344  1.00  0.00    -0.245 OA
ENDBRANCH  11  12
ENDBRANCH   8  11
ENDBRANCH   4   8
BRANCH   1  22
HETATM   22  N3  UNL     1      -0.901  -5.826   6.000  1.00  0.00    -0.162 N 
HETATM   23  C1  UNL     1       0.253  -5.412   5.271  1.00  0.00     0.200 C 
HETATM   24  N1  UNL     1       0.101  -5.108   4.033  1.00  0.00    -0.373 N 
HETATM   25  N2  UNL     1       1.533  -5.331   5.872  1.00  0.00    -0.063 NA
ATOM     26  H12 UNL     1       0.927  -4.812   3.511  1.00  0.00     0.158 HD
ATOM     27  H11 UNL     1      -0.821  -5.165   3.600  1.00  0.00     0.158 HD
ATOM     28  H3  UNL     1      -0.917  -6.755   6.423  1.00  0.00     0.187 HD
ENDBRANCH   1  22
BRANCH   7  29
HETATM   29  C9  UNL     1      -3.435  -6.249   4.512  1.00  0.00     0.476 C 
HETATM   30  N10 UNL     1      -4.732  -5.933   3.914  1.00  0.00     0.022 N 
HETATM   31  C10 UNL     1      -4.098  -6.452   2.707  1.00  0.00     0.475 C 
ATOM     32 2H10 UNL     1      -5.616  -6.288   4.278  1.00  0.00     0.288 HD
ATOM     33 1H10 UNL     1      -5.161  -5.008   3.966  1.00  0.00     0.288 HD
HETATM   34  O5  UNL     1      -2.871  -6.073   3.276  1.00  0.00    -0.287 OA
BRANCH  31  35
HETATM   35  O4  UNL     1      -4.406  -5.729   1.546  1.00  0.00    -0.349 OA
ATOM     36  H4  UNL     1      -3.944  -6.027   0.772  1.00  0.00     0.214 HD
ENDBRANCH  31  35
ENDBRANCH   7  29
TORSDOF 7
ENDMDL
MODEL 3
REMARK VINA RESULT: -6.014955701      1.701      3.083
REMARK  7 active torsions:
REMARK  status: ('A' for Active; 'I' for Inactive)
REMARK       I    between atoms: N1_1  and  C1_4 
REMARK       I    between atoms: C1_4  and  N3_6 
REMARK    1  A    between atoms: N3_6  and  C2_8 
REMARK    2  A    between atoms: C3_11  and  C4_12 
REMARK    3  A    between atoms: C4_12  and  O1_13 
REMARK    4  A    between atoms: C4_12  and  C5_15 
REMARK    5  A    between atoms: C5_15  and  N5_16 
REMARK    6  A    between atoms: N9_28  and  C9_29 
REMARK    7  A    between atoms: C10_33  and  O4_34 
ROOT
HETATM    1  C2  UNL     1      -0.835  -5.347   4.690  1.00  0.00     0.707 A 
HETATM    2  N4  UNL     1      -0.928  -4.323   5.557  1.00  0.00    -0.175 N 
ATOM      3  H4  UNL     1      -0.155  -3.904   6.073  1.00  0.00     0.185 HD
HETATM    4  C3  UNL     1      -2.216  -3.947   5.625  1.00  0.00     0.143 A 
HETATM    5  N8  UNL     1      -2.886  -4.758   4.792  1.00  0.00    -0.266 N 
ATOM      6  H8  UNL     1      -3.892  -4.719   4.625  1.00  0.00     0.189 HD
HETATM    7  N9  UNL     1      -2.059  -5.612   4.218  1.00  0.00    -0.065 N 
ENDROOT
BRANCH   4   8
HETATM    8  C4  UNL     1      -2.779  -2.838   6.473  1.00  0.00     0.207 C 
BRANCH   8   9
HETATM    9  O1  UNL     1      -1.874  -1.789   6.465  1.00  0.00    -0.386 OA
ATOM     10  H1  UNL     1      -1.673  -1.579   5.561  1.00  0.00     0.210 HD
ENDBRANCH   8   9
BRANCH   8  11
HETATM   11  C5  UNL     1      -4.077  -2.347   5.872  1.00  0.00     0.193 C 
BRANCH  11  12
HETATM   12  N5  UNL     1      -4.348  -1.030   6.404  1.00  0.00    -0.240 N 
HETATM   13  N6  UNL     1      -4.300  -0.827   7.708  1.00  0.00    -0.300 N 
HETATM   14  C6  UNL     1      -4.543   0.379   8.260  1.00  0.00     0.181 A 
ATOM     15  H6  UNL     1      -4.070  -1.611   8.320  1.00  0.00     0.186 HD
HETATM   16  C7  UNL     1      -4.853   1.435   7.449  1.00  0.00     0.266 A 
HETATM   17  O2  UNL     1      -5.078   2.553   7.975  1.00  0.00    -0.267 OA
HETATM   18  N7  UNL     1      -4.906   1.243   6.122  1.00  0.00    -0.273 N 
HETATM   19  C8  UNL     1      -4.653   0.013   5.620  1.00  0.00     0.344 A 
ATOM     20  H7  UNL     1      -5.135   2.017   5.497  1.00  0.00     0.173 HD
HETATM   21  O3  UNL     1      -4.714  -0.123   4.366  1.00  0.00    -0.245 OA
ENDBRANCH  11  12
ENDBRANCH   8  11
ENDBRANCH   4   8
BRANCH   1  22
HETATM   22  N3  UNL     1       0.236  -5.983   4.352  1.00  0.00    -0.162 N 
HETATM   23  C1  UNL     1       1.217  -5.389   3.505  1.00  0.00     0.200 C 
HETATM   24  N1  UNL     1       0.853  -5.029   2.328  1.00  0.00    -0.373 N 
HETATM   25  N2  UNL     1       2.555  -5.194   3.927  1.00  0.00    -0.063 NA
ATOM     26  H12 UNL     1       1.555  -4.604   1.722  1.00  0.00     0.158 HD
ATOM     27  H11 UNL     1      -0.111  -5.169   2.024  1.00  0.00     0.158 HD
ATOM     28  H3  UNL     1       0.383  -6.932   4.699  1.00  0.00     0.187 HD
ENDBRANCH   1  22
BRANCH   7  29
HETATM   29  C9  UNL     1      -2.438  -6.650   3.245  1.00  0.00     0.476 C 
HETATM   30  N10 UNL     1      -3.695  -6.271   2.603  1.00  0.00     0.022 N 
HETATM   31  C10 UNL     1      -3.055  -6.843   1.423  1.00  0.00     0.475 C 
ATOM     32 2H10 UNL     1      -4.609  -6.570   2.943  1.00  0.00     0.288 HD
ATOM     33 1H10 UNL     1      -4.072  -5.323   2.629  1.00  0.00     0.288 HD
HETATM   34  O5  UNL     1      -1.827  -6.525   2.025  1.00  0.00    -0.287 OA
BRANCH  31  35
HETATM   35  O4  UNL     1      -3.286  -6.121   0.243  1.00  0.00    -0.349 OA
ATOM     36  H4  UNL     1      -3.947  -6.505  -0.320  1.00  0.00     0.214 HD
ENDBRANCH  31  35
ENDBRANCH   7  29
TORSDOF 7
ENDMDL
MODEL 4
REMARK VINA RESULT: -6.004832132      5.559     10.707
REMARK  7 active torsions:
REMARK  status: ('A' for Active; 'I' for Inactive)
REMARK       I    between atoms: N1_1  and  C1_4 
REMARK       I    between atoms: C1_4  and  N3_6 
REMARK    1  A    between atoms: N3_6  and  C2_8 
REMARK    2  A    between atoms: C3_11  and  C4_12 
REMARK    3  A    between atoms: C4_12  and  O1_13 
REMARK    4  A    between atoms: C4_12  and  C5_15 
REMARK    5  A    between atoms: C5_15  and  N5_16 
REMARK    6  A    between atoms: N9_28  and  C9_29 
REMARK    7  A    between atoms: C10_33  and  O4_34 
ROOT
HETATM    1  C2  UNL     1      -4.353   5.261  11.829  1.00  0.00     0.707 A 
HETATM    2  N4  UNL     1      -5.023   4.581  10.882  1.00  0.00    -0.175 N 
ATOM      3  H4  UNL     1      -5.893   4.874  10.438  1.00  0.00     0.185 HD
HETATM    4  C3  UNL     1      -4.348   3.449  10.621  1.00  0.00     0.143 A 
HETATM    5  N8  UNL     1      -3.272   3.463  11.423  1.00  0.00    -0.266 N 
ATOM      6  H8  UNL     1      -2.561   2.733  11.457  1.00  0.00     0.189 HD
HETATM    7  N9  UNL     1      -3.264   4.558  12.161  1.00  0.00    -0.065 N 
ENDROOT
BRANCH   4   8
HETATM    8  C4  UNL     1      -4.735   2.388   9.627  1.00  0.00     0.207 C 
BRANCH   8   9
HETATM    9  O1  UNL     1      -5.894   1.778  10.077  1.00  0.00    -0.386 OA
ATOM     10  H1  UNL     1      -5.923   0.898   9.720  1.00  0.00     0.210 HD
ENDBRANCH   8   9
BRANCH   8  11
HETATM   11  C5  UNL     1      -5.026   3.026   8.288  1.00  0.00     0.193 C 
BRANCH  11  12
HETATM   12  N5  UNL     1      -4.755   2.050   7.256  1.00  0.00    -0.240 N 
HETATM   13  N6  UNL     1      -4.836   0.762   7.535  1.00  0.00    -0.300 N 
HETATM   14  C6  UNL     1      -4.595  -0.193   6.613  1.00  0.00     0.181 A 
ATOM     15  H6  UNL     1      -5.090   0.478   8.482  1.00  0.00     0.186 HD
HETATM   16  C7  UNL     1      -4.255   0.177   5.342  1.00  0.00     0.266 A 
HETATM   17  O2  UNL     1      -4.032  -0.722   4.492  1.00  0.00    -0.267 OA
HETATM   18  N7  UNL     1      -4.168   1.482   5.044  1.00  0.00    -0.273 N 
HETATM   19  C8  UNL     1      -4.420   2.399   6.007  1.00  0.00     0.344 A 
ATOM     20  H7  UNL     1      -3.915   1.781   4.102  1.00  0.00     0.173 HD
HETATM   21  O3  UNL     1      -4.328   3.616   5.682  1.00  0.00    -0.245 OA
ENDBRANCH  11  12
ENDBRANCH   8  11
ENDBRANCH   4   8
BRANCH   1  22
HETATM   22  N3  UNL     1      -4.680   6.396  12.347  1.00  0.00    -0.162 N 
HETATM   23  C1  UNL     1      -4.502   7.618  11.633  1.00  0.00     0.200 C 
HETATM   24  N1  UNL     1      -3.310   7.931  11.271  1.00  0.00    -0.373 N 
HETATM   25  N2  UNL     1      -5.588   8.474  11.324  1.00  0.00    -0.063 NA
ATOM     26  H12 UNL     1      -3.183   8.805  10.761  1.00  0.00     0.158 HD
ATOM     27  H11 UNL     1      -2.528   7.315  11.494  1.00  0.00     0.158 HD
ATOM     28  H3  UNL     1      -5.074   6.421  13.288  1.00  0.00     0.187 HD
ENDBRANCH   1  22
BRANCH   7  29
HETATM   29  C9  UNL     1      -2.237   4.914  13.155  1.00  0.00     0.476 C 
HETATM   30  N10 UNL     1      -1.023   5.342  12.460  1.00  0.00     0.022 N 
HETATM   31  C10 UNL     1      -0.956   6.306  13.553  1.00  0.00     0.475 C 
ATOM     32 2H10 UNL     1      -0.260   4.708  12.227  1.00  0.00     0.288 HD
ATOM     33 1H10 UNL     1      -1.009   5.612  11.476  1.00  0.00     0.288 HD
HETATM   34  O5  UNL     1      -2.352   6.187  13.648  1.00  0.00    -0.287 OA
BRANCH  31  35
HETATM   35  O4  UNL     1      -0.544   7.587  13.158  1.00  0.00    -0.349 OA
ATOM     36  H4  UNL     1      -0.293   8.152  13.880  1.00  0.00     0.214 HD
ENDBRANCH  31  35
ENDBRANCH   7  29
TORSDOF 7
ENDMDL
MODEL 5
REMARK VINA RESULT: -5.945531503      1.989      7.870
REMARK  7 active torsions:
REMARK  status: ('A' for Active; 'I' for Inactive)
REMARK       I    between atoms: N1_1  and  C1_4 
REMARK       I    between atoms: C1_4  and  N3_6 
REMARK    1  A    between atoms: N3_6  and  C2_8 
REMARK    2  A    between atoms: C3_11  and  C4_12 
REMARK    3  A    between atoms: C4_12  and  O1_13 
REMARK    4  A    between atoms: C4_12  and  C5_15 
REMARK    5  A    between atoms: C5_15  and  N5_16 
REMARK    6  A    between atoms: N9_28  and  C9_29 
REMARK    7  A    between atoms: C10_33  and  O4_34 
ROOT
HETATM    1  C2  UNL     1      -4.654   0.311   5.682  1.00  0.00     0.707 A 
HETATM    2  N4  UNL     1      -3.511  -0.236   5.231  1.00  0.00    -0.175 N 
ATOM      3  H4  UNL     1      -2.906   0.153   4.508  1.00  0.00     0.185 HD
HETATM    4  C3  UNL     1      -3.304  -1.384   5.896  1.00  0.00     0.143 A 
HETATM    5  N8  UNL     1      -4.334  -1.515   6.746  1.00  0.00    -0.266 N 
ATOM      6  H8  UNL     1      -4.460  -2.293   7.393  1.00  0.00     0.189 HD
HETATM    7  N9  UNL     1      -5.160  -0.492   6.625  1.00  0.00    -0.065 N 
ENDROOT
BRANCH   4   8
HETATM    8  C4  UNL     1      -2.144  -2.326   5.712  1.00  0.00     0.207 C 
BRANCH   8   9
HETATM    9  O1  UNL     1      -1.277  -2.154   6.779  1.00  0.00    -0.386 OA
ATOM     10  H1  UNL     1      -0.390  -2.134   6.439  1.00  0.00     0.210 HD
ENDBRANCH   8   9
BRANCH   8  11
HETATM   11  C5  UNL     1      -2.639  -3.754   5.732  1.00  0.00     0.193 C 
BRANCH  11  12
HETATM   12  N5  UNL     1      -1.873  -4.510   4.767  1.00  0.00    -0.240 N 
HETATM   13  N6  UNL     1      -0.553  -4.507   4.831  1.00  0.00    -0.300 N 
HETATM   14  C6  UNL     1       0.213  -5.193   3.958  1.00  0.00     0.181 A 
ATOM     15  H6  UNL     1      -0.097  -3.967   5.567  1.00  0.00     0.186 HD
HETATM   16  C7  UNL     1      -0.389  -5.920   2.968  1.00  0.00     0.266 A 
HETATM   17  O2  UNL     1       0.336  -6.554   2.162  1.00  0.00    -0.267 OA
HETATM   18  N7  UNL     1      -1.728  -5.931   2.891  1.00  0.00    -0.273 N 
HETATM   19  C8  UNL     1      -2.450  -5.225   3.792  1.00  0.00     0.344 A 
ATOM     20  H7  UNL     1      -2.198  -6.466   2.160  1.00  0.00     0.173 HD
HETATM   21  O3  UNL     1      -3.707  -5.265   3.682  1.00  0.00    -0.245 OA
ENDBRANCH  11  12
ENDBRANCH   8  11
ENDBRANCH   4   8
BRANCH   1  22
HETATM   22  N3  UNL     1      -5.192   1.416   5.292  1.00  0.00    -0.162 N 
HETATM   23  C1  UNL     1      -4.679   2.680   5.707  1.00  0.00     0.200 C 
HETATM   24  N1  UNL     1      -4.659   2.934   6.965  1.00  0.00    -0.373 N 
HETATM   25  N2  UNL     1      -4.203   3.640   4.780  1.00  0.00    -0.063 NA
ATOM     26  H12 UNL     1      -4.292   3.838   7.262  1.00  0.00     0.158 HD
ATOM     27  H11 UNL     1      -5.002   2.243   7.634  1.00  0.00     0.158 HD
ATOM     28  H3  UNL     1      -6.003   1.385   4.673  1.00  0.00     0.187 HD
ENDBRANCH   1  22
BRANCH   7  29
HETATM   29  C9  UNL     1      -6.399  -0.296   7.396  1.00  0.00     0.476 C 
HETATM   30  N10 UNL     1      -6.086   0.410   8.638  1.00  0.00     0.022 N 
HETATM   31  C10 UNL     1      -7.358   1.072   8.369  1.00  0.00     0.475 C 
ATOM     32 2H10 UNL     1      -5.879  -0.067   9.515  1.00  0.00     0.288 HD
ATOM     33 1H10 UNL     1      -5.213   0.918   8.787  1.00  0.00     0.288 HD
HETATM   34  O5  UNL     1      -7.132   0.796   7.012  1.00  0.00    -0.287 OA
BRANCH  31  35
HETATM   35  O4  UNL     1      -7.356   2.445   8.653  1.00  0.00    -0.349 OA
ATOM     36  H4  UNL     1      -7.925   2.957   8.089  1.00  0.00     0.214 HD
ENDBRANCH  31  35
ENDBRANCH   7  29
TORSDOF 7
ENDMDL
