MODEL 1
REMARK VINA RESULT: -5.260882551      0.000      0.000
REMARK  1 active torsions:
REMARK  status: ('A' for Active; 'I' for Inactive)
REMARK    1  A    between atoms: O1_3  and  C2_4 
ROOT
HETATM    1  N1  UNL     1      33.111  54.445  -6.620  1.00  0.00    -0.164 NA
HETATM    2  C1  UNL     1      32.366  54.239  -5.744  1.00  0.00     0.229 C 
HETATM    3  O1  UNL     1      31.482  54.011  -4.728  1.00  0.00    -0.277 OA
ENDROOT
BRANCH   3   4
HETATM    4  C2  UNL     1      30.324  53.238  -4.889  1.00  0.00     0.159 C 
HETATM    5  C3  UNL     1      30.311  52.048  -3.919  1.00  0.00     0.036 C 
HETATM    6  C4  UNL     1      30.455  52.486  -2.506  1.00  0.00     0.022 C 
HETATM    7  C5  UNL     1      29.323  52.089  -1.607  1.00  0.00     0.122 C 
HETATM    8  N2  UNL     1      29.324  52.982  -0.464  1.00  0.00    -0.361 N 
HETATM    9  C6  UNL     1      28.607  54.198  -0.413  1.00  0.00     0.217 C 
ATOM     10  H2  UNL     1      29.875  52.716   0.351  1.00  0.00     0.162 HD
HETATM   11  O2  UNL     1      29.114  55.170   0.204  1.00  0.00    -0.274 OA
HETATM   12  C7  UNL     1      27.281  54.423  -1.043  1.00  0.00     0.103 C 
HETATM   13  C8  UNL     1      27.194  55.829  -1.610  1.00  0.00     0.009 C 
HETATM   14  C9  UNL     1      27.332  55.822  -3.130  1.00  0.00     0.001 C 
HETATM   15  C10 UNL     1      28.730  56.137  -3.482  1.00  0.00     0.001 C 
HETATM   16  C11 UNL     1      29.244  55.503  -4.743  1.00  0.00     0.022 C 
HETATM   17  C12 UNL     1      29.055  54.018  -4.783  1.00  0.00     0.123 C 
HETATM   18  C13 UNL     1      28.189  53.708  -5.933  1.00  0.00     0.066 C 
HETATM   19  N3  UNL     1      27.496  53.472  -6.842  1.00  0.00    -0.197 NA
ENDBRANCH   3   4
TORSDOF 1
ENDMDL
MODEL 2
REMARK VINA RESULT: -3.186791346      1.754      3.874
REMARK  1 active torsions:
REMARK  status: ('A' for Active; 'I' for Inactive)
REMARK    1  A    between atoms: O1_3  and  C2_4 
ROOT
HETATM    1  N1  UNL     1      27.309  52.545  -7.279  1.00  0.00    -0.164 NA
HETATM    2  C1  UNL     1      27.346  53.381  -6.463  1.00  0.00     0.229 C 
HETATM    3  O1  UNL     1      27.398  54.345  -5.497  1.00  0.00    -0.277 OA
ENDROOT
BRANCH   3   4
HETATM    4  C2  UNL     1      28.570  55.053  -5.194  1.00  0.00     0.159 C 
HETATM    5  C3  UNL     1      28.251  56.394  -4.519  1.00  0.00     0.036 C 
HETATM    6  C4  UNL     1      27.418  56.215  -3.301  1.00  0.00     0.022 C 
HETATM    7  C5  UNL     1      28.033  56.740  -2.039  1.00  0.00     0.122 C 
HETATM    8  N2  UNL     1      27.405  56.062  -0.920  1.00  0.00    -0.361 N 
HETATM    9  C6  UNL     1      27.884  54.859  -0.357  1.00  0.00     0.217 C 
ATOM     10  H2  UNL     1      26.567  56.480  -0.516  1.00  0.00     0.162 HD
HETATM   11  O2  UNL     1      27.049  54.022   0.075  1.00  0.00    -0.274 OA
HETATM   12  C7  UNL     1      29.319  54.497  -0.236  1.00  0.00     0.103 C 
HETATM   13  C8  UNL     1      29.515  53.011  -0.482  1.00  0.00     0.009 C 
HETATM   14  C9  UNL     1      30.106  52.753  -1.866  1.00  0.00     0.001 C 
HETATM   15  C10 UNL     1      29.011  52.412  -2.794  1.00  0.00     0.001 C 
HETATM   16  C11 UNL     1      29.216  52.825  -4.223  1.00  0.00     0.022 C 
HETATM   17  C12 UNL     1      29.554  54.276  -4.382  1.00  0.00     0.123 C 
HETATM   18  C13 UNL     1      30.884  54.358  -5.009  1.00  0.00     0.066 C 
HETATM   19  N3  UNL     1      31.942  54.415  -5.498  1.00  0.00    -0.197 NA
ENDBRANCH   3   4
TORSDOF 1
ENDMDL
MODEL 3
REMARK VINA RESULT: -2.456061804      1.036      1.055
REMARK  1 active torsions:
REMARK  status: ('A' for Active; 'I' for Inactive)
REMARK    1  A    between atoms: O1_3  and  C2_4 
ROOT
HETATM    1  N1  UNL     1      33.222  53.977  -5.240  1.00  0.00    -0.164 NA
HETATM    2  C1  UNL     1      32.115  54.185  -5.552  1.00  0.00     0.229 C 
HETATM    3  O1  UNL     1      30.824  54.417  -5.932  1.00  0.00    -0.277 OA
ENDROOT
BRANCH   3   4
HETATM    4  C2  UNL     1      29.809  53.459  -5.794  1.00  0.00     0.159 C 
HETATM    5  C3  UNL     1      30.157  52.433  -4.707  1.00  0.00     0.036 C 
HETATM    6  C4  UNL     1      30.442  53.086  -3.402  1.00  0.00     0.022 C 
HETATM    7  C5  UNL     1      29.552  52.651  -2.276  1.00  0.00     0.122 C 
HETATM    8  N2  UNL     1      29.575  53.689  -1.262  1.00  0.00    -0.361 N 
HETATM    9  C6  UNL     1      28.674  54.775  -1.224  1.00  0.00     0.217 C 
ATOM     10  H2  UNL     1      30.285  53.629  -0.533  1.00  0.00     0.162 HD
HETATM   11  O2  UNL     1      29.092  55.891  -0.823  1.00  0.00    -0.274 OA
HETATM   12  C7  UNL     1      27.246  54.701  -1.629  1.00  0.00     0.103 C 
HETATM   13  C8  UNL     1      26.826  55.982  -2.329  1.00  0.00     0.009 C 
HETATM   14  C9  UNL     1      26.723  55.778  -3.838  1.00  0.00     0.001 C 
HETATM   15  C10 UNL     1      27.971  56.251  -4.467  1.00  0.00     0.001 C 
HETATM   16  C11 UNL     1      28.384  55.529  -5.719  1.00  0.00     0.022 C 
HETATM   17  C12 UNL     1      28.455  54.042  -5.553  1.00  0.00     0.123 C 
HETATM   18  C13 UNL     1      27.488  53.443  -6.488  1.00  0.00     0.066 C 
HETATM   19  N3  UNL     1      26.713  52.976  -7.225  1.00  0.00    -0.197 NA
ENDBRANCH   3   4
TORSDOF 1
ENDMDL
MODEL 4
REMARK VINA RESULT: -2.041326797      1.987      2.710
REMARK  1 active torsions:
REMARK  status: ('A' for Active; 'I' for Inactive)
REMARK    1  A    between atoms: O1_3  and  C2_4 
ROOT
HETATM    1  N1  UNL     1      33.431  51.613  -1.603  1.00  0.00    -0.164 NA
HETATM    2  C1  UNL     1      32.599  52.173  -2.203  1.00  0.00     0.229 C 
HETATM    3  O1  UNL     1      31.632  52.817  -2.921  1.00  0.00    -0.277 OA
ENDROOT
BRANCH   3   4
HETATM    4  C2  UNL     1      30.444  52.192  -3.324  1.00  0.00     0.159 C 
HETATM    5  C3  UNL     1      29.530  51.909  -2.124  1.00  0.00     0.036 C 
HETATM    6  C4  UNL     1      29.236  53.144  -1.350  1.00  0.00     0.022 C 
HETATM    7  C5  UNL     1      27.780  53.487  -1.245  1.00  0.00     0.122 C 
HETATM    8  N2  UNL     1      27.674  54.904  -0.954  1.00  0.00    -0.361 N 
HETATM    9  C6  UNL     1      27.582  55.908  -1.943  1.00  0.00     0.217 C 
ATOM     10  H2  UNL     1      27.665  55.192   0.024  1.00  0.00     0.162 HD
HETATM   11  O2  UNL     1      28.137  57.017  -1.729  1.00  0.00    -0.274 OA
HETATM   12  C7  UNL     1      26.871  55.754  -3.238  1.00  0.00     0.103 C 
HETATM   13  C8  UNL     1      27.626  56.468  -4.346  1.00  0.00     0.009 C 
HETATM   14  C9  UNL     1      28.372  55.476  -5.235  1.00  0.00     0.001 C 
HETATM   15  C10 UNL     1      29.777  55.406  -4.792  1.00  0.00     0.001 C 
HETATM   16  C11 UNL     1      30.456  54.080  -4.984  1.00  0.00     0.022 C 
HETATM   17  C12 UNL     1      29.701  52.932  -4.388  1.00  0.00     0.123 C 
HETATM   18  C13 UNL     1      29.358  52.008  -5.482  1.00  0.00     0.066 C 
HETATM   19  N3  UNL     1      29.082  51.285  -6.355  1.00  0.00    -0.197 NA
ENDBRANCH   3   4
TORSDOF 1
ENDMDL
MODEL 5
REMARK VINA RESULT: -1.563157995      7.974     10.186
REMARK  1 active torsions:
REMARK  status: ('A' for Active; 'I' for Inactive)
REMARK    1  A    between atoms: O1_3  and  C2_4 
ROOT
HETATM    1  N1  UNL     1      28.291  55.152  -8.061  1.00  0.00    -0.164 NA
HETATM    2  C1  UNL     1      28.138  56.115  -8.706  1.00  0.00     0.229 C 
HETATM    3  O1  UNL     1      27.979  57.244  -9.458  1.00  0.00    -0.277 OA
ENDROOT
BRANCH   3   4
HETATM    4  C2  UNL     1      28.309  57.300 -10.820  1.00  0.00     0.159 C 
HETATM    5  C3  UNL     1      27.130  56.852 -11.695  1.00  0.00     0.036 C 
HETATM    6  C4  UNL     1      25.904  57.647 -11.420  1.00  0.00     0.022 C 
HETATM    7  C5  UNL     1      25.353  58.380 -12.605  1.00  0.00     0.122 C 
HETATM    8  N2  UNL     1      24.535  59.473 -12.114  1.00  0.00    -0.361 N 
HETATM    9  C6  UNL     1      25.025  60.771 -11.854  1.00  0.00     0.217 C 
ATOM     10  H2  UNL     1      23.545  59.292 -11.947  1.00  0.00     0.162 HD
HETATM   11  O2  UNL     1      24.541  61.416 -10.888  1.00  0.00    -0.274 OA
HETATM   12  C7  UNL     1      26.087  61.446 -12.644  1.00  0.00     0.103 C 
HETATM   13  C8  UNL     1      26.984  62.267 -11.736  1.00  0.00     0.009 C 
HETATM   14  C9  UNL     1      28.324  61.572 -11.507  1.00  0.00     0.001 C 
HETATM   15  C10 UNL     1      28.270  60.845 -10.225  1.00  0.00     0.001 C 
HETATM   16  C11 UNL     1      29.094  59.592 -10.150  1.00  0.00     0.022 C 
HETATM   17  C12 UNL     1      28.820  58.631 -11.265  1.00  0.00     0.123 C 
HETATM   18  C13 UNL     1      30.073  58.450 -12.018  1.00  0.00     0.066 C 
HETATM   19  N3  UNL     1      31.067  58.319 -12.614  1.00  0.00    -0.197 NA
ENDBRANCH   3   4
TORSDOF 1
ENDMDL
