MODEL 1
REMARK VINA RESULT: -5.427788698      0.000      0.000
REMARK  3 active torsions:
REMARK  status: ('A' for Active; 'I' for Inactive)
REMARK    1  A    between atoms: C7_8  and  O1_9 
REMARK    2  A    between atoms: O1_9  and  C8_10 
REMARK    3  A    between atoms: C8_10  and  O2_11 
ROOT
HETATM    1  O1  UNL     1      28.373  54.287  -3.776  1.00  0.00    -0.317 OA
ENDROOT
BRANCH   1   2
HETATM    2  C7  UNL     1      29.346  53.856  -4.475  1.00  0.00     0.202 C 
HETATM    3  C4  UNL     1      28.868  53.394  -5.865  1.00  0.00     0.083 C 
HETATM    4  C3  UNL     1      29.879  54.145  -6.749  1.00  0.00     0.083 C 
HETATM    5  C5  UNL     1      29.524  52.032  -6.028  1.00  0.00     0.287 C 
HETATM    6  C2  UNL     1      31.017  53.814  -5.757  1.00  0.00     0.260 C 
HETATM    7  C1  UNL     1      32.342  54.153  -6.216  1.00  0.00     0.081 C 
HETATM    8  N1  UNL     1      30.791  52.434  -5.350  1.00  0.00     0.129 N 
HETATM    9  O3  UNL     1      30.498  54.622  -4.713  1.00  0.00    -0.313 OA
HETATM   10  C6  UNL     1      30.114  52.612  -4.036  1.00  0.00     0.345 C 
ENDBRANCH   1   2
BRANCH   1  11
HETATM   11  C8  UNL     1      28.295  54.913  -2.613  1.00  0.00     0.165 C 
HETATM   12  C9  UNL     1      26.967  55.598  -2.452  1.00  0.00     0.068 C 
HETATM   13  C10 UNL     1      26.961  56.705  -1.433  1.00  0.00     0.005 C 
HETATM   14  C11 UNL     1      27.594  56.396  -0.130  1.00  0.00     0.000 C 
HETATM   15  C12 UNL     1      27.438  54.992   0.355  1.00  0.00     0.000 C 
HETATM   16  C13 UNL     1      28.640  54.223  -0.205  1.00  0.00     0.005 C 
HETATM   17  C14 UNL     1      28.264  53.767  -1.564  1.00  0.00     0.068 C 
BRANCH  11  18
HETATM   18  O2  UNL     1      29.334  55.778  -2.293  1.00  0.00    -0.365 OA
ATOM     19  H2  UNL     1      30.143  55.679  -2.782  1.00  0.00     0.213 HD
ENDBRANCH  11  18
ENDBRANCH   1  11
TORSDOF 3
ENDMDL
MODEL 2
REMARK VINA RESULT: -5.408021296      1.456      2.744
REMARK  3 active torsions:
REMARK  status: ('A' for Active; 'I' for Inactive)
REMARK    1  A    between atoms: C7_8  and  O1_9 
REMARK    2  A    between atoms: O1_9  and  C8_10 
REMARK    3  A    between atoms: C8_10  and  O2_11 
ROOT
HETATM    1  O1  UNL     1      29.777  53.550  -2.736  1.00  0.00    -0.317 OA
ENDROOT
BRANCH   1   2
HETATM    2  C7  UNL     1      29.518  53.720  -3.972  1.00  0.00     0.202 C 
HETATM    3  C4  UNL     1      30.542  52.985  -4.857  1.00  0.00     0.083 C 
HETATM    4  C3  UNL     1      29.582  52.231  -5.794  1.00  0.00     0.083 C 
HETATM    5  C5  UNL     1      30.940  54.036  -5.881  1.00  0.00     0.287 C 
HETATM    6  C2  UNL     1      28.668  53.475  -5.884  1.00  0.00     0.260 C 
HETATM    7  C1  UNL     1      27.610  53.384  -6.860  1.00  0.00     0.081 C 
HETATM    8  N1  UNL     1      29.570  54.615  -5.989  1.00  0.00     0.129 N 
HETATM    9  O3  UNL     1      28.264  53.419  -4.526  1.00  0.00    -0.313 OA
HETATM   10  C6  UNL     1      29.593  55.115  -4.587  1.00  0.00     0.345 C 
ENDBRANCH   1   2
BRANCH   1  11
HETATM   11  C8  UNL     1      29.071  53.713  -1.629  1.00  0.00     0.165 C 
HETATM   12  C9  UNL     1      29.844  53.264  -0.421  1.00  0.00     0.068 C 
HETATM   13  C10 UNL     1      28.991  52.950   0.779  1.00  0.00     0.005 C 
HETATM   14  C11 UNL     1      27.950  53.947   1.118  1.00  0.00     0.000 C 
HETATM   15  C12 UNL     1      28.305  55.375   0.862  1.00  0.00     0.000 C 
HETATM   16  C13 UNL     1      27.855  55.664  -0.574  1.00  0.00     0.005 C 
HETATM   17  C14 UNL     1      28.968  55.255  -1.465  1.00  0.00     0.068 C 
BRANCH  11  18
HETATM   18  O2  UNL     1      27.788  53.180  -1.615  1.00  0.00    -0.365 OA
ATOM     19  H2  UNL     1      27.389  53.041  -0.764  1.00  0.00     0.213 HD
ENDBRANCH  11  18
ENDBRANCH   1  11
TORSDOF 3
ENDMDL
MODEL 3
REMARK VINA RESULT: -5.238750844      1.066      1.712
REMARK  3 active torsions:
REMARK  status: ('A' for Active; 'I' for Inactive)
REMARK    1  A    between atoms: C7_8  and  O1_9 
REMARK    2  A    between atoms: O1_9  and  C8_10 
REMARK    3  A    between atoms: C8_10  and  O2_11 
ROOT
HETATM    1  O1  UNL     1      28.634  55.322  -4.183  1.00  0.00    -0.317 OA
ENDROOT
BRANCH   1   2
HETATM    2  C7  UNL     1      28.946  54.304  -4.882  1.00  0.00     0.202 C 
HETATM    3  C4  UNL     1      30.099  54.629  -5.850  1.00  0.00     0.083 C 
HETATM    4  C3  UNL     1      31.037  53.448  -5.542  1.00  0.00     0.083 C 
HETATM    5  C5  UNL     1      29.610  54.075  -7.179  1.00  0.00     0.287 C 
HETATM    6  C2  UNL     1      29.830  52.486  -5.476  1.00  0.00     0.260 C 
HETATM    7  C1  UNL     1      30.171  51.087  -5.381  1.00  0.00     0.081 C 
HETATM    8  N1  UNL     1      28.955  52.882  -6.571  1.00  0.00     0.129 N 
HETATM    9  O3  UNL     1      29.282  53.070  -4.305  1.00  0.00    -0.313 OA
HETATM   10  C6  UNL     1      27.939  53.711  -5.865  1.00  0.00     0.345 C 
ENDBRANCH   1   2
BRANCH   1  11
HETATM   11  C8  UNL     1      28.470  55.518  -2.885  1.00  0.00     0.165 C 
HETATM   12  C9  UNL     1      27.080  56.000  -2.579  1.00  0.00     0.068 C 
HETATM   13  C10 UNL     1      26.945  56.702  -1.255  1.00  0.00     0.005 C 
HETATM   14  C11 UNL     1      27.574  56.031  -0.094  1.00  0.00     0.000 C 
HETATM   15  C12 UNL     1      27.541  54.538  -0.106  1.00  0.00     0.000 C 
HETATM   16  C13 UNL     1      28.823  54.100  -0.821  1.00  0.00     0.005 C 
HETATM   17  C14 UNL     1      28.524  54.090  -2.273  1.00  0.00     0.068 C 
BRANCH  11  18
HETATM   18  O2  UNL     1      29.415  56.310  -2.244  1.00  0.00    -0.365 OA
ATOM     19  H2  UNL     1      29.246  57.244  -2.215  1.00  0.00     0.213 HD
ENDBRANCH  11  18
ENDBRANCH   1  11
TORSDOF 3
ENDMDL
MODEL 4
REMARK VINA RESULT: -5.136823580      1.156      1.462
REMARK  3 active torsions:
REMARK  status: ('A' for Active; 'I' for Inactive)
REMARK    1  A    between atoms: C7_8  and  O1_9 
REMARK    2  A    between atoms: O1_9  and  C8_10 
REMARK    3  A    between atoms: C8_10  and  O2_11 
ROOT
HETATM    1  O1  UNL     1      28.598  53.368  -3.125  1.00  0.00    -0.317 OA
ENDROOT
BRANCH   1   2
HETATM    2  C7  UNL     1      29.378  53.288  -4.129  1.00  0.00     0.202 C 
HETATM    3  C4  UNL     1      28.644  53.658  -5.432  1.00  0.00     0.083 C 
HETATM    4  C3  UNL     1      29.641  54.677  -6.011  1.00  0.00     0.083 C 
HETATM    5  C5  UNL     1      29.024  52.534  -6.382  1.00  0.00     0.287 C 
HETATM    6  C2  UNL     1      30.827  53.789  -5.574  1.00  0.00     0.260 C 
HETATM    7  C1  UNL     1      32.116  54.211  -6.064  1.00  0.00     0.081 C 
HETATM    8  N1  UNL     1      30.421  52.421  -5.871  1.00  0.00     0.129 N 
HETATM    9  O3  UNL     1      30.602  53.972  -4.186  1.00  0.00    -0.313 OA
HETATM   10  C6  UNL     1      29.970  51.941  -4.536  1.00  0.00     0.345 C 
ENDBRANCH   1   2
BRANCH   1  11
HETATM   11  C8  UNL     1      28.763  53.767  -1.875  1.00  0.00     0.165 C 
HETATM   12  C9  UNL     1      27.442  53.931  -1.177  1.00  0.00     0.068 C 
HETATM   13  C10 UNL     1      27.487  54.822   0.034  1.00  0.00     0.005 C 
HETATM   14  C11 UNL     1      28.596  54.574   0.985  1.00  0.00     0.000 C 
HETATM   15  C12 UNL     1      29.015  53.150   1.143  1.00  0.00     0.000 C 
HETATM   16  C13 UNL     1      30.107  52.919   0.093  1.00  0.00     0.005 C 
HETATM   17  C14 UNL     1      29.421  52.549  -1.168  1.00  0.00     0.068 C 
BRANCH  11  18
HETATM   18  O2  UNL     1      29.566  54.883  -1.671  1.00  0.00    -0.365 OA
ATOM     19  H2  UNL     1      30.391  54.743  -1.221  1.00  0.00     0.213 HD
ENDBRANCH  11  18
ENDBRANCH   1  11
TORSDOF 3
ENDMDL
MODEL 5
REMARK VINA RESULT: -5.113101363      1.393      2.472
REMARK  3 active torsions:
REMARK  status: ('A' for Active; 'I' for Inactive)
REMARK    1  A    between atoms: C7_8  and  O1_9 
REMARK    2  A    between atoms: O1_9  and  C8_10 
REMARK    3  A    between atoms: C8_10  and  O2_11 
ROOT
HETATM    1  O1  UNL     1      28.405  55.527  -4.085  1.00  0.00    -0.317 OA
ENDROOT
BRANCH   1   2
HETATM    2  C7  UNL     1      28.767  54.493  -4.734  1.00  0.00     0.202 C 
HETATM    3  C4  UNL     1      29.953  54.811  -5.666  1.00  0.00     0.083 C 
HETATM    4  C3  UNL     1      30.902  53.664  -5.277  1.00  0.00     0.083 C 
HETATM    5  C5  UNL     1      29.531  54.201  -6.993  1.00  0.00     0.287 C 
HETATM    6  C2  UNL     1      29.714  52.676  -5.227  1.00  0.00     0.260 C 
HETATM    7  C1  UNL     1      30.081  51.290  -5.069  1.00  0.00     0.081 C 
HETATM    8  N1  UNL     1      28.877  53.014  -6.370  1.00  0.00     0.129 N 
HETATM    9  O3  UNL     1      29.105  53.287  -4.101  1.00  0.00    -0.313 OA
HETATM   10  C6  UNL     1      27.815  53.843  -5.736  1.00  0.00     0.345 C 
ENDBRANCH   1   2
BRANCH   1  11
HETATM   11  C8  UNL     1      27.827  55.706  -2.909  1.00  0.00     0.165 C 
HETATM   12  C9  UNL     1      28.848  55.816  -1.812  1.00  0.00     0.068 C 
HETATM   13  C10 UNL     1      28.311  55.531  -0.435  1.00  0.00     0.005 C 
HETATM   14  C11 UNL     1      27.035  56.195  -0.082  1.00  0.00     0.000 C 
HETATM   15  C12 UNL     1      26.832  57.562  -0.647  1.00  0.00     0.000 C 
HETATM   16  C13 UNL     1      26.139  57.355  -1.998  1.00  0.00     0.005 C 
HETATM   17  C14 UNL     1      27.208  57.129  -3.000  1.00  0.00     0.068 C 
BRANCH  11  18
HETATM   18  O2  UNL     1      26.825  54.810  -2.557  1.00  0.00    -0.365 OA
ATOM     19  H2  UNL     1      26.391  54.956  -1.724  1.00  0.00     0.213 HD
ENDBRANCH  11  18
ENDBRANCH   1  11
TORSDOF 3
ENDMDL
