MODEL 1
REMARK VINA RESULT: -7.846852939      0.000      0.000
REMARK  10 active torsions:
REMARK  status: ('A' for Active; 'I' for Inactive)
REMARK    1  A    between atoms: C2_2  and  O1_5 
REMARK    2  A    between atoms: O1_5  and  C5_6 
REMARK       I    between atoms: C5_6  and  N1_8 
REMARK    3  A    between atoms: N2_11  and  C8_12 
REMARK    4  A    between atoms: C8_12  and  N3_13 
REMARK    5  A    between atoms: C8_12  and  C22_42 
REMARK    6  A    between atoms: N3_13  and  C9_15 
REMARK    7  A    between atoms: C9_15  and  C10_17 
REMARK       I    between atoms: C10_17  and  N4_19 
REMARK       I    between atoms: N5_22  and  C13_23 
REMARK       I    between atoms: C13_23  and  N6_25 
REMARK    8  A    between atoms: N6_25  and  C14_27 
REMARK    9  A    between atoms: C17_30  and  S2_31 
REMARK   10  A    between atoms: S2_31  and  N7_32 
ROOT
HETATM    1  C10 UNL     1      71.909  56.655  63.316  1.00  0.00     0.281 C 
HETATM    2  O3  UNL     1      70.724  56.190  63.078  1.00  0.00    -0.265 OA
HETATM    3  N4  UNL     1      72.694  55.891  64.198  1.00  0.00    -0.343 N 
HETATM    4  C11 UNL     1      72.094  54.644  64.721  1.00  0.00     0.146 C 
HETATM    5  C12 UNL     1      72.162  54.697  66.235  1.00  0.00     0.147 C 
HETATM    6  N5  UNL     1      73.565  54.834  66.655  1.00  0.00    -0.331 N 
HETATM    7  C13 UNL     1      73.881  54.622  68.028  1.00  0.00     0.323 C 
HETATM    8  O4  UNL     1      72.890  54.338  68.801  1.00  0.00    -0.247 OA
HETATM    9  N6  UNL     1      75.165  54.703  68.560  1.00  0.00    -0.307 N 
ATOM     10  H6  UNL     1      75.902  54.933  67.895  1.00  0.00     0.170 HD
HETATM   11  C20 UNL     1      74.543  55.167  65.685  1.00  0.00     0.147 C 
HETATM   12  C21 UNL     1      74.006  56.174  64.674  1.00  0.00     0.146 C 
ENDROOT
BRANCH   1  13
HETATM   13  C9  UNL     1      72.305  57.898  62.660  1.00  0.00     0.166 C 
HETATM   14  S1  UNL     1      72.436  57.934  61.047  1.00  0.00    -0.055 SA
BRANCH  13  15
HETATM   15  N3  UNL     1      72.586  59.070  63.406  1.00  0.00    -0.355 N 
ATOM     16  H3  UNL     1      73.485  59.121  63.884  1.00  0.00     0.162 HD
BRANCH  15  17
HETATM   17  C8  UNL     1      71.685  60.208  63.541  1.00  0.00     0.187 C 
BRANCH  17  18
HETATM   18  N2  UNL     1      70.797  60.106  64.600  1.00  0.00    -0.389 N 
HETATM   19  C7  UNL     1      70.948  59.264  65.696  1.00  0.00     0.139 C 
HETATM   20  C6  UNL     1      70.735  60.082  66.982  1.00  0.00     0.147 C 
HETATM   21  N1  UNL     1      69.635  61.008  66.848  1.00  0.00    -0.325 N 
HETATM   22  C5  UNL     1      69.000  61.445  68.040  1.00  0.00     0.363 C 
HETATM   23  C27 UNL     1      69.146  61.516  65.593  1.00  0.00     0.147 C 
HETATM   24  O2  UNL     1      69.377  61.054  69.195  1.00  0.00    -0.238 OA
HETATM   25  C26 UNL     1      69.455  60.547  64.447  1.00  0.00     0.139 C 
BRANCH  22  26
HETATM   26  O1  UNL     1      67.919  62.334  68.054  1.00  0.00    -0.294 OA
BRANCH  26  27
HETATM   27  C2  UNL     1      66.603  61.886  68.354  1.00  0.00     0.061 C 
HETATM   28  C1  UNL     1      66.445  60.405  68.236  1.00  0.00     0.046 C 
HETATM   29  C3  UNL     1      66.206  62.334  69.765  1.00  0.00     0.046 C 
HETATM   30  C4  UNL     1      65.675  62.582  67.378  1.00  0.00     0.046 C 
ENDBRANCH  26  27
ENDBRANCH  22  26
ENDBRANCH  17  18
BRANCH  17  31
HETATM   31  C22 UNL     1      72.496  61.480  63.570  1.00  0.00    -0.013 C 
HETATM   32  C23 UNL     1      73.893  61.190  62.951  1.00  0.00     0.018 C 
HETATM   33  C24 UNL     1      72.802  62.028  64.923  1.00  0.00     0.018 C 
HETATM   34  C25 UNL     1      71.891  62.539  62.714  1.00  0.00     0.018 C 
ENDBRANCH  17  31
ENDBRANCH  15  17
ENDBRANCH  13  15
ENDBRANCH   1  13
BRANCH   9  35
HETATM   35  C14 UNL     1      75.586  54.513  69.888  1.00  0.00     0.060 A 
HETATM   36  C15 UNL     1      75.833  55.522  70.787  1.00  0.00     0.033 A 
HETATM   37  C16 UNL     1      76.242  55.247  72.094  1.00  0.00     0.027 A 
HETATM   38  C17 UNL     1      76.418  53.971  72.556  1.00  0.00     0.081 A 
HETATM   39  C18 UNL     1      76.171  52.956  71.665  1.00  0.00     0.054 A 
HETATM   40  C19 UNL     1      75.771  53.208  70.379  1.00  0.00     0.074 A 
HETATM   41  N8  UNL     1      75.519  52.133  69.454  1.00  0.00    -0.100 NA
BRANCH  38  42
HETATM   42  S2  UNL     1      76.929  53.657  74.197  1.00  0.00     0.256 S 
HETATM   43  O5  UNL     1      78.261  54.308  74.419  1.00  0.00    -0.201 OA
HETATM   44  O6  UNL     1      75.899  54.167  75.167  1.00  0.00    -0.201 OA
BRANCH  42  45
HETATM   45  N7  UNL     1      77.104  51.951  74.386  1.00  0.00    -0.324 N 
ATOM     46  H72 UNL     1      76.468  51.349  74.909  1.00  0.00     0.169 HD
ATOM     47  H71 UNL     1      77.946  51.663  73.888  1.00  0.00     0.169 HD
ENDBRANCH  42  45
ENDBRANCH  38  42
ENDBRANCH   9  35
TORSDOF 10
ENDMDL
MODEL 2
REMARK VINA RESULT: -7.699214691      0.552      1.054
REMARK  10 active torsions:
REMARK  status: ('A' for Active; 'I' for Inactive)
REMARK    1  A    between atoms: C2_2  and  O1_5 
REMARK    2  A    between atoms: O1_5  and  C5_6 
REMARK       I    between atoms: C5_6  and  N1_8 
REMARK    3  A    between atoms: N2_11  and  C8_12 
REMARK    4  A    between atoms: C8_12  and  N3_13 
REMARK    5  A    between atoms: C8_12  and  C22_42 
REMARK    6  A    between atoms: N3_13  and  C9_15 
REMARK    7  A    between atoms: C9_15  and  C10_17 
REMARK       I    between atoms: C10_17  and  N4_19 
REMARK       I    between atoms: N5_22  and  C13_23 
REMARK       I    between atoms: C13_23  and  N6_25 
REMARK    8  A    between atoms: N6_25  and  C14_27 
REMARK    9  A    between atoms: C17_30  and  S2_31 
REMARK   10  A    between atoms: S2_31  and  N7_32 
ROOT
HETATM    1  C10 UNL     1      72.079  56.375  63.287  1.00  0.00     0.281 C 
HETATM    2  O3  UNL     1      70.845  56.045  63.066  1.00  0.00    -0.265 OA
HETATM    3  N4  UNL     1      72.776  55.549  64.184  1.00  0.00    -0.343 N 
HETATM    4  C11 UNL     1      72.040  54.393  64.743  1.00  0.00     0.146 C 
HETATM    5  C12 UNL     1      72.125  54.477  66.254  1.00  0.00     0.147 C 
HETATM    6  N5  UNL     1      73.538  54.461  66.664  1.00  0.00    -0.331 N 
HETATM    7  C13 UNL     1      73.839  54.249  68.041  1.00  0.00     0.323 C 
HETATM    8  O4  UNL     1      72.827  54.102  68.826  1.00  0.00    -0.247 OA
HETATM    9  N6  UNL     1      75.127  54.194  68.565  1.00  0.00    -0.307 N 
ATOM     10  H6  UNL     1      75.881  54.319  67.890  1.00  0.00     0.170 HD
HETATM   11  C20 UNL     1      74.540  54.652  65.681  1.00  0.00     0.147 C 
HETATM   12  C21 UNL     1      74.117  55.689  64.646  1.00  0.00     0.146 C 
ENDROOT
BRANCH   1  13
HETATM   13  C9  UNL     1      72.611  57.547  62.595  1.00  0.00     0.166 C 
HETATM   14  S1  UNL     1      72.933  57.453  61.012  1.00  0.00    -0.055 SA
BRANCH  13  15
HETATM   15  N3  UNL     1      72.861  58.760  63.284  1.00  0.00    -0.355 N 
ATOM     16  H3  UNL     1      73.746  58.845  63.785  1.00  0.00     0.162 HD
BRANCH  15  17
HETATM   17  C8  UNL     1      71.948  59.895  63.331  1.00  0.00     0.187 C 
BRANCH  17  18
HETATM   18  N2  UNL     1      71.038  59.849  64.375  1.00  0.00    -0.389 N 
HETATM   19  C7  UNL     1      71.177  59.082  65.528  1.00  0.00     0.139 C 
HETATM   20  C6  UNL     1      70.925  59.979  66.752  1.00  0.00     0.147 C 
HETATM   21  N1  UNL     1      69.817  60.878  66.536  1.00  0.00    -0.325 N 
HETATM   22  C5  UNL     1      69.150  61.382  67.683  1.00  0.00     0.363 C 
HETATM   23  C27 UNL     1      69.347  61.296  65.240  1.00  0.00     0.147 C 
HETATM   24  O2  UNL     1      69.506  61.072  68.869  1.00  0.00    -0.238 OA
HETATM   25  C26 UNL     1      69.694  60.260  64.166  1.00  0.00     0.139 C 
BRANCH  22  26
HETATM   26  O1  UNL     1      68.057  62.254  67.617  1.00  0.00    -0.294 OA
BRANCH  26  27
HETATM   27  C2  UNL     1      66.730  61.788  67.834  1.00  0.00     0.061 C 
HETATM   28  C1  UNL     1      66.623  60.298  67.835  1.00  0.00     0.046 C 
HETATM   29  C3  UNL     1      66.192  62.343  69.158  1.00  0.00     0.046 C 
HETATM   30  C4  UNL     1      65.880  62.365  66.719  1.00  0.00     0.046 C 
ENDBRANCH  26  27
ENDBRANCH  22  26
ENDBRANCH  17  18
BRANCH  17  31
HETATM   31  C22 UNL     1      72.747  61.175  63.299  1.00  0.00    -0.013 C 
HETATM   32  C23 UNL     1      74.192  60.844  62.828  1.00  0.00     0.018 C 
HETATM   33  C24 UNL     1      72.938  61.858  64.611  1.00  0.00     0.018 C 
HETATM   34  C25 UNL     1      72.210  62.135  62.295  1.00  0.00     0.018 C 
ENDBRANCH  17  31
ENDBRANCH  15  17
ENDBRANCH  13  15
ENDBRANCH   1  13
BRANCH   9  35
HETATM   35  C14 UNL     1      75.533  53.990  69.895  1.00  0.00     0.060 A 
HETATM   36  C15 UNL     1      75.596  52.768  70.519  1.00  0.00     0.033 A 
HETATM   37  C16 UNL     1      76.020  52.650  71.845  1.00  0.00     0.027 A 
HETATM   38  C17 UNL     1      76.396  53.731  72.595  1.00  0.00     0.081 A 
HETATM   39  C18 UNL     1      76.338  54.956  71.979  1.00  0.00     0.054 A 
HETATM   40  C19 UNL     1      75.924  55.089  70.679  1.00  0.00     0.074 A 
HETATM   41  N8  UNL     1      75.865  56.382  70.047  1.00  0.00    -0.100 NA
BRANCH  38  42
HETATM   42  S2  UNL     1      76.923  53.552  74.251  1.00  0.00     0.256 S 
HETATM   43  O5  UNL     1      78.240  54.250  74.415  1.00  0.00    -0.201 OA
HETATM   44  O6  UNL     1      75.886  54.106  75.188  1.00  0.00    -0.201 OA
BRANCH  42  45
HETATM   45  N7  UNL     1      77.143  51.869  74.564  1.00  0.00    -0.324 N 
ATOM     46  H72 UNL     1      77.425  51.175  73.872  1.00  0.00     0.169 HD
ATOM     47  H71 UNL     1      76.942  51.702  75.550  1.00  0.00     0.169 HD
ENDBRANCH  42  45
ENDBRANCH  38  42
ENDBRANCH   9  35
TORSDOF 10
ENDMDL
MODEL 3
REMARK VINA RESULT: -7.564629645      3.059      4.691
REMARK  10 active torsions:
REMARK  status: ('A' for Active; 'I' for Inactive)
REMARK    1  A    between atoms: C2_2  and  O1_5 
REMARK    2  A    between atoms: O1_5  and  C5_6 
REMARK       I    between atoms: C5_6  and  N1_8 
REMARK    3  A    between atoms: N2_11  and  C8_12 
REMARK    4  A    between atoms: C8_12  and  N3_13 
REMARK    5  A    between atoms: C8_12  and  C22_42 
REMARK    6  A    between atoms: N3_13  and  C9_15 
REMARK    7  A    between atoms: C9_15  and  C10_17 
REMARK       I    between atoms: C10_17  and  N4_19 
REMARK       I    between atoms: N5_22  and  C13_23 
REMARK       I    between atoms: C13_23  and  N6_25 
REMARK    8  A    between atoms: N6_25  and  C14_27 
REMARK    9  A    between atoms: C17_30  and  S2_31 
REMARK   10  A    between atoms: S2_31  and  N7_32 
ROOT
HETATM    1  C10 UNL     1      71.634  53.003  62.816  1.00  0.00     0.281 C 
HETATM    2  O3  UNL     1      70.781  52.035  62.700  1.00  0.00    -0.265 OA
HETATM    3  N4  UNL     1      72.624  52.825  63.798  1.00  0.00    -0.343 N 
HETATM    4  C11 UNL     1      72.596  51.554  64.555  1.00  0.00     0.146 C 
HETATM    5  C12 UNL     1      72.554  51.896  66.032  1.00  0.00     0.147 C 
HETATM    6  N5  UNL     1      73.735  52.701  66.379  1.00  0.00    -0.331 N 
HETATM    7  C13 UNL     1      74.039  52.892  67.758  1.00  0.00     0.323 C 
HETATM    8  O4  UNL     1      73.229  52.346  68.598  1.00  0.00    -0.247 OA
HETATM    9  N6  UNL     1      75.131  53.615  68.229  1.00  0.00    -0.307 N 
ATOM     10  H6  UNL     1      75.731  54.022  67.512  1.00  0.00     0.170 HD
HETATM   11  C20 UNL     1      74.523  53.250  65.337  1.00  0.00     0.147 C 
HETATM   12  C21 UNL     1      73.657  53.730  64.176  1.00  0.00     0.146 C 
ENDROOT
BRANCH   1  13
HETATM   13  C9  UNL     1      71.487  54.159  61.934  1.00  0.00     0.166 C 
HETATM   14  S1  UNL     1      72.291  54.190  60.531  1.00  0.00    -0.055 SA
BRANCH  13  15
HETATM   15  N3  UNL     1      70.663  55.257  62.287  1.00  0.00    -0.355 N 
ATOM     16  H3  UNL     1      70.000  55.594  61.589  1.00  0.00     0.162 HD
BRANCH  15  17
HETATM   17  C8  UNL     1      70.692  55.941  63.574  1.00  0.00     0.187 C 
BRANCH  17  18
HETATM   18  N2  UNL     1      71.415  57.123  63.572  1.00  0.00    -0.389 N 
HETATM   19  C7  UNL     1      71.234  58.174  62.679  1.00  0.00     0.139 C 
HETATM   20  C6  UNL     1      71.120  59.486  63.475  1.00  0.00     0.147 C 
HETATM   21  N1  UNL     1      72.069  59.534  64.562  1.00  0.00    -0.325 N 
HETATM   22  C5  UNL     1      72.440  60.814  65.049  1.00  0.00     0.363 C 
HETATM   23  C27 UNL     1      72.656  58.375  65.183  1.00  0.00     0.147 C 
HETATM   24  O2  UNL     1      71.960  61.893  64.565  1.00  0.00    -0.238 OA
HETATM   25  C26 UNL     1      72.679  57.184  64.219  1.00  0.00     0.139 C 
BRANCH  22  26
HETATM   26  O1  UNL     1      73.355  61.005  66.091  1.00  0.00    -0.294 OA
BRANCH  26  27
HETATM   27  C2  UNL     1      74.730  61.251  65.827  1.00  0.00     0.061 C 
HETATM   28  C1  UNL     1      75.172  60.744  64.493  1.00  0.00     0.046 C 
HETATM   29  C3  UNL     1      75.023  62.752  65.929  1.00  0.00     0.046 C 
HETATM   30  C4  UNL     1      75.513  60.559  66.926  1.00  0.00     0.046 C 
ENDBRANCH  26  27
ENDBRANCH  22  26
ENDBRANCH  17  18
BRANCH  17  31
HETATM   31  C22 UNL     1      69.279  56.113  64.075  1.00  0.00    -0.013 C 
HETATM   32  C23 UNL     1      68.751  54.730  64.551  1.00  0.00     0.018 C 
HETATM   33  C24 UNL     1      68.277  56.558  63.062  1.00  0.00     0.018 C 
HETATM   34  C25 UNL     1      69.222  56.997  65.272  1.00  0.00     0.018 C 
ENDBRANCH  17  31
ENDBRANCH  15  17
ENDBRANCH  13  15
ENDBRANCH   1  13
BRANCH   9  35
HETATM   35  C14 UNL     1      75.522  53.863  69.557  1.00  0.00     0.060 A 
HETATM   36  C15 UNL     1      75.746  52.894  70.504  1.00  0.00     0.033 A 
HETATM   37  C16 UNL     1      76.142  53.224  71.802  1.00  0.00     0.027 A 
HETATM   38  C17 UNL     1      76.330  54.518  72.206  1.00  0.00     0.081 A 
HETATM   39  C18 UNL     1      76.110  55.493  71.266  1.00  0.00     0.054 A 
HETATM   40  C19 UNL     1      75.720  55.186  69.988  1.00  0.00     0.074 A 
HETATM   41  N8  UNL     1      75.489  56.221  69.013  1.00  0.00    -0.100 NA
BRANCH  38  42
HETATM   42  S2  UNL     1      76.827  54.901  73.837  1.00  0.00     0.256 S 
HETATM   43  O5  UNL     1      78.230  54.413  74.041  1.00  0.00    -0.201 OA
HETATM   44  O6  UNL     1      76.718  56.381  74.078  1.00  0.00    -0.201 OA
BRANCH  42  45
HETATM   45  N7  UNL     1      75.782  54.062  74.925  1.00  0.00    -0.324 N 
ATOM     46  H72 UNL     1      74.925  53.576  74.660  1.00  0.00     0.169 HD
ATOM     47  H71 UNL     1      76.174  54.140  75.863  1.00  0.00     0.169 HD
ENDBRANCH  42  45
ENDBRANCH  38  42
ENDBRANCH   9  35
TORSDOF 10
ENDMDL
MODEL 4
REMARK VINA RESULT: -7.441661452      3.802      5.117
REMARK  10 active torsions:
REMARK  status: ('A' for Active; 'I' for Inactive)
REMARK    1  A    between atoms: C2_2  and  O1_5 
REMARK    2  A    between atoms: O1_5  and  C5_6 
REMARK       I    between atoms: C5_6  and  N1_8 
REMARK    3  A    between atoms: N2_11  and  C8_12 
REMARK    4  A    between atoms: C8_12  and  N3_13 
REMARK    5  A    between atoms: C8_12  and  C22_42 
REMARK    6  A    between atoms: N3_13  and  C9_15 
REMARK    7  A    between atoms: C9_15  and  C10_17 
REMARK       I    between atoms: C10_17  and  N4_19 
REMARK       I    between atoms: N5_22  and  C13_23 
REMARK       I    between atoms: C13_23  and  N6_25 
REMARK    8  A    between atoms: N6_25  and  C14_27 
REMARK    9  A    between atoms: C17_30  and  S2_31 
REMARK   10  A    between atoms: S2_31  and  N7_32 
ROOT
HETATM    1  C10 UNL     1      72.151  52.451  62.647  1.00  0.00     0.281 C 
HETATM    2  O3  UNL     1      71.087  51.716  62.576  1.00  0.00    -0.265 OA
HETATM    3  N4  UNL     1      72.985  52.207  63.752  1.00  0.00    -0.343 N 
HETATM    4  C11 UNL     1      72.571  51.131  64.679  1.00  0.00     0.146 C 
HETATM    5  C12 UNL     1      72.510  51.722  66.075  1.00  0.00     0.147 C 
HETATM    6  N5  UNL     1      73.830  52.261  66.434  1.00  0.00    -0.331 N 
HETATM    7  C13 UNL     1      74.071  52.606  67.796  1.00  0.00     0.323 C 
HETATM    8  O4  UNL     1      73.086  52.427  68.608  1.00  0.00    -0.247 OA
HETATM    9  N6  UNL     1      75.274  53.110  68.279  1.00  0.00    -0.307 N 
ATOM     10  H6  UNL     1      76.011  53.228  67.583  1.00  0.00     0.170 HD
HETATM   11  C20 UNL     1      74.809  52.413  65.421  1.00  0.00     0.147 C 
HETATM   12  C21 UNL     1      74.187  52.883  64.110  1.00  0.00     0.146 C 
ENDROOT
BRANCH   1  13
HETATM   13  C9  UNL     1      72.376  53.438  61.593  1.00  0.00     0.166 C 
HETATM   14  S1  UNL     1      73.273  53.033  60.309  1.00  0.00    -0.055 SA
BRANCH  13  15
HETATM   15  N3  UNL     1      71.833  54.744  61.677  1.00  0.00    -0.355 N 
ATOM     16  H3  UNL     1      71.353  55.110  60.855  1.00  0.00     0.162 HD
BRANCH  15  17
HETATM   17  C8  UNL     1      71.911  55.604  62.852  1.00  0.00     0.187 C 
BRANCH  17  18
HETATM   18  N2  UNL     1      73.014  56.442  62.870  1.00  0.00    -0.389 N 
HETATM   19  C7  UNL     1      73.539  57.102  61.764  1.00  0.00     0.139 C 
HETATM   20  C6  UNL     1      73.737  58.586  62.120  1.00  0.00     0.147 C 
HETATM   21  N1  UNL     1      74.263  58.748  63.455  1.00  0.00    -0.325 N 
HETATM   22  C5  UNL     1      74.959  59.952  63.741  1.00  0.00     0.363 C 
HETATM   23  C27 UNL     1      74.127  57.776  64.508  1.00  0.00     0.147 C 
HETATM   24  O2  UNL     1      75.117  60.871  62.870  1.00  0.00    -0.238 OA
HETATM   25  C26 UNL     1      73.948  56.365  63.938  1.00  0.00     0.139 C 
BRANCH  22  26
HETATM   26  O1  UNL     1      75.526  60.234  64.989  1.00  0.00    -0.294 OA
BRANCH  26  27
HETATM   27  C2  UNL     1      74.850  61.050  65.938  1.00  0.00     0.061 C 
HETATM   28  C1  UNL     1      75.181  62.501  65.806  1.00  0.00     0.046 C 
HETATM   29  C3  UNL     1      73.335  60.854  65.811  1.00  0.00     0.046 C 
HETATM   30  C4  UNL     1      75.260  60.551  67.310  1.00  0.00     0.046 C 
ENDBRANCH  26  27
ENDBRANCH  22  26
ENDBRANCH  17  18
BRANCH  17  31
HETATM   31  C22 UNL     1      70.604  56.344  63.010  1.00  0.00    -0.013 C 
HETATM   32  C23 UNL     1      70.166  56.877  61.617  1.00  0.00     0.018 C 
HETATM   33  C24 UNL     1      70.644  57.561  63.872  1.00  0.00     0.018 C 
HETATM   34  C25 UNL     1      69.509  55.438  63.455  1.00  0.00     0.018 C 
ENDBRANCH  17  31
ENDBRANCH  15  17
ENDBRANCH  13  15
ENDBRANCH   1  13
BRANCH   9  35
HETATM   35  C14 UNL     1      75.617  53.479  69.591  1.00  0.00     0.060 A 
HETATM   36  C15 UNL     1      75.803  52.601  70.631  1.00  0.00     0.033 A 
HETATM   37  C16 UNL     1      76.151  53.049  71.907  1.00  0.00     0.027 A 
HETATM   38  C17 UNL     1      76.328  54.375  72.198  1.00  0.00     0.081 A 
HETATM   39  C18 UNL     1      76.145  55.259  71.164  1.00  0.00     0.054 A 
HETATM   40  C19 UNL     1      75.802  54.836  69.906  1.00  0.00     0.074 A 
HETATM   41  N8  UNL     1      75.611  55.777  68.832  1.00  0.00    -0.100 NA
BRANCH  38  42
HETATM   42  S2  UNL     1      76.765  54.906  73.804  1.00  0.00     0.256 S 
HETATM   43  O5  UNL     1      78.179  54.493  74.080  1.00  0.00    -0.201 OA
HETATM   44  O6  UNL     1      76.593  56.395  73.922  1.00  0.00    -0.201 OA
BRANCH  42  45
HETATM   45  N7  UNL     1      75.724  54.115  74.930  1.00  0.00    -0.324 N 
ATOM     46  H72 UNL     1      74.714  54.245  74.989  1.00  0.00     0.169 HD
ATOM     47  H71 UNL     1      76.296  53.505  75.514  1.00  0.00     0.169 HD
ENDBRANCH  42  45
ENDBRANCH  38  42
ENDBRANCH   9  35
TORSDOF 10
ENDMDL
MODEL 5
REMARK VINA RESULT: -7.435735987      1.649      2.395
REMARK  10 active torsions:
REMARK  status: ('A' for Active; 'I' for Inactive)
REMARK    1  A    between atoms: C2_2  and  O1_5 
REMARK    2  A    between atoms: O1_5  and  C5_6 
REMARK       I    between atoms: C5_6  and  N1_8 
REMARK    3  A    between atoms: N2_11  and  C8_12 
REMARK    4  A    between atoms: C8_12  and  N3_13 
REMARK    5  A    between atoms: C8_12  and  C22_42 
REMARK    6  A    between atoms: N3_13  and  C9_15 
REMARK    7  A    between atoms: C9_15  and  C10_17 
REMARK       I    between atoms: C10_17  and  N4_19 
REMARK       I    between atoms: N5_22  and  C13_23 
REMARK       I    between atoms: C13_23  and  N6_25 
REMARK    8  A    between atoms: N6_25  and  C14_27 
REMARK    9  A    between atoms: C17_30  and  S2_31 
REMARK   10  A    between atoms: S2_31  and  N7_32 
ROOT
HETATM    1  C10 UNL     1      71.848  56.857  63.468  1.00  0.00     0.281 C 
HETATM    2  O3  UNL     1      70.685  56.349  63.206  1.00  0.00    -0.265 OA
HETATM    3  N4  UNL     1      72.666  56.093  64.319  1.00  0.00    -0.343 N 
HETATM    4  C11 UNL     1      72.123  54.798  64.785  1.00  0.00     0.146 C 
HETATM    5  C12 UNL     1      72.187  54.789  66.301  1.00  0.00     0.147 C 
HETATM    6  N5  UNL     1      73.582  54.973  66.731  1.00  0.00    -0.331 N 
HETATM    7  C13 UNL     1      73.906  54.716  68.094  1.00  0.00     0.323 C 
HETATM    8  O4  UNL     1      72.928  54.354  68.851  1.00  0.00    -0.247 OA
HETATM    9  N6  UNL     1      75.184  54.833  68.634  1.00  0.00    -0.307 N 
ATOM     10  H6  UNL     1      75.911  55.125  67.982  1.00  0.00     0.170 HD
HETATM   11  C20 UNL     1      74.544  55.391  65.779  1.00  0.00     0.147 C 
HETATM   12  C21 UNL     1      73.963  56.416  64.810  1.00  0.00     0.146 C 
ENDROOT
BRANCH   1  13
HETATM   13  C9  UNL     1      72.187  58.145  62.867  1.00  0.00     0.166 C 
HETATM   14  S1  UNL     1      71.979  58.354  61.276  1.00  0.00    -0.055 SA
BRANCH  13  15
HETATM   15  N3  UNL     1      72.703  59.210  63.646  1.00  0.00    -0.355 N 
ATOM     16  H3  UNL     1      73.679  59.153  63.937  1.00  0.00     0.162 HD
BRANCH  15  17
HETATM   17  C8  UNL     1      71.942  60.382  64.064  1.00  0.00     0.187 C 
BRANCH  17  18
HETATM   18  N2  UNL     1      71.324  60.247  65.296  1.00  0.00    -0.389 N 
HETATM   19  C7  UNL     1      70.456  61.175  65.864  1.00  0.00     0.139 C 
HETATM   20  C6  UNL     1      69.189  60.441  66.339  1.00  0.00     0.147 C 
HETATM   21  N1  UNL     1      69.507  59.178  66.962  1.00  0.00    -0.325 N 
HETATM   22  C5  UNL     1      68.560  58.642  67.874  1.00  0.00     0.363 C 
HETATM   23  C27 UNL     1      70.713  58.429  66.719  1.00  0.00     0.147 C 
HETATM   24  O2  UNL     1      67.461  59.234  68.140  1.00  0.00    -0.238 OA
HETATM   25  C26 UNL     1      71.851  59.348  66.262  1.00  0.00     0.139 C 
BRANCH  22  26
HETATM   26  O1  UNL     1      68.745  57.433  68.553  1.00  0.00    -0.294 OA
BRANCH  26  27
HETATM   27  C2  UNL     1      68.018  56.266  68.190  1.00  0.00     0.061 C 
HETATM   28  C1  UNL     1      66.843  56.007  69.076  1.00  0.00     0.046 C 
HETATM   29  C3  UNL     1      67.550  56.372  66.735  1.00  0.00     0.046 C 
HETATM   30  C4  UNL     1      68.990  55.105  68.273  1.00  0.00     0.046 C 
ENDBRANCH  26  27
ENDBRANCH  22  26
ENDBRANCH  17  18
BRANCH  17  31
HETATM   31  C22 UNL     1      72.826  61.602  63.975  1.00  0.00    -0.013 C 
HETATM   32  C23 UNL     1      74.120  61.220  63.202  1.00  0.00     0.018 C 
HETATM   33  C24 UNL     1      73.322  62.144  65.274  1.00  0.00     0.018 C 
HETATM   34  C25 UNL     1      72.189  62.687  63.178  1.00  0.00     0.018 C 
ENDBRANCH  17  31
ENDBRANCH  15  17
ENDBRANCH  13  15
ENDBRANCH   1  13
BRANCH   9  35
HETATM   35  C14 UNL     1      75.611  54.605  69.954  1.00  0.00     0.060 A 
HETATM   36  C15 UNL     1      75.842  55.587  70.886  1.00  0.00     0.033 A 
HETATM   37  C16 UNL     1      76.258  55.276  72.183  1.00  0.00     0.027 A 
HETATM   38  C17 UNL     1      76.460  53.988  72.600  1.00  0.00     0.081 A 
HETATM   39  C18 UNL     1      76.231  53.000  71.675  1.00  0.00     0.054 A 
HETATM   40  C19 UNL     1      75.823  53.289  70.399  1.00  0.00     0.074 A 
HETATM   41  N8  UNL     1      75.590  52.241  69.438  1.00  0.00    -0.100 NA
BRANCH  38  42
HETATM   42  S2  UNL     1      76.981  53.628  74.228  1.00  0.00     0.256 S 
HETATM   43  O5  UNL     1      78.340  54.224  74.442  1.00  0.00    -0.201 OA
HETATM   44  O6  UNL     1      75.984  54.159  75.220  1.00  0.00    -0.201 OA
BRANCH  42  45
HETATM   45  N7  UNL     1      77.095  51.913  74.387  1.00  0.00    -0.324 N 
ATOM     46  H72 UNL     1      77.741  51.317  73.870  1.00  0.00     0.169 HD
ATOM     47  H71 UNL     1      76.409  51.613  75.079  1.00  0.00     0.169 HD
ENDBRANCH  42  45
ENDBRANCH  38  42
ENDBRANCH   9  35
TORSDOF 10
ENDMDL
