MODEL 1
REMARK VINA RESULT: -7.342429756      0.000      0.000
REMARK  10 active torsions:
REMARK  status: ('A' for Active; 'I' for Inactive)
REMARK    1  A    between atoms: C4_4  and  O1_5 
REMARK    2  A    between atoms: C12_14  and  O2_15 
REMARK    3  A    between atoms: C17_21  and  C18_22 
REMARK       I    between atoms: C18_22  and  N1_24 
REMARK    4  A    between atoms: C23_30  and  O5_31 
REMARK    5  A    between atoms: O5_31  and  C24_32 
REMARK    6  A    between atoms: C24_32  and  C25_33 
REMARK    7  A    between atoms: C26_34  and  C27_35 
REMARK    8  A    between atoms: C27_35  and  N2_36 
REMARK    9  A    between atoms: C31_41  and  O7_43 
REMARK   10  A    between atoms: C35_47  and  O8_48 
ROOT
HETATM    1  C1  UNL     1      75.963  53.400  75.592  1.00  0.00     0.018 C 
HETATM    2  C2  UNL     1      76.012  53.453  74.131  1.00  0.00    -0.017 C 
HETATM    3  C3  UNL     1      77.519  53.569  73.789  1.00  0.00     0.018 C 
HETATM    4  C4  UNL     1      75.414  54.714  73.616  1.00  0.00     0.126 C 
HETATM    5  C5  UNL     1      74.006  54.448  73.407  1.00  0.00     0.033 C 
HETATM    6  C6  UNL     1      73.423  53.166  73.907  1.00  0.00     0.013 C 
HETATM    7  C7  UNL     1      74.126  51.877  73.442  1.00  0.00    -0.022 C 
HETATM    8  C8  UNL     1      75.522  52.210  73.371  1.00  0.00     0.005 C 
HETATM    9  C9  UNL     1      76.405  51.135  73.974  1.00  0.00     0.007 C 
HETATM   10  C10 UNL     1      75.530  50.527  74.975  1.00  0.00     0.009 C 
HETATM   11  C11 UNL     1      74.110  50.812  74.589  1.00  0.00     0.030 C 
HETATM   12  C12 UNL     1      73.696  49.623  73.818  1.00  0.00     0.073 C 
HETATM   13  C13 UNL     1      73.491  48.268  74.186  1.00  0.00     0.040 C 
HETATM   14  C14 UNL     1      73.353  47.471  72.856  1.00  0.00     0.017 C 
HETATM   15  C15 UNL     1      72.336  48.152  71.893  1.00  0.00    -0.004 C 
HETATM   16  C16 UNL     1      71.296  47.012  71.697  1.00  0.00     0.021 C 
HETATM   17  C17 UNL     1      72.909  48.542  70.605  1.00  0.00     0.051 C 
HETATM   18  C23 UNL     1      73.101  49.953  70.190  1.00  0.00     0.094 C 
HETATM   19  C31 UNL     1      73.624  51.070  71.017  1.00  0.00     0.108 C 
HETATM   20  C32 UNL     1      73.145  52.343  70.257  1.00  0.00     0.053 C 
HETATM   21  C33 UNL     1      73.243  51.268  72.413  1.00  0.00     0.050 C 
HETATM   22  C34 UNL     1      72.502  50.273  73.205  1.00  0.00     0.029 C 
HETATM   23  C35 UNL     1      71.281  50.490  73.932  1.00  0.00     0.131 C 
HETATM   24  C36 UNL     1      70.622  50.077  72.570  1.00  0.00     0.039 C 
HETATM   25  C37 UNL     1      71.714  49.145  72.686  1.00  0.00     0.015 C 
ENDROOT
BRANCH  18  26
HETATM   26  O5  UNL     1      73.645  49.924  69.015  1.00  0.00    -0.340 OA
BRANCH  26  27
HETATM   27  C24 UNL     1      74.133  49.925  67.894  1.00  0.00     0.269 C 
BRANCH  27  28
HETATM   28  C25 UNL     1      74.633  51.248  67.384  1.00  0.00    -0.078 C 
HETATM   29  C26 UNL     1      75.055  52.325  66.988  1.00  0.00    -0.082 C 
BRANCH  29  30
HETATM   30  C27 UNL     1      75.533  53.623  66.522  1.00  0.00     0.249 C 
BRANCH  30  31
HETATM   31  N2  UNL     1      75.556  54.558  67.630  1.00  0.00    -0.254 N 
HETATM   32  C28 UNL     1      75.903  54.271  68.893  1.00  0.00     0.120 A 
HETATM   33  C29 UNL     1      75.793  55.439  69.650  1.00  0.00     0.046 A 
HETATM   34  C30 UNL     1      75.368  56.390  68.746  1.00  0.00     0.169 A 
HETATM   35  O6  UNL     1      75.245  55.820  67.578  1.00  0.00    -0.248 OA
ENDBRANCH  30  31
ENDBRANCH  29  30
ENDBRANCH  27  28
ENDBRANCH  26  27
ENDBRANCH  18  26
BRANCH  17  36
HETATM   36  C18 UNL     1      72.362  47.835  69.404  1.00  0.00     0.253 C 
HETATM   37  O3  UNL     1      71.220  48.247  68.963  1.00  0.00    -0.268 OA
HETATM   38  N1  UNL     1      72.809  46.800  68.616  1.00  0.00    -0.344 N 
HETATM   39  C19 UNL     1      72.033  46.361  67.465  1.00  0.00     0.152 C 
HETATM   40  C22 UNL     1      73.989  45.985  68.738  1.00  0.00     0.152 C 
HETATM   41  C20 UNL     1      72.808  46.398  66.188  1.00  0.00     0.187 C 
HETATM   42  O4  UNL     1      74.145  46.188  66.421  1.00  0.00    -0.388 OA
HETATM   43  C21 UNL     1      74.241  45.224  67.444  1.00  0.00     0.187 C 
ENDBRANCH  17  36
BRANCH  19  44
HETATM   44  O7  UNL     1      74.984  51.134  70.685  1.00  0.00    -0.383 OA
ATOM     45  H7  UNL     1      75.367  50.388  71.130  1.00  0.00     0.211 HD
ENDBRANCH  19  44
BRANCH  12  46
HETATM   46  O2  UNL     1      74.769  49.493  72.912  1.00  0.00    -0.389 OA
ATOM     47  H2  UNL     1      75.277  50.271  73.111  1.00  0.00     0.210 HD
ENDBRANCH  12  46
BRANCH  23  48
HETATM   48  O8  UNL     1      70.591  51.501  74.396  1.00  0.00    -0.395 OA
ATOM     49  H8  UNL     1      69.782  51.644  74.872  1.00  0.00     0.210 HD
ENDBRANCH  23  48
BRANCH   4  50
HETATM   50  O1  UNL     1      75.636  55.767  74.476  1.00  0.00    -0.395 OA
ATOM     51  H1  UNL     1      74.824  56.195  74.720  1.00  0.00     0.210 HD
ENDBRANCH   4  50
TORSDOF 10
ENDMDL
MODEL 2
REMARK VINA RESULT: -7.114473972      0.982      1.583
REMARK  10 active torsions:
REMARK  status: ('A' for Active; 'I' for Inactive)
REMARK    1  A    between atoms: C4_4  and  O1_5 
REMARK    2  A    between atoms: C12_14  and  O2_15 
REMARK    3  A    between atoms: C17_21  and  C18_22 
REMARK       I    between atoms: C18_22  and  N1_24 
REMARK    4  A    between atoms: C23_30  and  O5_31 
REMARK    5  A    between atoms: O5_31  and  C24_32 
REMARK    6  A    between atoms: C24_32  and  C25_33 
REMARK    7  A    between atoms: C26_34  and  C27_35 
REMARK    8  A    between atoms: C27_35  and  N2_36 
REMARK    9  A    between atoms: C31_41  and  O7_43 
REMARK   10  A    between atoms: C35_47  and  O8_48 
ROOT
HETATM    1  C1  UNL     1      75.978  53.346  75.565  1.00  0.00     0.018 C 
HETATM    2  C2  UNL     1      76.031  53.423  74.104  1.00  0.00    -0.017 C 
HETATM    3  C3  UNL     1      77.539  53.546  73.769  1.00  0.00     0.018 C 
HETATM    4  C4  UNL     1      75.433  54.692  73.609  1.00  0.00     0.126 C 
HETATM    5  C5  UNL     1      74.025  54.428  73.392  1.00  0.00     0.033 C 
HETATM    6  C6  UNL     1      73.443  53.138  73.868  1.00  0.00     0.013 C 
HETATM    7  C7  UNL     1      74.147  51.857  73.383  1.00  0.00    -0.022 C 
HETATM    8  C8  UNL     1      75.543  52.193  73.322  1.00  0.00     0.005 C 
HETATM    9  C9  UNL     1      76.426  51.108  73.909  1.00  0.00     0.007 C 
HETATM   10  C10 UNL     1      75.548  50.482  74.898  1.00  0.00     0.009 C 
HETATM   11  C11 UNL     1      74.130  50.773  74.512  1.00  0.00     0.030 C 
HETATM   12  C12 UNL     1      73.719  49.597  73.721  1.00  0.00     0.073 C 
HETATM   13  C13 UNL     1      73.513  48.236  74.065  1.00  0.00     0.040 C 
HETATM   14  C14 UNL     1      73.380  47.462  72.722  1.00  0.00     0.017 C 
HETATM   15  C15 UNL     1      72.365  48.157  71.768  1.00  0.00    -0.004 C 
HETATM   16  C16 UNL     1      71.326  47.020  71.550  1.00  0.00     0.021 C 
HETATM   17  C17 UNL     1      72.941  48.570  70.487  1.00  0.00     0.051 C 
HETATM   18  C23 UNL     1      73.133  49.988  70.097  1.00  0.00     0.094 C 
HETATM   19  C31 UNL     1      73.653  51.091  70.944  1.00  0.00     0.108 C 
HETATM   20  C32 UNL     1      73.175  52.376  70.204  1.00  0.00     0.053 C 
HETATM   21  C33 UNL     1      73.268  51.265  72.342  1.00  0.00     0.050 C 
HETATM   22  C34 UNL     1      72.525  50.257  73.116  1.00  0.00     0.029 C 
HETATM   23  C35 UNL     1      71.302  50.460  73.843  1.00  0.00     0.131 C 
HETATM   24  C36 UNL     1      70.648  50.069  72.472  1.00  0.00     0.039 C 
HETATM   25  C37 UNL     1      71.740  49.137  72.575  1.00  0.00     0.015 C 
ENDROOT
BRANCH  18  26
HETATM   26  O5  UNL     1      73.680  49.979  68.923  1.00  0.00    -0.340 OA
BRANCH  26  27
HETATM   27  C24 UNL     1      74.176  50.003  67.806  1.00  0.00     0.269 C 
BRANCH  27  28
HETATM   28  C25 UNL     1      74.679  51.336  67.328  1.00  0.00    -0.078 C 
HETATM   29  C26 UNL     1      75.097  52.426  66.961  1.00  0.00    -0.082 C 
BRANCH  29  30
HETATM   30  C27 UNL     1      75.568  53.735  66.520  1.00  0.00     0.249 C 
BRANCH  30  31
HETATM   31  N2  UNL     1      75.567  54.654  67.642  1.00  0.00    -0.254 N 
HETATM   32  C28 UNL     1      75.911  54.354  68.903  1.00  0.00     0.120 A 
HETATM   33  C29 UNL     1      75.775  55.508  69.676  1.00  0.00     0.046 A 
HETATM   34  C30 UNL     1      75.340  56.466  68.783  1.00  0.00     0.169 A 
HETATM   35  O6  UNL     1      75.235  55.911  67.606  1.00  0.00    -0.248 OA
ENDBRANCH  30  31
ENDBRANCH  29  30
ENDBRANCH  27  28
ENDBRANCH  26  27
ENDBRANCH  18  26
BRANCH  17  36
HETATM   36  C18 UNL     1      72.398  47.883  69.274  1.00  0.00     0.253 C 
HETATM   37  O3  UNL     1      73.112  46.922  68.789  1.00  0.00    -0.268 OA
HETATM   38  N1  UNL     1      71.262  48.036  68.514  1.00  0.00    -0.344 N 
HETATM   39  C19 UNL     1      71.006  47.153  67.384  1.00  0.00     0.152 C 
HETATM   40  C22 UNL     1      70.199  49.000  68.621  1.00  0.00     0.152 C 
HETATM   41  C20 UNL     1      69.692  46.449  67.479  1.00  0.00     0.187 C 
HETATM   42  O4  UNL     1      68.777  47.208  68.167  1.00  0.00    -0.388 OA
HETATM   43  C21 UNL     1      68.996  48.551  67.802  1.00  0.00     0.187 C 
ENDBRANCH  17  36
BRANCH  19  44
HETATM   44  O7  UNL     1      75.014  51.161  70.617  1.00  0.00    -0.383 OA
ATOM     45  H7  UNL     1      75.267  52.043  70.864  1.00  0.00     0.211 HD
ENDBRANCH  19  44
BRANCH  12  46
HETATM   46  O2  UNL     1      74.794  49.483  72.815  1.00  0.00    -0.389 OA
ATOM     47  H2  UNL     1      74.906  50.387  72.544  1.00  0.00     0.210 HD
ENDBRANCH  12  46
BRANCH  23  48
HETATM   48  O8  UNL     1      70.611  51.462  74.322  1.00  0.00    -0.395 OA
ATOM     49  H8  UNL     1      70.485  51.898  75.157  1.00  0.00     0.210 HD
ENDBRANCH  23  48
BRANCH   4  50
HETATM   50  O1  UNL     1      75.652  55.731  74.487  1.00  0.00    -0.395 OA
ATOM     51  H1  UNL     1      75.638  55.433  75.388  1.00  0.00     0.210 HD
ENDBRANCH   4  50
TORSDOF 10
ENDMDL
MODEL 3
REMARK VINA RESULT: -6.990384684      1.452      1.780
REMARK  10 active torsions:
REMARK  status: ('A' for Active; 'I' for Inactive)
REMARK    1  A    between atoms: C4_4  and  O1_5 
REMARK    2  A    between atoms: C12_14  and  O2_15 
REMARK    3  A    between atoms: C17_21  and  C18_22 
REMARK       I    between atoms: C18_22  and  N1_24 
REMARK    4  A    between atoms: C23_30  and  O5_31 
REMARK    5  A    between atoms: O5_31  and  C24_32 
REMARK    6  A    between atoms: C24_32  and  C25_33 
REMARK    7  A    between atoms: C26_34  and  C27_35 
REMARK    8  A    between atoms: C27_35  and  N2_36 
REMARK    9  A    between atoms: C31_41  and  O7_43 
REMARK   10  A    between atoms: C35_47  and  O8_48 
ROOT
HETATM    1  C1  UNL     1      75.516  51.160  76.518  1.00  0.00     0.018 C 
HETATM    2  C2  UNL     1      75.508  51.657  75.141  1.00  0.00    -0.017 C 
HETATM    3  C3  UNL     1      76.985  52.014  74.841  1.00  0.00     0.018 C 
HETATM    4  C4  UNL     1      74.781  52.951  75.039  1.00  0.00     0.126 C 
HETATM    5  C5  UNL     1      73.396  52.626  74.769  1.00  0.00     0.033 C 
HETATM    6  C6  UNL     1      72.948  51.204  74.858  1.00  0.00     0.013 C 
HETATM    7  C7  UNL     1      73.745  50.189  74.018  1.00  0.00    -0.022 C 
HETATM    8  C8  UNL     1      75.103  50.661  74.042  1.00  0.00     0.005 C 
HETATM    9  C9  UNL     1      76.100  49.543  74.283  1.00  0.00     0.007 C 
HETATM   10  C10 UNL     1      75.318  48.580  75.057  1.00  0.00     0.009 C 
HETATM   11  C11 UNL     1      73.866  48.831  74.786  1.00  0.00     0.030 C 
HETATM   12  C12 UNL     1      73.532  47.897  73.693  1.00  0.00     0.073 C 
HETATM   13  C13 UNL     1      73.462  46.481  73.632  1.00  0.00     0.040 C 
HETATM   14  C14 UNL     1      73.348  46.115  72.124  1.00  0.00     0.017 C 
HETATM   15  C15 UNL     1      72.240  46.954  71.421  1.00  0.00    -0.004 C 
HETATM   16  C16 UNL     1      71.299  45.833  70.894  1.00  0.00     0.021 C 
HETATM   17  C17 UNL     1      72.730  47.769  70.308  1.00  0.00     0.051 C 
HETATM   18  C23 UNL     1      72.781  49.251  70.342  1.00  0.00     0.094 C 
HETATM   19  C31 UNL     1      73.231  50.110  71.466  1.00  0.00     0.108 C 
HETATM   20  C32 UNL     1      72.614  51.502  71.133  1.00  0.00     0.053 C 
HETATM   21  C33 UNL     1      72.885  49.839  72.858  1.00  0.00     0.050 C 
HETATM   22  C34 UNL     1      72.263  48.585  73.316  1.00  0.00     0.029 C 
HETATM   23  C35 UNL     1      71.055  48.454  74.082  1.00  0.00     0.131 C 
HETATM   24  C36 UNL     1      70.387  48.411  72.664  1.00  0.00     0.039 C 
HETATM   25  C37 UNL     1      71.561  47.597  72.482  1.00  0.00     0.015 C 
ENDROOT
BRANCH  18  26
HETATM   26  O5  UNL     1      73.283  49.631  69.210  1.00  0.00    -0.340 OA
BRANCH  26  27
HETATM   27  C24 UNL     1      73.742  50.026  68.148  1.00  0.00     0.269 C 
BRANCH  27  28
HETATM   28  C25 UNL     1      74.409  51.373  68.169  1.00  0.00    -0.078 C 
HETATM   29  C26 UNL     1      74.963  52.462  68.206  1.00  0.00    -0.082 C 
BRANCH  29  30
HETATM   30  C27 UNL     1      75.600  53.775  68.256  1.00  0.00     0.249 C 
BRANCH  30  31
HETATM   31  N2  UNL     1      75.812  54.159  69.639  1.00  0.00    -0.254 N 
HETATM   32  C28 UNL     1      75.781  55.410  70.120  1.00  0.00     0.120 A 
HETATM   33  C29 UNL     1      76.033  55.353  71.492  1.00  0.00     0.046 A 
HETATM   34  C30 UNL     1      76.206  54.009  71.750  1.00  0.00     0.169 A 
HETATM   35  O6  UNL     1      76.065  53.355  70.629  1.00  0.00    -0.248 OA
ENDBRANCH  30  31
ENDBRANCH  29  30
ENDBRANCH  27  28
ENDBRANCH  26  27
ENDBRANCH  18  26
BRANCH  17  36
HETATM   36  C18 UNL     1      72.206  47.410  68.954  1.00  0.00     0.253 C 
HETATM   37  O3  UNL     1      71.038  47.869  68.647  1.00  0.00    -0.268 OA
HETATM   38  N1  UNL     1      72.696  46.670  67.902  1.00  0.00    -0.344 N 
HETATM   39  C19 UNL     1      71.929  46.540  66.671  1.00  0.00     0.152 C 
HETATM   40  C22 UNL     1      73.918  45.919  67.788  1.00  0.00     0.152 C 
HETATM   41  C20 UNL     1      72.686  46.985  65.462  1.00  0.00     0.187 C 
HETATM   42  O4  UNL     1      74.034  46.789  65.628  1.00  0.00    -0.388 OA
HETATM   43  C21 UNL     1      74.193  45.578  66.330  1.00  0.00     0.187 C 
ENDBRANCH  17  36
BRANCH  19  44
HETATM   44  O7  UNL     1      74.568  50.401  71.160  1.00  0.00    -0.383 OA
ATOM     45  H7  UNL     1      74.917  50.763  71.965  1.00  0.00     0.211 HD
ENDBRANCH  19  44
BRANCH  12  46
HETATM   46  O2  UNL     1      74.579  48.151  72.782  1.00  0.00    -0.389 OA
ATOM     47  H2  UNL     1      74.096  48.438  72.016  1.00  0.00     0.210 HD
ENDBRANCH  12  46
BRANCH  23  48
HETATM   48  O8  UNL     1      70.295  49.206  74.837  1.00  0.00    -0.395 OA
ATOM     49  H8  UNL     1      69.479  49.128  75.318  1.00  0.00     0.210 HD
ENDBRANCH  23  48
BRANCH   4  50
HETATM   50  O1  UNL     1      74.939  53.711  76.177  1.00  0.00    -0.395 OA
ATOM     51  H1  UNL     1      74.970  53.168  76.956  1.00  0.00     0.210 HD
ENDBRANCH   4  50
TORSDOF 10
ENDMDL
MODEL 4
REMARK VINA RESULT: -6.771980455      1.630      2.344
REMARK  10 active torsions:
REMARK  status: ('A' for Active; 'I' for Inactive)
REMARK    1  A    between atoms: C4_4  and  O1_5 
REMARK    2  A    between atoms: C12_14  and  O2_15 
REMARK    3  A    between atoms: C17_21  and  C18_22 
REMARK       I    between atoms: C18_22  and  N1_24 
REMARK    4  A    between atoms: C23_30  and  O5_31 
REMARK    5  A    between atoms: O5_31  and  C24_32 
REMARK    6  A    between atoms: C24_32  and  C25_33 
REMARK    7  A    between atoms: C26_34  and  C27_35 
REMARK    8  A    between atoms: C27_35  and  N2_36 
REMARK    9  A    between atoms: C31_41  and  O7_43 
REMARK   10  A    between atoms: C35_47  and  O8_48 
ROOT
HETATM    1  C1  UNL     1      75.167  51.076  76.341  1.00  0.00     0.018 C 
HETATM    2  C2  UNL     1      75.241  51.612  74.981  1.00  0.00    -0.017 C 
HETATM    3  C3  UNL     1      76.728  52.006  74.792  1.00  0.00     0.018 C 
HETATM    4  C4  UNL     1      74.497  52.895  74.864  1.00  0.00     0.126 C 
HETATM    5  C5  UNL     1      73.140  52.552  74.491  1.00  0.00     0.033 C 
HETATM    6  C6  UNL     1      72.717  51.120  74.511  1.00  0.00     0.013 C 
HETATM    7  C7  UNL     1      73.590  50.144  73.700  1.00  0.00    -0.022 C 
HETATM    8  C8  UNL     1      74.933  50.641  73.830  1.00  0.00     0.005 C 
HETATM    9  C9  UNL     1      75.934  49.536  74.108  1.00  0.00     0.007 C 
HETATM   10  C10 UNL     1      75.122  48.536  74.801  1.00  0.00     0.009 C 
HETATM   11  C11 UNL     1      73.687  48.767  74.437  1.00  0.00     0.030 C 
HETATM   12  C12 UNL     1      73.447  47.859  73.299  1.00  0.00     0.073 C 
HETATM   13  C13 UNL     1      73.410  46.444  73.195  1.00  0.00     0.040 C 
HETATM   14  C14 UNL     1      73.407  46.119  71.674  1.00  0.00     0.017 C 
HETATM   15  C15 UNL     1      72.332  46.957  70.919  1.00  0.00    -0.004 C 
HETATM   16  C16 UNL     1      71.453  45.834  70.299  1.00  0.00     0.021 C 
HETATM   17  C17 UNL     1      72.879  47.812  69.866  1.00  0.00     0.051 C 
HETATM   18  C23 UNL     1      72.897  49.293  69.943  1.00  0.00     0.094 C 
HETATM   19  C31 UNL     1      73.252  50.128  71.118  1.00  0.00     0.108 C 
HETATM   20  C32 UNL     1      72.630  51.517  70.782  1.00  0.00     0.053 C 
HETATM   21  C33 UNL     1      72.818  49.811  72.476  1.00  0.00     0.050 C 
HETATM   22  C34 UNL     1      72.193  48.533  72.855  1.00  0.00     0.029 C 
HETATM   23  C35 UNL     1      70.938  48.357  73.533  1.00  0.00     0.131 C 
HETATM   24  C36 UNL     1      70.369  48.342  72.072  1.00  0.00     0.039 C 
HETATM   25  C37 UNL     1      71.570  47.557  71.949  1.00  0.00     0.015 C 
ENDROOT
BRANCH  18  26
HETATM   26  O5  UNL     1      73.466  49.715  68.859  1.00  0.00    -0.340 OA
BRANCH  26  27
HETATM   27  C24 UNL     1      74.007  50.148  67.852  1.00  0.00     0.269 C 
BRANCH  27  28
HETATM   28  C25 UNL     1      74.632  51.511  67.963  1.00  0.00    -0.078 C 
HETATM   29  C26 UNL     1      75.154  52.611  68.073  1.00  0.00    -0.082 C 
BRANCH  29  30
HETATM   30  C27 UNL     1      75.751  53.937  68.213  1.00  0.00     0.249 C 
BRANCH  30  31
HETATM   31  N2  UNL     1      75.867  54.271  69.619  1.00  0.00    -0.254 N 
HETATM   32  C28 UNL     1      75.784  55.502  70.143  1.00  0.00     0.120 A 
HETATM   33  C29 UNL     1      75.947  55.397  71.525  1.00  0.00     0.046 A 
HETATM   34  C30 UNL     1      76.125  54.047  71.745  1.00  0.00     0.169 A 
HETATM   35  O6  UNL     1      76.068  53.434  70.594  1.00  0.00    -0.248 OA
ENDBRANCH  30  31
ENDBRANCH  29  30
ENDBRANCH  27  28
ENDBRANCH  26  27
ENDBRANCH  18  26
BRANCH  17  36
HETATM   36  C18 UNL     1      72.456  47.482  68.469  1.00  0.00     0.253 C 
HETATM   37  O3  UNL     1      73.296  46.807  67.757  1.00  0.00    -0.268 OA
HETATM   38  N1  UNL     1      71.327  47.736  67.724  1.00  0.00    -0.344 N 
HETATM   39  C19 UNL     1      71.211  47.227  66.364  1.00  0.00     0.152 C 
HETATM   40  C22 UNL     1      70.149  48.492  68.056  1.00  0.00     0.152 C 
HETATM   41  C20 UNL     1      69.994  46.385  66.158  1.00  0.00     0.187 C 
HETATM   42  O4  UNL     1      68.976  46.783  66.988  1.00  0.00    -0.388 OA
HETATM   43  C21 UNL     1      69.032  48.189  67.067  1.00  0.00     0.187 C 
ENDBRANCH  17  36
BRANCH  19  44
HETATM   44  O7  UNL     1      74.600  50.453  70.912  1.00  0.00    -0.383 OA
ATOM     45  H7  UNL     1      75.067  49.918  71.543  1.00  0.00     0.211 HD
ENDBRANCH  19  44
BRANCH  12  46
HETATM   46  O2  UNL     1      74.548  48.158  72.470  1.00  0.00    -0.389 OA
ATOM     47  H2  UNL     1      74.590  49.104  72.549  1.00  0.00     0.210 HD
ENDBRANCH  12  46
BRANCH  23  48
HETATM   48  O8  UNL     1      70.113  49.073  74.254  1.00  0.00    -0.395 OA
ATOM     49  H8  UNL     1      69.641  48.993  75.075  1.00  0.00     0.210 HD
ENDBRANCH  23  48
BRANCH   4  50
HETATM   50  O1  UNL     1      74.562  53.625  76.031  1.00  0.00    -0.395 OA
ATOM     51  H1  UNL     1      73.714  53.982  76.266  1.00  0.00     0.210 HD
ENDBRANCH   4  50
TORSDOF 10
ENDMDL
MODEL 5
REMARK VINA RESULT: -6.402050465      1.367      1.898
REMARK  10 active torsions:
REMARK  status: ('A' for Active; 'I' for Inactive)
REMARK    1  A    between atoms: C4_4  and  O1_5 
REMARK    2  A    between atoms: C12_14  and  O2_15 
REMARK    3  A    between atoms: C17_21  and  C18_22 
REMARK       I    between atoms: C18_22  and  N1_24 
REMARK    4  A    between atoms: C23_30  and  O5_31 
REMARK    5  A    between atoms: O5_31  and  C24_32 
REMARK    6  A    between atoms: C24_32  and  C25_33 
REMARK    7  A    between atoms: C26_34  and  C27_35 
REMARK    8  A    between atoms: C27_35  and  N2_36 
REMARK    9  A    between atoms: C31_41  and  O7_43 
REMARK   10  A    between atoms: C35_47  and  O8_48 
ROOT
HETATM    1  C1  UNL     1      76.000  53.365  75.600  1.00  0.00     0.018 C 
HETATM    2  C2  UNL     1      76.075  53.470  74.143  1.00  0.00    -0.017 C 
HETATM    3  C3  UNL     1      77.589  53.591  73.833  1.00  0.00     0.018 C 
HETATM    4  C4  UNL     1      75.492  54.752  73.663  1.00  0.00     0.126 C 
HETATM    5  C5  UNL     1      74.086  54.500  73.420  1.00  0.00     0.033 C 
HETATM    6  C6  UNL     1      73.490  53.204  73.862  1.00  0.00     0.013 C 
HETATM    7  C7  UNL     1      74.195  51.929  73.363  1.00  0.00    -0.022 C 
HETATM    8  C8  UNL     1      75.593  52.258  73.329  1.00  0.00     0.005 C 
HETATM    9  C9  UNL     1      76.461  51.158  73.909  1.00  0.00     0.007 C 
HETATM   10  C10 UNL     1      75.565  50.517  74.871  1.00  0.00     0.009 C 
HETATM   11  C11 UNL     1      74.154  50.823  74.470  1.00  0.00     0.030 C 
HETATM   12  C12 UNL     1      73.749  49.665  73.649  1.00  0.00     0.073 C 
HETATM   13  C13 UNL     1      73.531  48.299  73.964  1.00  0.00     0.040 C 
HETATM   14  C14 UNL     1      73.414  47.552  72.604  1.00  0.00     0.017 C 
HETATM   15  C15 UNL     1      72.417  48.272  71.648  1.00  0.00    -0.004 C 
HETATM   16  C16 UNL     1      71.376  47.145  71.392  1.00  0.00     0.021 C 
HETATM   17  C17 UNL     1      73.015  48.706  70.385  1.00  0.00     0.051 C 
HETATM   18  C23 UNL     1      73.221  50.130  70.026  1.00  0.00     0.094 C 
HETATM   19  C31 UNL     1      73.733  51.213  70.902  1.00  0.00     0.108 C 
HETATM   20  C32 UNL     1      73.273  52.516  70.180  1.00  0.00     0.053 C 
HETATM   21  C33 UNL     1      73.329  51.362  72.297  1.00  0.00     0.050 C 
HETATM   22  C34 UNL     1      72.568  50.344  73.040  1.00  0.00     0.029 C 
HETATM   23  C35 UNL     1      71.335  50.540  73.752  1.00  0.00     0.131 C 
HETATM   24  C36 UNL     1      70.700  50.179  72.364  1.00  0.00     0.039 C 
HETATM   25  C37 UNL     1      71.786  49.239  72.465  1.00  0.00     0.015 C 
ENDROOT
BRANCH  18  26
HETATM   26  O5  UNL     1      73.785  50.141  68.861  1.00  0.00    -0.340 OA
BRANCH  26  27
HETATM   27  C24 UNL     1      74.289  50.129  67.747  1.00  0.00     0.269 C 
BRANCH  27  28
HETATM   28  C25 UNL     1      74.748  51.455  67.207  1.00  0.00    -0.078 C 
HETATM   29  C26 UNL     1      75.125  52.542  66.791  1.00  0.00    -0.082 C 
BRANCH  29  30
HETATM   30  C27 UNL     1      75.547  53.844  66.285  1.00  0.00     0.249 C 
BRANCH  30  31
HETATM   31  N2  UNL     1      74.417  54.754  66.282  1.00  0.00    -0.254 N 
HETATM   32  C28 UNL     1      73.538  54.916  67.282  1.00  0.00     0.120 A 
HETATM   33  C29 UNL     1      72.607  55.879  66.888  1.00  0.00     0.046 A 
HETATM   34  C30 UNL     1      73.012  56.245  65.621  1.00  0.00     0.169 A 
HETATM   35  O6  UNL     1      74.077  55.555  65.316  1.00  0.00    -0.248 OA
ENDBRANCH  30  31
ENDBRANCH  29  30
ENDBRANCH  27  28
ENDBRANCH  26  27
ENDBRANCH  18  26
BRANCH  17  36
HETATM   36  C18 UNL     1      72.487  48.046  69.151  1.00  0.00     0.253 C 
HETATM   37  O3  UNL     1      73.205  47.092  68.656  1.00  0.00    -0.268 OA
HETATM   38  N1  UNL     1      71.362  48.219  68.377  1.00  0.00    -0.344 N 
HETATM   39  C19 UNL     1      71.119  47.360  67.226  1.00  0.00     0.152 C 
HETATM   40  C22 UNL     1      70.301  49.184  68.489  1.00  0.00     0.152 C 
HETATM   41  C20 UNL     1      69.801  46.659  67.288  1.00  0.00     0.187 C 
HETATM   42  O4  UNL     1      68.880  47.407  67.979  1.00  0.00    -0.388 OA
HETATM   43  C21 UNL     1      69.109  48.757  67.645  1.00  0.00     0.187 C 
ENDBRANCH  17  36
BRANCH  19  44
HETATM   44  O7  UNL     1      75.100  51.283  70.597  1.00  0.00    -0.383 OA
ATOM     45  H7  UNL     1      75.194  50.733  69.829  1.00  0.00     0.211 HD
ENDBRANCH  19  44
BRANCH  12  46
HETATM   46  O2  UNL     1      74.838  49.563  72.758  1.00  0.00    -0.389 OA
ATOM     47  H2  UNL     1      74.483  48.982  72.095  1.00  0.00     0.210 HD
ENDBRANCH  12  46
BRANCH  23  48
HETATM   48  O8  UNL     1      70.642  51.536  74.240  1.00  0.00    -0.395 OA
ATOM     49  H8  UNL     1      70.051  52.209  73.921  1.00  0.00     0.210 HD
ENDBRANCH  23  48
BRANCH   4  50
HETATM   50  O1  UNL     1      75.703  55.772  74.565  1.00  0.00    -0.395 OA
ATOM     51  H1  UNL     1      75.089  56.485  74.434  1.00  0.00     0.210 HD
ENDBRANCH   4  50
TORSDOF 10
ENDMDL
