MODEL 1
REMARK VINA RESULT: -8.364095180      0.000      0.000
REMARK  8 active torsions:
REMARK  status: ('A' for Active; 'I' for Inactive)
REMARK       I    between atoms: C2_2  and  N1_4 
REMARK    1  A    between atoms: N2_7  and  C5_8 
REMARK    2  A    between atoms: C5_8  and  O2_9 
REMARK    3  A    between atoms: N3_11  and  C6_13 
REMARK    4  A    between atoms: C6_13  and  N6_46 
REMARK    5  A    between atoms: C7_14  and  C8_15 
REMARK    6  A    between atoms: C8_15  and  N4_16 
REMARK    7  A    between atoms: C8_15  and  C16_27 
REMARK       I    between atoms: N4_16  and  C9_18 
REMARK       I    between atoms: C9_18  and  N5_20 
REMARK    8  A    between atoms: C16_27  and  O4_28 
ROOT
HETATM    1  N6  UNL     1      12.320  -8.447  16.279  1.00  0.00    -0.279 N 
ATOM      2  H6  UNL     1      12.120  -7.464  16.096  1.00  0.00     0.179 HD
HETATM    3  C32 UNL     1      12.660  -8.892  17.587  1.00  0.00     0.183 C 
HETATM    4  N7  UNL     1      12.942  -9.244  18.665  1.00  0.00    -0.172 NA
ENDROOT
BRANCH   1   5
HETATM    5  C6  UNL     1      12.265  -9.405  15.238  1.00  0.00     0.115 C 
HETATM    6  C7  UNL     1      11.156 -10.028  14.899  1.00  0.00     0.050 C 
BRANCH   5   7
HETATM    7  N3  UNL     1      13.433  -9.686  14.498  1.00  0.00    -0.308 N 
HETATM    8  C5  UNL     1      14.333  -8.882  14.108  1.00  0.00     0.220 C 
ATOM      9  H3  UNL     1      13.572 -10.664  14.243  1.00  0.00     0.171 HD
BRANCH   8  10
HETATM   10  N2  UNL     1      14.450  -7.495  14.286  1.00  0.00    -0.344 N 
HETATM   11  C4  UNL     1      13.741  -6.565  13.467  1.00  0.00     0.146 C 
HETATM   12  C3  UNL     1      14.640  -5.490  12.917  1.00  0.00     0.145 C 
HETATM   13  N1  UNL     1      15.983  -5.647  13.393  1.00  0.00    -0.349 N 
HETATM   14  C2  UNL     1      17.078  -5.597  12.522  1.00  0.00     0.215 C 
HETATM   15  C34 UNL     1      16.205  -5.870  14.817  1.00  0.00     0.145 C 
HETATM   16  C1  UNL     1      18.490  -5.735  12.953  1.00  0.00     0.117 C 
HETATM   17  O1  UNL     1      16.844  -5.423  11.281  1.00  0.00    -0.274 OA
HETATM   18  C33 UNL     1      15.329  -6.988  15.331  1.00  0.00     0.146 C 
ENDBRANCH   8  10
BRANCH   8  19
HETATM   19  O2  UNL     1      15.438  -9.438  13.355  1.00  0.00    -0.332 OA
ATOM     20  H2  UNL     1      16.072  -9.877  13.910  1.00  0.00     0.220 HD
ENDBRANCH   8  19
ENDBRANCH   5   7
BRANCH   6  21
HETATM   21  C8  UNL     1       9.834  -9.794  15.637  1.00  0.00     0.147 C 
BRANCH  21  22
HETATM   22  N4  UNL     1       8.843  -9.341  14.710  1.00  0.00    -0.332 N 
HETATM   23  C9  UNL     1       8.925  -8.089  14.078  1.00  0.00     0.318 C 
HETATM   24  O3  UNL     1       9.947  -7.367  14.343  1.00  0.00    -0.247 OA
HETATM   25  N5  UNL     1       7.974  -7.582  13.186  1.00  0.00    -0.334 N 
HETATM   26  C10 UNL     1       6.719  -8.224  12.821  1.00  0.00     0.128 C 
HETATM   27  C15 UNL     1       8.239  -6.296  12.532  1.00  0.00     0.128 C 
HETATM   28  C11 UNL     1       5.631  -7.292  13.371  1.00  0.00     0.024 C 
HETATM   29  C12 UNL     1       5.833  -5.932  12.774  1.00  0.00    -0.015 C 
HETATM   30  C13 UNL     1       4.572  -5.499  12.079  1.00  0.00     0.010 C 
HETATM   31  C14 UNL     1       6.973  -5.898  11.788  1.00  0.00     0.024 C 
ATOM     32  H4  UNL     1       8.050  -9.947  14.502  1.00  0.00     0.165 HD
ENDBRANCH  21  22
BRANCH  21  33
HETATM   33  C16 UNL     1       9.526 -11.061  16.317  1.00  0.00     0.084 C 
HETATM   34  C17 UNL     1       8.114 -11.577  15.935  1.00  0.00     0.072 C 
HETATM   35  C18 UNL     1       8.091 -12.817  16.869  1.00  0.00     0.130 C 
HETATM   36  O5  UNL     1       6.766 -13.210  16.783  1.00  0.00    -0.374 OA
HETATM   37  C30 UNL     1       8.824 -12.474  18.029  1.00  0.00     0.022 C 
HETATM   38  C19 UNL     1       6.392 -13.710  17.941  1.00  0.00     0.062 C 
HETATM   39  C20 UNL     1       7.167 -14.937  18.190  1.00  0.00     0.043 C 
HETATM   40  C22 UNL     1       5.269 -14.581  18.328  1.00  0.00     0.043 C 
HETATM   41  C27 UNL     1       6.263 -12.562  18.848  1.00  0.00     0.044 C 
HETATM   42  C21 UNL     1       6.270 -15.150  19.353  1.00  0.00    -0.001 C 
HETATM   43  C23 UNL     1       6.719 -14.217  20.418  1.00  0.00    -0.040 C 
HETATM   44  C24 UNL     1       5.521 -14.057  21.364  1.00  0.00     0.015 C 
HETATM   45  C25 UNL     1       7.781 -14.941  21.224  1.00  0.00     0.015 C 
HETATM   46  C26 UNL     1       7.192 -12.884  19.982  1.00  0.00     0.001 C 
HETATM   47  C28 UNL     1       8.556 -12.716  19.445  1.00  0.00    -0.007 C 
HETATM   48  C29 UNL     1       9.177 -11.557  20.246  1.00  0.00     0.011 C 
HETATM   49  C31 UNL     1       9.291 -11.005  17.804  1.00  0.00     0.048 C 
BRANCH  33  50
HETATM   50  O4  UNL     1      10.367 -12.099  15.920  1.00  0.00    -0.387 OA
ATOM     51  H4  UNL     1       9.888 -12.872  15.645  1.00  0.00     0.210 HD
ENDBRANCH  33  50
ENDBRANCH  21  33
ENDBRANCH   6  21
ENDBRANCH   1   5
TORSDOF 8
ENDMDL
MODEL 2
REMARK VINA RESULT: -8.207811346      2.888      4.284
REMARK  8 active torsions:
REMARK  status: ('A' for Active; 'I' for Inactive)
REMARK       I    between atoms: C2_2  and  N1_4 
REMARK    1  A    between atoms: N2_7  and  C5_8 
REMARK    2  A    between atoms: C5_8  and  O2_9 
REMARK    3  A    between atoms: N3_11  and  C6_13 
REMARK    4  A    between atoms: C6_13  and  N6_46 
REMARK    5  A    between atoms: C7_14  and  C8_15 
REMARK    6  A    between atoms: C8_15  and  N4_16 
REMARK    7  A    between atoms: C8_15  and  C16_27 
REMARK       I    between atoms: N4_16  and  C9_18 
REMARK       I    between atoms: C9_18  and  N5_20 
REMARK    8  A    between atoms: C16_27  and  O4_28 
ROOT
HETATM    1  N6  UNL     1      13.761  -6.310  13.588  1.00  0.00    -0.279 N 
ATOM      2  H6  UNL     1      12.890  -5.959  13.984  1.00  0.00     0.179 HD
HETATM    3  C32 UNL     1      14.691  -5.428  12.969  1.00  0.00     0.183 C 
HETATM    4  N7  UNL     1      15.443  -4.694  12.460  1.00  0.00    -0.172 NA
ENDROOT
BRANCH   1   5
HETATM    5  C6  UNL     1      14.077  -7.689  13.638  1.00  0.00     0.115 C 
HETATM    6  C7  UNL     1      13.459  -8.533  14.438  1.00  0.00     0.050 C 
BRANCH   5   7
HETATM    7  N3  UNL     1      15.067  -8.202  12.775  1.00  0.00    -0.308 N 
HETATM    8  C5  UNL     1      16.292  -8.423  13.022  1.00  0.00     0.220 C 
ATOM      9  H3  UNL     1      14.759  -8.425  11.828  1.00  0.00     0.171 HD
BRANCH   8  10
HETATM   10  N2  UNL     1      17.028  -8.234  14.201  1.00  0.00    -0.344 N 
HETATM   11  C4  UNL     1      17.584  -6.966  14.550  1.00  0.00     0.146 C 
HETATM   12  C3  UNL     1      19.038  -7.066  14.928  1.00  0.00     0.145 C 
HETATM   13  N1  UNL     1      19.489  -8.425  14.885  1.00  0.00    -0.349 N 
HETATM   14  C2  UNL     1      20.678  -8.781  14.235  1.00  0.00     0.215 C 
HETATM   15  C34 UNL     1      18.685  -9.458  15.529  1.00  0.00     0.145 C 
HETATM   16  C1  UNL     1      21.208 -10.163  14.169  1.00  0.00     0.117 C 
HETATM   17  O1  UNL     1      21.344  -7.854  13.665  1.00  0.00    -0.274 OA
HETATM   18  C33 UNL     1      17.242  -9.367  15.091  1.00  0.00     0.146 C 
ENDBRANCH   8  10
BRANCH   8  19
HETATM   19  O2  UNL     1      17.099  -8.958  11.945  1.00  0.00    -0.332 OA
ATOM     20  H2  UNL     1      17.165  -8.361  11.209  1.00  0.00     0.220 HD
ENDBRANCH   8  19
ENDBRANCH   5   7
BRANCH   6  21
HETATM   21  C8  UNL     1      12.367  -8.080  15.413  1.00  0.00     0.147 C 
BRANCH  21  22
HETATM   22  N4  UNL     1      11.080  -8.336  14.843  1.00  0.00    -0.332 N 
HETATM   23  C9  UNL     1      10.353  -7.347  14.161  1.00  0.00     0.318 C 
HETATM   24  O3  UNL     1      10.900  -6.197  14.042  1.00  0.00    -0.247 OA
HETATM   25  N5  UNL     1       9.081  -7.531  13.608  1.00  0.00    -0.334 N 
HETATM   26  C10 UNL     1       8.274  -8.740  13.706  1.00  0.00     0.128 C 
HETATM   27  C15 UNL     1       8.480  -6.432  12.845  1.00  0.00     0.128 C 
HETATM   28  C11 UNL     1       7.053  -8.326  14.539  1.00  0.00     0.024 C 
HETATM   29  C12 UNL     1       6.379  -7.182  13.846  1.00  0.00    -0.015 C 
HETATM   30  C13 UNL     1       4.941  -7.533  13.585  1.00  0.00     0.010 C 
HETATM   31  C14 UNL     1       7.042  -6.825  12.540  1.00  0.00     0.024 C 
ATOM     32  H4  UNL     1      10.678  -9.269  14.935  1.00  0.00     0.165 HD
ENDBRANCH  21  22
BRANCH  21  33
HETATM   33  C16 UNL     1      12.645  -8.778  16.677  1.00  0.00     0.084 C 
HETATM   34  C17 UNL     1      12.707 -10.314  16.471  1.00  0.00     0.072 C 
HETATM   35  C18 UNL     1      12.908 -10.711  17.959  1.00  0.00     0.130 C 
HETATM   36  O5  UNL     1      12.728 -12.083  17.911  1.00  0.00    -0.374 OA
HETATM   37  C30 UNL     1      12.199  -9.766  18.737  1.00  0.00     0.022 C 
HETATM   38  C19 UNL     1      12.163 -12.480  19.031  1.00  0.00     0.062 C 
HETATM   39  C20 UNL     1      13.100 -12.228  20.139  1.00  0.00     0.043 C 
HETATM   40  C22 UNL     1      12.066 -13.799  19.679  1.00  0.00     0.043 C 
HETATM   41  C27 UNL     1      10.766 -12.033  18.954  1.00  0.00     0.044 C 
HETATM   42  C21 UNL     1      12.147 -12.987  20.987  1.00  0.00    -0.001 C 
HETATM   43  C23 UNL     1      11.005 -12.080  21.267  1.00  0.00    -0.040 C 
HETATM   44  C24 UNL     1       9.835 -12.992  21.660  1.00  0.00     0.015 C 
HETATM   45  C25 UNL     1      11.354 -11.300  22.521  1.00  0.00     0.015 C 
HETATM   46  C26 UNL     1      10.586 -11.176  20.172  1.00  0.00     0.001 C 
HETATM   47  C28 UNL     1      11.336  -9.934  19.904  1.00  0.00    -0.007 C 
HETATM   48  C29 UNL     1      10.280  -8.812  19.873  1.00  0.00     0.011 C 
HETATM   49  C31 UNL     1      11.551  -8.788  17.713  1.00  0.00     0.048 C 
BRANCH  33  50
HETATM   50  O4  UNL     1      13.903  -8.470  17.192  1.00  0.00    -0.387 OA
ATOM     51  H4  UNL     1      14.044  -8.841  18.056  1.00  0.00     0.210 HD
ENDBRANCH  33  50
ENDBRANCH  21  33
ENDBRANCH   6  21
ENDBRANCH   1   5
TORSDOF 8
ENDMDL
MODEL 3
REMARK VINA RESULT: -8.130552261      3.967      5.782
REMARK  8 active torsions:
REMARK  status: ('A' for Active; 'I' for Inactive)
REMARK       I    between atoms: C2_2  and  N1_4 
REMARK    1  A    between atoms: N2_7  and  C5_8 
REMARK    2  A    between atoms: C5_8  and  O2_9 
REMARK    3  A    between atoms: N3_11  and  C6_13 
REMARK    4  A    between atoms: C6_13  and  N6_46 
REMARK    5  A    between atoms: C7_14  and  C8_15 
REMARK    6  A    between atoms: C8_15  and  N4_16 
REMARK    7  A    between atoms: C8_15  and  C16_27 
REMARK       I    between atoms: N4_16  and  C9_18 
REMARK       I    between atoms: C9_18  and  N5_20 
REMARK    8  A    between atoms: C16_27  and  O4_28 
ROOT
HETATM    1  N6  UNL     1      13.718  -6.227  13.411  1.00  0.00    -0.279 N 
ATOM      2  H6  UNL     1      12.738  -5.966  13.517  1.00  0.00     0.179 HD
HETATM    3  C32 UNL     1      14.717  -5.239  13.184  1.00  0.00     0.183 C 
HETATM    4  N7  UNL     1      15.526  -4.417  12.995  1.00  0.00    -0.172 NA
ENDROOT
BRANCH   1   5
HETATM    5  C6  UNL     1      14.121  -7.582  13.485  1.00  0.00     0.115 C 
HETATM    6  C7  UNL     1      13.586  -8.439  14.329  1.00  0.00     0.050 C 
BRANCH   5   7
HETATM    7  N3  UNL     1      15.108  -8.058  12.598  1.00  0.00    -0.308 N 
HETATM    8  C5  UNL     1      16.321  -8.339  12.843  1.00  0.00     0.220 C 
ATOM      9  H3  UNL     1      14.809  -8.194  11.632  1.00  0.00     0.171 HD
BRANCH   8  10
HETATM   10  N2  UNL     1      17.043  -8.269  14.044  1.00  0.00    -0.344 N 
HETATM   11  C4  UNL     1      17.573  -7.038  14.537  1.00  0.00     0.146 C 
HETATM   12  C3  UNL     1      19.025  -7.155  14.918  1.00  0.00     0.145 C 
HETATM   13  N1  UNL     1      19.501  -8.494  14.730  1.00  0.00    -0.349 N 
HETATM   14  C2  UNL     1      20.702  -8.755  14.058  1.00  0.00     0.215 C 
HETATM   15  C34 UNL     1      18.709  -9.605  15.246  1.00  0.00     0.145 C 
HETATM   16  C1  UNL     1      21.257 -10.113  13.845  1.00  0.00     0.117 C 
HETATM   17  O1  UNL     1      21.356  -7.761  13.601  1.00  0.00    -0.274 OA
HETATM   18  C33 UNL     1      17.269  -9.490  14.806  1.00  0.00     0.146 C 
ENDBRANCH   8  10
BRANCH   8  19
HETATM   19  O2  UNL     1      17.129  -8.813  11.739  1.00  0.00    -0.332 OA
ATOM     20  H2  UNL     1      16.608  -9.027  10.973  1.00  0.00     0.220 HD
ENDBRANCH   8  19
ENDBRANCH   5   7
BRANCH   6  21
HETATM   21  C8  UNL     1      12.506  -8.026  15.333  1.00  0.00     0.147 C 
BRANCH  21  22
HETATM   22  N4  UNL     1      11.213  -8.310  14.790  1.00  0.00    -0.332 N 
HETATM   23  C9  UNL     1      10.443  -7.332  14.139  1.00  0.00     0.318 C 
HETATM   24  O3  UNL     1      10.956  -6.166  14.024  1.00  0.00    -0.247 OA
HETATM   25  N5  UNL     1       9.164  -7.544  13.613  1.00  0.00    -0.334 N 
HETATM   26  C10 UNL     1       8.394  -8.777  13.711  1.00  0.00     0.128 C 
HETATM   27  C15 UNL     1       8.516  -6.452  12.879  1.00  0.00     0.128 C 
HETATM   28  C11 UNL     1       7.182  -8.409  14.578  1.00  0.00     0.024 C 
HETATM   29  C12 UNL     1       6.460  -7.274  13.918  1.00  0.00    -0.015 C 
HETATM   30  C13 UNL     1       5.026  -7.662  13.684  1.00  0.00     0.010 C 
HETATM   31  C14 UNL     1       7.083  -6.881  12.602  1.00  0.00     0.024 C 
ATOM     32  H4  UNL     1      10.839  -9.255  14.877  1.00  0.00     0.165 HD
ENDBRANCH  21  22
BRANCH  21  33
HETATM   33  C16 UNL     1      12.830  -8.730  16.582  1.00  0.00     0.084 C 
HETATM   34  C17 UNL     1      14.330  -8.575  16.945  1.00  0.00     0.072 C 
HETATM   35  C18 UNL     1      14.331  -9.485  18.203  1.00  0.00     0.130 C 
HETATM   36  O5  UNL     1      15.686  -9.609  18.459  1.00  0.00    -0.374 OA
HETATM   37  C30 UNL     1      13.392 -10.516  17.968  1.00  0.00     0.022 C 
HETATM   38  C19 UNL     1      15.921 -10.806  18.953  1.00  0.00     0.062 C 
HETATM   39  C20 UNL     1      15.246 -10.911  20.258  1.00  0.00     0.043 C 
HETATM   40  C22 UNL     1      17.051 -11.358  19.719  1.00  0.00     0.043 C 
HETATM   41  C27 UNL     1      15.785 -11.737  17.825  1.00  0.00     0.044 C 
HETATM   42  C21 UNL     1      15.963 -12.201  20.414  1.00  0.00    -0.001 C 
HETATM   43  C23 UNL     1      15.257 -13.191  19.561  1.00  0.00    -0.040 C 
HETATM   44  C24 UNL     1      16.266 -14.320  19.311  1.00  0.00     0.015 C 
HETATM   45  C25 UNL     1      14.160 -13.806  20.410  1.00  0.00     0.015 C 
HETATM   46  C26 UNL     1      14.725 -12.701  18.270  1.00  0.00     0.001 C 
HETATM   47  C28 UNL     1      13.455 -11.953  18.223  1.00  0.00    -0.007 C 
HETATM   48  C29 UNL     1      12.598 -12.658  17.155  1.00  0.00     0.011 C 
HETATM   49  C31 UNL     1      12.818 -10.237  16.547  1.00  0.00     0.048 C 
BRANCH  33  50
HETATM   50  O4  UNL     1      12.174  -8.190  17.687  1.00  0.00    -0.387 OA
ATOM     51  H4  UNL     1      11.228  -8.213  17.597  1.00  0.00     0.210 HD
ENDBRANCH  33  50
ENDBRANCH  21  33
ENDBRANCH   6  21
ENDBRANCH   1   5
TORSDOF 8
ENDMDL
MODEL 4
REMARK VINA RESULT: -8.091663851      3.228      4.574
REMARK  8 active torsions:
REMARK  status: ('A' for Active; 'I' for Inactive)
REMARK       I    between atoms: C2_2  and  N1_4 
REMARK    1  A    between atoms: N2_7  and  C5_8 
REMARK    2  A    between atoms: C5_8  and  O2_9 
REMARK    3  A    between atoms: N3_11  and  C6_13 
REMARK    4  A    between atoms: C6_13  and  N6_46 
REMARK    5  A    between atoms: C7_14  and  C8_15 
REMARK    6  A    between atoms: C8_15  and  N4_16 
REMARK    7  A    between atoms: C8_15  and  C16_27 
REMARK       I    between atoms: N4_16  and  C9_18 
REMARK       I    between atoms: C9_18  and  N5_20 
REMARK    8  A    between atoms: C16_27  and  O4_28 
ROOT
HETATM    1  N6  UNL     1      14.864  -6.473  14.121  1.00  0.00    -0.279 N 
ATOM      2  H6  UNL     1      14.643  -6.229  15.086  1.00  0.00     0.179 HD
HETATM    3  C32 UNL     1      15.424  -5.511  13.234  1.00  0.00     0.183 C 
HETATM    4  N7  UNL     1      15.879  -4.710  12.516  1.00  0.00    -0.172 NA
ENDROOT
BRANCH   1   5
HETATM    5  C6  UNL     1      14.623  -7.778  13.629  1.00  0.00     0.115 C 
HETATM    6  C7  UNL     1      13.592  -8.504  14.008  1.00  0.00     0.050 C 
BRANCH   5   7
HETATM    7  N3  UNL     1      15.495  -8.323  12.663  1.00  0.00    -0.308 N 
HETATM    8  C5  UNL     1      16.697  -8.701  12.809  1.00  0.00     0.220 C 
ATOM      9  H3  UNL     1      15.108  -8.428  11.725  1.00  0.00     0.171 HD
BRANCH   8  10
HETATM   10  N2  UNL     1      17.517  -8.698  13.946  1.00  0.00    -0.344 N 
HETATM   11  C4  UNL     1      17.144  -9.370  15.150  1.00  0.00     0.146 C 
HETATM   12  C3  UNL     1      17.284  -8.489  16.362  1.00  0.00     0.145 C 
HETATM   13  N1  UNL     1      17.802  -7.201  16.006  1.00  0.00    -0.349 N 
HETATM   14  C2  UNL     1      17.208  -6.020  16.468  1.00  0.00     0.215 C 
HETATM   15  C34 UNL     1      18.972  -7.125  15.138  1.00  0.00     0.145 C 
HETATM   16  C1  UNL     1      17.704  -4.660  16.151  1.00  0.00     0.117 C 
HETATM   17  O1  UNL     1      16.174  -6.124  17.207  1.00  0.00    -0.274 OA
HETATM   18  C33 UNL     1      18.782  -7.977  13.905  1.00  0.00     0.146 C 
ENDBRANCH   8  10
BRANCH   8  19
HETATM   19  O2  UNL     1      17.372  -9.228  11.641  1.00  0.00    -0.332 OA
ATOM     20  H2  UNL     1      18.208  -8.805  11.482  1.00  0.00     0.220 HD
ENDBRANCH   8  19
ENDBRANCH   5   7
BRANCH   6  21
HETATM   21  C8  UNL     1      12.585  -8.005  15.049  1.00  0.00     0.147 C 
BRANCH  21  22
HETATM   22  N4  UNL     1      11.255  -8.275  14.596  1.00  0.00    -0.332 N 
HETATM   23  C9  UNL     1      10.470  -7.302  13.957  1.00  0.00     0.318 C 
HETATM   24  O3  UNL     1      11.003  -6.155  13.766  1.00  0.00    -0.247 OA
HETATM   25  N5  UNL     1       9.156  -7.499  13.518  1.00  0.00    -0.334 N 
HETATM   26  C10 UNL     1       8.364  -8.706  13.711  1.00  0.00     0.128 C 
HETATM   27  C15 UNL     1       8.491  -6.418  12.783  1.00  0.00     0.128 C 
HETATM   28  C11 UNL     1       7.217  -8.274  14.634  1.00  0.00     0.024 C 
HETATM   29  C12 UNL     1       6.484  -7.146  13.976  1.00  0.00    -0.015 C 
HETATM   30  C13 UNL     1       5.029  -7.504  13.845  1.00  0.00     0.010 C 
HETATM   31  C14 UNL     1       7.033  -6.819  12.611  1.00  0.00     0.024 C 
ATOM     32  H4  UNL     1      10.864  -9.206  14.743  1.00  0.00     0.165 HD
ENDBRANCH  21  22
BRANCH  21  33
HETATM   33  C16 UNL     1      12.962  -8.656  16.313  1.00  0.00     0.084 C 
HETATM   34  C17 UNL     1      13.346 -10.141  16.091  1.00  0.00     0.072 C 
HETATM   35  C18 UNL     1      13.579 -10.517  17.579  1.00  0.00     0.130 C 
HETATM   36  O5  UNL     1      13.688 -11.895  17.508  1.00  0.00    -0.374 OA
HETATM   37  C30 UNL     1      12.667  -9.754  18.345  1.00  0.00     0.022 C 
HETATM   38  C19 UNL     1      13.184 -12.422  18.603  1.00  0.00     0.062 C 
HETATM   39  C20 UNL     1      14.014 -12.004  19.746  1.00  0.00     0.043 C 
HETATM   40  C22 UNL     1      13.341 -13.745  19.231  1.00  0.00     0.043 C 
HETATM   41  C27 UNL     1      11.728 -12.271  18.484  1.00  0.00     0.044 C 
HETATM   42  C21 UNL     1      13.213 -12.959  20.551  1.00  0.00    -0.001 C 
HETATM   43  C23 UNL     1      11.900 -12.312  20.804  1.00  0.00    -0.040 C 
HETATM   44  C24 UNL     1      10.933 -13.453  21.146  1.00  0.00     0.015 C 
HETATM   45  C25 UNL     1      12.042 -11.502  22.078  1.00  0.00     0.015 C 
HETATM   46  C26 UNL     1      11.338 -11.493  19.707  1.00  0.00     0.001 C 
HETATM   47  C28 UNL     1      11.822 -10.118  19.480  1.00  0.00    -0.007 C 
HETATM   48  C29 UNL     1      10.559  -9.238  19.427  1.00  0.00     0.011 C 
HETATM   49  C31 UNL     1      11.862  -8.911  17.311  1.00  0.00     0.048 C 
BRANCH  33  50
HETATM   50  O4  UNL     1      14.113  -8.105  16.875  1.00  0.00    -0.387 OA
ATOM     51  H4  UNL     1      14.827  -8.730  16.929  1.00  0.00     0.210 HD
ENDBRANCH  33  50
ENDBRANCH  21  33
ENDBRANCH   6  21
ENDBRANCH   1   5
TORSDOF 8
ENDMDL
MODEL 5
REMARK VINA RESULT: -8.085178993      0.923      1.352
REMARK  8 active torsions:
REMARK  status: ('A' for Active; 'I' for Inactive)
REMARK       I    between atoms: C2_2  and  N1_4 
REMARK    1  A    between atoms: N2_7  and  C5_8 
REMARK    2  A    between atoms: C5_8  and  O2_9 
REMARK    3  A    between atoms: N3_11  and  C6_13 
REMARK    4  A    between atoms: C6_13  and  N6_46 
REMARK    5  A    between atoms: C7_14  and  C8_15 
REMARK    6  A    between atoms: C8_15  and  N4_16 
REMARK    7  A    between atoms: C8_15  and  C16_27 
REMARK       I    between atoms: N4_16  and  C9_18 
REMARK       I    between atoms: C9_18  and  N5_20 
REMARK    8  A    between atoms: C16_27  and  O4_28 
ROOT
HETATM    1  N6  UNL     1      12.371  -8.441  16.382  1.00  0.00    -0.279 N 
ATOM      2  H6  UNL     1      12.009  -7.495  16.262  1.00  0.00     0.179 HD
HETATM    3  C32 UNL     1      12.965  -8.845  17.611  1.00  0.00     0.183 C 
HETATM    4  N7  UNL     1      13.453  -9.163  18.624  1.00  0.00    -0.172 NA
ENDROOT
BRANCH   1   5
HETATM    5  C6  UNL     1      12.296  -9.386  15.331  1.00  0.00     0.115 C 
HETATM    6  C7  UNL     1      11.174  -9.982  14.987  1.00  0.00     0.050 C 
BRANCH   5   7
HETATM    7  N3  UNL     1      13.457  -9.684  14.587  1.00  0.00    -0.308 N 
HETATM    8  C5  UNL     1      14.362  -8.891  14.186  1.00  0.00     0.220 C 
ATOM      9  H3  UNL     1      13.586 -10.665  14.340  1.00  0.00     0.171 HD
BRANCH   8  10
HETATM   10  N2  UNL     1      14.493  -7.504  14.352  1.00  0.00    -0.344 N 
HETATM   11  C4  UNL     1      13.780  -6.574  13.535  1.00  0.00     0.146 C 
HETATM   12  C3  UNL     1      14.680  -5.511  12.965  1.00  0.00     0.145 C 
HETATM   13  N1  UNL     1      16.028  -5.675  13.424  1.00  0.00    -0.349 N 
HETATM   14  C2  UNL     1      17.112  -5.641  12.538  1.00  0.00     0.215 C 
HETATM   15  C34 UNL     1      16.268  -5.889  14.847  1.00  0.00     0.145 C 
HETATM   16  C1  UNL     1      18.528  -5.786  12.951  1.00  0.00     0.117 C 
HETATM   17  O1  UNL     1      16.862  -5.474  11.298  1.00  0.00    -0.274 OA
HETATM   18  C33 UNL     1      15.390  -6.996  15.381  1.00  0.00     0.146 C 
ENDBRANCH   8  10
BRANCH   8  19
HETATM   19  O2  UNL     1      15.458  -9.463  13.432  1.00  0.00    -0.332 OA
ATOM     20  H2  UNL     1      16.269  -8.980  13.544  1.00  0.00     0.220 HD
ENDBRANCH   8  19
ENDBRANCH   5   7
BRANCH   6  21
HETATM   21  C8  UNL     1       9.857  -9.727  15.728  1.00  0.00     0.147 C 
BRANCH  21  22
HETATM   22  N4  UNL     1       8.858  -9.302  14.797  1.00  0.00    -0.332 N 
HETATM   23  C9  UNL     1       8.928  -8.064  14.137  1.00  0.00     0.318 C 
HETATM   24  O3  UNL     1       9.946  -7.329  14.381  1.00  0.00    -0.247 OA
HETATM   25  N5  UNL     1       7.969  -7.583  13.239  1.00  0.00    -0.334 N 
HETATM   26  C10 UNL     1       6.717  -8.243  12.894  1.00  0.00     0.128 C 
HETATM   27  C15 UNL     1       8.221  -6.310  12.556  1.00  0.00     0.128 C 
HETATM   28  C11 UNL     1       5.625  -7.306  13.429  1.00  0.00     0.024 C 
HETATM   29  C12 UNL     1       5.813  -5.959  12.802  1.00  0.00    -0.015 C 
HETATM   30  C13 UNL     1       4.546  -5.551  12.104  1.00  0.00     0.010 C 
HETATM   31  C14 UNL     1       6.949  -5.937  11.810  1.00  0.00     0.024 C 
ATOM     32  H4  UNL     1       8.069  -9.919  14.605  1.00  0.00     0.165 HD
ENDBRANCH  21  22
BRANCH  21  33
HETATM   33  C16 UNL     1       9.556 -10.975  16.446  1.00  0.00     0.084 C 
HETATM   34  C17 UNL     1       8.187 -10.892  17.170  1.00  0.00     0.072 C 
HETATM   35  C18 UNL     1       8.242 -12.277  17.869  1.00  0.00     0.130 C 
HETATM   36  O5  UNL     1       7.170 -12.195  18.741  1.00  0.00    -0.374 OA
HETATM   37  C30 UNL     1       9.599 -12.529  18.179  1.00  0.00     0.022 C 
HETATM   38  C19 UNL     1       7.456 -12.865  19.837  1.00  0.00     0.062 C 
HETATM   39  C20 UNL     1       7.593 -14.290  19.488  1.00  0.00     0.043 C 
HETATM   40  C22 UNL     1       6.613 -13.417  20.911  1.00  0.00     0.043 C 
HETATM   41  C27 UNL     1       8.440 -12.048  20.559  1.00  0.00     0.044 C 
HETATM   42  C21 UNL     1       7.669 -14.539  20.949  1.00  0.00    -0.001 C 
HETATM   43  C23 UNL     1       9.033 -14.141  21.382  1.00  0.00    -0.040 C 
HETATM   44  C24 UNL     1       8.936 -13.896  22.894  1.00  0.00     0.015 C 
HETATM   45  C25 UNL     1       9.923 -15.360  21.223  1.00  0.00     0.015 C 
HETATM   46  C26 UNL     1       9.624 -12.956  20.722  1.00  0.00     0.001 C 
HETATM   47  C28 UNL     1      10.228 -13.074  19.380  1.00  0.00    -0.007 C 
HETATM   48  C29 UNL     1      11.630 -12.449  19.501  1.00  0.00     0.011 C 
HETATM   49  C31 UNL     1      10.378 -11.280  17.672  1.00  0.00     0.048 C 
BRANCH  33  50
HETATM   50  O4  UNL     1       9.402 -12.062  15.588  1.00  0.00    -0.387 OA
ATOM     51  H4  UNL     1      10.221 -12.517  15.426  1.00  0.00     0.210 HD
ENDBRANCH  33  50
ENDBRANCH  21  33
ENDBRANCH   6  21
ENDBRANCH   1   5
TORSDOF 8
ENDMDL
