MODEL 1
REMARK VINA RESULT: -6.165400515      0.000      0.000
REMARK  2 active torsions:
REMARK  status: ('A' for Active; 'I' for Inactive)
REMARK    1  A    between atoms: C2_3  and  C3_4 
REMARK       I    between atoms: C3_4  and  N2_6 
REMARK    2  A    between atoms: N2_6  and  C4_8 
ROOT
HETATM    1  N1  UNL     1       0.499  14.506  23.148  1.00  0.00    -0.196 NA
HETATM    2  C1  UNL     1      -0.328  14.150  23.863  1.00  0.00     0.079 C 
HETATM    3  C2  UNL     1      -1.393  13.708  24.756  1.00  0.00     0.129 C 
HETATM    4  C14 UNL     1      -1.324  14.537  26.044  1.00  0.00     0.034 C 
HETATM    5  C15 UNL     1      -0.323  13.486  26.542  1.00  0.00     0.004 C 
HETATM    6  C16 UNL     1      -1.019  12.511  25.601  1.00  0.00     0.034 C 
ENDROOT
BRANCH   3   7
HETATM    7  C3  UNL     1      -2.734  13.652  24.152  1.00  0.00     0.241 C 
HETATM    8  O1  UNL     1      -3.351  12.562  24.239  1.00  0.00    -0.272 OA
HETATM    9  N2  UNL     1      -3.266  14.807  23.512  1.00  0.00    -0.350 N 
ATOM     10  H2  UNL     1      -2.687  15.646  23.494  1.00  0.00     0.163 HD
BRANCH   9  11
HETATM   11  C4  UNL     1      -4.553  14.876  22.892  1.00  0.00     0.034 C 
HETATM   12  C5  UNL     1      -4.866  13.679  22.029  1.00  0.00     0.035 C 
HETATM   13  C6  UNL     1      -6.264  13.865  21.477  1.00  0.00    -0.012 C 
HETATM   14  C7  UNL     1      -6.352  15.098  20.616  1.00  0.00     0.009 C 
HETATM   15  C11 UNL     1      -7.296  13.978  22.562  1.00  0.00     0.009 C 
HETATM   16  C8  UNL     1      -5.987  16.314  21.450  1.00  0.00    -0.012 C 
HETATM   17  C9  UNL     1      -7.002  16.470  22.561  1.00  0.00     0.009 C 
HETATM   18  C13 UNL     1      -4.617  16.119  22.008  1.00  0.00     0.035 C 
HETATM   19  C10 UNL     1      -7.004  15.211  23.364  1.00  0.00    -0.012 C 
HETATM   20  C12 UNL     1      -5.605  15.027  23.962  1.00  0.00     0.035 C 
ENDBRANCH   9  11
ENDBRANCH   3   7
TORSDOF 2
ENDMDL
MODEL 2
REMARK VINA RESULT: -6.054135687      0.180      1.662
REMARK  2 active torsions:
REMARK  status: ('A' for Active; 'I' for Inactive)
REMARK    1  A    between atoms: C2_3  and  C3_4 
REMARK       I    between atoms: C3_4  and  N2_6 
REMARK    2  A    between atoms: N2_6  and  C4_8 
ROOT
HETATM    1  N1  UNL     1       0.502  14.530  23.219  1.00  0.00    -0.196 NA
HETATM    2  C1  UNL     1      -0.329  14.167  23.927  1.00  0.00     0.079 C 
HETATM    3  C2  UNL     1      -1.399  13.718  24.810  1.00  0.00     0.129 C 
HETATM    4  C14 UNL     1      -1.321  14.521  26.115  1.00  0.00     0.034 C 
HETATM    5  C15 UNL     1      -0.332  13.449  26.591  1.00  0.00     0.004 C 
HETATM    6  C16 UNL     1      -1.038  12.501  25.632  1.00  0.00     0.034 C 
ENDROOT
BRANCH   3   7
HETATM    7  C3  UNL     1      -2.741  13.689  24.206  1.00  0.00     0.241 C 
HETATM    8  O1  UNL     1      -3.369  12.605  24.271  1.00  0.00    -0.272 OA
HETATM    9  N2  UNL     1      -3.260  14.861  23.588  1.00  0.00    -0.350 N 
ATOM     10  H2  UNL     1      -2.672  15.695  23.586  1.00  0.00     0.163 HD
BRANCH   9  11
HETATM   11  C4  UNL     1      -4.546  14.956  22.970  1.00  0.00     0.034 C 
HETATM   12  C5  UNL     1      -5.685  14.959  23.959  1.00  0.00     0.035 C 
HETATM   13  C6  UNL     1      -6.972  15.107  23.174  1.00  0.00    -0.012 C 
HETATM   14  C7  UNL     1      -7.174  13.949  22.232  1.00  0.00     0.009 C 
HETATM   15  C11 UNL     1      -7.009  16.374  22.370  1.00  0.00     0.009 C 
HETATM   16  C8  UNL     1      -6.009  13.890  21.259  1.00  0.00    -0.012 C 
HETATM   17  C9  UNL     1      -6.003  15.153  20.423  1.00  0.00     0.009 C 
HETATM   18  C13 UNL     1      -4.741  13.764  22.035  1.00  0.00     0.035 C 
HETATM   19  C10 UNL     1      -5.911  16.319  21.351  1.00  0.00    -0.012 C 
HETATM   20  C12 UNL     1      -4.594  16.205  22.127  1.00  0.00     0.035 C 
ENDBRANCH   9  11
ENDBRANCH   3   7
TORSDOF 2
ENDMDL
MODEL 3
REMARK VINA RESULT: -5.814086277      3.814      7.086
REMARK  2 active torsions:
REMARK  status: ('A' for Active; 'I' for Inactive)
REMARK    1  A    between atoms: C2_3  and  C3_4 
REMARK       I    between atoms: C3_4  and  N2_6 
REMARK    2  A    between atoms: N2_6  and  C4_8 
ROOT
HETATM    1  N1  UNL     1     -10.655  14.158  17.816  1.00  0.00    -0.196 NA
HETATM    2  C1  UNL     1      -9.538  13.882  17.833  1.00  0.00     0.079 C 
HETATM    3  C2  UNL     1      -8.121  13.543  17.876  1.00  0.00     0.129 C 
HETATM    4  C14 UNL     1      -7.380  14.424  16.862  1.00  0.00     0.034 C 
HETATM    5  C15 UNL     1      -7.718  13.338  15.832  1.00  0.00     0.004 C 
HETATM    6  C16 UNL     1      -7.751  12.365  17.003  1.00  0.00     0.034 C 
ENDROOT
BRANCH   3   7
HETATM    7  C3  UNL     1      -7.517  13.541  19.219  1.00  0.00     0.241 C 
HETATM    8  O1  UNL     1      -7.081  12.443  19.642  1.00  0.00    -0.272 OA
HETATM    9  N2  UNL     1      -7.453  14.751  19.963  1.00  0.00    -0.350 N 
ATOM     10  H2  UNL     1      -7.835  15.593  19.532  1.00  0.00     0.163 HD
BRANCH   9  11
HETATM   11  C4  UNL     1      -6.891  14.874  21.273  1.00  0.00     0.034 C 
HETATM   12  C5  UNL     1      -7.534  13.962  22.287  1.00  0.00     0.035 C 
HETATM   13  C6  UNL     1      -6.817  14.165  23.606  1.00  0.00    -0.012 C 
HETATM   14  C7  UNL     1      -6.963  15.583  24.094  1.00  0.00     0.009 C 
HETATM   15  C11 UNL     1      -5.352  13.852  23.513  1.00  0.00     0.009 C 
HETATM   16  C8  UNL     1      -6.371  16.528  23.062  1.00  0.00    -0.012 C 
HETATM   17  C9  UNL     1      -4.890  16.248  22.933  1.00  0.00     0.009 C 
HETATM   18  C13 UNL     1      -7.066  16.311  21.759  1.00  0.00     0.035 C 
HETATM   19  C10 UNL     1      -4.723  14.814  22.552  1.00  0.00    -0.012 C 
HETATM   20  C12 UNL     1      -5.411  14.599  21.199  1.00  0.00     0.035 C 
ENDBRANCH   9  11
ENDBRANCH   3   7
TORSDOF 2
ENDMDL
MODEL 4
REMARK VINA RESULT: -5.753784172      3.852      7.122
REMARK  2 active torsions:
REMARK  status: ('A' for Active; 'I' for Inactive)
REMARK    1  A    between atoms: C2_3  and  C3_4 
REMARK       I    between atoms: C3_4  and  N2_6 
REMARK    2  A    between atoms: N2_6  and  C4_8 
ROOT
HETATM    1  N1  UNL     1      -7.707  10.547  18.165  1.00  0.00    -0.196 NA
HETATM    2  C1  UNL     1      -7.732  11.664  17.889  1.00  0.00     0.079 C 
HETATM    3  C2  UNL     1      -7.763  13.085  17.564  1.00  0.00     0.129 C 
HETATM    4  C14 UNL     1      -9.153  13.427  17.013  1.00  0.00     0.034 C 
HETATM    5  C15 UNL     1      -8.595  13.015  15.644  1.00  0.00     0.004 C 
HETATM    6  C16 UNL     1      -7.227  13.405  16.187  1.00  0.00     0.034 C 
ENDROOT
BRANCH   3   7
HETATM    7  C3  UNL     1      -7.308  13.984  18.637  1.00  0.00     0.241 C 
HETATM    8  O1  UNL     1      -7.265  15.210  18.370  1.00  0.00    -0.272 OA
HETATM    9  N2  UNL     1      -6.946  13.443  19.902  1.00  0.00    -0.350 N 
ATOM     10  H2  UNL     1      -7.016  12.432  20.022  1.00  0.00     0.163 HD
BRANCH   9  11
HETATM   11  C4  UNL     1      -6.492  14.213  21.019  1.00  0.00     0.034 C 
HETATM   12  C5  UNL     1      -5.305  15.086  20.698  1.00  0.00     0.035 C 
HETATM   13  C6  UNL     1      -4.962  15.870  21.949  1.00  0.00    -0.012 C 
HETATM   14  C7  UNL     1      -4.576  14.953  23.080  1.00  0.00     0.009 C 
HETATM   15  C11 UNL     1      -6.101  16.730  22.414  1.00  0.00     0.009 C 
HETATM   16  C8  UNL     1      -5.738  14.022  23.385  1.00  0.00    -0.012 C 
HETATM   17  C9  UNL     1      -6.915  14.847  23.859  1.00  0.00     0.009 C 
HETATM   18  C13 UNL     1      -6.086  13.267  22.146  1.00  0.00     0.035 C 
HETATM   19  C10 UNL     1      -7.244  15.836  22.790  1.00  0.00    -0.012 C 
HETATM   20  C12 UNL     1      -7.631  15.060  21.527  1.00  0.00     0.035 C 
ENDBRANCH   9  11
ENDBRANCH   3   7
TORSDOF 2
ENDMDL
MODEL 5
REMARK VINA RESULT: -5.746199977      1.732      2.561
REMARK  2 active torsions:
REMARK  status: ('A' for Active; 'I' for Inactive)
REMARK    1  A    between atoms: C2_3  and  C3_4 
REMARK       I    between atoms: C3_4  and  N2_6 
REMARK    2  A    between atoms: N2_6  and  C4_8 
ROOT
HETATM    1  N1  UNL     1      -3.193  11.022  25.124  1.00  0.00    -0.196 NA
HETATM    2  C1  UNL     1      -2.862  12.082  24.823  1.00  0.00     0.079 C 
HETATM    3  C2  UNL     1      -2.459  13.425  24.425  1.00  0.00     0.129 C 
HETATM    4  C14 UNL     1      -1.112  13.334  23.697  1.00  0.00     0.034 C 
HETATM    5  C15 UNL     1      -0.474  13.439  25.089  1.00  0.00     0.004 C 
HETATM    6  C16 UNL     1      -1.731  14.188  25.509  1.00  0.00     0.034 C 
ENDROOT
BRANCH   3   7
HETATM    7  C3  UNL     1      -3.480  14.196  23.696  1.00  0.00     0.241 C 
HETATM    8  O1  UNL     1      -3.326  15.441  23.650  1.00  0.00    -0.272 OA
HETATM    9  N2  UNL     1      -4.573  13.517  23.088  1.00  0.00    -0.350 N 
ATOM     10  H2  UNL     1      -4.610  12.502  23.181  1.00  0.00     0.163 HD
BRANCH   9  11
HETATM   11  C4  UNL     1      -5.623  14.154  22.355  1.00  0.00     0.034 C 
HETATM   12  C5  UNL     1      -5.122  15.126  21.316  1.00  0.00     0.035 C 
HETATM   13  C6  UNL     1      -6.330  15.688  20.595  1.00  0.00    -0.012 C 
HETATM   14  C7  UNL     1      -7.232  16.438  21.540  1.00  0.00     0.009 C 
HETATM   15  C11 UNL     1      -7.143  14.619  19.924  1.00  0.00     0.009 C 
HETATM   16  C8  UNL     1      -7.706  15.492  22.631  1.00  0.00    -0.012 C 
HETATM   17  C9  UNL     1      -8.533  14.392  22.000  1.00  0.00     0.009 C 
HETATM   18  C13 UNL     1      -6.514  14.925  23.327  1.00  0.00     0.035 C 
HETATM   19  C10 UNL     1      -7.684  13.705  20.981  1.00  0.00    -0.012 C 
HETATM   20  C12 UNL     1      -6.476  13.097  21.701  1.00  0.00     0.035 C 
ENDBRANCH   9  11
ENDBRANCH   3   7
TORSDOF 2
ENDMDL
