MODEL 1
REMARK VINA RESULT: -8.929086281      0.000      0.000
REMARK  12 active torsions:
REMARK  status: ('A' for Active; 'I' for Inactive)
REMARK    1  A    between atoms: O1_2  and  C2_3 
REMARK    2  A    between atoms: C5_6  and  S1_7 
REMARK    3  A    between atoms: S1_7  and  C6_10 
REMARK    4  A    between atoms: C6_10  and  C7_11 
REMARK    5  A    between atoms: C7_11  and  O4_12 
REMARK    6  A    between atoms: C7_11  and  C8_14 
REMARK    7  A    between atoms: C8_14  and  C9_15 
REMARK    8  A    between atoms: C13_20  and  O6_21 
REMARK    9  A    between atoms: C13_20  and  C14_23 
REMARK   10  A    between atoms: C15_24  and  C16_25 
REMARK   11  A    between atoms: C22_31  and  O7_32 
REMARK   12  A    between atoms: C26_39  and  C27_40 
ROOT
HETATM    1  C9  UNL     1      17.131   7.336 -24.112  1.00  0.00     0.170 C 
HETATM    2  O5  UNL     1      16.713   8.429 -24.886  1.00  0.00    -0.382 OA
HETATM    3  C10 UNL     1      17.436   8.792 -25.947  1.00  0.00     0.168 C 
HETATM    4  C11 UNL     1      18.199   7.781 -26.712  1.00  0.00     0.030 C 
HETATM    5  C12 UNL     1      18.584   6.615 -25.908  1.00  0.00     0.056 C 
HETATM    6  C13 UNL     1      17.373   6.177 -25.005  1.00  0.00     0.147 C 
ENDROOT
BRANCH   6   7
HETATM    7  O6  UNL     1      16.269   5.967 -25.863  1.00  0.00    -0.375 OA
ATOM      8  H6  UNL     1      16.227   5.060 -26.141  1.00  0.00     0.212 HD
ENDBRANCH   6   7
BRANCH   6   9
HETATM    9  C14 UNL     1      17.688   4.907 -24.436  1.00  0.00    -0.060 C 
HETATM   10  C15 UNL     1      17.972   3.863 -23.853  1.00  0.00    -0.063 C 
BRANCH  10  11
HETATM   11  C16 UNL     1      18.340   2.744 -23.056  1.00  0.00     0.025 A 
HETATM   12  C17 UNL     1      18.047   2.902 -21.687  1.00  0.00     0.022 A 
HETATM   13  C18 UNL     1      18.179   1.819 -20.857  1.00  0.00     0.014 A 
HETATM   14  C19 UNL     1      18.580   0.630 -21.402  1.00  0.00    -0.015 A 
HETATM   15  C20 UNL     1      18.590  -0.468 -20.538  1.00  0.00    -0.016 A 
HETATM   16  C25 UNL     1      18.874   0.461 -22.779  1.00  0.00     0.006 A 
HETATM   17  C21 UNL     1      18.255  -0.239 -19.082  1.00  0.00     0.052 C 
HETATM   18  C22 UNL     1      18.863  -1.733 -20.952  1.00  0.00     0.096 A 
HETATM   19  C23 UNL     1      19.134  -1.909 -22.304  1.00  0.00     0.090 A 
HETATM   20 CL1  UNL     1      19.501  -3.479 -22.938  1.00  0.00    -0.080 Cl
HETATM   21  C24 UNL     1      19.125  -0.808 -23.185  1.00  0.00     0.070 A 
HETATM   22 CL2  UNL     1      19.067  -1.252 -24.885  1.00  0.00    -0.081 Cl
HETATM   23  C26 UNL     1      18.763   1.561 -23.614  1.00  0.00    -0.023 A 
BRANCH  18  24
HETATM   24  O7  UNL     1      18.892  -2.841 -20.146  1.00  0.00    -0.358 OA
ATOM     25  H7  UNL     1      18.131  -3.334 -19.863  1.00  0.00     0.217 HD
ENDBRANCH  18  24
BRANCH  23  26
HETATM   26  C27 UNL     1      19.225   1.510 -24.969  1.00  0.00     0.013 C 
HETATM   27  C28 UNL     1      20.409   2.542 -24.964  1.00  0.00     0.015 C 
HETATM   28  C29 UNL     1      18.473   2.034 -26.135  1.00  0.00     0.015 C 
ENDBRANCH  23  26
ENDBRANCH  10  11
ENDBRANCH   6   9
BRANCH   1  29
HETATM   29  C8  UNL     1      16.123   7.092 -23.008  1.00  0.00     0.068 C 
BRANCH  29  30
HETATM   30  C7  UNL     1      15.527   8.361 -22.435  1.00  0.00     0.135 C 
BRANCH  30  31
HETATM   31  C6  UNL     1      15.998   8.599 -21.052  1.00  0.00     0.177 C 
BRANCH  31  32
HETATM   32  S1  UNL     1      14.837   8.208 -19.751  1.00  0.00     0.177 S 
HETATM   33  O2  UNL     1      14.981   9.110 -18.585  1.00  0.00    -0.223 OA
HETATM   34  O3  UNL     1      13.463   8.220 -20.322  1.00  0.00    -0.223 OA
BRANCH  32  35
HETATM   35  C5  UNL     1      15.276   6.572 -19.255  1.00  0.00     0.059 A 
HETATM   36  C4  UNL     1      15.979   6.419 -18.094  1.00  0.00     0.026 A 
HETATM   37  C3  UNL     1      16.367   5.138 -17.675  1.00  0.00     0.038 A 
HETATM   38  C2  UNL     1      16.029   4.058 -18.452  1.00  0.00     0.068 A 
HETATM   39  C31 UNL     1      15.320   4.232 -19.618  1.00  0.00     0.038 A 
HETATM   40  C30 UNL     1      14.942   5.512 -20.020  1.00  0.00     0.026 A 
BRANCH  38  41
HETATM   41  O1  UNL     1      16.432   2.815 -18.012  1.00  0.00    -0.356 OA
HETATM   42  C1  UNL     1      15.504   1.865 -17.591  1.00  0.00     0.210 C 
ENDBRANCH  38  41
ENDBRANCH  32  35
ENDBRANCH  31  32
ENDBRANCH  30  31
BRANCH  30  43
HETATM   43  O4  UNL     1      14.203   8.574 -22.676  1.00  0.00    -0.395 OA
ATOM     44  H4  UNL     1      13.630   7.818 -22.610  1.00  0.00     0.210 HD
ENDBRANCH  30  43
ENDBRANCH  29  30
ENDBRANCH   1  29
TORSDOF 12
ENDMDL
MODEL 2
REMARK VINA RESULT: -8.799560810      2.959      7.469
REMARK  12 active torsions:
REMARK  status: ('A' for Active; 'I' for Inactive)
REMARK    1  A    between atoms: O1_2  and  C2_3 
REMARK    2  A    between atoms: C5_6  and  S1_7 
REMARK    3  A    between atoms: S1_7  and  C6_10 
REMARK    4  A    between atoms: C6_10  and  C7_11 
REMARK    5  A    between atoms: C7_11  and  O4_12 
REMARK    6  A    between atoms: C7_11  and  C8_14 
REMARK    7  A    between atoms: C8_14  and  C9_15 
REMARK    8  A    between atoms: C13_20  and  O6_21 
REMARK    9  A    between atoms: C13_20  and  C14_23 
REMARK   10  A    between atoms: C15_24  and  C16_25 
REMARK   11  A    between atoms: C22_31  and  O7_32 
REMARK   12  A    between atoms: C26_39  and  C27_40 
ROOT
HETATM    1  C9  UNL     1      18.766  -1.533 -20.859  1.00  0.00     0.170 C 
HETATM    2  O5  UNL     1      19.430  -2.690 -20.427  1.00  0.00    -0.382 OA
HETATM    3  C10 UNL     1      19.601  -3.702 -21.279  1.00  0.00     0.168 C 
HETATM    4  C11 UNL     1      19.746  -3.442 -22.729  1.00  0.00     0.030 C 
HETATM    5  C12 UNL     1      19.096  -2.199 -23.161  1.00  0.00     0.056 C 
HETATM    6  C13 UNL     1      19.391  -1.060 -22.118  1.00  0.00     0.147 C 
ENDROOT
BRANCH   6   7
HETATM    7  O6  UNL     1      20.796  -0.977 -21.980  1.00  0.00    -0.375 OA
ATOM      8  H6  UNL     1      21.228  -1.194 -22.798  1.00  0.00     0.212 HD
ENDBRANCH   6   7
BRANCH   6   9
HETATM    9  C14 UNL     1      18.968   0.177 -22.689  1.00  0.00    -0.060 C 
HETATM   10  C15 UNL     1      18.552   1.261 -23.091  1.00  0.00    -0.063 C 
BRANCH  10  11
HETATM   11  C16 UNL     1      17.978   2.519 -23.428  1.00  0.00     0.025 A 
HETATM   12  C17 UNL     1      17.145   3.050 -22.424  1.00  0.00     0.022 A 
HETATM   13  C18 UNL     1      16.695   4.338 -22.556  1.00  0.00     0.014 A 
HETATM   14  C19 UNL     1      17.087   5.051 -23.655  1.00  0.00    -0.015 A 
HETATM   15  C20 UNL     1      16.695   6.392 -23.687  1.00  0.00    -0.016 A 
HETATM   16  C25 UNL     1      17.928   4.526 -24.669  1.00  0.00     0.006 A 
HETATM   17  C21 UNL     1      15.811   6.908 -22.576  1.00  0.00     0.052 C 
HETATM   18  C22 UNL     1      17.092   7.256 -24.658  1.00  0.00     0.096 A 
HETATM   19  C23 UNL     1      17.932   6.753 -25.645  1.00  0.00     0.090 A 
HETATM   20 CL1  UNL     1      18.493   7.766 -26.934  1.00  0.00    -0.080 Cl
HETATM   21  C24 UNL     1      18.335   5.402 -25.622  1.00  0.00     0.070 A 
HETATM   22 CL2  UNL     1      19.700   5.043 -26.670  1.00  0.00    -0.081 Cl
HETATM   23  C26 UNL     1      18.364   3.217 -24.547  1.00  0.00    -0.023 A 
BRANCH  18  24
HETATM   24  O7  UNL     1      16.733   8.576 -24.739  1.00  0.00    -0.358 OA
ATOM     25  H7  UNL     1      17.212   9.300 -24.355  1.00  0.00     0.217 HD
ENDBRANCH  18  24
BRANCH  23  26
HETATM   26  C27 UNL     1      19.053   2.564 -25.621  1.00  0.00     0.013 C 
HETATM   27  C28 UNL     1      17.954   1.601 -26.195  1.00  0.00     0.015 C 
HETATM   28  C29 UNL     1      20.147   1.578 -25.443  1.00  0.00     0.015 C 
ENDBRANCH  23  26
ENDBRANCH  10  11
ENDBRANCH   6   9
BRANCH   1  29
HETATM   29  C8  UNL     1      18.750  -0.519 -19.734  1.00  0.00     0.068 C 
BRANCH  29  30
HETATM   30  C7  UNL     1      17.438   0.227 -19.604  1.00  0.00     0.135 C 
BRANCH  30  31
HETATM   31  C6  UNL     1      17.656   1.629 -19.183  1.00  0.00     0.177 C 
BRANCH  31  32
HETATM   32  S1  UNL     1      17.861   1.898 -17.429  1.00  0.00     0.177 S 
HETATM   33  O2  UNL     1      18.195   0.648 -16.707  1.00  0.00    -0.223 OA
HETATM   34  O3  UNL     1      18.877   2.967 -17.227  1.00  0.00    -0.223 OA
BRANCH  32  35
HETATM   35  C5  UNL     1      16.276   2.456 -16.887  1.00  0.00     0.059 A 
HETATM   36  C4  UNL     1      15.295   1.524 -16.706  1.00  0.00     0.026 A 
HETATM   37  C3  UNL     1      14.014   1.926 -16.298  1.00  0.00     0.038 A 
HETATM   38  C2  UNL     1      13.777   3.262 -16.091  1.00  0.00     0.068 A 
HETATM   39  C31 UNL     1      14.779   4.186 -16.278  1.00  0.00     0.038 A 
HETATM   40  C30 UNL     1      16.045   3.769 -16.683  1.00  0.00     0.026 A 
BRANCH  38  41
HETATM   41  O1  UNL     1      12.506   3.622 -15.695  1.00  0.00    -0.356 OA
HETATM   42  C1  UNL     1      12.281   4.790 -14.970  1.00  0.00     0.210 C 
ENDBRANCH  38  41
ENDBRANCH  32  35
ENDBRANCH  31  32
ENDBRANCH  30  31
BRANCH  30  43
HETATM   43  O4  UNL     1      16.416  -0.442 -18.999  1.00  0.00    -0.395 OA
ATOM     44  H4  UNL     1      16.644  -0.985 -18.254  1.00  0.00     0.210 HD
ENDBRANCH  30  43
ENDBRANCH  29  30
ENDBRANCH   1  29
TORSDOF 12
ENDMDL
MODEL 3
REMARK VINA RESULT: -8.729145850      2.532      7.367
REMARK  12 active torsions:
REMARK  status: ('A' for Active; 'I' for Inactive)
REMARK    1  A    between atoms: O1_2  and  C2_3 
REMARK    2  A    between atoms: C5_6  and  S1_7 
REMARK    3  A    between atoms: S1_7  and  C6_10 
REMARK    4  A    between atoms: C6_10  and  C7_11 
REMARK    5  A    between atoms: C7_11  and  O4_12 
REMARK    6  A    between atoms: C7_11  and  C8_14 
REMARK    7  A    between atoms: C8_14  and  C9_15 
REMARK    8  A    between atoms: C13_20  and  O6_21 
REMARK    9  A    between atoms: C13_20  and  C14_23 
REMARK   10  A    between atoms: C15_24  and  C16_25 
REMARK   11  A    between atoms: C22_31  and  O7_32 
REMARK   12  A    between atoms: C26_39  and  C27_40 
ROOT
HETATM    1  C9  UNL     1      18.745  -1.628 -20.834  1.00  0.00     0.170 C 
HETATM    2  O5  UNL     1      19.380  -2.804 -20.408  1.00  0.00    -0.382 OA
HETATM    3  C10 UNL     1      19.540  -3.809 -21.271  1.00  0.00     0.168 C 
HETATM    4  C11 UNL     1      19.707  -3.535 -22.715  1.00  0.00     0.030 C 
HETATM    5  C12 UNL     1      19.088  -2.274 -23.141  1.00  0.00     0.056 C 
HETATM    6  C13 UNL     1      19.394  -1.154 -22.080  1.00  0.00     0.147 C 
ENDROOT
BRANCH   6   7
HETATM    7  O6  UNL     1      20.799  -1.101 -21.925  1.00  0.00    -0.375 OA
ATOM      8  H6  UNL     1      21.040  -0.483 -21.246  1.00  0.00     0.212 HD
ENDBRANCH   6   7
BRANCH   6   9
HETATM    9  C14 UNL     1      19.003   0.099 -22.641  1.00  0.00    -0.060 C 
HETATM   10  C15 UNL     1      18.599   1.187 -23.043  1.00  0.00    -0.063 C 
BRANCH  10  11
HETATM   11  C16 UNL     1      18.019   2.436 -23.400  1.00  0.00     0.025 A 
HETATM   12  C17 UNL     1      17.176   2.974 -22.408  1.00  0.00     0.022 A 
HETATM   13  C18 UNL     1      16.717   4.257 -22.559  1.00  0.00     0.014 A 
HETATM   14  C19 UNL     1      17.111   4.959 -23.664  1.00  0.00    -0.015 A 
HETATM   15  C20 UNL     1      16.710   6.297 -23.716  1.00  0.00    -0.016 A 
HETATM   16  C25 UNL     1      17.962   4.427 -24.667  1.00  0.00     0.006 A 
HETATM   17  C21 UNL     1      15.816   6.821 -22.616  1.00  0.00     0.052 C 
HETATM   18  C22 UNL     1      17.107   7.151 -24.695  1.00  0.00     0.096 A 
HETATM   19  C23 UNL     1      17.956   6.642 -25.670  1.00  0.00     0.090 A 
HETATM   20 CL1  UNL     1      18.518   7.642 -26.968  1.00  0.00    -0.080 Cl
HETATM   21  C24 UNL     1      18.368   5.294 -25.628  1.00  0.00     0.070 A 
HETATM   22 CL2  UNL     1      19.742   4.932 -26.663  1.00  0.00    -0.081 Cl
HETATM   23  C26 UNL     1      18.406   3.123 -24.526  1.00  0.00    -0.023 A 
BRANCH  18  24
HETATM   24  O7  UNL     1      16.739   8.468 -24.795  1.00  0.00    -0.358 OA
ATOM     25  H7  UNL     1      16.169   8.829 -25.463  1.00  0.00     0.217 HD
ENDBRANCH  18  24
BRANCH  23  26
HETATM   26  C27 UNL     1      19.107   2.462 -25.587  1.00  0.00     0.013 C 
HETATM   27  C28 UNL     1      17.993   1.548 -26.212  1.00  0.00     0.015 C 
HETATM   28  C29 UNL     1      20.158   1.434 -25.390  1.00  0.00     0.015 C 
ENDBRANCH  23  26
ENDBRANCH  10  11
ENDBRANCH   6   9
BRANCH   1  29
HETATM   29  C8  UNL     1      18.737  -0.627 -19.697  1.00  0.00     0.068 C 
BRANCH  29  30
HETATM   30  C7  UNL     1      17.476   0.210 -19.630  1.00  0.00     0.135 C 
BRANCH  30  31
HETATM   31  C6  UNL     1      17.792   1.642 -19.430  1.00  0.00     0.177 C 
BRANCH  31  32
HETATM   32  S1  UNL     1      17.700   2.237 -17.748  1.00  0.00     0.177 S 
HETATM   33  O2  UNL     1      17.286   1.175 -16.802  1.00  0.00    -0.223 OA
HETATM   34  O3  UNL     1      19.009   2.848 -17.389  1.00  0.00    -0.223 OA
BRANCH  32  35
HETATM   35  C5  UNL     1      16.442   3.474 -17.793  1.00  0.00     0.059 A 
HETATM   36  C4  UNL     1      15.793   3.688 -18.975  1.00  0.00     0.026 A 
HETATM   37  C3  UNL     1      14.803   4.677 -19.061  1.00  0.00     0.038 A 
HETATM   38  C2  UNL     1      14.508   5.416 -17.942  1.00  0.00     0.068 A 
HETATM   39  C31 UNL     1      15.172   5.185 -16.759  1.00  0.00     0.038 A 
HETATM   40  C30 UNL     1      16.154   4.198 -16.692  1.00  0.00     0.026 A 
BRANCH  38  41
HETATM   41  O1  UNL     1      13.533   6.382 -18.063  1.00  0.00    -0.356 OA
HETATM   42  C1  UNL     1      13.515   7.254 -19.149  1.00  0.00     0.210 C 
ENDBRANCH  38  41
ENDBRANCH  32  35
ENDBRANCH  31  32
ENDBRANCH  30  31
BRANCH  30  43
HETATM   43  O4  UNL     1      16.447  -0.300 -18.896  1.00  0.00    -0.395 OA
ATOM     44  H4  UNL     1      16.019  -1.075 -19.240  1.00  0.00     0.210 HD
ENDBRANCH  30  43
ENDBRANCH  29  30
ENDBRANCH   1  29
TORSDOF 12
ENDMDL
MODEL 4
REMARK VINA RESULT: -8.699697147      4.612      9.586
REMARK  12 active torsions:
REMARK  status: ('A' for Active; 'I' for Inactive)
REMARK    1  A    between atoms: O1_2  and  C2_3 
REMARK    2  A    between atoms: C5_6  and  S1_7 
REMARK    3  A    between atoms: S1_7  and  C6_10 
REMARK    4  A    between atoms: C6_10  and  C7_11 
REMARK    5  A    between atoms: C7_11  and  O4_12 
REMARK    6  A    between atoms: C7_11  and  C8_14 
REMARK    7  A    between atoms: C8_14  and  C9_15 
REMARK    8  A    between atoms: C13_20  and  O6_21 
REMARK    9  A    between atoms: C13_20  and  C14_23 
REMARK   10  A    between atoms: C15_24  and  C16_25 
REMARK   11  A    between atoms: C22_31  and  O7_32 
REMARK   12  A    between atoms: C26_39  and  C27_40 
ROOT
HETATM    1  C9  UNL     1      19.581  -0.616 -23.337  1.00  0.00     0.170 C 
HETATM    2  O5  UNL     1      20.128  -1.008 -24.568  1.00  0.00    -0.382 OA
HETATM    3  C10 UNL     1      19.363  -0.979 -25.661  1.00  0.00     0.168 C 
HETATM    4  C11 UNL     1      18.276   0.018 -25.786  1.00  0.00     0.030 C 
HETATM    5  C12 UNL     1      17.749   0.464 -24.491  1.00  0.00     0.056 C 
HETATM    6  C13 UNL     1      18.941   0.712 -23.496  1.00  0.00     0.147 C 
ENDROOT
BRANCH   6   7
HETATM    7  O6  UNL     1      19.823   1.623 -24.123  1.00  0.00    -0.375 OA
ATOM      8  H6  UNL     1      20.575   1.169 -24.484  1.00  0.00     0.212 HD
ENDBRANCH   6   7
BRANCH   6   9
HETATM    9  C14 UNL     1      18.421   1.381 -22.348  1.00  0.00    -0.060 C 
HETATM   10  C15 UNL     1      17.896   1.994 -21.421  1.00  0.00    -0.063 C 
BRANCH  10  11
HETATM   11  C16 UNL     1      17.195   2.771 -20.457  1.00  0.00     0.025 A 
HETATM   12  C17 UNL     1      16.803   4.039 -20.926  1.00  0.00     0.022 A 
HETATM   13  C18 UNL     1      15.958   4.794 -20.154  1.00  0.00     0.014 A 
HETATM   14  C19 UNL     1      15.527   4.272 -18.966  1.00  0.00    -0.015 A 
HETATM   15  C20 UNL     1      14.580   5.030 -18.271  1.00  0.00    -0.016 A 
HETATM   16  C25 UNL     1      15.914   2.994 -18.487  1.00  0.00     0.006 A 
HETATM   17  C21 UNL     1      14.190   6.378 -18.830  1.00  0.00     0.052 C 
HETATM   18  C22 UNL     1      13.980   4.599 -17.131  1.00  0.00     0.096 A 
HETATM   19  C23 UNL     1      14.341   3.340 -16.665  1.00  0.00     0.090 A 
HETATM   20 CL1  UNL     1      13.641   2.696 -15.217  1.00  0.00    -0.080 Cl
HETATM   21  C24 UNL     1      15.293   2.566 -17.359  1.00  0.00     0.070 A 
HETATM   22 CL2  UNL     1      15.320   0.872 -16.890  1.00  0.00    -0.081 Cl
HETATM   23  C26 UNL     1      16.785   2.242 -19.256  1.00  0.00    -0.023 A 
BRANCH  18  24
HETATM   24  O7  UNL     1      13.053   5.304 -16.409  1.00  0.00    -0.358 OA
ATOM     25  H7  UNL     1      12.299   4.929 -15.969  1.00  0.00     0.217 HD
ENDBRANCH  18  24
BRANCH  23  26
HETATM   26  C27 UNL     1      17.365   1.034 -18.748  1.00  0.00     0.013 C 
HETATM   27  C28 UNL     1      18.655   1.555 -18.020  1.00  0.00     0.015 C 
HETATM   28  C29 UNL     1      17.988  -0.019 -19.587  1.00  0.00     0.015 C 
ENDBRANCH  23  26
ENDBRANCH  10  11
ENDBRANCH   6   9
BRANCH   1  29
HETATM   29  C8  UNL     1      20.655  -0.684 -22.271  1.00  0.00     0.068 C 
BRANCH  29  30
HETATM   30  C7  UNL     1      21.348  -2.029 -22.188  1.00  0.00     0.135 C 
BRANCH  30  31
HETATM   31  C6  UNL     1      20.906  -2.787 -20.996  1.00  0.00     0.177 C 
BRANCH  31  32
HETATM   32  S1  UNL     1      21.458  -4.484 -20.899  1.00  0.00     0.177 S 
HETATM   33  O2  UNL     1      22.049  -4.953 -22.174  1.00  0.00    -0.223 OA
HETATM   34  O3  UNL     1      22.393  -4.614 -19.749  1.00  0.00    -0.223 OA
BRANCH  32  35
HETATM   35  C5  UNL     1      19.983  -5.403 -20.590  1.00  0.00     0.059 A 
HETATM   36  C4  UNL     1      20.087  -6.566 -19.881  1.00  0.00     0.026 A 
HETATM   37  C3  UNL     1      18.943  -7.339 -19.632  1.00  0.00     0.038 A 
HETATM   38  C2  UNL     1      17.734  -6.903 -20.116  1.00  0.00     0.068 A 
HETATM   39  C31 UNL     1      17.649  -5.729 -20.828  1.00  0.00     0.038 A 
HETATM   40  C30 UNL     1      18.796  -4.974 -21.065  1.00  0.00     0.026 A 
BRANCH  38  41
HETATM   41  O1  UNL     1      16.632  -7.691 -19.857  1.00  0.00    -0.356 OA
HETATM   42  C1  UNL     1      16.725  -8.812 -19.037  1.00  0.00     0.210 C 
ENDBRANCH  38  41
ENDBRANCH  32  35
ENDBRANCH  31  32
ENDBRANCH  30  31
BRANCH  30  43
HETATM   43  O4  UNL     1      22.682  -2.043 -22.464  1.00  0.00    -0.395 OA
ATOM     44  H4  UNL     1      23.216  -1.394 -22.021  1.00  0.00     0.210 HD
ENDBRANCH  30  43
ENDBRANCH  29  30
ENDBRANCH   1  29
TORSDOF 12
ENDMDL
MODEL 5
REMARK VINA RESULT: -8.653114799      3.417      8.126
REMARK  12 active torsions:
REMARK  status: ('A' for Active; 'I' for Inactive)
REMARK    1  A    between atoms: O1_2  and  C2_3 
REMARK    2  A    between atoms: C5_6  and  S1_7 
REMARK    3  A    between atoms: S1_7  and  C6_10 
REMARK    4  A    between atoms: C6_10  and  C7_11 
REMARK    5  A    between atoms: C7_11  and  O4_12 
REMARK    6  A    between atoms: C7_11  and  C8_14 
REMARK    7  A    between atoms: C8_14  and  C9_15 
REMARK    8  A    between atoms: C13_20  and  O6_21 
REMARK    9  A    between atoms: C13_20  and  C14_23 
REMARK   10  A    between atoms: C15_24  and  C16_25 
REMARK   11  A    between atoms: C22_31  and  O7_32 
REMARK   12  A    between atoms: C26_39  and  C27_40 
ROOT
HETATM    1  C9  UNL     1      19.722  -0.507 -22.709  1.00  0.00     0.170 C 
HETATM    2  O5  UNL     1      20.350  -1.604 -23.316  1.00  0.00    -0.382 OA
HETATM    3  C10 UNL     1      21.269  -2.290 -22.635  1.00  0.00     0.168 C 
HETATM    4  C11 UNL     1      21.179  -2.400 -21.162  1.00  0.00     0.030 C 
HETATM    5  C12 UNL     1      20.471  -1.275 -20.540  1.00  0.00     0.056 C 
HETATM    6  C13 UNL     1      19.193  -0.925 -21.388  1.00  0.00     0.147 C 
ENDROOT
BRANCH   6   7
HETATM    7  O6  UNL     1      18.434  -2.112 -21.504  1.00  0.00    -0.375 OA
ATOM      8  H6  UNL     1      17.507  -1.929 -21.406  1.00  0.00     0.212 HD
ENDBRANCH   6   7
BRANCH   6   9
HETATM    9  C14 UNL     1      18.401  -0.012 -20.629  1.00  0.00    -0.060 C 
HETATM   10  C15 UNL     1      17.635   0.714 -20.000  1.00  0.00    -0.063 C 
BRANCH  10  11
HETATM   11  C16 UNL     1      16.631   1.473 -19.338  1.00  0.00     0.025 A 
HETATM   12  C17 UNL     1      16.014   0.791 -18.272  1.00  0.00     0.022 A 
HETATM   13  C18 UNL     1      15.173   1.487 -17.443  1.00  0.00     0.014 A 
HETATM   14  C19 UNL     1      14.981   2.820 -17.687  1.00  0.00    -0.015 A 
HETATM   15  C20 UNL     1      14.206   3.509 -16.750  1.00  0.00    -0.016 A 
HETATM   16  C25 UNL     1      15.599   3.516 -18.757  1.00  0.00     0.006 A 
HETATM   17  C21 UNL     1      13.580   2.725 -15.621  1.00  0.00     0.052 C 
HETATM   18  C22 UNL     1      14.010   4.853 -16.797  1.00  0.00     0.096 A 
HETATM   19  C23 UNL     1      14.628   5.544 -17.832  1.00  0.00     0.090 A 
HETATM   20 CL1  UNL     1      14.441   7.260 -17.989  1.00  0.00    -0.080 Cl
HETATM   21  C24 UNL     1      15.414   4.859 -18.782  1.00  0.00     0.070 A 
HETATM   22 CL2  UNL     1      16.445   5.906 -19.747  1.00  0.00    -0.081 Cl
HETATM   23  C26 UNL     1      16.431   2.807 -19.607  1.00  0.00    -0.023 A 
BRANCH  18  24
HETATM   24  O7  UNL     1      13.256   5.575 -15.909  1.00  0.00    -0.358 OA
ATOM     25  H7  UNL     1      13.598   6.195 -15.276  1.00  0.00     0.217 HD
ENDBRANCH  18  24
BRANCH  23  26
HETATM   26  C27 UNL     1      16.933   3.398 -20.812  1.00  0.00     0.013 C 
HETATM   27  C28 UNL     1      16.150   2.618 -21.927  1.00  0.00     0.015 C 
HETATM   28  C29 UNL     1      18.311   3.211 -21.331  1.00  0.00     0.015 C 
ENDBRANCH  23  26
ENDBRANCH  10  11
ENDBRANCH   6   9
BRANCH   1  29
HETATM   29  C8  UNL     1      18.689   0.065 -23.658  1.00  0.00     0.068 C 
BRANCH  29  30
HETATM   30  C7  UNL     1      19.278   0.941 -24.744  1.00  0.00     0.135 C 
BRANCH  30  31
HETATM   31  C6  UNL     1      18.926   2.364 -24.536  1.00  0.00     0.177 C 
BRANCH  31  32
HETATM   32  S1  UNL     1      18.423   3.267 -25.993  1.00  0.00     0.177 S 
HETATM   33  O2  UNL     1      19.558   3.526 -26.910  1.00  0.00    -0.223 OA
HETATM   34  O3  UNL     1      17.311   2.528 -26.650  1.00  0.00    -0.223 OA
BRANCH  32  35
HETATM   35  C5  UNL     1      17.841   4.812 -25.367  1.00  0.00     0.059 A 
HETATM   36  C4  UNL     1      16.876   4.790 -24.401  1.00  0.00     0.026 A 
HETATM   37  C3  UNL     1      16.369   5.994 -23.892  1.00  0.00     0.038 A 
HETATM   38  C2  UNL     1      16.860   7.178 -24.384  1.00  0.00     0.068 A 
HETATM   39  C31 UNL     1      17.833   7.180 -25.356  1.00  0.00     0.038 A 
HETATM   40  C30 UNL     1      18.326   5.973 -25.851  1.00  0.00     0.026 A 
BRANCH  38  41
HETATM   41  O1  UNL     1      16.335   8.343 -23.864  1.00  0.00    -0.356 OA
HETATM   42  C1  UNL     1      15.696   8.355 -22.627  1.00  0.00     0.210 C 
ENDBRANCH  38  41
ENDBRANCH  32  35
ENDBRANCH  31  32
ENDBRANCH  30  31
BRANCH  30  43
HETATM   43  O4  UNL     1      19.191   0.468 -26.020  1.00  0.00    -0.395 OA
ATOM     44  H4  UNL     1      18.326   0.460 -26.414  1.00  0.00     0.210 HD
ENDBRANCH  30  43
ENDBRANCH  29  30
ENDBRANCH   1  29
TORSDOF 12
ENDMDL
