MODEL 1
REMARK VINA RESULT: 1.619741725      0.000      0.000
REMARK  5 active torsions:
REMARK  status: ('A' for Active; 'I' for Inactive)
REMARK    1  A    between atoms: S1_2  and  C2_3 
REMARK    2  A    between atoms: C4_8  and  N2_9 
REMARK    3  A    between atoms: N3_12  and  C7_13 
REMARK    4  A    between atoms: C11_17  and  C12_18 
REMARK    5  A    between atoms: C13_22  and  C14_23 
ROOT
HETATM    1  C2  UNL     1      26.389   0.330  -8.920  1.00  0.00     0.147 A 
HETATM    2  N1  UNL     1      25.542  -0.330  -8.120  1.00  0.00    -0.302 N 
ATOM      3  H1  UNL     1      25.778  -0.520  -7.146  1.00  0.00     0.171 HD
HETATM    4  C3  UNL     1      24.388  -0.729  -8.637  1.00  0.00     0.276 A 
HETATM    5  O1  UNL     1      23.556  -1.342  -7.933  1.00  0.00    -0.266 OA
HETATM    6  C4  UNL     1      24.051  -0.468 -10.005  1.00  0.00     0.123 A 
HETATM    7  C13 UNL     1      24.911   0.209 -10.826  1.00  0.00     0.051 A 
HETATM    8  N4  UNL     1      26.085   0.578 -10.182  1.00  0.00    -0.337 N 
ATOM      9  H4  UNL     1      26.776   1.088 -10.733  1.00  0.00     0.168 HD
ENDROOT
BRANCH   6  10
HETATM   10  N2  UNL     1      22.842  -1.005 -10.462  1.00  0.00    -0.359 N 
HETATM   11  C5  UNL     1      22.915  -2.064 -11.488  1.00  0.00     0.143 C 
HETATM   12  C6  UNL     1      21.722  -2.991 -11.441  1.00  0.00     0.137 C 
HETATM   13  N3  UNL     1      20.555  -2.267 -11.807  1.00  0.00    -0.405 N 
HETATM   14  C10 UNL     1      20.573  -0.933 -11.362  1.00  0.00     0.151 C 
HETATM   15  C11 UNL     1      21.491  -0.684 -10.127  1.00  0.00     0.210 C 
BRANCH  13  16
HETATM   16  C7  UNL     1      19.334  -2.976 -11.670  1.00  0.00     0.071 C 
HETATM   17  C8  UNL     1      18.589  -3.263 -12.930  1.00  0.00     0.031 C 
HETATM   18  C9  UNL     1      18.415  -2.254 -10.701  1.00  0.00     0.031 C 
ENDBRANCH  13  16
BRANCH  15  19
HETATM   19  C12 UNL     1      21.097   0.646  -9.655  1.00  0.00     0.409 C 
HETATM   20  F1  UNL     1      21.020   1.667 -10.548  1.00  0.00    -0.169 F 
HETATM   21  F2  UNL     1      21.729   1.097  -8.486  1.00  0.00    -0.169 F 
HETATM   22  F3  UNL     1      19.765   0.506  -9.194  1.00  0.00    -0.169 F 
ENDBRANCH  15  19
ENDBRANCH   6  10
BRANCH   7  23
HETATM   23  C14 UNL     1      24.717   0.594 -12.194  1.00  0.00    -0.006 C 
HETATM   24  C15 UNL     1      23.280   0.913 -12.619  1.00  0.00     0.021 C 
HETATM   25  C16 UNL     1      25.352   2.035 -12.338  1.00  0.00     0.021 C 
HETATM   26  C17 UNL     1      25.413  -0.066 -13.311  1.00  0.00     0.021 C 
ENDBRANCH   7  23
BRANCH   1  27
HETATM   27  S1  UNL     1      27.987   0.904  -8.283  1.00  0.00    -0.098 SA
HETATM   28  C1  UNL     1      29.263   0.673  -9.580  1.00  0.00     0.099 C 
ENDBRANCH   1  27
TORSDOF 5
ENDMDL
MODEL 2
REMARK VINA RESULT: 1.783748650      3.345      6.813
REMARK  5 active torsions:
REMARK  status: ('A' for Active; 'I' for Inactive)
REMARK    1  A    between atoms: S1_2  and  C2_3 
REMARK    2  A    between atoms: C4_8  and  N2_9 
REMARK    3  A    between atoms: N3_12  and  C7_13 
REMARK    4  A    between atoms: C11_17  and  C12_18 
REMARK    5  A    between atoms: C13_22  and  C14_23 
ROOT
HETATM    1  C2  UNL     1      22.175  -0.587 -11.076  1.00  0.00     0.147 A 
HETATM    2  N1  UNL     1      22.444  -1.020  -9.839  1.00  0.00    -0.302 N 
ATOM      3  H1  UNL     1      21.721  -1.452  -9.263  1.00  0.00     0.171 HD
HETATM    4  C3  UNL     1      23.681  -0.867  -9.386  1.00  0.00     0.276 A 
HETATM    5  O1  UNL     1      23.990  -1.260  -8.240  1.00  0.00    -0.266 OA
HETATM    6  C4  UNL     1      24.701  -0.258 -10.188  1.00  0.00     0.123 A 
HETATM    7  C13 UNL     1      24.432   0.183 -11.455  1.00  0.00     0.051 A 
HETATM    8  N4  UNL     1      23.110  -0.028 -11.824  1.00  0.00    -0.337 N 
ATOM      9  H4  UNL     1      22.835   0.277 -12.758  1.00  0.00     0.168 HD
ENDROOT
BRANCH   6  10
HETATM   10  N2  UNL     1      25.948  -0.077  -9.578  1.00  0.00    -0.359 N 
HETATM   11  C5  UNL     1      26.195   1.218  -8.913  1.00  0.00     0.143 C 
HETATM   12  C6  UNL     1      27.202   1.103  -7.791  1.00  0.00     0.137 C 
HETATM   13  N3  UNL     1      28.472   0.772  -8.337  1.00  0.00    -0.405 N 
HETATM   14  C10 UNL     1      28.386  -0.082  -9.451  1.00  0.00     0.151 C 
HETATM   15  C11 UNL     1      27.084  -0.938  -9.501  1.00  0.00     0.210 C 
BRANCH  13  16
HETATM   16  C7  UNL     1      29.486   0.492  -7.387  1.00  0.00     0.071 C 
HETATM   17  C8  UNL     1      30.769  -0.048  -7.926  1.00  0.00     0.031 C 
HETATM   18  C9  UNL     1      28.959  -0.449  -6.319  1.00  0.00     0.031 C 
ENDBRANCH  13  16
BRANCH  15  19
HETATM   19  C12 UNL     1      27.367  -1.953 -10.519  1.00  0.00     0.409 C 
HETATM   20  F1  UNL     1      27.480  -1.572 -11.818  1.00  0.00    -0.169 F 
HETATM   21  F2  UNL     1      26.604  -3.129 -10.444  1.00  0.00    -0.169 F 
HETATM   22  F3  UNL     1      28.653  -2.457 -10.207  1.00  0.00    -0.169 F 
ENDBRANCH  15  19
ENDBRANCH   6  10
BRANCH   7  23
HETATM   23  C14 UNL     1      25.335   0.767 -12.403  1.00  0.00    -0.006 C 
HETATM   24  C15 UNL     1      26.005  -0.191 -13.393  1.00  0.00     0.021 C 
HETATM   25  C16 UNL     1      24.439   1.592 -13.411  1.00  0.00     0.021 C 
HETATM   26  C17 UNL     1      26.291   1.828 -12.041  1.00  0.00     0.021 C 
ENDBRANCH   7  23
BRANCH   1  27
HETATM   27  S1  UNL     1      20.505  -0.761 -11.762  1.00  0.00    -0.098 SA
HETATM   28  C1  UNL     1      19.853  -2.420 -11.330  1.00  0.00     0.099 C 
ENDBRANCH   1  27
TORSDOF 5
ENDMDL
MODEL 3
REMARK VINA RESULT: 2.569257673      2.072      2.751
REMARK  5 active torsions:
REMARK  status: ('A' for Active; 'I' for Inactive)
REMARK    1  A    between atoms: S1_2  and  C2_3 
REMARK    2  A    between atoms: C4_8  and  N2_9 
REMARK    3  A    between atoms: N3_12  and  C7_13 
REMARK    4  A    between atoms: C11_17  and  C12_18 
REMARK    5  A    between atoms: C13_22  and  C14_23 
ROOT
HETATM    1  C2  UNL     1      26.782  -0.691  -9.538  1.00  0.00     0.147 A 
HETATM    2  N1  UNL     1      25.940  -1.154  -8.607  1.00  0.00    -0.302 N 
ATOM      3  H1  UNL     1      26.287  -1.629  -7.773  1.00  0.00     0.171 HD
HETATM    4  C3  UNL     1      24.641  -0.976  -8.804  1.00  0.00     0.276 A 
HETATM    5  O1  UNL     1      23.810  -1.381  -7.962  1.00  0.00    -0.266 OA
HETATM    6  C4  UNL     1      24.147  -0.312  -9.975  1.00  0.00     0.123 A 
HETATM    7  C13 UNL     1      25.003   0.166 -10.928  1.00  0.00     0.051 A 
HETATM    8  N4  UNL     1      26.335  -0.075 -10.619  1.00  0.00    -0.337 N 
ATOM      9  H4  UNL     1      27.033   0.254 -11.286  1.00  0.00     0.168 HD
ENDROOT
BRANCH   6  10
HETATM   10  N2  UNL     1      22.755  -0.252 -10.115  1.00  0.00    -0.359 N 
HETATM   11  C5  UNL     1      22.026   0.687  -9.240  1.00  0.00     0.143 C 
HETATM   12  C6  UNL     1      20.730   1.158  -9.859  1.00  0.00     0.137 C 
HETATM   13  N3  UNL     1      19.838   0.058  -9.967  1.00  0.00    -0.405 N 
HETATM   14  C10 UNL     1      20.491  -1.154 -10.257  1.00  0.00     0.151 C 
HETATM   15  C11 UNL     1      21.869  -0.982 -10.964  1.00  0.00     0.210 C 
BRANCH  13  16
HETATM   16  C7  UNL     1      18.630   0.321 -10.662  1.00  0.00     0.071 C 
HETATM   17  C8  UNL     1      18.137  -0.757 -11.568  1.00  0.00     0.031 C 
HETATM   18  C9  UNL     1      18.748   1.616 -11.445  1.00  0.00     0.031 C 
ENDBRANCH  13  16
BRANCH  15  19
HETATM   19  C12 UNL     1      22.186  -2.326 -11.454  1.00  0.00     0.409 C 
HETATM   20  F1  UNL     1      23.244  -2.493 -12.288  1.00  0.00    -0.169 F 
HETATM   21  F2  UNL     1      21.100  -3.082 -11.923  1.00  0.00    -0.169 F 
HETATM   22  F3  UNL     1      22.546  -3.074 -10.306  1.00  0.00    -0.169 F 
ENDBRANCH  15  19
ENDBRANCH   6  10
BRANCH   7  23
HETATM   23  C14 UNL     1      24.686   0.888 -12.126  1.00  0.00    -0.006 C 
HETATM   24  C15 UNL     1      25.120   2.357 -12.176  1.00  0.00     0.021 C 
HETATM   25  C16 UNL     1      25.629   0.304 -13.253  1.00  0.00     0.021 C 
HETATM   26  C17 UNL     1      23.396   0.744 -12.823  1.00  0.00     0.021 C 
ENDBRANCH   7  23
BRANCH   1  27
HETATM   27  S1  UNL     1      28.572  -0.901  -9.337  1.00  0.00    -0.098 SA
HETATM   28  C1  UNL     1      29.254   0.574  -8.487  1.00  0.00     0.099 C 
ENDBRANCH   1  27
TORSDOF 5
ENDMDL
MODEL 4
REMARK VINA RESULT: 3.392211938      3.361      6.703
REMARK  5 active torsions:
REMARK  status: ('A' for Active; 'I' for Inactive)
REMARK    1  A    between atoms: S1_2  and  C2_3 
REMARK    2  A    between atoms: C4_8  and  N2_9 
REMARK    3  A    between atoms: N3_12  and  C7_13 
REMARK    4  A    between atoms: C11_17  and  C12_18 
REMARK    5  A    between atoms: C13_22  and  C14_23 
ROOT
HETATM    1  C2  UNL     1      21.940  -0.407 -11.146  1.00  0.00     0.147 A 
HETATM    2  N1  UNL     1      22.271  -1.096 -10.047  1.00  0.00    -0.302 N 
ATOM      3  H1  UNL     1      21.591  -1.692  -9.575  1.00  0.00     0.171 HD
HETATM    4  C3  UNL     1      23.512  -0.978  -9.593  1.00  0.00     0.276 A 
HETATM    5  O1  UNL     1      23.877  -1.605  -8.576  1.00  0.00    -0.266 OA
HETATM    6  C4  UNL     1      24.471  -0.140 -10.250  1.00  0.00     0.123 A 
HETATM    7  C13 UNL     1      24.139   0.564 -11.375  1.00  0.00     0.051 A 
HETATM    8  N4  UNL     1      22.820   0.365 -11.760  1.00  0.00    -0.337 N 
ATOM      9  H4  UNL     1      22.500   0.860 -12.593  1.00  0.00     0.168 HD
ENDROOT
BRANCH   6  10
HETATM   10  N2  UNL     1      25.725  -0.030  -9.637  1.00  0.00    -0.359 N 
HETATM   11  C5  UNL     1      25.925   1.092  -8.699  1.00  0.00     0.143 C 
HETATM   12  C6  UNL     1      26.970   0.785  -7.652  1.00  0.00     0.137 C 
HETATM   13  N3  UNL     1      28.238   0.660  -8.281  1.00  0.00    -0.405 N 
HETATM   14  C10 UNL     1      28.163   0.077  -9.559  1.00  0.00     0.151 C 
HETATM   15  C11 UNL     1      26.907  -0.819  -9.778  1.00  0.00     0.210 C 
BRANCH  13  16
HETATM   16  C7  UNL     1      29.294   0.231  -7.438  1.00  0.00     0.071 C 
HETATM   17  C8  UNL     1      30.611  -0.011  -8.096  1.00  0.00     0.031 C 
HETATM   18  C9  UNL     1      28.883  -1.014  -6.674  1.00  0.00     0.031 C 
ENDBRANCH  13  16
BRANCH  15  19
HETATM   19  C12 UNL     1      27.210  -1.560 -11.006  1.00  0.00     0.409 C 
HETATM   20  F1  UNL     1      26.194  -1.902 -11.839  1.00  0.00    -0.169 F 
HETATM   21  F2  UNL     1      28.086  -2.649 -10.867  1.00  0.00    -0.169 F 
HETATM   22  F3  UNL     1      28.004  -0.687 -11.790  1.00  0.00    -0.169 F 
ENDBRANCH  15  19
ENDBRANCH   6  10
BRANCH   7  23
HETATM   23  C14 UNL     1      24.980   1.404 -12.178  1.00  0.00    -0.006 C 
HETATM   24  C15 UNL     1      25.178   0.983 -13.637  1.00  0.00     0.021 C 
HETATM   25  C16 UNL     1      24.171   2.744 -12.405  1.00  0.00     0.021 C 
HETATM   26  C17 UNL     1      26.234   1.989 -11.673  1.00  0.00     0.021 C 
ENDBRANCH   7  23
BRANCH   1  27
HETATM   27  S1  UNL     1      20.261  -0.518 -11.823  1.00  0.00    -0.098 SA
HETATM   28  C1  UNL     1      19.226   0.792 -11.065  1.00  0.00     0.099 C 
ENDBRANCH   1  27
TORSDOF 5
ENDMDL
MODEL 5
REMARK VINA RESULT: 3.673784018      2.134      2.832
REMARK  5 active torsions:
REMARK  status: ('A' for Active; 'I' for Inactive)
REMARK    1  A    between atoms: S1_2  and  C2_3 
REMARK    2  A    between atoms: C4_8  and  N2_9 
REMARK    3  A    between atoms: N3_12  and  C7_13 
REMARK    4  A    between atoms: C11_17  and  C12_18 
REMARK    5  A    between atoms: C13_22  and  C14_23 
ROOT
HETATM    1  C2  UNL     1      26.963  -0.844  -9.243  1.00  0.00     0.147 A 
HETATM    2  N1  UNL     1      26.005  -1.266  -8.410  1.00  0.00    -0.302 N 
ATOM      3  H1  UNL     1      26.236  -1.771  -7.554  1.00  0.00     0.171 HD
HETATM    4  C3  UNL     1      24.746  -1.007  -8.734  1.00  0.00     0.276 A 
HETATM    5  O1  UNL     1      23.810  -1.371  -7.988  1.00  0.00    -0.266 OA
HETATM    6  C4  UNL     1      24.413  -0.301  -9.936  1.00  0.00     0.123 A 
HETATM    7  C13 UNL     1      25.390   0.136 -10.789  1.00  0.00     0.051 A 
HETATM    8  N4  UNL     1      26.667  -0.189 -10.351  1.00  0.00    -0.337 N 
ATOM      9  H4  UNL     1      27.447   0.105 -10.939  1.00  0.00     0.168 HD
ENDROOT
BRANCH   6  10
HETATM   10  N2  UNL     1      23.050  -0.154 -10.216  1.00  0.00    -0.359 N 
HETATM   11  C5  UNL     1      22.334   0.946  -9.541  1.00  0.00     0.143 C 
HETATM   12  C6  UNL     1      21.142   1.428 -10.335  1.00  0.00     0.137 C 
HETATM   13  N3  UNL     1      20.169   0.393 -10.387  1.00  0.00    -0.405 N 
HETATM   14  C10 UNL     1      20.735  -0.892 -10.458  1.00  0.00     0.151 C 
HETATM   15  C11 UNL     1      22.178  -0.922 -11.046  1.00  0.00     0.210 C 
BRANCH  13  16
HETATM   16  C7  UNL     1      19.052   0.652 -11.222  1.00  0.00     0.071 C 
HETATM   17  C8  UNL     1      18.198   1.817 -10.846  1.00  0.00     0.031 C 
HETATM   18  C9  UNL     1      18.183  -0.587 -11.334  1.00  0.00     0.031 C 
ENDBRANCH  13  16
BRANCH  15  19
HETATM   19  C12 UNL     1      22.416  -2.340 -11.329  1.00  0.00     0.409 C 
HETATM   20  F1  UNL     1      22.778  -3.164 -10.312  1.00  0.00    -0.169 F 
HETATM   21  F2  UNL     1      23.202  -2.619 -12.458  1.00  0.00    -0.169 F 
HETATM   22  F3  UNL     1      21.166  -2.859 -11.748  1.00  0.00    -0.169 F 
ENDBRANCH  15  19
ENDBRANCH   6  10
BRANCH   7  23
HETATM   23  C14 UNL     1      25.239   0.891 -11.999  1.00  0.00    -0.006 C 
HETATM   24  C15 UNL     1      25.275   2.416 -11.865  1.00  0.00     0.021 C 
HETATM   25  C16 UNL     1      26.575   0.675 -12.819  1.00  0.00     0.021 C 
HETATM   26  C17 UNL     1      24.276   0.524 -13.051  1.00  0.00     0.021 C 
ENDBRANCH   7  23
BRANCH   1  27
HETATM   27  S1  UNL     1      28.708  -1.165  -8.865  1.00  0.00    -0.098 SA
HETATM   28  C1  UNL     1      29.548   0.430  -8.528  1.00  0.00     0.099 C 
ENDBRANCH   1  27
TORSDOF 5
ENDMDL
