MODEL 1
REMARK VINA RESULT: -6.931721739      0.000      0.000
REMARK  12 active torsions:
REMARK  status: ('A' for Active; 'I' for Inactive)
REMARK    1  A    between atoms: N1_2  and  C2_4 
REMARK    2  A    between atoms: C3_7  and  C4_8 
REMARK    3  A    between atoms: C4_8  and  N3_9 
REMARK    4  A    between atoms: N3_9  and  C5_11 
REMARK    5  A    between atoms: C5_11  and  C6_12 
REMARK    6  A    between atoms: C5_11  and  C7_15 
REMARK    7  A    between atoms: C7_15  and  N4_16 
REMARK    8  A    between atoms: C7_15  and  C8_20 
REMARK    9  A    between atoms: C8_20  and  C9_21 
REMARK   10  A    between atoms: C9_21  and  S1_22 
REMARK   11  A    between atoms: S1_22  and  C10_23 
REMARK   12  A    between atoms: C16_31  and  O3_32 
ROOT
HETATM    1  C5  UNL     1      -4.233  -2.776  -0.208  1.00  0.00     0.213 C 
ENDROOT
BRANCH   1   2
HETATM    2  N3  UNL     1      -4.288  -3.303  -1.531  1.00  0.00    -0.380 N 
ATOM      3  H3  UNL     1      -4.437  -4.311  -1.555  1.00  0.00     0.160 HD
BRANCH   2   4
HETATM    4  C4  UNL     1      -4.193  -2.795  -2.659  1.00  0.00     0.133 C 
BRANCH   4   5
HETATM    5  C3  UNL     1      -4.265  -1.338  -2.802  1.00  0.00     0.124 A 
HETATM    6  N2  UNL     1      -3.245  -0.454  -2.798  1.00  0.00    -0.324 N 
HETATM    7  C2  UNL     1      -3.682   0.798  -2.953  1.00  0.00     0.154 A 
ATOM      8  H2  UNL     1      -2.264  -0.710  -2.690  1.00  0.00     0.169 HD
HETATM    9  C16 UNL     1      -5.066   0.685  -3.062  1.00  0.00     0.186 A 
HETATM   10  N5  UNL     1      -5.387  -0.616  -2.967  1.00  0.00    -0.319 N 
ATOM     11  H5  UNL     1      -6.333  -0.997  -3.012  1.00  0.00     0.169 HD
BRANCH   7  12
HETATM   12  N1  UNL     1      -2.948   2.012  -3.004  1.00  0.00    -0.377 N 
HETATM   13  C1  UNL     1      -3.343   3.035  -3.918  1.00  0.00     0.148 C 
ATOM     14  H1  UNL     1      -2.144   2.153  -2.392  1.00  0.00     0.160 HD
ENDBRANCH   7  12
BRANCH   9  15
HETATM   15  O3  UNL     1      -5.975   1.735  -3.239  1.00  0.00    -0.343 OA
ATOM     16  H3  UNL     1      -6.829   1.680  -3.652  1.00  0.00     0.219 HD
ENDBRANCH   9  15
ENDBRANCH   4   5
ENDBRANCH   2   4
ENDBRANCH   1   2
BRANCH   1  17
HETATM   17  C6  UNL     1      -3.329  -3.554   0.665  1.00  0.00     0.198 C 
HETATM   18  O1  UNL     1      -3.166  -4.808   0.485  1.00  0.00    -0.646 OA
HETATM   19  O2  UNL     1      -2.634  -2.977   1.690  1.00  0.00    -0.646 OA
ENDBRANCH   1  17
BRANCH   1  20
HETATM   20  C7  UNL     1      -5.643  -2.658   0.323  1.00  0.00     0.217 C 
BRANCH  20  21
HETATM   21  N4  UNL     1      -6.091  -3.895   0.874  1.00  0.00    -0.072 N 
ATOM     22  H43 UNL     1      -5.339  -4.583   0.911  1.00  0.00     0.274 HD
ATOM     23  H42 UNL     1      -6.277  -3.814   1.874  1.00  0.00     0.274 HD
ATOM     24  H41 UNL     1      -6.902  -4.252   0.369  1.00  0.00     0.274 HD
ENDBRANCH  20  21
BRANCH  20  25
HETATM   25  C8  UNL     1      -5.879  -1.453   1.193  1.00  0.00     0.045 C 
BRANCH  25  26
HETATM   26  C9  UNL     1      -6.215  -0.272   0.315  1.00  0.00     0.076 C 
BRANCH  26  27
HETATM   27  S1  UNL     1      -7.928  -0.001   0.173  1.00  0.00    -0.164 SA
BRANCH  27  28
HETATM   28  C10 UNL     1      -8.788  -0.495  -1.305  1.00  0.00     0.047 C 
HETATM   29  C11 UNL     1      -8.623  -1.882  -1.783  1.00  0.00     0.015 C 
HETATM   30  C12 UNL     1      -9.768  -2.812  -1.672  1.00  0.00     0.001 C 
HETATM   31  C13 UNL     1     -11.130  -2.245  -1.678  1.00  0.00     0.000 C 
HETATM   32  C14 UNL     1     -11.265  -0.923  -0.970  1.00  0.00     0.001 C 
HETATM   33  C15 UNL     1     -10.199   0.054  -1.371  1.00  0.00     0.015 C 
ENDBRANCH  27  28
ENDBRANCH  26  27
ENDBRANCH  25  26
ENDBRANCH  20  25
ENDBRANCH   1  20
TORSDOF 12
ENDMDL
MODEL 2
REMARK VINA RESULT: -6.904605023      1.174      1.764
REMARK  12 active torsions:
REMARK  status: ('A' for Active; 'I' for Inactive)
REMARK    1  A    between atoms: N1_2  and  C2_4 
REMARK    2  A    between atoms: C3_7  and  C4_8 
REMARK    3  A    between atoms: C4_8  and  N3_9 
REMARK    4  A    between atoms: N3_9  and  C5_11 
REMARK    5  A    between atoms: C5_11  and  C6_12 
REMARK    6  A    between atoms: C5_11  and  C7_15 
REMARK    7  A    between atoms: C7_15  and  N4_16 
REMARK    8  A    between atoms: C7_15  and  C8_20 
REMARK    9  A    between atoms: C8_20  and  C9_21 
REMARK   10  A    between atoms: C9_21  and  S1_22 
REMARK   11  A    between atoms: S1_22  and  C10_23 
REMARK   12  A    between atoms: C16_31  and  O3_32 
ROOT
HETATM    1  C5  UNL     1      -3.693  -2.896   0.057  1.00  0.00     0.213 C 
ENDROOT
BRANCH   1   2
HETATM    2  N3  UNL     1      -4.348  -3.315  -1.136  1.00  0.00    -0.380 N 
ATOM      3  H3  UNL     1      -4.956  -4.122  -0.998  1.00  0.00     0.160 HD
BRANCH   2   4
HETATM    4  C4  UNL     1      -4.337  -2.905  -2.308  1.00  0.00     0.133 C 
BRANCH   4   5
HETATM    5  C3  UNL     1      -4.399  -1.464  -2.568  1.00  0.00     0.124 A 
HETATM    6  N2  UNL     1      -3.378  -0.582  -2.597  1.00  0.00    -0.324 N 
HETATM    7  C2  UNL     1      -3.806   0.653  -2.867  1.00  0.00     0.154 A 
ATOM      8  H2  UNL     1      -2.402  -0.829  -2.433  1.00  0.00     0.169 HD
HETATM    9  C16 UNL     1      -5.185   0.532  -3.018  1.00  0.00     0.186 A 
HETATM   10  N5  UNL     1      -5.513  -0.758  -2.831  1.00  0.00    -0.319 N 
ATOM     11  H5  UNL     1      -6.457  -1.142  -2.881  1.00  0.00     0.169 HD
BRANCH   7  12
HETATM   12  N1  UNL     1      -3.067   1.859  -2.986  1.00  0.00    -0.377 N 
HETATM   13  C1  UNL     1      -3.460   2.832  -3.955  1.00  0.00     0.148 C 
ATOM     14  H1  UNL     1      -2.261   2.031  -2.385  1.00  0.00     0.160 HD
ENDBRANCH   7  12
BRANCH   9  15
HETATM   15  O3  UNL     1      -6.084   1.564  -3.311  1.00  0.00    -0.343 OA
ATOM     16  H3  UNL     1      -6.833   1.513  -3.893  1.00  0.00     0.219 HD
ENDBRANCH   9  15
ENDBRANCH   4   5
ENDBRANCH   2   4
ENDBRANCH   1   2
BRANCH   1  17
HETATM   17  C6  UNL     1      -2.643  -3.846   0.480  1.00  0.00     0.198 C 
HETATM   18  O1  UNL     1      -1.490  -3.429   0.837  1.00  0.00    -0.646 OA
HETATM   19  O2  UNL     1      -2.853  -5.196   0.511  1.00  0.00    -0.646 OA
ENDBRANCH   1  17
BRANCH   1  20
HETATM   20  C7  UNL     1      -4.740  -2.633   1.115  1.00  0.00     0.217 C 
BRANCH  20  21
HETATM   21  N4  UNL     1      -4.140  -2.409   2.389  1.00  0.00    -0.072 N 
ATOM     22  H43 UNL     1      -4.309  -3.188   3.026  1.00  0.00     0.274 HD
ATOM     23  H42 UNL     1      -3.123  -2.465   2.340  1.00  0.00     0.274 HD
ATOM     24  H41 UNL     1      -4.447  -1.523   2.790  1.00  0.00     0.274 HD
ENDBRANCH  20  21
BRANCH  20  25
HETATM   25  C8  UNL     1      -5.782  -1.622   0.718  1.00  0.00     0.045 C 
BRANCH  25  26
HETATM   26  C9  UNL     1      -7.151  -2.232   0.900  1.00  0.00     0.076 C 
BRANCH  26  27
HETATM   27  S1  UNL     1      -8.039  -2.358  -0.593  1.00  0.00    -0.164 SA
BRANCH  27  28
HETATM   28  C10 UNL     1      -8.853  -0.926  -1.266  1.00  0.00     0.047 C 
HETATM   29  C11 UNL     1     -10.322  -0.957  -1.412  1.00  0.00     0.015 C 
HETATM   30  C12 UNL     1     -11.142  -0.109  -0.520  1.00  0.00     0.001 C 
HETATM   31  C13 UNL     1     -10.536   1.120   0.026  1.00  0.00     0.000 C 
HETATM   32  C14 UNL     1      -9.074   1.005   0.364  1.00  0.00     0.001 C 
HETATM   33  C15 UNL     1      -8.278   0.374  -0.742  1.00  0.00     0.015 C 
ENDBRANCH  27  28
ENDBRANCH  26  27
ENDBRANCH  25  26
ENDBRANCH  20  25
ENDBRANCH   1  20
TORSDOF 12
ENDMDL
MODEL 3
REMARK VINA RESULT: -6.815689645      1.364      2.146
REMARK  12 active torsions:
REMARK  status: ('A' for Active; 'I' for Inactive)
REMARK    1  A    between atoms: N1_2  and  C2_4 
REMARK    2  A    between atoms: C3_7  and  C4_8 
REMARK    3  A    between atoms: C4_8  and  N3_9 
REMARK    4  A    between atoms: N3_9  and  C5_11 
REMARK    5  A    between atoms: C5_11  and  C6_12 
REMARK    6  A    between atoms: C5_11  and  C7_15 
REMARK    7  A    between atoms: C7_15  and  N4_16 
REMARK    8  A    between atoms: C7_15  and  C8_20 
REMARK    9  A    between atoms: C8_20  and  C9_21 
REMARK   10  A    between atoms: C9_21  and  S1_22 
REMARK   11  A    between atoms: S1_22  and  C10_23 
REMARK   12  A    between atoms: C16_31  and  O3_32 
ROOT
HETATM    1  C5  UNL     1      -4.301  -2.756  -0.223  1.00  0.00     0.213 C 
ENDROOT
BRANCH   1   2
HETATM    2  N3  UNL     1      -4.255  -3.294  -1.541  1.00  0.00    -0.380 N 
ATOM      3  H3  UNL     1      -4.237  -4.314  -1.558  1.00  0.00     0.160 HD
BRANCH   2   4
HETATM    4  C4  UNL     1      -4.233  -2.785  -2.673  1.00  0.00     0.133 C 
BRANCH   4   5
HETATM    5  C3  UNL     1      -4.278  -1.326  -2.808  1.00  0.00     0.124 A 
HETATM    6  N2  UNL     1      -3.242  -0.461  -2.803  1.00  0.00    -0.324 N 
HETATM    7  C2  UNL     1      -3.657   0.799  -2.951  1.00  0.00     0.154 A 
ATOM      8  H2  UNL     1      -2.266  -0.736  -2.699  1.00  0.00     0.169 HD
HETATM    9  C16 UNL     1      -5.043   0.712  -3.056  1.00  0.00     0.186 A 
HETATM   10  N5  UNL     1      -5.387  -0.584  -2.967  1.00  0.00    -0.319 N 
ATOM     11  H5  UNL     1      -6.340  -0.947  -3.012  1.00  0.00     0.169 HD
BRANCH   7  12
HETATM   12  N1  UNL     1      -2.900   2.000  -2.997  1.00  0.00    -0.377 N 
HETATM   13  C1  UNL     1      -3.277   3.033  -3.908  1.00  0.00     0.148 C 
ATOM     14  H1  UNL     1      -2.094   2.124  -2.385  1.00  0.00     0.160 HD
ENDBRANCH   7  12
BRANCH   9  15
HETATM   15  O3  UNL     1      -5.933   1.780  -3.226  1.00  0.00    -0.343 OA
ATOM     16  H3  UNL     1      -6.838   1.721  -3.511  1.00  0.00     0.219 HD
ENDBRANCH   9  15
ENDBRANCH   4   5
ENDBRANCH   2   4
ENDBRANCH   1   2
BRANCH   1  17
HETATM   17  C6  UNL     1      -3.337  -3.415   0.682  1.00  0.00     0.198 C 
HETATM   18  O1  UNL     1      -2.862  -2.796   1.693  1.00  0.00    -0.646 OA
HETATM   19  O2  UNL     1      -2.915  -4.700   0.485  1.00  0.00    -0.646 OA
ENDBRANCH   1  17
BRANCH   1  20
HETATM   20  C7  UNL     1      -5.730  -2.804   0.268  1.00  0.00     0.217 C 
BRANCH  20  21
HETATM   21  N4  UNL     1      -5.914  -3.854   1.215  1.00  0.00    -0.072 N 
ATOM     22  H43 UNL     1      -5.674  -4.763   0.819  1.00  0.00     0.274 HD
ATOM     23  H42 UNL     1      -5.214  -3.817   1.956  1.00  0.00     0.274 HD
ATOM     24  H41 UNL     1      -6.861  -3.847   1.593  1.00  0.00     0.274 HD
ENDBRANCH  20  21
BRANCH  20  25
HETATM   25  C8  UNL     1      -6.287  -1.469   0.683  1.00  0.00     0.045 C 
BRANCH  25  26
HETATM   26  C9  UNL     1      -7.766  -1.440   0.383  1.00  0.00     0.076 C 
BRANCH  26  27
HETATM   27  S1  UNL     1      -8.134  -1.920  -1.250  1.00  0.00    -0.164 SA
BRANCH  27  28
HETATM   28  C10 UNL     1      -8.708  -3.571  -1.584  1.00  0.00     0.047 C 
HETATM   29  C11 UNL     1     -10.122  -3.760  -1.964  1.00  0.00     0.015 C 
HETATM   30  C12 UNL     1     -10.438  -4.144  -3.356  1.00  0.00     0.001 C 
HETATM   31  C13 UNL     1      -9.420  -4.887  -4.124  1.00  0.00     0.000 C 
HETATM   32  C14 UNL     1      -7.998  -4.478  -3.844  1.00  0.00     0.001 C 
HETATM   33  C15 UNL     1      -7.706  -4.389  -2.374  1.00  0.00     0.015 C 
ENDBRANCH  27  28
ENDBRANCH  26  27
ENDBRANCH  25  26
ENDBRANCH  20  25
ENDBRANCH   1  20
TORSDOF 12
ENDMDL
MODEL 4
REMARK VINA RESULT: -6.769218508      1.411      2.185
REMARK  12 active torsions:
REMARK  status: ('A' for Active; 'I' for Inactive)
REMARK    1  A    between atoms: N1_2  and  C2_4 
REMARK    2  A    between atoms: C3_7  and  C4_8 
REMARK    3  A    between atoms: C4_8  and  N3_9 
REMARK    4  A    between atoms: N3_9  and  C5_11 
REMARK    5  A    between atoms: C5_11  and  C6_12 
REMARK    6  A    between atoms: C5_11  and  C7_15 
REMARK    7  A    between atoms: C7_15  and  N4_16 
REMARK    8  A    between atoms: C7_15  and  C8_20 
REMARK    9  A    between atoms: C8_20  and  C9_21 
REMARK   10  A    between atoms: C9_21  and  S1_22 
REMARK   11  A    between atoms: S1_22  and  C10_23 
REMARK   12  A    between atoms: C16_31  and  O3_32 
ROOT
HETATM    1  C5  UNL     1      -4.860  -2.769  -0.221  1.00  0.00     0.213 C 
ENDROOT
BRANCH   1   2
HETATM    2  N3  UNL     1      -4.299  -3.242  -1.442  1.00  0.00    -0.380 N 
ATOM      3  H3  UNL     1      -3.896  -4.176  -1.364  1.00  0.00     0.160 HD
BRANCH   2   4
HETATM    4  C4  UNL     1      -4.195  -2.759  -2.581  1.00  0.00     0.133 C 
BRANCH   4   5
HETATM    5  C3  UNL     1      -4.255  -1.304  -2.754  1.00  0.00     0.124 A 
HETATM    6  N2  UNL     1      -3.228  -0.429  -2.770  1.00  0.00    -0.324 N 
HETATM    7  C2  UNL     1      -3.655   0.822  -2.952  1.00  0.00     0.154 A 
ATOM      8  H2  UNL     1      -2.249  -0.691  -2.658  1.00  0.00     0.169 HD
HETATM    9  C16 UNL     1      -5.040   0.719  -3.056  1.00  0.00     0.186 A 
HETATM   10  N5  UNL     1      -5.371  -0.577  -2.933  1.00  0.00    -0.319 N 
ATOM     11  H5  UNL     1      -6.320  -0.951  -2.969  1.00  0.00     0.169 HD
BRANCH   7  12
HETATM   12  N1  UNL     1      -2.911   2.030  -3.029  1.00  0.00    -0.377 N 
HETATM   13  C1  UNL     1      -3.312   3.045  -3.948  1.00  0.00     0.148 C 
ATOM     14  H1  UNL     1      -2.096   2.170  -2.432  1.00  0.00     0.160 HD
ENDBRANCH   7  12
BRANCH   9  15
HETATM   15  O3  UNL     1      -5.941   1.773  -3.255  1.00  0.00    -0.343 OA
ATOM     16  H3  UNL     1      -6.547   1.869  -3.980  1.00  0.00     0.219 HD
ENDBRANCH   9  15
ENDBRANCH   4   5
ENDBRANCH   2   4
ENDBRANCH   1   2
BRANCH   1  17
HETATM   17  C6  UNL     1      -4.057  -3.167   0.953  1.00  0.00     0.198 C 
HETATM   18  O1  UNL     1      -4.021  -2.435   1.999  1.00  0.00    -0.646 OA
HETATM   19  O2  UNL     1      -3.327  -4.322   0.978  1.00  0.00    -0.646 OA
ENDBRANCH   1  17
BRANCH   1  20
HETATM   20  C7  UNL     1      -6.304  -3.211  -0.152  1.00  0.00     0.217 C 
BRANCH  20  21
HETATM   21  N4  UNL     1      -6.573  -3.903   1.066  1.00  0.00    -0.072 N 
ATOM     22  H43 UNL     1      -7.551  -3.810   1.342  1.00  0.00     0.274 HD
ATOM     23  H42 UNL     1      -6.542  -4.914   0.938  1.00  0.00     0.274 HD
ATOM     24  H41 UNL     1      -5.943  -3.600   1.808  1.00  0.00     0.274 HD
ENDBRANCH  20  21
BRANCH  20  25
HETATM   25  C8  UNL     1      -7.298  -2.138  -0.505  1.00  0.00     0.045 C 
BRANCH  25  26
HETATM   26  C9  UNL     1      -6.976  -0.892   0.287  1.00  0.00     0.076 C 
BRANCH  26  27
HETATM   27  S1  UNL     1      -7.932   0.481  -0.195  1.00  0.00    -0.164 SA
BRANCH  27  28
HETATM   28  C10 UNL     1      -9.550   0.727   0.504  1.00  0.00     0.047 C 
HETATM   29  C11 UNL     1      -9.846   2.022   1.149  1.00  0.00     0.015 C 
HETATM   30  C12 UNL     1     -10.785   2.950   0.481  1.00  0.00     0.001 C 
HETATM   31  C13 UNL     1     -11.813   2.380  -0.410  1.00  0.00     0.000 C 
HETATM   32  C14 UNL     1     -11.362   1.187  -1.210  1.00  0.00     0.001 C 
HETATM   33  C15 UNL     1     -10.655   0.166  -0.367  1.00  0.00     0.015 C 
ENDBRANCH  27  28
ENDBRANCH  26  27
ENDBRANCH  25  26
ENDBRANCH  20  25
ENDBRANCH   1  20
TORSDOF 12
ENDMDL
MODEL 5
REMARK VINA RESULT: -6.744660154      2.704      5.365
REMARK  12 active torsions:
REMARK  status: ('A' for Active; 'I' for Inactive)
REMARK    1  A    between atoms: N1_2  and  C2_4 
REMARK    2  A    between atoms: C3_7  and  C4_8 
REMARK    3  A    between atoms: C4_8  and  N3_9 
REMARK    4  A    between atoms: N3_9  and  C5_11 
REMARK    5  A    between atoms: C5_11  and  C6_12 
REMARK    6  A    between atoms: C5_11  and  C7_15 
REMARK    7  A    between atoms: C7_15  and  N4_16 
REMARK    8  A    between atoms: C7_15  and  C8_20 
REMARK    9  A    between atoms: C8_20  and  C9_21 
REMARK   10  A    between atoms: C9_21  and  S1_22 
REMARK   11  A    between atoms: S1_22  and  C10_23 
REMARK   12  A    between atoms: C16_31  and  O3_32 
ROOT
HETATM    1  C5  UNL     1      -7.469  -0.883  -2.057  1.00  0.00     0.213 C 
ENDROOT
BRANCH   1   2
HETATM    2  N3  UNL     1      -6.916  -2.148  -1.706  1.00  0.00    -0.380 N 
ATOM      3  H3  UNL     1      -6.332  -2.548  -2.441  1.00  0.00     0.160 HD
BRANCH   2   4
HETATM    4  C4  UNL     1      -6.994  -2.867  -0.698  1.00  0.00     0.133 C 
BRANCH   4   5
HETATM    5  C3  UNL     1      -5.908  -2.848   0.286  1.00  0.00     0.124 A 
HETATM    6  N2  UNL     1      -4.875  -3.709   0.397  1.00  0.00    -0.324 N 
HETATM    7  C2  UNL     1      -4.073  -3.384   1.413  1.00  0.00     0.154 A 
ATOM      8  H2  UNL     1      -4.725  -4.508  -0.219  1.00  0.00     0.169 HD
HETATM    9  C16 UNL     1      -4.645  -2.243   1.972  1.00  0.00     0.186 A 
HETATM   10  N5  UNL     1      -5.751  -1.945   1.270  1.00  0.00    -0.319 N 
ATOM     11  H5  UNL     1      -6.373  -1.157   1.454  1.00  0.00     0.169 HD
BRANCH   7  12
HETATM   12  N1  UNL     1      -2.889  -4.021   1.870  1.00  0.00    -0.377 N 
HETATM   13  C1  UNL     1      -1.618  -3.542   1.429  1.00  0.00     0.148 C 
ATOM     14  H1  UNL     1      -2.945  -4.814   2.508  1.00  0.00     0.160 HD
ENDBRANCH   7  12
BRANCH   9  15
HETATM   15  O3  UNL     1      -4.162  -1.525   3.072  1.00  0.00    -0.343 OA
ATOM     16  H3  UNL     1      -4.684  -1.105   3.746  1.00  0.00     0.219 HD
ENDBRANCH   9  15
ENDBRANCH   4   5
ENDBRANCH   2   4
ENDBRANCH   1   2
BRANCH   1  17
HETATM   17  C6  UNL     1      -6.431   0.090  -2.454  1.00  0.00     0.198 C 
HETATM   18  O1  UNL     1      -6.561   0.788  -3.516  1.00  0.00    -0.646 OA
HETATM   19  O2  UNL     1      -5.298   0.288  -1.715  1.00  0.00    -0.646 OA
ENDBRANCH   1  17
BRANCH   1  20
HETATM   20  C7  UNL     1      -8.347  -0.409  -0.921  1.00  0.00     0.217 C 
BRANCH  20  21
HETATM   21  N4  UNL     1      -7.683   0.578  -0.134  1.00  0.00    -0.072 N 
ATOM     22  H43 UNL     1      -6.907   1.004  -0.643  1.00  0.00     0.274 HD
ATOM     23  H42 UNL     1      -8.261   1.409  -0.008  1.00  0.00     0.274 HD
ATOM     24  H41 UNL     1      -7.379   0.193   0.760  1.00  0.00     0.274 HD
ENDBRANCH  20  21
BRANCH  20  25
HETATM   25  C8  UNL     1      -9.751  -0.056  -1.329  1.00  0.00     0.045 C 
BRANCH  25  26
HETATM   26  C9  UNL     1     -10.582  -1.316  -1.371  1.00  0.00     0.076 C 
BRANCH  26  27
HETATM   27  S1  UNL     1     -12.264  -1.007  -1.698  1.00  0.00    -0.164 SA
BRANCH  27  28
HETATM   28  C10 UNL     1     -13.112   0.300  -0.836  1.00  0.00     0.047 C 
HETATM   29  C11 UNL     1     -12.849   0.476   0.606  1.00  0.00     0.015 C 
HETATM   30  C12 UNL     1     -12.084   1.661   1.048  1.00  0.00     0.001 C 
HETATM   31  C13 UNL     1     -12.128   2.874   0.209  1.00  0.00     0.000 C 
HETATM   32  C14 UNL     1     -12.168   2.613  -1.273  1.00  0.00     0.001 C 
HETATM   33  C15 UNL     1     -13.189   1.578  -1.645  1.00  0.00     0.015 C 
ENDBRANCH  27  28
ENDBRANCH  26  27
ENDBRANCH  25  26
ENDBRANCH  20  25
ENDBRANCH   1  20
TORSDOF 12
ENDMDL
