MODEL 1
REMARK VINA RESULT: -6.841006885      0.000      0.000
REMARK  10 active torsions:
REMARK  status: ('A' for Active; 'I' for Inactive)
REMARK    1  A    between atoms: C2_2  and  C3_3 
REMARK    2  A    between atoms: C3_3  and  N1_4 
REMARK    3  A    between atoms: C4_5  and  N2_6 
REMARK    4  A    between atoms: C7_13  and  O1_14 
REMARK    5  A    between atoms: O1_14  and  C8_15 
REMARK    6  A    between atoms: C8_15  and  C9_16 
REMARK    7  A    between atoms: C9_16  and  O2_17 
REMARK    8  A    between atoms: C9_16  and  C10_19 
REMARK    9  A    between atoms: N4_20  and  C11_22 
REMARK   10  A    between atoms: C19_32  and  N6_33 
ROOT
HETATM    1  N1  UNL     1     -12.294  -0.661  -0.552  1.00  0.00    -0.167 N 
HETATM    2  C4  UNL     1     -12.141   0.079   0.550  1.00  0.00     0.680 A 
HETATM    3  N3  UNL     1     -10.936   0.618   0.878  1.00  0.00    -0.189 N 
ATOM      4  H3  UNL     1     -10.844   1.180   1.724  1.00  0.00     0.184 HD
HETATM    5  C5  UNL     1      -9.873   0.415   0.096  1.00  0.00     0.084 A 
HETATM    6  C6  UNL     1      -8.533   0.811   0.113  1.00  0.00     0.088 A 
HETATM    7  C7  UNL     1      -7.879   0.315  -0.966  1.00  0.00     0.145 A 
HETATM    8  N5  UNL     1      -8.806  -0.395  -1.666  1.00  0.00    -0.332 N 
ATOM      9  H5  UNL     1      -8.627  -0.895  -2.537  1.00  0.00     0.168 HD
HETATM   10  C18 UNL     1      -9.986  -0.338  -1.041  1.00  0.00     0.106 A 
HETATM   11  C19 UNL     1     -11.236  -0.871  -1.339  1.00  0.00     0.146 A 
ENDROOT
BRANCH   7  12
HETATM   12  O1  UNL     1      -6.593   0.415  -1.405  1.00  0.00    -0.333 OA
BRANCH  12  13
HETATM   13  C8  UNL     1      -6.009   0.087  -2.601  1.00  0.00     0.214 C 
BRANCH  13  14
HETATM   14  C9  UNL     1      -4.613  -0.524  -2.493  1.00  0.00     0.180 C 
BRANCH  14  15
HETATM   15  O2  UNL     1      -3.721   0.414  -2.872  1.00  0.00    -0.388 OA
ATOM     16  H2  UNL     1      -3.798   0.527  -3.812  1.00  0.00     0.210 HD
ENDBRANCH  14  15
BRANCH  14  17
HETATM   17  C10 UNL     1      -4.597  -1.867  -3.105  1.00  0.00     0.094 C 
HETATM   18  N4  UNL     1      -4.342  -3.033  -2.444  1.00  0.00    -0.374 N 
ATOM     19  H4  UNL     1      -3.439  -3.473  -2.618  1.00  0.00     0.164 HD
BRANCH  18  20
HETATM   20  C11 UNL     1      -5.200  -3.683  -1.550  1.00  0.00    -0.014 C 
HETATM   21  C12 UNL     1      -6.562  -3.195  -1.336  1.00  0.00     0.052 C 
HETATM   22  C13 UNL     1      -7.107  -3.426   0.067  1.00  0.00     0.006 C 
HETATM   23  C14 UNL     1      -6.634  -2.364   1.030  1.00  0.00     0.000 C 
HETATM   24  C15 UNL     1      -5.222  -1.914   0.714  1.00  0.00     0.000 C 
HETATM   25  C16 UNL     1      -4.333  -3.118   0.780  1.00  0.00     0.006 C 
HETATM   26  C17 UNL     1      -4.488  -4.120  -0.272  1.00  0.00     0.052 C 
ENDBRANCH  18  20
ENDBRANCH  14  17
ENDBRANCH  13  14
ENDBRANCH  12  13
ENDBRANCH   7  12
BRANCH  11  27
HETATM   27  N6  UNL     1     -11.397  -1.591  -2.388  1.00  0.00    -0.383 N 
ATOM     28  H62 UNL     1     -12.150  -2.278  -2.428  1.00  0.00     0.157 HD
ATOM     29  H61 UNL     1     -10.758  -1.451  -3.171  1.00  0.00     0.157 HD
ENDBRANCH  11  27
BRANCH   2  30
HETATM   30  N2  UNL     1     -13.152   0.286   1.288  1.00  0.00    -0.234 N 
ATOM     31  H22 UNL     1     -13.461  -0.432   1.943  1.00  0.00     0.174 HD
ATOM     32  H21 UNL     1     -13.632   1.182   1.219  1.00  0.00     0.174 HD
ENDBRANCH   2  30
BRANCH   1  33
HETATM   33  C3  UNL     1     -13.576  -1.208  -0.892  1.00  0.00     0.149 C 
BRANCH  33  34
HETATM   34  C2  UNL     1     -13.631  -2.587  -0.253  1.00  0.00     0.016 C 
HETATM   35  C1  UNL     1     -14.944  -2.911   0.376  1.00  0.00     0.006 C 
ENDBRANCH  33  34
ENDBRANCH   1  33
TORSDOF 10
ENDMDL
MODEL 2
REMARK VINA RESULT: -6.753224294      1.377      2.427
REMARK  10 active torsions:
REMARK  status: ('A' for Active; 'I' for Inactive)
REMARK    1  A    between atoms: C2_2  and  C3_3 
REMARK    2  A    between atoms: C3_3  and  N1_4 
REMARK    3  A    between atoms: C4_5  and  N2_6 
REMARK    4  A    between atoms: C7_13  and  O1_14 
REMARK    5  A    between atoms: O1_14  and  C8_15 
REMARK    6  A    between atoms: C8_15  and  C9_16 
REMARK    7  A    between atoms: C9_16  and  O2_17 
REMARK    8  A    between atoms: C9_16  and  C10_19 
REMARK    9  A    between atoms: N4_20  and  C11_22 
REMARK   10  A    between atoms: C19_32  and  N6_33 
ROOT
HETATM    1  N1  UNL     1     -12.228   0.651   1.220  1.00  0.00    -0.167 N 
HETATM    2  C4  UNL     1     -12.553  -0.311   0.352  1.00  0.00     0.680 A 
HETATM    3  N3  UNL     1     -11.654  -0.776  -0.557  1.00  0.00    -0.189 N 
ATOM      4  H3  UNL     1     -11.925  -1.511  -1.210  1.00  0.00     0.184 HD
HETATM    5  C5  UNL     1     -10.418  -0.273  -0.598  1.00  0.00     0.084 A 
HETATM    6  C6  UNL     1      -9.270  -0.510  -1.360  1.00  0.00     0.088 A 
HETATM    7  C7  UNL     1      -8.261   0.301  -0.959  1.00  0.00     0.145 A 
HETATM    8  N5  UNL     1      -8.770   1.051   0.056  1.00  0.00    -0.332 N 
ATOM      9  H5  UNL     1      -8.255   1.763   0.575  1.00  0.00     0.168 HD
HETATM   10  C18 UNL     1     -10.045   0.715   0.273  1.00  0.00     0.106 A 
HETATM   11  C19 UNL     1     -10.995   1.162   1.186  1.00  0.00     0.146 A 
ENDROOT
BRANCH   7  12
HETATM   12  O1  UNL     1      -6.969   0.453  -1.366  1.00  0.00    -0.333 OA
BRANCH  12  13
HETATM   13  C8  UNL     1      -6.329   0.094  -2.524  1.00  0.00     0.214 C 
BRANCH  13  14
HETATM   14  C9  UNL     1      -4.840  -0.211  -2.373  1.00  0.00     0.180 C 
BRANCH  14  15
HETATM   15  O2  UNL     1      -4.154   0.897  -2.719  1.00  0.00    -0.388 OA
ATOM     16  H2  UNL     1      -3.522   0.652  -3.386  1.00  0.00     0.210 HD
ENDBRANCH  14  15
BRANCH  14  17
HETATM   17  C10 UNL     1      -4.523  -1.515  -2.988  1.00  0.00     0.094 C 
HETATM   18  N4  UNL     1      -4.168  -2.643  -2.308  1.00  0.00    -0.374 N 
ATOM     19  H4  UNL     1      -3.190  -2.925  -2.363  1.00  0.00     0.164 HD
BRANCH  18  20
HETATM   20  C11 UNL     1      -5.017  -3.450  -1.543  1.00  0.00    -0.014 C 
HETATM   21  C12 UNL     1      -6.446  -3.153  -1.452  1.00  0.00     0.052 C 
HETATM   22  C13 UNL     1      -7.092  -3.537  -0.127  1.00  0.00     0.006 C 
HETATM   23  C14 UNL     1      -6.862  -2.484   0.930  1.00  0.00     0.000 C 
HETATM   24  C15 UNL     1      -5.498  -1.840   0.788  1.00  0.00     0.000 C 
HETATM   25  C16 UNL     1      -4.468  -2.923   0.891  1.00  0.00     0.006 C 
HETATM   26  C17 UNL     1      -4.383  -3.870  -0.219  1.00  0.00     0.052 C 
ENDBRANCH  18  20
ENDBRANCH  14  17
ENDBRANCH  13  14
ENDBRANCH  12  13
ENDBRANCH   7  12
BRANCH  11  27
HETATM   27  N6  UNL     1     -10.702   2.091   2.019  1.00  0.00    -0.383 N 
ATOM     28  H62 UNL     1     -10.604   3.054   1.698  1.00  0.00     0.157 HD
ATOM     29  H61 UNL     1     -10.577   1.837   2.999  1.00  0.00     0.157 HD
ENDBRANCH  11  27
BRANCH   2  30
HETATM   30  N2  UNL     1     -13.723  -0.800   0.396  1.00  0.00    -0.234 N 
ATOM     31  H22 UNL     1     -14.126  -1.234  -0.434  1.00  0.00     0.174 HD
ATOM     32  H21 UNL     1     -14.236  -0.759   1.276  1.00  0.00     0.174 HD
ENDBRANCH   2  30
BRANCH   1  33
HETATM   33  C3  UNL     1     -13.183   1.118   2.183  1.00  0.00     0.149 C 
BRANCH  33  34
HETATM   34  C2  UNL     1     -13.907   2.286   1.530  1.00  0.00     0.016 C 
HETATM   35  C1  UNL     1     -14.110   3.455   2.434  1.00  0.00     0.006 C 
ENDBRANCH  33  34
ENDBRANCH   1  33
TORSDOF 10
ENDMDL
MODEL 3
REMARK VINA RESULT: -6.598566303      2.652      7.534
REMARK  10 active torsions:
REMARK  status: ('A' for Active; 'I' for Inactive)
REMARK    1  A    between atoms: C2_2  and  C3_3 
REMARK    2  A    between atoms: C3_3  and  N1_4 
REMARK    3  A    between atoms: C4_5  and  N2_6 
REMARK    4  A    between atoms: C7_13  and  O1_14 
REMARK    5  A    between atoms: O1_14  and  C8_15 
REMARK    6  A    between atoms: C8_15  and  C9_16 
REMARK    7  A    between atoms: C9_16  and  O2_17 
REMARK    8  A    between atoms: C9_16  and  C10_19 
REMARK    9  A    between atoms: N4_20  and  C11_22 
REMARK   10  A    between atoms: C19_32  and  N6_33 
ROOT
HETATM    1  N1  UNL     1      -4.975  -3.243   0.806  1.00  0.00    -0.167 N 
HETATM    2  C4  UNL     1      -5.248  -2.150   1.524  1.00  0.00     0.680 A 
HETATM    3  N3  UNL     1      -6.362  -1.407   1.284  1.00  0.00    -0.189 N 
ATOM      4  H3  UNL     1      -6.550  -0.577   1.846  1.00  0.00     0.184 HD
HETATM    5  C5  UNL     1      -7.211  -1.761   0.316  1.00  0.00     0.084 A 
HETATM    6  C6  UNL     1      -8.417  -1.261  -0.184  1.00  0.00     0.088 A 
HETATM    7  C7  UNL     1      -8.869  -2.043  -1.195  1.00  0.00     0.145 A 
HETATM    8  N5  UNL     1      -7.949  -3.036  -1.335  1.00  0.00    -0.332 N 
ATOM      9  H5  UNL     1      -8.001  -3.792  -2.018  1.00  0.00     0.168 HD
HETATM   10  C18 UNL     1      -6.967  -2.873  -0.444  1.00  0.00     0.106 A 
HETATM   11  C19 UNL     1      -5.816  -3.604  -0.165  1.00  0.00     0.146 A 
ENDROOT
BRANCH   7  12
HETATM   12  O1  UNL     1      -9.975  -1.992  -1.990  1.00  0.00    -0.333 OA
BRANCH  12  13
HETATM   13  C8  UNL     1     -10.851  -2.965  -2.397  1.00  0.00     0.214 C 
BRANCH  13  14
HETATM   14  C9  UNL     1     -12.321  -2.549  -2.406  1.00  0.00     0.180 C 
BRANCH  14  15
HETATM   15  O2  UNL     1     -12.491  -1.653  -3.399  1.00  0.00    -0.388 OA
ATOM     16  H2  UNL     1     -13.350  -1.260  -3.294  1.00  0.00     0.210 HD
ENDBRANCH  14  15
BRANCH  14  17
HETATM   17  C10 UNL     1     -12.772  -2.246  -1.034  1.00  0.00     0.094 C 
HETATM   18  N4  UNL     1     -12.292  -1.237  -0.250  1.00  0.00    -0.374 N 
ATOM     19  H4  UNL     1     -11.688  -1.504   0.526  1.00  0.00     0.164 HD
BRANCH  18  20
HETATM   20  C11 UNL     1     -12.548   0.129  -0.410  1.00  0.00    -0.014 C 
HETATM   21  C12 UNL     1     -11.614   0.983  -1.144  1.00  0.00     0.052 C 
HETATM   22  C13 UNL     1     -11.547   2.422  -0.653  1.00  0.00     0.006 C 
HETATM   23  C14 UNL     1     -10.644   2.560   0.549  1.00  0.00     0.000 C 
HETATM   24  C15 UNL     1     -10.723   1.343   1.448  1.00  0.00     0.000 C 
HETATM   25  C16 UNL     1     -12.150   1.183   1.877  1.00  0.00     0.006 C 
HETATM   26  C17 UNL     1     -13.111   0.769   0.857  1.00  0.00     0.052 C 
ENDBRANCH  18  20
ENDBRANCH  14  17
ENDBRANCH  13  14
ENDBRANCH  12  13
ENDBRANCH   7  12
BRANCH  11  27
HETATM   27  N6  UNL     1      -5.535  -4.650  -0.852  1.00  0.00    -0.383 N 
ATOM     28  H62 UNL     1      -4.752  -4.639  -1.505  1.00  0.00     0.157 HD
ATOM     29  H61 UNL     1      -6.110  -5.482  -0.719  1.00  0.00     0.157 HD
ENDBRANCH  11  27
BRANCH   2  30
HETATM   30  N2  UNL     1      -4.451  -1.819   2.454  1.00  0.00    -0.234 N 
ATOM     31  H22 UNL     1      -4.021  -2.536   3.038  1.00  0.00     0.174 HD
ATOM     32  H21 UNL     1      -4.246  -0.829   2.592  1.00  0.00     0.174 HD
ENDBRANCH   2  30
BRANCH   1  33
HETATM   33  C3  UNL     1      -3.804  -4.025   1.084  1.00  0.00     0.149 C 
BRANCH  33  34
HETATM   34  C2  UNL     1      -2.679  -3.409   0.267  1.00  0.00     0.016 C 
HETATM   35  C1  UNL     1      -1.406  -3.235   1.023  1.00  0.00     0.006 C 
ENDBRANCH  33  34
ENDBRANCH   1  33
TORSDOF 10
ENDMDL
MODEL 4
REMARK VINA RESULT: -6.538930419      2.501      7.727
REMARK  10 active torsions:
REMARK  status: ('A' for Active; 'I' for Inactive)
REMARK    1  A    between atoms: C2_2  and  C3_3 
REMARK    2  A    between atoms: C3_3  and  N1_4 
REMARK    3  A    between atoms: C4_5  and  N2_6 
REMARK    4  A    between atoms: C7_13  and  O1_14 
REMARK    5  A    between atoms: O1_14  and  C8_15 
REMARK    6  A    between atoms: C8_15  and  C9_16 
REMARK    7  A    between atoms: C9_16  and  O2_17 
REMARK    8  A    between atoms: C9_16  and  C10_19 
REMARK    9  A    between atoms: N4_20  and  C11_22 
REMARK   10  A    between atoms: C19_32  and  N6_33 
ROOT
HETATM    1  N1  UNL     1      -5.169  -2.483  -0.766  1.00  0.00    -0.167 N 
HETATM    2  C4  UNL     1      -4.994  -1.441  -1.583  1.00  0.00     0.680 A 
HETATM    3  N3  UNL     1      -5.837  -0.373  -1.558  1.00  0.00    -0.189 N 
ATOM      4  H3  UNL     1      -5.683   0.411  -2.191  1.00  0.00     0.184 HD
HETATM    5  C5  UNL     1      -6.865  -0.348  -0.707  1.00  0.00     0.084 A 
HETATM    6  C6  UNL     1      -7.888   0.555  -0.405  1.00  0.00     0.088 A 
HETATM    7  C7  UNL     1      -8.675   0.066   0.584  1.00  0.00     0.145 A 
HETATM    8  N5  UNL     1      -8.151  -1.148   0.907  1.00  0.00    -0.332 N 
ATOM      9  H5  UNL     1      -8.520  -1.774   1.623  1.00  0.00     0.168 HD
HETATM   10  C18 UNL     1      -7.081  -1.397   0.146  1.00  0.00     0.106 A 
HETATM   11  C19 UNL     1      -6.195  -2.468   0.087  1.00  0.00     0.146 A 
ENDROOT
BRANCH   7  12
HETATM   12  O1  UNL     1      -9.774   0.551   1.227  1.00  0.00    -0.333 OA
BRANCH  12  13
HETATM   13  C8  UNL     1     -10.056   1.790   1.743  1.00  0.00     0.214 C 
BRANCH  13  14
HETATM   14  C9  UNL     1     -10.835   2.716   0.810  1.00  0.00     0.180 C 
BRANCH  14  15
HETATM   15  O2  UNL     1     -10.098   3.830   0.624  1.00  0.00    -0.388 OA
ATOM     16  H2  UNL     1     -10.160   4.071  -0.293  1.00  0.00     0.210 HD
ENDBRANCH  14  15
BRANCH  14  17
HETATM   17  C10 UNL     1     -12.242   2.810   1.245  1.00  0.00     0.094 C 
HETATM   18  N4  UNL     1     -13.330   2.577   0.455  1.00  0.00    -0.374 N 
ATOM     19  H4  UNL     1     -13.871   3.391   0.165  1.00  0.00     0.164 HD
BRANCH  18  20
HETATM   20  C11 UNL     1     -13.774   1.330   0.003  1.00  0.00    -0.014 C 
HETATM   21  C12 UNL     1     -13.203   0.095   0.541  1.00  0.00     0.052 C 
HETATM   22  C13 UNL     1     -13.156  -1.065  -0.443  1.00  0.00     0.006 C 
HETATM   23  C14 UNL     1     -11.958  -0.973  -1.357  1.00  0.00     0.000 C 
HETATM   24  C15 UNL     1     -11.628   0.465  -1.700  1.00  0.00     0.000 C 
HETATM   25  C16 UNL     1     -12.835   1.068  -2.352  1.00  0.00     0.006 C 
HETATM   26  C17 UNL     1     -14.003   1.304  -1.506  1.00  0.00     0.052 C 
ENDBRANCH  18  20
ENDBRANCH  14  17
ENDBRANCH  13  14
ENDBRANCH  12  13
ENDBRANCH   7  12
BRANCH  11  27
HETATM   27  N6  UNL     1      -6.355  -3.480   0.859  1.00  0.00    -0.383 N 
ATOM     28  H62 UNL     1      -5.860  -4.352   0.670  1.00  0.00     0.157 HD
ATOM     29  H61 UNL     1      -6.981  -3.382   1.659  1.00  0.00     0.157 HD
ENDBRANCH  11  27
BRANCH   2  30
HETATM   30  N2  UNL     1      -4.010  -1.454  -2.384  1.00  0.00    -0.234 N 
ATOM     31  H22 UNL     1      -3.358  -0.671  -2.405  1.00  0.00     0.174 HD
ATOM     32  H21 UNL     1      -3.884  -2.265  -2.990  1.00  0.00     0.174 HD
ENDBRANCH   2  30
BRANCH   1  33
HETATM   33  C3  UNL     1      -4.260  -3.593  -0.794  1.00  0.00     0.149 C 
BRANCH  33  34
HETATM   34  C2  UNL     1      -3.202  -3.301   0.259  1.00  0.00     0.016 C 
HETATM   35  C1  UNL     1      -2.762  -4.502   1.026  1.00  0.00     0.006 C 
ENDBRANCH  33  34
ENDBRANCH   1  33
TORSDOF 10
ENDMDL
MODEL 5
REMARK VINA RESULT: -6.520776992      1.326      1.736
REMARK  10 active torsions:
REMARK  status: ('A' for Active; 'I' for Inactive)
REMARK    1  A    between atoms: C2_2  and  C3_3 
REMARK    2  A    between atoms: C3_3  and  N1_4 
REMARK    3  A    between atoms: C4_5  and  N2_6 
REMARK    4  A    between atoms: C7_13  and  O1_14 
REMARK    5  A    between atoms: O1_14  and  C8_15 
REMARK    6  A    between atoms: C8_15  and  C9_16 
REMARK    7  A    between atoms: C9_16  and  O2_17 
REMARK    8  A    between atoms: C9_16  and  C10_19 
REMARK    9  A    between atoms: N4_20  and  C11_22 
REMARK   10  A    between atoms: C19_32  and  N6_33 
ROOT
HETATM    1  N1  UNL     1     -12.156   0.445   0.897  1.00  0.00    -0.167 N 
HETATM    2  C4  UNL     1     -11.335   1.131   1.695  1.00  0.00     0.680 A 
HETATM    3  N3  UNL     1     -10.011   1.259   1.406  1.00  0.00    -0.189 N 
ATOM      4  H3  UNL     1      -9.403   1.789   2.031  1.00  0.00     0.184 HD
HETATM    5  C5  UNL     1      -9.505   0.694   0.308  1.00  0.00     0.084 A 
HETATM    6  C6  UNL     1      -8.243   0.632  -0.290  1.00  0.00     0.088 A 
HETATM    7  C7  UNL     1      -8.299  -0.086  -1.438  1.00  0.00     0.145 A 
HETATM    8  N5  UNL     1      -9.595  -0.479  -1.566  1.00  0.00    -0.332 N 
ATOM      9  H5  UNL     1      -9.965  -1.040  -2.334  1.00  0.00     0.168 HD
HETATM   10  C18 UNL     1     -10.312  -0.020  -0.536  1.00  0.00     0.106 A 
HETATM   11  C19 UNL     1     -11.659  -0.126  -0.203  1.00  0.00     0.146 A 
ENDROOT
BRANCH   7  12
HETATM   12  O1  UNL     1      -7.366  -0.426  -2.372  1.00  0.00    -0.333 OA
BRANCH  12  13
HETATM   13  C8  UNL     1      -6.269   0.243  -2.851  1.00  0.00     0.214 C 
BRANCH  13  14
HETATM   14  C9  UNL     1      -4.950  -0.099  -2.161  1.00  0.00     0.180 C 
BRANCH  14  15
HETATM   15  O2  UNL     1      -4.216   1.030  -2.090  1.00  0.00    -0.388 OA
ATOM     16  H2  UNL     1      -4.539   1.543  -1.358  1.00  0.00     0.210 HD
ENDBRANCH  14  15
BRANCH  14  17
HETATM   17  C10 UNL     1      -4.379  -1.332  -2.737  1.00  0.00     0.094 C 
HETATM   18  N4  UNL     1      -3.926  -2.401  -2.022  1.00  0.00    -0.374 N 
ATOM     19  H4  UNL     1      -2.916  -2.532  -1.977  1.00  0.00     0.164 HD
BRANCH  18  20
HETATM   20  C11 UNL     1      -4.714  -3.337  -1.343  1.00  0.00    -0.014 C 
HETATM   21  C12 UNL     1      -6.175  -3.275  -1.416  1.00  0.00     0.052 C 
HETATM   22  C13 UNL     1      -6.895  -3.762  -0.167  1.00  0.00     0.006 C 
HETATM   23  C14 UNL     1      -6.957  -2.690   0.894  1.00  0.00     0.000 C 
HETATM   24  C15 UNL     1      -5.707  -1.834   0.895  1.00  0.00     0.000 C 
HETATM   25  C16 UNL     1      -4.534  -2.737   1.128  1.00  0.00     0.006 C 
HETATM   26  C17 UNL     1      -4.174  -3.654   0.049  1.00  0.00     0.052 C 
ENDBRANCH  18  20
ENDBRANCH  14  17
ENDBRANCH  13  14
ENDBRANCH  12  13
ENDBRANCH   7  12
BRANCH  11  27
HETATM   27  N6  UNL     1     -12.458  -0.790  -0.955  1.00  0.00    -0.383 N 
ATOM     28  H62 UNL     1     -12.661  -0.465  -1.900  1.00  0.00     0.157 HD
ATOM     29  H61 UNL     1     -12.872  -1.645  -0.581  1.00  0.00     0.157 HD
ENDBRANCH  11  27
BRANCH   2  30
HETATM   30  N2  UNL     1     -11.815   1.682   2.732  1.00  0.00    -0.234 N 
ATOM     31  H22 UNL     1     -12.796   1.958   2.756  1.00  0.00     0.174 HD
ATOM     32  H21 UNL     1     -11.203   1.828   3.535  1.00  0.00     0.174 HD
ENDBRANCH   2  30
BRANCH   1  33
HETATM   33  C3  UNL     1     -13.552   0.334   1.206  1.00  0.00     0.149 C 
BRANCH  33  34
HETATM   34  C2  UNL     1     -14.227   1.531   0.554  1.00  0.00     0.016 C 
HETATM   35  C1  UNL     1     -15.212   2.225   1.434  1.00  0.00     0.006 C 
ENDBRANCH  33  34
ENDBRANCH   1  33
TORSDOF 10
ENDMDL
