MODEL 1
REMARK VINA RESULT: -6.649748270      0.000      0.000
REMARK  11 active torsions:
REMARK  status: ('A' for Active; 'I' for Inactive)
REMARK    1  A    between atoms: C2_2  and  C3_3 
REMARK    2  A    between atoms: C3_3  and  C4_4 
REMARK    3  A    between atoms: C4_4  and  N1_5 
REMARK    4  A    between atoms: N1_5  and  C5_7 
REMARK    5  A    between atoms: C6_10  and  N3_11 
REMARK    6  A    between atoms: C8_19  and  C9_20 
REMARK    7  A    between atoms: C11_24  and  N7_25 
REMARK    8  A    between atoms: C12_30  and  O1_31 
REMARK    9  A    between atoms: O1_31  and  C13_32 
REMARK   10  A    between atoms: C13_32  and  C14_33 
REMARK   11  A    between atoms: C14_33  and  C15_34 
ROOT
HETATM    1  C5  UNL     1     -10.410  -0.674  -0.998  1.00  0.00     0.147 A 
HETATM    2  N2  UNL     1     -11.189  -0.057  -0.092  1.00  0.00    -0.175 N 
ATOM      3  H2  UNL     1     -12.200  -0.199  -0.090  1.00  0.00     0.186 HD
HETATM    4  C6  UNL     1     -10.606   0.749   0.812  1.00  0.00     0.679 A 
HETATM    5  N4  UNL     1      -9.275   0.937   0.812  1.00  0.00    -0.174 N 
ATOM      6  H4  UNL     1      -8.864   1.556   1.510  1.00  0.00     0.186 HD
HETATM    7  C7  UNL     1      -8.465   0.332  -0.085  1.00  0.00     0.153 A 
HETATM    8  N5  UNL     1      -7.133   0.343  -0.306  1.00  0.00    -0.325 N 
ATOM      9  H5  UNL     1      -6.450   0.874   0.235  1.00  0.00     0.169 HD
HETATM   10  C8  UNL     1      -6.844  -0.450  -1.346  1.00  0.00     0.123 A 
HETATM   11  N9  UNL     1      -8.022  -0.955  -1.768  1.00  0.00    -0.335 N 
ATOM     12  H9  UNL     1      -8.129  -1.598  -2.552  1.00  0.00     0.168 HD
HETATM   13  C17 UNL     1      -9.036  -0.492  -1.012  1.00  0.00     0.123 A 
ENDROOT
BRANCH  10  14
HETATM   14  C9  UNL     1      -5.525  -0.724  -1.919  1.00  0.00     0.075 A 
HETATM   15  C10 UNL     1      -4.772   0.292  -2.418  1.00  0.00     0.125 A 
HETATM   16  N6  UNL     1      -3.561   0.040  -2.943  1.00  0.00    -0.201 N 
HETATM   17  C11 UNL     1      -3.122  -1.235  -2.961  1.00  0.00     0.677 A 
ATOM     18  H6  UNL     1      -2.988   0.795  -3.319  1.00  0.00     0.183 HD
HETATM   19  N8  UNL     1      -3.860  -2.244  -2.470  1.00  0.00    -0.170 N 
HETATM   20  C12 UNL     1      -5.075  -2.033  -1.936  1.00  0.00     0.172 A 
ATOM     21  H8  UNL     1      -3.489  -3.194  -2.503  1.00  0.00     0.186 HD
BRANCH  17  22
HETATM   22  N7  UNL     1      -1.947  -1.445  -3.476  1.00  0.00    -0.234 N 
ATOM     23  H72 UNL     1      -1.097  -1.143  -2.998  1.00  0.00     0.174 HD
ATOM     24  H71 UNL     1      -1.916  -1.924  -4.376  1.00  0.00     0.174 HD
ENDBRANCH  17  22
BRANCH  20  25
HETATM   25  O1  UNL     1      -5.882  -3.019  -1.417  1.00  0.00    -0.335 OA
BRANCH  25  26
HETATM   26  C13 UNL     1      -5.617  -3.815  -0.301  1.00  0.00     0.177 C 
BRANCH  26  27
HETATM   27  C14 UNL     1      -5.377  -3.065   0.970  1.00  0.00     0.026 C 
BRANCH  27  28
HETATM   28  C15 UNL     1      -3.911  -3.069   1.361  1.00  0.00    -0.002 C 
HETATM   29  C16 UNL     1      -3.133  -4.123   0.617  1.00  0.00     0.005 C 
ENDBRANCH  27  28
ENDBRANCH  26  27
ENDBRANCH  25  26
ENDBRANCH  20  25
ENDBRANCH  10  14
BRANCH   1  30
HETATM   30  N1  UNL     1     -10.917  -1.448  -1.873  1.00  0.00    -0.374 N 
ATOM     31  H1  UNL     1     -11.164  -1.019  -2.765  1.00  0.00     0.161 HD
BRANCH  30  32
HETATM   32  C4  UNL     1     -11.179  -2.842  -1.750  1.00  0.00     0.121 C 
BRANCH  32  33
HETATM   33  C3  UNL     1     -10.546  -3.668  -2.848  1.00  0.00     0.019 C 
BRANCH  33  34
HETATM   34  C2  UNL     1      -9.229  -4.269  -2.396  1.00  0.00    -0.003 C 
HETATM   35  C1  UNL     1      -9.217  -4.591  -0.937  1.00  0.00     0.005 C 
ENDBRANCH  33  34
ENDBRANCH  32  33
ENDBRANCH  30  32
ENDBRANCH   1  30
BRANCH   4  36
HETATM   36  N3  UNL     1     -11.364   1.344   1.686  1.00  0.00    -0.234 N 
ATOM     37  H32 UNL     1     -12.135   0.848   2.132  1.00  0.00     0.174 HD
ATOM     38  H31 UNL     1     -11.165   2.318   1.913  1.00  0.00     0.174 HD
ENDBRANCH   4  36
TORSDOF 11
ENDMDL
MODEL 2
REMARK VINA RESULT: -6.517365356      1.608      6.772
REMARK  11 active torsions:
REMARK  status: ('A' for Active; 'I' for Inactive)
REMARK    1  A    between atoms: C2_2  and  C3_3 
REMARK    2  A    between atoms: C3_3  and  C4_4 
REMARK    3  A    between atoms: C4_4  and  N1_5 
REMARK    4  A    between atoms: N1_5  and  C5_7 
REMARK    5  A    between atoms: C6_10  and  N3_11 
REMARK    6  A    between atoms: C8_19  and  C9_20 
REMARK    7  A    between atoms: C11_24  and  N7_25 
REMARK    8  A    between atoms: C12_30  and  O1_31 
REMARK    9  A    between atoms: O1_31  and  C13_32 
REMARK   10  A    between atoms: C13_32  and  C14_33 
REMARK   11  A    between atoms: C14_33  and  C15_34 
ROOT
HETATM    1  C5  UNL     1      -4.604  -2.548  -0.853  1.00  0.00     0.147 A 
HETATM    2  N2  UNL     1      -3.527  -2.330  -1.629  1.00  0.00    -0.175 N 
ATOM      3  H2  UNL     1      -2.697  -2.917  -1.546  1.00  0.00     0.186 HD
HETATM    4  C6  UNL     1      -3.570  -1.320  -2.515  1.00  0.00     0.679 A 
HETATM    5  N4  UNL     1      -4.661  -0.544  -2.626  1.00  0.00    -0.174 N 
ATOM      6  H4  UNL     1      -4.661   0.214  -3.308  1.00  0.00     0.186 HD
HETATM    7  C7  UNL     1      -5.760  -0.738  -1.863  1.00  0.00     0.153 A 
HETATM    8  N5  UNL     1      -6.960  -0.126  -1.769  1.00  0.00    -0.325 N 
ATOM      9  H5  UNL     1      -7.258   0.674  -2.328  1.00  0.00     0.169 HD
HETATM   10  C8  UNL     1      -7.699  -0.728  -0.829  1.00  0.00     0.123 A 
HETATM   11  N9  UNL     1      -6.937  -1.728  -0.339  1.00  0.00    -0.335 N 
ATOM     12  H9  UNL     1      -7.227  -2.371   0.397  1.00  0.00     0.168 HD
HETATM   13  C17 UNL     1      -5.739  -1.759  -0.955  1.00  0.00     0.123 A 
ENDROOT
BRANCH  10  14
HETATM   14  C9  UNL     1      -9.059  -0.385  -0.408  1.00  0.00     0.075 A 
HETATM   15  C10 UNL     1      -9.261   0.571   0.537  1.00  0.00     0.125 A 
HETATM   16  N6  UNL     1     -10.509   0.886   0.923  1.00  0.00    -0.201 N 
HETATM   17  C11 UNL     1     -11.541   0.232   0.351  1.00  0.00     0.677 A 
ATOM     18  H6  UNL     1     -10.672   1.602   1.630  1.00  0.00     0.183 HD
HETATM   19  N8  UNL     1     -11.350  -0.714  -0.582  1.00  0.00    -0.170 N 
HETATM   20  C12 UNL     1     -10.117  -1.057  -0.995  1.00  0.00     0.172 A 
ATOM     21  H8  UNL     1     -12.159  -1.183  -0.989  1.00  0.00     0.186 HD
BRANCH  17  22
HETATM   22  N7  UNL     1     -12.736   0.560   0.746  1.00  0.00    -0.234 N 
ATOM     23  H72 UNL     1     -13.426   0.932   0.093  1.00  0.00     0.174 HD
ATOM     24  H71 UNL     1     -12.947   0.429   1.735  1.00  0.00     0.174 HD
ENDBRANCH  17  22
BRANCH  20  25
HETATM   25  O1  UNL     1      -9.851  -2.015  -1.945  1.00  0.00    -0.335 OA
BRANCH  25  26
HETATM   26  C13 UNL     1     -10.053  -3.392  -1.825  1.00  0.00     0.177 C 
BRANCH  26  27
HETATM   27  C14 UNL     1      -9.333  -4.228  -2.834  1.00  0.00     0.026 C 
BRANCH  27  28
HETATM   28  C15 UNL     1      -7.861  -4.380  -2.496  1.00  0.00    -0.002 C 
HETATM   29  C16 UNL     1      -6.974  -3.865  -3.599  1.00  0.00     0.005 C 
ENDBRANCH  27  28
ENDBRANCH  26  27
ENDBRANCH  25  26
ENDBRANCH  20  25
ENDBRANCH  10  14
BRANCH   1  30
HETATM   30  N1  UNL     1      -4.611  -3.493   0.001  1.00  0.00    -0.374 N 
ATOM     31  H1  UNL     1      -5.158  -4.318  -0.245  1.00  0.00     0.161 HD
BRANCH  30  32
HETATM   32  C4  UNL     1      -3.945  -3.529   1.258  1.00  0.00     0.121 C 
BRANCH  32  33
HETATM   33  C3  UNL     1      -2.689  -4.372   1.244  1.00  0.00     0.019 C 
BRANCH  33  34
HETATM   34  C2  UNL     1      -1.445  -3.507   1.173  1.00  0.00    -0.003 C 
HETATM   35  C1  UNL     1      -1.291  -2.626   2.369  1.00  0.00     0.005 C 
ENDBRANCH  33  34
ENDBRANCH  32  33
ENDBRANCH  30  32
ENDBRANCH   1  30
BRANCH   4  36
HETATM   36  N3  UNL     1      -2.525  -1.113  -3.262  1.00  0.00    -0.234 N 
ATOM     37  H32 UNL     1      -1.808  -0.444  -2.983  1.00  0.00     0.174 HD
ATOM     38  H31 UNL     1      -2.443  -1.638  -4.132  1.00  0.00     0.174 HD
ENDBRANCH   4  36
TORSDOF 11
ENDMDL
MODEL 3
REMARK VINA RESULT: -6.511941832      2.281      4.788
REMARK  11 active torsions:
REMARK  status: ('A' for Active; 'I' for Inactive)
REMARK    1  A    between atoms: C2_2  and  C3_3 
REMARK    2  A    between atoms: C3_3  and  C4_4 
REMARK    3  A    between atoms: C4_4  and  N1_5 
REMARK    4  A    between atoms: N1_5  and  C5_7 
REMARK    5  A    between atoms: C6_10  and  N3_11 
REMARK    6  A    between atoms: C8_19  and  C9_20 
REMARK    7  A    between atoms: C11_24  and  N7_25 
REMARK    8  A    between atoms: C12_30  and  O1_31 
REMARK    9  A    between atoms: O1_31  and  C13_32 
REMARK   10  A    between atoms: C13_32  and  C14_33 
REMARK   11  A    between atoms: C14_33  and  C15_34 
ROOT
HETATM    1  C5  UNL     1     -10.284  -3.173  -2.217  1.00  0.00     0.147 A 
HETATM    2  N2  UNL     1     -10.947  -3.700  -3.263  1.00  0.00    -0.175 N 
ATOM      3  H2  UNL     1     -11.922  -3.456  -3.439  1.00  0.00     0.186 HD
HETATM    4  C6  UNL     1     -10.296  -4.555  -4.070  1.00  0.00     0.679 A 
HETATM    5  N4  UNL     1      -9.011  -4.879  -3.840  1.00  0.00    -0.174 N 
ATOM      6  H4  UNL     1      -8.546  -5.531  -4.471  1.00  0.00     0.186 HD
HETATM    7  C7  UNL     1      -8.318  -4.367  -2.799  1.00  0.00     0.153 A 
HETATM    8  N5  UNL     1      -7.054  -4.516  -2.347  1.00  0.00    -0.325 N 
ATOM      9  H5  UNL     1      -6.342  -5.110  -2.774  1.00  0.00     0.169 HD
HETATM   10  C8  UNL     1      -6.877  -3.765  -1.253  1.00  0.00     0.123 A 
HETATM   11  N9  UNL     1      -8.055  -3.145  -1.032  1.00  0.00    -0.335 N 
ATOM     12  H9  UNL     1      -8.236  -2.500  -0.263  1.00  0.00     0.168 HD
HETATM   13  C17 UNL     1      -8.960  -3.495  -1.966  1.00  0.00     0.123 A 
ENDROOT
BRANCH  10  14
HETATM   14  C9  UNL     1      -5.660  -3.632  -0.449  1.00  0.00     0.075 A 
HETATM   15  C10 UNL     1      -5.725  -3.714   0.907  1.00  0.00     0.125 A 
HETATM   16  N6  UNL     1      -4.608  -3.593   1.644  1.00  0.00    -0.201 N 
HETATM   17  C11 UNL     1      -3.437  -3.390   1.006  1.00  0.00     0.677 A 
ATOM     18  H6  UNL     1      -4.645  -3.653   2.661  1.00  0.00     0.183 HD
HETATM   19  N8  UNL     1      -3.365  -3.307  -0.333  1.00  0.00    -0.170 N 
HETATM   20  C12 UNL     1      -4.460  -3.424  -1.105  1.00  0.00     0.172 A 
ATOM     21  H8  UNL     1      -2.459  -3.153  -0.774  1.00  0.00     0.186 HD
BRANCH  17  22
HETATM   22  N7  UNL     1      -2.375  -3.276   1.748  1.00  0.00    -0.234 N 
ATOM     23  H72 UNL     1      -1.959  -2.365   1.942  1.00  0.00     0.174 HD
ATOM     24  H71 UNL     1      -1.980  -4.139   2.123  1.00  0.00     0.174 HD
ENDBRANCH  17  22
BRANCH  20  25
HETATM   25  O1  UNL     1      -4.457  -3.350  -2.478  1.00  0.00    -0.335 OA
BRANCH  25  26
HETATM   26  C13 UNL     1      -4.023  -2.275  -3.258  1.00  0.00     0.177 C 
BRANCH  26  27
HETATM   27  C14 UNL     1      -4.306  -0.923  -2.686  1.00  0.00     0.026 C 
BRANCH  27  28
HETATM   28  C15 UNL     1      -5.783  -0.583  -2.740  1.00  0.00    -0.002 C 
HETATM   29  C16 UNL     1      -6.293  -0.072  -1.418  1.00  0.00     0.005 C 
ENDBRANCH  27  28
ENDBRANCH  26  27
ENDBRANCH  25  26
ENDBRANCH  20  25
ENDBRANCH  10  14
BRANCH   1  30
HETATM   30  N1  UNL     1     -10.859  -2.359  -1.426  1.00  0.00    -0.374 N 
ATOM     31  H1  UNL     1     -11.118  -2.726  -0.510  1.00  0.00     0.161 HD
BRANCH  30  32
HETATM   32  C4  UNL     1     -11.182  -0.994  -1.672  1.00  0.00     0.121 C 
BRANCH  32  33
HETATM   33  C3  UNL     1     -10.051  -0.044  -1.347  1.00  0.00     0.019 C 
BRANCH  33  34
HETATM   34  C2  UNL     1      -9.778  -0.001   0.145  1.00  0.00    -0.003 C 
HETATM   35  C1  UNL     1      -9.262   1.327   0.594  1.00  0.00     0.005 C 
ENDBRANCH  33  34
ENDBRANCH  32  33
ENDBRANCH  30  32
ENDBRANCH   1  30
BRANCH   4  36
HETATM   36  N3  UNL     1     -10.941  -5.062  -5.079  1.00  0.00    -0.234 N 
ATOM     37  H32 UNL     1     -10.454  -5.307  -5.941  1.00  0.00     0.174 HD
ATOM     38  H31 UNL     1     -11.946  -5.209  -4.985  1.00  0.00     0.174 HD
ENDBRANCH   4  36
TORSDOF 11
ENDMDL
MODEL 4
REMARK VINA RESULT: -6.446200366      1.249      2.082
REMARK  11 active torsions:
REMARK  status: ('A' for Active; 'I' for Inactive)
REMARK    1  A    between atoms: C2_2  and  C3_3 
REMARK    2  A    between atoms: C3_3  and  C4_4 
REMARK    3  A    between atoms: C4_4  and  N1_5 
REMARK    4  A    between atoms: N1_5  and  C5_7 
REMARK    5  A    between atoms: C6_10  and  N3_11 
REMARK    6  A    between atoms: C8_19  and  C9_20 
REMARK    7  A    between atoms: C11_24  and  N7_25 
REMARK    8  A    between atoms: C12_30  and  O1_31 
REMARK    9  A    between atoms: O1_31  and  C13_32 
REMARK   10  A    between atoms: C13_32  and  C14_33 
REMARK   11  A    between atoms: C14_33  and  C15_34 
ROOT
HETATM    1  C5  UNL     1     -10.943  -0.231  -1.035  1.00  0.00     0.147 A 
HETATM    2  N2  UNL     1     -11.729   0.224  -0.043  1.00  0.00    -0.175 N 
ATOM      3  H2  UNL     1     -12.745   0.200  -0.129  1.00  0.00     0.186 HD
HETATM    4  C6  UNL     1     -11.145   0.710   1.066  1.00  0.00     0.679 A 
HETATM    5  N4  UNL     1      -9.807   0.743   1.184  1.00  0.00    -0.174 N 
ATOM      6  H4  UNL     1      -9.395   1.119   2.038  1.00  0.00     0.186 HD
HETATM    7  C7  UNL     1      -8.989   0.294   0.205  1.00  0.00     0.153 A 
HETATM    8  N5  UNL     1      -7.648   0.211   0.064  1.00  0.00    -0.325 N 
ATOM      9  H5  UNL     1      -6.964   0.511   0.758  1.00  0.00     0.169 HD
HETATM   10  C8  UNL     1      -7.355  -0.325  -1.127  1.00  0.00     0.123 A 
HETATM   11  N9  UNL     1      -8.539  -0.575  -1.725  1.00  0.00    -0.335 N 
ATOM     12  H9  UNL     1      -8.644  -0.987  -2.652  1.00  0.00     0.168 HD
HETATM   13  C17 UNL     1      -9.561  -0.205  -0.930  1.00  0.00     0.123 A 
ENDROOT
BRANCH  10  14
HETATM   14  C9  UNL     1      -6.027  -0.593  -1.682  1.00  0.00     0.075 A 
HETATM   15  C10 UNL     1      -5.483   0.257  -2.593  1.00  0.00     0.125 A 
HETATM   16  N6  UNL     1      -4.263   0.011  -3.101  1.00  0.00    -0.201 N 
HETATM   17  C11 UNL     1      -3.605  -1.090  -2.686  1.00  0.00     0.677 A 
ATOM     18  H6  UNL     1      -3.846   0.642  -3.785  1.00  0.00     0.183 HD
HETATM   19  N8  UNL     1      -4.136  -1.934  -1.786  1.00  0.00    -0.170 N 
HETATM   20  C12 UNL     1      -5.352  -1.724  -1.254  1.00  0.00     0.172 A 
ATOM     21  H8  UNL     1      -3.603  -2.756  -1.499  1.00  0.00     0.186 HD
BRANCH  17  22
HETATM   22  N7  UNL     1      -2.428  -1.300  -3.196  1.00  0.00    -0.234 N 
ATOM     23  H72 UNL     1      -1.626  -1.523  -2.606  1.00  0.00     0.174 HD
ATOM     24  H71 UNL     1      -2.345  -1.229  -4.210  1.00  0.00     0.174 HD
ENDBRANCH  17  22
BRANCH  20  25
HETATM   25  O1  UNL     1      -5.953  -2.546  -0.331  1.00  0.00    -0.335 OA
BRANCH  25  26
HETATM   26  C13 UNL     1      -6.363  -3.867  -0.527  1.00  0.00     0.177 C 
BRANCH  26  27
HETATM   27  C14 UNL     1      -7.819  -4.041  -0.824  1.00  0.00     0.026 C 
BRANCH  27  28
HETATM   28  C15 UNL     1      -8.045  -4.727  -2.159  1.00  0.00    -0.002 C 
HETATM   29  C16 UNL     1      -7.446  -3.948  -3.301  1.00  0.00     0.005 C 
ENDBRANCH  27  28
ENDBRANCH  26  27
ENDBRANCH  25  26
ENDBRANCH  20  25
ENDBRANCH  10  14
BRANCH   1  30
HETATM   30  N1  UNL     1     -11.450  -0.701  -2.104  1.00  0.00    -0.374 N 
ATOM     31  H1  UNL     1     -11.340  -0.132  -2.943  1.00  0.00     0.161 HD
BRANCH  30  32
HETATM   32  C4  UNL     1     -12.153  -1.929  -2.262  1.00  0.00     0.121 C 
BRANCH  32  33
HETATM   33  C3  UNL     1     -11.286  -3.050  -2.792  1.00  0.00     0.019 C 
BRANCH  33  34
HETATM   34  C2  UNL     1     -11.803  -3.566  -4.121  1.00  0.00    -0.003 C 
HETATM   35  C1  UNL     1     -10.864  -4.534  -4.763  1.00  0.00     0.005 C 
ENDBRANCH  33  34
ENDBRANCH  32  33
ENDBRANCH  30  32
ENDBRANCH   1  30
BRANCH   4  36
HETATM   36  N3  UNL     1     -11.910   1.149   2.022  1.00  0.00    -0.234 N 
ATOM     37  H32 UNL     1     -12.684   0.586   2.373  1.00  0.00     0.174 HD
ATOM     38  H31 UNL     1     -11.713   2.071   2.412  1.00  0.00     0.174 HD
ENDBRANCH   4  36
TORSDOF 11
ENDMDL
MODEL 5
REMARK VINA RESULT: -6.443015406      1.982      3.374
REMARK  11 active torsions:
REMARK  status: ('A' for Active; 'I' for Inactive)
REMARK    1  A    between atoms: C2_2  and  C3_3 
REMARK    2  A    between atoms: C3_3  and  C4_4 
REMARK    3  A    between atoms: C4_4  and  N1_5 
REMARK    4  A    between atoms: N1_5  and  C5_7 
REMARK    5  A    between atoms: C6_10  and  N3_11 
REMARK    6  A    between atoms: C8_19  and  C9_20 
REMARK    7  A    between atoms: C11_24  and  N7_25 
REMARK    8  A    between atoms: C12_30  and  O1_31 
REMARK    9  A    between atoms: O1_31  and  C13_32 
REMARK   10  A    between atoms: C13_32  and  C14_33 
REMARK   11  A    between atoms: C14_33  and  C15_34 
ROOT
HETATM    1  C5  UNL     1      -9.862  -2.441  -1.471  1.00  0.00     0.147 A 
HETATM    2  N2  UNL     1     -10.750  -1.456  -1.698  1.00  0.00    -0.175 N 
ATOM      3  H2  UNL     1     -11.671  -1.664  -2.085  1.00  0.00     0.186 HD
HETATM    4  C6  UNL     1     -10.397  -0.194  -1.402  1.00  0.00     0.679 A 
HETATM    5  N4  UNL     1      -9.184   0.083  -0.892  1.00  0.00    -0.174 N 
ATOM      6  H4  UNL     1      -8.947   1.051  -0.679  1.00  0.00     0.186 HD
HETATM    7  C7  UNL     1      -8.270  -0.884  -0.652  1.00  0.00     0.153 A 
HETATM    8  N5  UNL     1      -7.012  -0.887  -0.158  1.00  0.00    -0.325 N 
ATOM      9  H5  UNL     1      -6.497  -0.061   0.146  1.00  0.00     0.169 HD
HETATM   10  C8  UNL     1      -6.545  -2.141  -0.130  1.00  0.00     0.123 A 
HETATM   11  N9  UNL     1      -7.534  -2.919  -0.616  1.00  0.00    -0.335 N 
ATOM     12  H9  UNL     1      -7.477  -3.932  -0.719  1.00  0.00     0.168 HD
HETATM   13  C17 UNL     1      -8.607  -2.174  -0.944  1.00  0.00     0.123 A 
ENDROOT
BRANCH  10  14
HETATM   14  C9  UNL     1      -5.230  -2.593   0.330  1.00  0.00     0.075 A 
HETATM   15  C10 UNL     1      -4.884  -2.465   1.639  1.00  0.00     0.125 A 
HETATM   16  N6  UNL     1      -3.678  -2.880   2.062  1.00  0.00    -0.201 N 
HETATM   17  C11 UNL     1      -2.833  -3.420   1.160  1.00  0.00     0.677 A 
ATOM     18  H6  UNL     1      -3.408  -2.790   3.041  1.00  0.00     0.183 HD
HETATM   19  N8  UNL     1      -3.168  -3.549  -0.135  1.00  0.00    -0.170 N 
HETATM   20  C12 UNL     1      -4.364  -3.146  -0.596  1.00  0.00     0.172 A 
ATOM     21  H8  UNL     1      -2.498  -3.963  -0.783  1.00  0.00     0.186 HD
BRANCH  17  22
HETATM   22  N7  UNL     1      -1.674  -3.812   1.600  1.00  0.00    -0.234 N 
ATOM     23  H72 UNL     1      -0.916  -3.148   1.762  1.00  0.00     0.174 HD
ATOM     24  H71 UNL     1      -1.560  -4.810   1.775  1.00  0.00     0.174 HD
ENDBRANCH  17  22
BRANCH  20  25
HETATM   25  O1  UNL     1      -4.770  -3.249  -1.907  1.00  0.00    -0.335 OA
BRANCH  25  26
HETATM   26  C13 UNL     1      -4.168  -2.655  -3.018  1.00  0.00     0.177 C 
BRANCH  26  27
HETATM   27  C14 UNL     1      -3.476  -1.358  -2.747  1.00  0.00     0.026 C 
BRANCH  27  28
HETATM   28  C15 UNL     1      -4.459  -0.208  -2.627  1.00  0.00    -0.002 C 
HETATM   29  C16 UNL     1      -3.797   1.125  -2.861  1.00  0.00     0.005 C 
ENDBRANCH  27  28
ENDBRANCH  26  27
ENDBRANCH  25  26
ENDBRANCH  20  25
ENDBRANCH  10  14
BRANCH   1  30
HETATM   30  N1  UNL     1     -10.151  -3.653  -1.734  1.00  0.00    -0.374 N 
ATOM     31  H1  UNL     1     -10.419  -4.235  -0.941  1.00  0.00     0.161 HD
BRANCH  30  32
HETATM   32  C4  UNL     1     -10.144  -4.288  -3.009  1.00  0.00     0.121 C 
BRANCH  32  33
HETATM   33  C3  UNL     1      -9.286  -5.533  -3.051  1.00  0.00     0.019 C 
BRANCH  33  34
HETATM   34  C2  UNL     1      -8.263  -5.461  -4.168  1.00  0.00    -0.003 C 
HETATM   35  C1  UNL     1      -7.359  -4.278  -4.041  1.00  0.00     0.005 C 
ENDBRANCH  33  34
ENDBRANCH  32  33
ENDBRANCH  30  32
ENDBRANCH   1  30
BRANCH   4  36
HETATM   36  N3  UNL     1     -11.259   0.754  -1.624  1.00  0.00    -0.234 N 
ATOM     37  H32 UNL     1     -11.117   1.689  -1.242  1.00  0.00     0.174 HD
ATOM     38  H31 UNL     1     -12.080   0.538  -2.189  1.00  0.00     0.174 HD
ENDBRANCH   4  36
TORSDOF 11
ENDMDL
