MODEL 1
REMARK VINA RESULT: -5.031179470      0.000      0.000
REMARK  1 active torsions:
REMARK  status: ('A' for Active; 'I' for Inactive)
REMARK    1  A    between atoms: C5_6  and  O2_7 
ROOT
HETATM    1  C1  UNL     1      -6.616   3.538  17.623  1.00  0.00     0.046 C 
HETATM    2  C2  UNL     1      -6.269   2.211  16.959  1.00  0.00     0.066 C 
HETATM    3  C3  UNL     1      -7.396   1.231  17.029  1.00  0.00     0.046 C 
HETATM    4  O1  UNL     1      -5.047   1.766  17.473  1.00  0.00    -0.371 OA
HETATM    5  C4  UNL     1      -4.462   2.153  16.271  1.00  0.00     0.166 A 
HETATM    6  C5  UNL     1      -4.787   1.289  15.087  1.00  0.00     0.161 A 
HETATM    7  C6  UNL     1      -5.729   2.320  15.567  1.00  0.00     0.043 A 
HETATM    8  C7  UNL     1      -6.076   3.485  14.716  1.00  0.00     0.024 C 
ENDROOT
BRANCH   6   9
HETATM    9  O2  UNL     1      -4.988  -0.061  15.411  1.00  0.00    -0.392 OA
ATOM     10  H2  UNL     1      -4.197  -0.513  15.680  1.00  0.00     0.210 HD
ENDBRANCH   6   9
TORSDOF 1
ENDMDL
MODEL 2
REMARK VINA RESULT: -4.840106501      1.794      2.792
REMARK  1 active torsions:
REMARK  status: ('A' for Active; 'I' for Inactive)
REMARK    1  A    between atoms: C5_6  and  O2_7 
ROOT
HETATM    1  C1  UNL     1      -4.707   5.109  15.371  1.00  0.00     0.046 C 
HETATM    2  C2  UNL     1      -4.185   3.727  15.744  1.00  0.00     0.066 C 
HETATM    3  C3  UNL     1      -2.923   3.795  16.543  1.00  0.00     0.046 C 
HETATM    4  O1  UNL     1      -4.127   2.949  14.584  1.00  0.00    -0.371 OA
HETATM    5  C4  UNL     1      -5.266   2.288  15.035  1.00  0.00     0.166 A 
HETATM    6  C5  UNL     1      -5.059   1.364  16.199  1.00  0.00     0.161 A 
HETATM    7  C6  UNL     1      -5.189   2.823  16.389  1.00  0.00     0.043 A 
HETATM    8  C7  UNL     1      -6.337   3.390  17.141  1.00  0.00     0.024 C 
ENDROOT
BRANCH   6   9
HETATM    9  O2  UNL     1      -3.794   0.757  16.221  1.00  0.00    -0.392 OA
ATOM     10  H2  UNL     1      -3.074   1.369  16.118  1.00  0.00     0.210 HD
ENDBRANCH   6   9
TORSDOF 1
ENDMDL
MODEL 3
REMARK VINA RESULT: -4.592170272      4.283      5.126
REMARK  1 active torsions:
REMARK  status: ('A' for Active; 'I' for Inactive)
REMARK    1  A    between atoms: C5_6  and  O2_7 
ROOT
HETATM    1  C1  UNL     1      -5.065   5.863  16.068  1.00  0.00     0.046 C 
HETATM    2  C2  UNL     1      -3.709   5.360  16.548  1.00  0.00     0.066 C 
HETATM    3  C3  UNL     1      -3.257   4.147  15.799  1.00  0.00     0.046 C 
HETATM    4  O1  UNL     1      -3.754   5.229  17.940  1.00  0.00    -0.371 OA
HETATM    5  C4  UNL     1      -2.991   6.391  18.019  1.00  0.00     0.166 A 
HETATM    6  C5  UNL     1      -1.555   6.250  17.606  1.00  0.00     0.161 A 
HETATM    7  C6  UNL     1      -2.631   6.397  16.606  1.00  0.00     0.043 A 
HETATM    8  C7  UNL     1      -2.689   7.589  15.723  1.00  0.00     0.024 C 
ENDROOT
BRANCH   6   9
HETATM    9  O2  UNL     1      -1.009   4.987  17.880  1.00  0.00    -0.392 OA
ATOM     10  H2  UNL     1      -0.946   4.424  17.117  1.00  0.00     0.210 HD
ENDBRANCH   6   9
TORSDOF 1
ENDMDL
MODEL 4
REMARK VINA RESULT: -4.563859688      3.849      4.677
REMARK  1 active torsions:
REMARK  status: ('A' for Active; 'I' for Inactive)
REMARK    1  A    between atoms: C5_6  and  O2_7 
ROOT
HETATM    1  C1  UNL     1      -2.285   7.184  16.012  1.00  0.00     0.046 C 
HETATM    2  C2  UNL     1      -2.229   5.709  16.392  1.00  0.00     0.066 C 
HETATM    3  C3  UNL     1      -1.527   5.486  17.693  1.00  0.00     0.046 C 
HETATM    4  O1  UNL     1      -1.726   4.992  15.302  1.00  0.00    -0.371 OA
HETATM    5  C4  UNL     1      -3.024   4.549  15.063  1.00  0.00     0.166 A 
HETATM    6  C5  UNL     1      -3.556   3.548  16.046  1.00  0.00     0.161 A 
HETATM    7  C6  UNL     1      -3.542   4.992  16.352  1.00  0.00     0.043 A 
HETATM    8  C7  UNL     1      -4.811   5.740  16.542  1.00  0.00     0.024 C 
ENDROOT
BRANCH   6   9
HETATM    9  O2  UNL     1      -2.573   2.702  16.579  1.00  0.00    -0.392 OA
ATOM     10  H2  UNL     1      -1.989   2.333  15.925  1.00  0.00     0.210 HD
ENDBRANCH   6   9
TORSDOF 1
ENDMDL
MODEL 5
REMARK VINA RESULT: -4.481066512      1.104      2.760
REMARK  1 active torsions:
REMARK  status: ('A' for Active; 'I' for Inactive)
REMARK    1  A    between atoms: C5_6  and  O2_7 
ROOT
HETATM    1  C1  UNL     1      -6.067   3.632  15.118  1.00  0.00     0.046 C 
HETATM    2  C2  UNL     1      -5.681   2.486  16.045  1.00  0.00     0.066 C 
HETATM    3  C3  UNL     1      -4.203   2.263  16.085  1.00  0.00     0.046 C 
HETATM    4  O1  UNL     1      -6.452   1.369  15.712  1.00  0.00    -0.371 OA
HETATM    5  C4  UNL     1      -7.206   1.615  16.856  1.00  0.00     0.166 A 
HETATM    6  C5  UNL     1      -6.523   1.310  18.158  1.00  0.00     0.161 A 
HETATM    7  C6  UNL     1      -6.256   2.564  17.425  1.00  0.00     0.043 A 
HETATM    8  C7  UNL     1      -6.622   3.878  18.012  1.00  0.00     0.024 C 
ENDROOT
BRANCH   6   9
HETATM    9  O2  UNL     1      -5.618   0.241  18.084  1.00  0.00    -0.392 OA
ATOM     10  H2  UNL     1      -5.399  -0.016  17.195  1.00  0.00     0.210 HD
ENDBRANCH   6   9
TORSDOF 1
ENDMDL
