MODEL 1
REMARK VINA RESULT: -5.180604340      0.000      0.000
REMARK  1 active torsions:
REMARK  status: ('A' for Active; 'I' for Inactive)
REMARK    1  A    between atoms: N1_5  and  N2_7 
ROOT
HETATM    1  C1  UNL     1      -6.346   5.321  15.627  1.00  0.00     0.038 C 
HETATM    2  C2  UNL     1      -6.262   4.058  15.954  1.00  0.00     0.000 C 
HETATM    3  C3  UNL     1      -5.453   3.160  15.052  1.00  0.00     0.109 C 
HETATM    4  C4  UNL     1      -4.727   2.224  15.950  1.00  0.00     0.009 C 
HETATM    5  N1  UNL     1      -3.504   2.457  16.217  1.00  0.00    -0.315 N 
ATOM      6  H1  UNL     1      -2.973   1.838  16.830  1.00  0.00     0.185 HD
HETATM    7  C5  UNL     1      -5.331   1.010  16.575  1.00  0.00     0.056 C 
HETATM    8  C6  UNL     1      -6.748   1.318  17.009  1.00  0.00     0.025 C 
HETATM    9  C7  UNL     1      -6.685   2.515  17.940  1.00  0.00     0.119 C 
HETATM   10  N3  UNL     1      -6.958   3.693  17.138  1.00  0.00    -0.393 N 
ATOM     11  H3  UNL     1      -7.710   4.308  17.450  1.00  0.00     0.159 HD
ENDROOT
BRANCH   5  12
HETATM   12  N2  UNL     1      -2.909   3.587  15.647  1.00  0.00    -0.345 N 
ATOM     13  H22 UNL     1      -3.357   4.499  15.736  1.00  0.00     0.176 HD
ATOM     14  H21 UNL     1      -2.027   3.466  15.148  1.00  0.00     0.176 HD
ENDBRANCH   5  12
TORSDOF 1
ENDMDL
MODEL 2
REMARK VINA RESULT: -5.149018163      2.578      3.351
REMARK  1 active torsions:
REMARK  status: ('A' for Active; 'I' for Inactive)
REMARK    1  A    between atoms: N1_5  and  N2_7 
ROOT
HETATM    1  C1  UNL     1      -2.658   6.059  18.329  1.00  0.00     0.038 C 
HETATM    2  C2  UNL     1      -3.515   5.735  17.396  1.00  0.00     0.000 C 
HETATM    3  C3  UNL     1      -3.160   6.090  15.974  1.00  0.00     0.109 C 
HETATM    4  C4  UNL     1      -3.614   4.946  15.141  1.00  0.00     0.009 C 
HETATM    5  N1  UNL     1      -2.754   4.086  14.762  1.00  0.00    -0.315 N 
ATOM      6  H1  UNL     1      -3.028   3.287  14.190  1.00  0.00     0.185 HD
HETATM    7  C5  UNL     1      -5.024   4.721  14.707  1.00  0.00     0.056 C 
HETATM    8  C6  UNL     1      -5.964   5.079  15.839  1.00  0.00     0.025 C 
HETATM    9  C7  UNL     1      -5.557   4.250  17.043  1.00  0.00     0.119 C 
HETATM   10  N3  UNL     1      -4.689   5.079  17.857  1.00  0.00    -0.393 N 
ATOM     11  H3  UNL     1      -4.941   5.200  18.838  1.00  0.00     0.159 HD
ENDROOT
BRANCH   5  12
HETATM   12  N2  UNL     1      -1.424   4.269  15.152  1.00  0.00    -0.345 N 
ATOM     13  H22 UNL     1      -0.954   5.155  14.963  1.00  0.00     0.176 HD
ATOM     14  H21 UNL     1      -0.951   3.497  15.623  1.00  0.00     0.176 HD
ENDBRANCH   5  12
TORSDOF 1
ENDMDL
MODEL 3
REMARK VINA RESULT: -5.010408519      3.652      4.402
REMARK  1 active torsions:
REMARK  status: ('A' for Active; 'I' for Inactive)
REMARK    1  A    between atoms: N1_5  and  N2_7 
ROOT
HETATM    1  C1  UNL     1      -1.603   8.117  15.579  1.00  0.00     0.038 C 
HETATM    2  C2  UNL     1      -2.337   7.186  16.130  1.00  0.00     0.000 C 
HETATM    3  C3  UNL     1      -3.066   6.241  15.208  1.00  0.00     0.109 C 
HETATM    4  C4  UNL     1      -2.980   4.900  15.845  1.00  0.00     0.009 C 
HETATM    5  N1  UNL     1      -2.110   4.075  15.418  1.00  0.00    -0.315 N 
ATOM      6  H1  UNL     1      -2.021   3.146  15.830  1.00  0.00     0.185 HD
HETATM    7  C5  UNL     1      -3.851   4.439  16.966  1.00  0.00     0.056 C 
HETATM    8  C6  UNL     1      -4.068   5.578  17.939  1.00  0.00     0.025 C 
HETATM    9  C7  UNL     1      -2.699   6.056  18.387  1.00  0.00     0.119 C 
HETATM   10  N3  UNL     1      -2.349   7.189  17.551  1.00  0.00    -0.393 N 
ATOM     11  H3  UNL     1      -2.091   8.057  18.021  1.00  0.00     0.159 HD
ENDROOT
BRANCH   5  12
HETATM   12  N2  UNL     1      -1.280   4.477  14.368  1.00  0.00    -0.345 N 
ATOM     13  H22 UNL     1      -1.332   5.433  14.013  1.00  0.00     0.176 HD
ATOM     14  H21 UNL     1      -0.632   3.793  13.977  1.00  0.00     0.176 HD
ENDBRANCH   5  12
TORSDOF 1
ENDMDL
MODEL 4
REMARK VINA RESULT: -4.927916245      1.772      2.309
REMARK  1 active torsions:
REMARK  status: ('A' for Active; 'I' for Inactive)
REMARK    1  A    between atoms: N1_5  and  N2_7 
ROOT
HETATM    1  C1  UNL     1      -3.447   4.142  14.887  1.00  0.00     0.038 C 
HETATM    2  C2  UNL     1      -4.532   3.825  15.544  1.00  0.00     0.000 C 
HETATM    3  C3  UNL     1      -5.383   2.714  14.982  1.00  0.00     0.109 C 
HETATM    4  C4  UNL     1      -5.862   1.932  16.152  1.00  0.00     0.009 C 
HETATM    5  N1  UNL     1      -5.269   0.844  16.445  1.00  0.00    -0.315 N 
ATOM      6  H1  UNL     1      -5.569   0.281  17.241  1.00  0.00     0.185 HD
HETATM    7  C5  UNL     1      -7.004   2.331  17.027  1.00  0.00     0.056 C 
HETATM    8  C6  UNL     1      -6.971   3.829  17.249  1.00  0.00     0.025 C 
HETATM    9  C7  UNL     1      -5.610   4.169  17.829  1.00  0.00     0.119 C 
HETATM   10  N3  UNL     1      -4.768   4.583  16.723  1.00  0.00    -0.393 N 
ATOM     11  H3  UNL     1      -4.307   5.490  16.798  1.00  0.00     0.159 HD
ENDROOT
BRANCH   5  12
HETATM   12  N2  UNL     1      -4.196   0.443  15.644  1.00  0.00    -0.345 N 
ATOM     13  H22 UNL     1      -3.299   0.209  16.072  1.00  0.00     0.176 HD
ATOM     14  H21 UNL     1      -4.340   0.394  14.635  1.00  0.00     0.176 HD
ENDBRANCH   5  12
TORSDOF 1
ENDMDL
MODEL 5
REMARK VINA RESULT: -4.909570817      3.163      3.933
REMARK  1 active torsions:
REMARK  status: ('A' for Active; 'I' for Inactive)
REMARK    1  A    between atoms: N1_5  and  N2_7 
ROOT
HETATM    1  C1  UNL     1      -5.532   5.328  15.507  1.00  0.00     0.038 C 
HETATM    2  C2  UNL     1      -4.471   5.312  16.270  1.00  0.00     0.000 C 
HETATM    3  C3  UNL     1      -3.644   4.050  16.283  1.00  0.00     0.109 C 
HETATM    4  C4  UNL     1      -2.225   4.491  16.333  1.00  0.00     0.009 C 
HETATM    5  N1  UNL     1      -1.548   4.496  15.255  1.00  0.00    -0.315 N 
ATOM      6  H1  UNL     1      -0.572   4.793  15.249  1.00  0.00     0.185 HD
HETATM    7  C5  UNL     1      -1.520   4.936  17.571  1.00  0.00     0.056 C 
HETATM    8  C6  UNL     1      -2.461   5.767  18.417  1.00  0.00     0.025 C 
HETATM    9  C7  UNL     1      -2.954   6.912  17.551  1.00  0.00     0.119 C 
HETATM   10  N3  UNL     1      -4.234   6.508  17.000  1.00  0.00    -0.393 N 
ATOM     11  H3  UNL     1      -5.027   7.133  17.148  1.00  0.00     0.159 HD
ENDROOT
BRANCH   5  12
HETATM   12  N2  UNL     1      -2.180   4.084  14.078  1.00  0.00    -0.345 N 
ATOM     13  H22 UNL     1      -2.288   4.737  13.301  1.00  0.00     0.176 HD
ATOM     14  H21 UNL     1      -2.524   3.124  14.026  1.00  0.00     0.176 HD
ENDBRANCH   5  12
TORSDOF 1
ENDMDL
