MODEL 1
REMARK VINA RESULT: -8.477296891      0.000      0.000
REMARK  18 active torsions:
REMARK  status: ('A' for Active; 'I' for Inactive)
REMARK    1  A    between atoms: C2_2  and  N1_3 
REMARK    2  A    between atoms: N1_3  and  C3_4 
REMARK    3  A    between atoms: N1_3  and  C12_13 
REMARK    4  A    between atoms: C3_4  and  C4_5 
REMARK    5  A    between atoms: C4_5  and  C5_6 
REMARK    6  A    between atoms: C12_13  and  C13_14 
REMARK    7  A    between atoms: C13_14  and  C14_15 
REMARK    8  A    between atoms: C14_15  and  C16_17 
REMARK    9  A    between atoms: N2_18  and  C17_20 
REMARK   10  A    between atoms: C17_20  and  C18_21 
REMARK   11  A    between atoms: C17_20  and  C19_24 
REMARK   12  A    between atoms: C18_21  and  O1_22 
REMARK   13  A    between atoms: C19_24  and  C20_25 
REMARK   14  A    between atoms: C22_27  and  O2_28 
REMARK   15  A    between atoms: C23_30  and  O3_31 
REMARK   16  A    between atoms: C24_33  and  O4_34 
REMARK   17  A    between atoms: C25_36  and  C26_37 
REMARK   18  A    between atoms: C26_37  and  O5_38 
ROOT
HETATM    1  C17 UNL     1      49.391  19.725 -16.386  1.00  0.00     0.010 C 
ENDROOT
BRANCH   1   2
HETATM    2  N2  UNL     1      48.230  19.040 -16.082  1.00  0.00    -0.374 N 
HETATM    3  C16 UNL     1      47.747  18.366 -15.015  1.00  0.00     0.065 C 
ATOM      4  H2  UNL     1      47.571  19.044 -16.860  1.00  0.00     0.164 HD
BRANCH   3   5
HETATM    5  C14 UNL     1      48.135  17.052 -14.481  1.00  0.00     0.021 C 
HETATM    6  C15 UNL     1      49.231  16.271 -15.118  1.00  0.00     0.015 C 
BRANCH   5   7
HETATM    7  C13 UNL     1      48.444  17.165 -12.958  1.00  0.00     0.029 C 
BRANCH   7   8
HETATM    8  C12 UNL     1      47.223  17.464 -12.158  1.00  0.00     0.117 C 
BRANCH   8   9
HETATM    9  N1  UNL     1      47.503  18.415 -11.143  1.00  0.00    -0.412 N 
BRANCH   9  10
HETATM   10  C2  UNL     1      47.828  17.855  -9.857  1.00  0.00     0.112 C 
HETATM   11  C1  UNL     1      46.514  17.519  -9.152  1.00  0.00     0.026 C 
ENDBRANCH   9  10
BRANCH   9  12
HETATM   12  C3  UNL     1      46.671  19.565 -11.061  1.00  0.00     0.120 C 
BRANCH  12  13
HETATM   13  C4  UNL     1      45.585  19.613 -12.118  1.00  0.00     0.047 C 
BRANCH  13  14
HETATM   14  C5  UNL     1      44.244  19.821 -11.480  1.00  0.00    -0.022 C 
HETATM   15  C6  UNL     1      43.417  18.832 -11.192  1.00  0.00    -0.084 C 
HETATM   16  C7  UNL     1      43.642  17.407 -11.433  1.00  0.00     0.034 C 
HETATM   17  C11 UNL     1      42.097  19.193 -10.552  1.00  0.00     0.034 C 
HETATM   18  C8  UNL     1      42.379  16.613 -11.710  1.00  0.00     0.004 C 
HETATM   19  C9  UNL     1      41.236  16.929 -10.816  1.00  0.00     0.001 C 
HETATM   20  C10 UNL     1      41.564  17.987  -9.809  1.00  0.00     0.004 C 
ENDBRANCH  13  14
ENDBRANCH  12  13
ENDBRANCH   9  12
ENDBRANCH   8   9
ENDBRANCH   7   8
ENDBRANCH   5   7
ENDBRANCH   3   5
ENDBRANCH   1   2
BRANCH   1  21
HETATM   21  C18 UNL     1      49.964  19.702 -17.722  1.00  0.00     0.216 C 
BRANCH  21  22
HETATM   22  O1  UNL     1      51.057  20.660 -17.748  1.00  0.00    -0.395 OA
ATOM     23  H1  UNL     1      51.381  20.703 -18.640  1.00  0.00     0.209 HD
ENDBRANCH  21  22
ENDBRANCH   1  21
BRANCH   1  24
HETATM   24  C19 UNL     1      49.510  21.048 -15.639  1.00  0.00     0.060 C 
BRANCH  24  25
HETATM   25  C20 UNL     1      50.274  21.062 -14.379  1.00  0.00     0.002 C 
HETATM   26  C21 UNL     1      49.536  20.637 -13.168  1.00  0.00     0.039 C 
HETATM   27  C22 UNL     1      49.574  21.595 -11.990  1.00  0.00     0.149 C 
HETATM   28  C23 UNL     1      50.941  22.091 -11.645  1.00  0.00     0.176 C 
HETATM   29  C24 UNL     1      51.767  22.314 -12.895  1.00  0.00     0.155 C 
HETATM   30  C25 UNL     1      50.846  22.458 -14.091  1.00  0.00     0.045 C 
BRANCH  27  31
HETATM   31  O2  UNL     1      48.654  22.630 -12.095  1.00  0.00    -0.393 OA
ATOM     32  H2  UNL     1      49.002  23.398 -12.533  1.00  0.00     0.210 HD
ENDBRANCH  27  31
BRANCH  28  33
HETATM   33  O3  UNL     1      51.577  21.313 -10.692  1.00  0.00    -0.390 OA
ATOM     34  H3  UNL     1      51.706  21.765  -9.866  1.00  0.00     0.210 HD
ENDBRANCH  28  33
BRANCH  29  35
HETATM   35  O4  UNL     1      52.554  23.453 -12.795  1.00  0.00    -0.392 OA
ATOM     36  H4  UNL     1      53.450  23.287 -13.064  1.00  0.00     0.210 HD
ENDBRANCH  29  35
BRANCH  30  37
HETATM   37  C26 UNL     1      51.734  22.922 -15.226  1.00  0.00     0.171 C 
BRANCH  37  38
HETATM   38  O5  UNL     1      52.781  22.068 -15.493  1.00  0.00    -0.400 OA
ATOM     39  H5  UNL     1      53.595  22.514 -15.696  1.00  0.00     0.209 HD
ENDBRANCH  37  38
ENDBRANCH  30  37
ENDBRANCH  24  25
ENDBRANCH   1  24
TORSDOF 18
ENDMDL
MODEL 2
REMARK VINA RESULT: -8.383426658      1.497      3.535
REMARK  18 active torsions:
REMARK  status: ('A' for Active; 'I' for Inactive)
REMARK    1  A    between atoms: C2_2  and  N1_3 
REMARK    2  A    between atoms: N1_3  and  C3_4 
REMARK    3  A    between atoms: N1_3  and  C12_13 
REMARK    4  A    between atoms: C3_4  and  C4_5 
REMARK    5  A    between atoms: C4_5  and  C5_6 
REMARK    6  A    between atoms: C12_13  and  C13_14 
REMARK    7  A    between atoms: C13_14  and  C14_15 
REMARK    8  A    between atoms: C14_15  and  C16_17 
REMARK    9  A    between atoms: N2_18  and  C17_20 
REMARK   10  A    between atoms: C17_20  and  C18_21 
REMARK   11  A    between atoms: C17_20  and  C19_24 
REMARK   12  A    between atoms: C18_21  and  O1_22 
REMARK   13  A    between atoms: C19_24  and  C20_25 
REMARK   14  A    between atoms: C22_27  and  O2_28 
REMARK   15  A    between atoms: C23_30  and  O3_31 
REMARK   16  A    between atoms: C24_33  and  O4_34 
REMARK   17  A    between atoms: C25_36  and  C26_37 
REMARK   18  A    between atoms: C26_37  and  O5_38 
ROOT
HETATM    1  C17 UNL     1      49.322  19.483 -16.267  1.00  0.00     0.010 C 
ENDROOT
BRANCH   1   2
HETATM    2  N2  UNL     1      48.032  19.033 -16.057  1.00  0.00    -0.374 N 
HETATM    3  C16 UNL     1      47.292  18.664 -14.988  1.00  0.00     0.065 C 
ATOM      4  H2  UNL     1      47.507  18.961 -16.928  1.00  0.00     0.164 HD
BRANCH   3   5
HETATM    5  C14 UNL     1      47.375  17.451 -14.162  1.00  0.00     0.021 C 
HETATM    6  C15 UNL     1      48.465  17.294 -13.159  1.00  0.00     0.015 C 
BRANCH   5   7
HETATM    7  C13 UNL     1      46.016  17.202 -13.441  1.00  0.00     0.029 C 
BRANCH   7   8
HETATM    8  C12 UNL     1      45.423  18.463 -12.913  1.00  0.00     0.117 C 
BRANCH   8   9
HETATM    9  N1  UNL     1      44.397  18.183 -11.973  1.00  0.00    -0.412 N 
BRANCH   9  10
HETATM   10  C2  UNL     1      43.893  19.331 -11.263  1.00  0.00     0.112 C 
HETATM   11  C1  UNL     1      44.587  20.569 -11.830  1.00  0.00     0.026 C 
ENDBRANCH   9  10
BRANCH   9  12
HETATM   12  C3  UNL     1      44.544  17.033 -11.149  1.00  0.00     0.120 C 
BRANCH  12  13
HETATM   13  C4  UNL     1      44.968  17.349  -9.728  1.00  0.00     0.047 C 
BRANCH  13  14
HETATM   14  C5  UNL     1      46.390  16.927  -9.503  1.00  0.00    -0.022 C 
HETATM   15  C6  UNL     1      47.410  17.765  -9.554  1.00  0.00    -0.084 C 
HETATM   16  C7  UNL     1      47.350  19.200  -9.829  1.00  0.00     0.034 C 
HETATM   17  C11 UNL     1      48.789  17.198  -9.308  1.00  0.00     0.034 C 
HETATM   18  C8  UNL     1      48.576  19.754 -10.531  1.00  0.00     0.004 C 
HETATM   19  C9  UNL     1      49.873  19.269  -9.996  1.00  0.00     0.001 C 
HETATM   20  C10 UNL     1      49.707  18.313  -8.856  1.00  0.00     0.004 C 
ENDBRANCH  13  14
ENDBRANCH  12  13
ENDBRANCH   9  12
ENDBRANCH   8   9
ENDBRANCH   7   8
ENDBRANCH   5   7
ENDBRANCH   3   5
ENDBRANCH   1   2
BRANCH   1  21
HETATM   21  C18 UNL     1      50.130  18.995 -17.372  1.00  0.00     0.216 C 
BRANCH  21  22
HETATM   22  O1  UNL     1      50.662  20.152 -18.073  1.00  0.00    -0.395 OA
ATOM     23  H1  UNL     1      51.548  20.296 -17.760  1.00  0.00     0.209 HD
ENDBRANCH  21  22
ENDBRANCH   1  21
BRANCH   1  24
HETATM   24  C19 UNL     1      49.498  20.958 -15.921  1.00  0.00     0.060 C 
BRANCH  24  25
HETATM   25  C20 UNL     1      49.924  21.298 -14.552  1.00  0.00     0.002 C 
HETATM   26  C21 UNL     1      48.840  21.500 -13.566  1.00  0.00     0.039 C 
HETATM   27  C22 UNL     1      48.877  22.803 -12.787  1.00  0.00     0.149 C 
HETATM   28  C23 UNL     1      50.212  23.129 -12.198  1.00  0.00     0.176 C 
HETATM   29  C24 UNL     1      51.330  22.713 -13.131  1.00  0.00     0.155 C 
HETATM   30  C25 UNL     1      50.788  22.568 -14.540  1.00  0.00     0.045 C 
BRANCH  27  31
HETATM   31  O2  UNL     1      48.338  23.876 -13.486  1.00  0.00    -0.393 OA
ATOM     32  H2  UNL     1      48.986  24.524 -13.736  1.00  0.00     0.210 HD
ENDBRANCH  27  31
BRANCH  28  33
HETATM   33  O3  UNL     1      50.365  22.659 -10.904  1.00  0.00    -0.390 OA
ATOM     34  H3  UNL     1      51.256  22.399 -10.704  1.00  0.00     0.210 HD
ENDBRANCH  28  33
BRANCH  29  35
HETATM   35  O4  UNL     1      52.364  23.639 -13.141  1.00  0.00    -0.392 OA
ATOM     36  H4  UNL     1      53.214  23.218 -13.182  1.00  0.00     0.210 HD
ENDBRANCH  29  35
BRANCH  30  37
HETATM   37  C26 UNL     1      52.006  22.402 -15.422  1.00  0.00     0.171 C 
BRANCH  37  38
HETATM   38  O5  UNL     1      52.426  23.575 -16.012  1.00  0.00    -0.400 OA
ATOM     39  H5  UNL     1      53.187  23.470 -16.569  1.00  0.00     0.209 HD
ENDBRANCH  37  38
ENDBRANCH  30  37
ENDBRANCH  24  25
ENDBRANCH   1  24
TORSDOF 18
ENDMDL
MODEL 3
REMARK VINA RESULT: -8.277453888      0.955      1.445
REMARK  18 active torsions:
REMARK  status: ('A' for Active; 'I' for Inactive)
REMARK    1  A    between atoms: C2_2  and  N1_3 
REMARK    2  A    between atoms: N1_3  and  C3_4 
REMARK    3  A    between atoms: N1_3  and  C12_13 
REMARK    4  A    between atoms: C3_4  and  C4_5 
REMARK    5  A    between atoms: C4_5  and  C5_6 
REMARK    6  A    between atoms: C12_13  and  C13_14 
REMARK    7  A    between atoms: C13_14  and  C14_15 
REMARK    8  A    between atoms: C14_15  and  C16_17 
REMARK    9  A    between atoms: N2_18  and  C17_20 
REMARK   10  A    between atoms: C17_20  and  C18_21 
REMARK   11  A    between atoms: C17_20  and  C19_24 
REMARK   12  A    between atoms: C18_21  and  O1_22 
REMARK   13  A    between atoms: C19_24  and  C20_25 
REMARK   14  A    between atoms: C22_27  and  O2_28 
REMARK   15  A    between atoms: C23_30  and  O3_31 
REMARK   16  A    between atoms: C24_33  and  O4_34 
REMARK   17  A    between atoms: C25_36  and  C26_37 
REMARK   18  A    between atoms: C26_37  and  O5_38 
ROOT
HETATM    1  C17 UNL     1      49.420  19.745 -16.351  1.00  0.00     0.010 C 
ENDROOT
BRANCH   1   2
HETATM    2  N2  UNL     1      48.327  18.976 -16.001  1.00  0.00    -0.374 N 
HETATM    3  C16 UNL     1      48.039  18.073 -15.037  1.00  0.00     0.065 C 
ATOM      4  H2  UNL     1      47.537  19.130 -16.627  1.00  0.00     0.164 HD
BRANCH   3   5
HETATM    5  C14 UNL     1      48.503  16.687 -14.882  1.00  0.00     0.021 C 
HETATM    6  C15 UNL     1      49.639  16.174 -15.698  1.00  0.00     0.015 C 
BRANCH   5   7
HETATM    7  C13 UNL     1      48.814  16.392 -13.384  1.00  0.00     0.029 C 
BRANCH   7   8
HETATM    8  C12 UNL     1      48.173  17.383 -12.474  1.00  0.00     0.117 C 
BRANCH   8   9
HETATM    9  N1  UNL     1      48.783  17.362 -11.193  1.00  0.00    -0.412 N 
BRANCH   9  10
HETATM   10  C2  UNL     1      49.070  16.048 -10.676  1.00  0.00     0.112 C 
HETATM   11  C1  UNL     1      49.848  16.223  -9.372  1.00  0.00     0.026 C 
ENDBRANCH   9  10
BRANCH   9  12
HETATM   12  C3  UNL     1      48.291  18.258 -10.205  1.00  0.00     0.120 C 
BRANCH  12  13
HETATM   13  C4  UNL     1      46.926  18.834 -10.528  1.00  0.00     0.047 C 
BRANCH  13  14
HETATM   14  C5  UNL     1      45.849  18.034  -9.855  1.00  0.00    -0.022 C 
HETATM   15  C6  UNL     1      44.569  18.144 -10.160  1.00  0.00    -0.084 C 
HETATM   16  C7  UNL     1      43.982  19.027 -11.167  1.00  0.00     0.034 C 
HETATM   17  C11 UNL     1      43.596  17.275  -9.397  1.00  0.00     0.034 C 
HETATM   18  C8  UNL     1      42.577  19.501 -10.841  1.00  0.00     0.004 C 
HETATM   19  C9  UNL     1      41.670  18.448 -10.321  1.00  0.00     0.001 C 
HETATM   20  C10 UNL     1      42.334  17.110 -10.217  1.00  0.00     0.004 C 
ENDBRANCH  13  14
ENDBRANCH  12  13
ENDBRANCH   9  12
ENDBRANCH   8   9
ENDBRANCH   7   8
ENDBRANCH   5   7
ENDBRANCH   3   5
ENDBRANCH   1   2
BRANCH   1  21
HETATM   21  C18 UNL     1      49.909  19.798 -17.719  1.00  0.00     0.216 C 
BRANCH  21  22
HETATM   22  O1  UNL     1      51.070  20.673 -17.738  1.00  0.00    -0.395 OA
ATOM     23  H1  UNL     1      51.845  20.123 -17.732  1.00  0.00     0.209 HD
ENDBRANCH  21  22
ENDBRANCH   1  21
BRANCH   1  24
HETATM   24  C19 UNL     1      49.501  21.052 -15.570  1.00  0.00     0.060 C 
BRANCH  24  25
HETATM   25  C20 UNL     1      50.268  21.056 -14.312  1.00  0.00     0.002 C 
HETATM   26  C21 UNL     1      49.528  20.646 -13.098  1.00  0.00     0.039 C 
HETATM   27  C22 UNL     1      49.585  21.607 -11.923  1.00  0.00     0.149 C 
HETATM   28  C23 UNL     1      50.961  22.081 -11.583  1.00  0.00     0.176 C 
HETATM   29  C24 UNL     1      51.786  22.289 -12.837  1.00  0.00     0.155 C 
HETATM   30  C25 UNL     1      50.864  22.444 -14.030  1.00  0.00     0.045 C 
BRANCH  27  31
HETATM   31  O2  UNL     1      48.681  22.656 -12.028  1.00  0.00    -0.393 OA
ATOM     32  H2  UNL     1      49.098  23.497 -12.176  1.00  0.00     0.210 HD
ENDBRANCH  27  31
BRANCH  28  33
HETATM   33  O3  UNL     1      51.587  21.296 -10.630  1.00  0.00    -0.390 OA
ATOM     34  H3  UNL     1      52.486  21.557 -10.463  1.00  0.00     0.210 HD
ENDBRANCH  28  33
BRANCH  29  35
HETATM   35  O4  UNL     1      52.591  23.415 -12.742  1.00  0.00    -0.392 OA
ATOM     36  H4  UNL     1      52.750  23.807 -13.593  1.00  0.00     0.210 HD
ENDBRANCH  29  35
BRANCH  30  37
HETATM   37  C26 UNL     1      51.755  22.891 -15.169  1.00  0.00     0.171 C 
BRANCH  37  38
HETATM   38  O5  UNL     1      52.765  22.002 -15.462  1.00  0.00    -0.400 OA
ATOM     39  H5  UNL     1      52.956  21.932 -16.390  1.00  0.00     0.209 HD
ENDBRANCH  37  38
ENDBRANCH  30  37
ENDBRANCH  24  25
ENDBRANCH   1  24
TORSDOF 18
ENDMDL
MODEL 4
REMARK VINA RESULT: -8.195313542      1.438      1.977
REMARK  18 active torsions:
REMARK  status: ('A' for Active; 'I' for Inactive)
REMARK    1  A    between atoms: C2_2  and  N1_3 
REMARK    2  A    between atoms: N1_3  and  C3_4 
REMARK    3  A    between atoms: N1_3  and  C12_13 
REMARK    4  A    between atoms: C3_4  and  C4_5 
REMARK    5  A    between atoms: C4_5  and  C5_6 
REMARK    6  A    between atoms: C12_13  and  C13_14 
REMARK    7  A    between atoms: C13_14  and  C14_15 
REMARK    8  A    between atoms: C14_15  and  C16_17 
REMARK    9  A    between atoms: N2_18  and  C17_20 
REMARK   10  A    between atoms: C17_20  and  C18_21 
REMARK   11  A    between atoms: C17_20  and  C19_24 
REMARK   12  A    between atoms: C18_21  and  O1_22 
REMARK   13  A    between atoms: C19_24  and  C20_25 
REMARK   14  A    between atoms: C22_27  and  O2_28 
REMARK   15  A    between atoms: C23_30  and  O3_31 
REMARK   16  A    between atoms: C24_33  and  O4_34 
REMARK   17  A    between atoms: C25_36  and  C26_37 
REMARK   18  A    between atoms: C26_37  and  O5_38 
ROOT
HETATM    1  C17 UNL     1      49.391  19.754 -16.445  1.00  0.00     0.010 C 
ENDROOT
BRANCH   1   2
HETATM    2  N2  UNL     1      48.275  18.995 -16.152  1.00  0.00    -0.374 N 
HETATM    3  C16 UNL     1      47.850  18.250 -15.108  1.00  0.00     0.065 C 
ATOM      4  H2  UNL     1      47.601  18.997 -16.918  1.00  0.00     0.164 HD
BRANCH   3   5
HETATM    5  C14 UNL     1      48.317  16.938 -14.639  1.00  0.00     0.021 C 
HETATM    6  C15 UNL     1      49.381  16.205 -15.381  1.00  0.00     0.015 C 
BRANCH   5   7
HETATM    7  C13 UNL     1      48.745  17.026 -13.143  1.00  0.00     0.029 C 
BRANCH   7   8
HETATM    8  C12 UNL     1      47.586  16.873 -12.219  1.00  0.00     0.117 C 
BRANCH   8   9
HETATM    9  N1  UNL     1      47.299  18.097 -11.562  1.00  0.00    -0.412 N 
BRANCH   9  10
HETATM   10  C2  UNL     1      48.119  18.378 -10.411  1.00  0.00     0.112 C 
HETATM   11  C1  UNL     1      47.550  17.587  -9.233  1.00  0.00     0.026 C 
ENDBRANCH   9  10
BRANCH   9  12
HETATM   12  C3  UNL     1      45.934  18.450 -11.378  1.00  0.00     0.120 C 
BRANCH  12  13
HETATM   13  C4  UNL     1      45.080  18.257 -12.616  1.00  0.00     0.047 C 
BRANCH  13  14
HETATM   14  C5  UNL     1      43.967  17.290 -12.337  1.00  0.00    -0.022 C 
HETATM   15  C6  UNL     1      43.828  16.143 -12.977  1.00  0.00    -0.084 C 
HETATM   16  C7  UNL     1      44.694  15.621 -14.033  1.00  0.00     0.034 C 
HETATM   17  C11 UNL     1      42.657  15.270 -12.592  1.00  0.00     0.034 C 
HETATM   18  C8  UNL     1      43.982  14.748 -15.051  1.00  0.00     0.004 C 
HETATM   19  C9  UNL     1      43.030  13.767 -14.473  1.00  0.00     0.001 C 
HETATM   20  C10 UNL     1      42.961  13.838 -12.980  1.00  0.00     0.004 C 
ENDBRANCH  13  14
ENDBRANCH  12  13
ENDBRANCH   9  12
ENDBRANCH   8   9
ENDBRANCH   7   8
ENDBRANCH   5   7
ENDBRANCH   3   5
ENDBRANCH   1   2
BRANCH   1  21
HETATM   21  C18 UNL     1      49.946  19.810 -17.787  1.00  0.00     0.216 C 
BRANCH  21  22
HETATM   22  O1  UNL     1      51.119  20.669 -17.744  1.00  0.00    -0.395 OA
ATOM     23  H1  UNL     1      51.704  20.391 -18.439  1.00  0.00     0.209 HD
ENDBRANCH  21  22
ENDBRANCH   1  21
BRANCH   1  24
HETATM   24  C19 UNL     1      49.446  21.056 -15.654  1.00  0.00     0.060 C 
BRANCH  24  25
HETATM   25  C20 UNL     1      50.210  21.065 -14.394  1.00  0.00     0.002 C 
HETATM   26  C21 UNL     1      49.468  20.652 -13.182  1.00  0.00     0.039 C 
HETATM   27  C22 UNL     1      49.517  21.613 -12.007  1.00  0.00     0.149 C 
HETATM   28  C23 UNL     1      50.889  22.094 -11.663  1.00  0.00     0.176 C 
HETATM   29  C24 UNL     1      51.717  22.305 -12.914  1.00  0.00     0.155 C 
HETATM   30  C25 UNL     1      50.798  22.455 -14.111  1.00  0.00     0.045 C 
BRANCH  27  31
HETATM   31  O2  UNL     1      48.608  22.658 -12.115  1.00  0.00    -0.393 OA
ATOM     32  H2  UNL     1      48.534  23.173 -11.320  1.00  0.00     0.210 HD
ENDBRANCH  27  31
BRANCH  28  33
HETATM   33  O3  UNL     1      51.517  21.312 -10.708  1.00  0.00    -0.390 OA
ATOM     34  H3  UNL     1      52.428  21.546 -10.573  1.00  0.00     0.210 HD
ENDBRANCH  28  33
BRANCH  29  35
HETATM   35  O4  UNL     1      52.517  23.434 -12.818  1.00  0.00    -0.392 OA
ATOM     36  H4  UNL     1      53.198  23.442 -13.481  1.00  0.00     0.210 HD
ENDBRANCH  29  35
BRANCH  30  37
HETATM   37  C26 UNL     1      51.691  22.906 -15.246  1.00  0.00     0.171 C 
BRANCH  37  38
HETATM   38  O5  UNL     1      52.779  22.087 -15.453  1.00  0.00    -0.400 OA
ATOM     39  H5  UNL     1      53.512  22.273 -14.877  1.00  0.00     0.209 HD
ENDBRANCH  37  38
ENDBRANCH  30  37
ENDBRANCH  24  25
ENDBRANCH   1  24
TORSDOF 18
ENDMDL
MODEL 5
REMARK VINA RESULT: -8.158959314      1.456      2.184
REMARK  18 active torsions:
REMARK  status: ('A' for Active; 'I' for Inactive)
REMARK    1  A    between atoms: C2_2  and  N1_3 
REMARK    2  A    between atoms: N1_3  and  C3_4 
REMARK    3  A    between atoms: N1_3  and  C12_13 
REMARK    4  A    between atoms: C3_4  and  C4_5 
REMARK    5  A    between atoms: C4_5  and  C5_6 
REMARK    6  A    between atoms: C12_13  and  C13_14 
REMARK    7  A    between atoms: C13_14  and  C14_15 
REMARK    8  A    between atoms: C14_15  and  C16_17 
REMARK    9  A    between atoms: N2_18  and  C17_20 
REMARK   10  A    between atoms: C17_20  and  C18_21 
REMARK   11  A    between atoms: C17_20  and  C19_24 
REMARK   12  A    between atoms: C18_21  and  O1_22 
REMARK   13  A    between atoms: C19_24  and  C20_25 
REMARK   14  A    between atoms: C22_27  and  O2_28 
REMARK   15  A    between atoms: C23_30  and  O3_31 
REMARK   16  A    between atoms: C24_33  and  O4_34 
REMARK   17  A    between atoms: C25_36  and  C26_37 
REMARK   18  A    between atoms: C26_37  and  O5_38 
ROOT
HETATM    1  C17 UNL     1      49.438  19.779 -16.445  1.00  0.00     0.010 C 
ENDROOT
BRANCH   1   2
HETATM    2  N2  UNL     1      48.364  18.995 -16.071  1.00  0.00    -0.374 N 
HETATM    3  C16 UNL     1      48.128  18.048 -15.136  1.00  0.00     0.065 C 
ATOM      4  H2  UNL     1      47.541  19.177 -16.645  1.00  0.00     0.164 HD
BRANCH   3   5
HETATM    5  C14 UNL     1      48.597  16.657 -15.070  1.00  0.00     0.021 C 
HETATM    6  C15 UNL     1      49.817  16.234 -15.814  1.00  0.00     0.015 C 
BRANCH   5   7
HETATM    7  C13 UNL     1      48.762  16.218 -13.584  1.00  0.00     0.029 C 
BRANCH   7   8
HETATM    8  C12 UNL     1      47.970  14.997 -13.269  1.00  0.00     0.117 C 
BRANCH   8   9
HETATM    9  N1  UNL     1      46.775  15.333 -12.582  1.00  0.00    -0.412 N 
BRANCH   9  10
HETATM   10  C2  UNL     1      46.884  15.362 -11.146  1.00  0.00     0.112 C 
HETATM   11  C1  UNL     1      45.808  14.435 -10.581  1.00  0.00     0.026 C 
ENDBRANCH   9  10
BRANCH   9  12
HETATM   12  C3  UNL     1      45.558  14.757 -13.041  1.00  0.00     0.120 C 
BRANCH  12  13
HETATM   13  C4  UNL     1      44.673  15.722 -13.805  1.00  0.00     0.047 C 
BRANCH  13  14
HETATM   14  C5  UNL     1      45.125  17.134 -13.580  1.00  0.00    -0.022 C 
HETATM   15  C6  UNL     1      44.650  17.902 -12.616  1.00  0.00    -0.084 C 
HETATM   16  C7  UNL     1      43.635  17.537 -11.628  1.00  0.00     0.034 C 
HETATM   17  C11 UNL     1      45.198  19.306 -12.511  1.00  0.00     0.034 C 
HETATM   18  C8  UNL     1      42.773  18.696 -11.159  1.00  0.00     0.004 C 
HETATM   19  C9  UNL     1      43.517  19.946 -10.866  1.00  0.00     0.001 C 
HETATM   20  C10 UNL     1      44.990  19.812 -11.099  1.00  0.00     0.004 C 
ENDBRANCH  13  14
ENDBRANCH  12  13
ENDBRANCH   9  12
ENDBRANCH   8   9
ENDBRANCH   7   8
ENDBRANCH   5   7
ENDBRANCH   3   5
ENDBRANCH   1   2
BRANCH   1  21
HETATM   21  C18 UNL     1      49.893  19.843 -17.824  1.00  0.00     0.216 C 
BRANCH  21  22
HETATM   22  O1  UNL     1      51.036  20.741 -17.870  1.00  0.00    -0.395 OA
ATOM     23  H1  UNL     1      51.814  20.211 -17.997  1.00  0.00     0.209 HD
ENDBRANCH  21  22
ENDBRANCH   1  21
BRANCH   1  24
HETATM   24  C19 UNL     1      49.519  21.085 -15.663  1.00  0.00     0.060 C 
BRANCH  24  25
HETATM   25  C20 UNL     1      50.269  21.083 -14.394  1.00  0.00     0.002 C 
HETATM   26  C21 UNL     1      49.514  20.658 -13.195  1.00  0.00     0.039 C 
HETATM   27  C22 UNL     1      49.549  21.608 -12.010  1.00  0.00     0.149 C 
HETATM   28  C23 UNL     1      50.917  22.087 -11.647  1.00  0.00     0.176 C 
HETATM   29  C24 UNL     1      51.758  22.311 -12.886  1.00  0.00     0.155 C 
HETATM   30  C25 UNL     1      50.852  22.471 -14.091  1.00  0.00     0.045 C 
BRANCH  27  31
HETATM   31  O2  UNL     1      48.640  22.653 -12.118  1.00  0.00    -0.393 OA
ATOM     32  H2  UNL     1      48.669  23.252 -11.382  1.00  0.00     0.210 HD
ENDBRANCH  27  31
BRANCH  28  33
HETATM   33  O3  UNL     1      51.534  21.297 -10.692  1.00  0.00    -0.390 OA
ATOM     34  H3  UNL     1      52.303  21.704 -10.310  1.00  0.00     0.210 HD
ENDBRANCH  28  33
BRANCH  29  35
HETATM   35  O4  UNL     1      52.556  23.440 -12.770  1.00  0.00    -0.392 OA
ATOM     36  H4  UNL     1      53.393  23.327 -13.206  1.00  0.00     0.210 HD
ENDBRANCH  29  35
BRANCH  30  37
HETATM   37  C26 UNL     1      51.757  22.934 -15.213  1.00  0.00     0.171 C 
BRANCH  37  38
HETATM   38  O5  UNL     1      52.766  22.045 -15.512  1.00  0.00    -0.400 OA
ATOM     39  H5  UNL     1      52.635  21.578 -16.328  1.00  0.00     0.209 HD
ENDBRANCH  37  38
ENDBRANCH  30  37
ENDBRANCH  24  25
ENDBRANCH   1  24
TORSDOF 18
ENDMDL
