MODEL 1
REMARK VINA RESULT: -7.675964968      0.000      0.000
REMARK  6 active torsions:
REMARK  status: ('A' for Active; 'I' for Inactive)
REMARK    1  A    between atoms: O1_3  and  C3_4 
REMARK    2  A    between atoms: C3_4  and  C4_6 
REMARK    3  A    between atoms: C7_9  and  N1_10 
REMARK       I    between atoms: N1_10  and  C8_12 
REMARK    4  A    between atoms: C8_12  and  C9_14 
REMARK    5  A    between atoms: C9_14  and  C10_15 
REMARK       I    between atoms: C10_15  and  N2_17 
REMARK    6  A    between atoms: N2_17  and  C11_19 
ROOT
HETATM    1  C1  UNL     1      24.602  84.634  51.249  1.00  0.00     0.132 C 
HETATM    2  C2  UNL     1      25.047  84.336  50.152  1.00  0.00    -0.021 C 
HETATM    3  O1  UNL     1      25.526  84.004  48.918  1.00  0.00    -0.239 OA
ENDROOT
BRANCH   3   4
HETATM    4  C3  UNL     1      24.637  83.650  47.928  1.00  0.00     0.275 C 
HETATM    5  O2  UNL     1      24.077  84.576  47.272  1.00  0.00    -0.264 OA
BRANCH   4   6
HETATM    6  C4  UNL     1      24.344  82.220  47.639  1.00  0.00     0.086 C 
HETATM    7  C5  UNL     1      25.214  81.816  46.487  1.00  0.00     0.017 C 
HETATM    8  C6  UNL     1      25.482  80.330  46.444  1.00  0.00     0.026 C 
HETATM    9  C7  UNL     1      25.930  79.800  47.765  1.00  0.00     0.084 C 
HETATM   10  C17 UNL     1      24.758  79.980  48.728  1.00  0.00     0.026 C 
HETATM   11  C18 UNL     1      24.541  81.446  48.894  1.00  0.00     0.017 C 
BRANCH   9  12
HETATM   12  N1  UNL     1      26.196  78.374  47.668  1.00  0.00    -0.355 N 
HETATM   13  C8  UNL     1      27.363  77.783  48.178  1.00  0.00     0.236 C 
HETATM   14  O3  UNL     1      28.223  78.506  48.744  1.00  0.00    -0.272 OA
ATOM     15  H1  UNL     1      25.506  77.779  47.209  1.00  0.00     0.162 HD
BRANCH  13  16
HETATM   16  C9  UNL     1      27.598  76.334  48.066  1.00  0.00     0.122 A 
HETATM   17  C15 UNL     1      26.540  75.361  48.442  1.00  0.00     0.031 A 
HETATM   18  C16 UNL     1      26.851  75.610  46.985  1.00  0.00     0.031 A 
BRANCH  16  19
HETATM   19  C10 UNL     1      29.018  75.873  48.304  1.00  0.00     0.240 C 
HETATM   20  O4  UNL     1      29.209  75.024  49.200  1.00  0.00    -0.272 OA
HETATM   21  N2  UNL     1      30.025  76.414  47.519  1.00  0.00    -0.326 N 
ATOM     22  H2  UNL     1      29.768  77.099  46.810  1.00  0.00     0.169 HD
BRANCH  21  23
HETATM   23  C11 UNL     1      31.430  76.055  47.653  1.00  0.00     0.041 A 
HETATM   24  C12 UNL     1      32.314  76.915  48.189  1.00  0.00     0.037 A 
HETATM   25  C13 UNL     1      33.607  76.506  48.298  1.00  0.00     0.052 A 
HETATM   26  S1  UNL     1      33.577  74.931  47.655  1.00  0.00    -0.111 SA
HETATM   27  C14 UNL     1      31.905  74.836  47.263  1.00  0.00     0.079 A 
ENDBRANCH  21  23
ENDBRANCH  16  19
ENDBRANCH  13  16
ENDBRANCH   9  12
ENDBRANCH   4   6
ENDBRANCH   3   4
TORSDOF 6
ENDMDL
MODEL 2
REMARK VINA RESULT: -7.673647705      1.293      1.523
REMARK  6 active torsions:
REMARK  status: ('A' for Active; 'I' for Inactive)
REMARK    1  A    between atoms: O1_3  and  C3_4 
REMARK    2  A    between atoms: C3_4  and  C4_6 
REMARK    3  A    between atoms: C7_9  and  N1_10 
REMARK       I    between atoms: N1_10  and  C8_12 
REMARK    4  A    between atoms: C8_12  and  C9_14 
REMARK    5  A    between atoms: C9_14  and  C10_15 
REMARK       I    between atoms: C10_15  and  N2_17 
REMARK    6  A    between atoms: N2_17  and  C11_19 
ROOT
HETATM    1  C1  UNL     1      25.467  83.578  50.033  1.00  0.00     0.132 C 
HETATM    2  C2  UNL     1      24.880  83.367  48.983  1.00  0.00    -0.021 C 
HETATM    3  O1  UNL     1      24.240  83.118  47.804  1.00  0.00    -0.239 OA
ENDROOT
BRANCH   3   4
HETATM    4  C3  UNL     1      24.922  82.479  46.794  1.00  0.00     0.275 C 
HETATM    5  O2  UNL     1      25.592  83.188  45.987  1.00  0.00    -0.264 OA
BRANCH   4   6
HETATM    6  C4  UNL     1      24.873  80.999  46.655  1.00  0.00     0.086 C 
HETATM    7  C5  UNL     1      25.830  80.626  45.563  1.00  0.00     0.017 C 
HETATM    8  C6  UNL     1      26.336  79.208  45.680  1.00  0.00     0.026 C 
HETATM    9  C7  UNL     1      26.826  78.898  47.056  1.00  0.00     0.084 C 
HETATM   10  C17 UNL     1      25.614  78.981  47.981  1.00  0.00     0.026 C 
HETATM   11  C18 UNL     1      25.157  80.401  47.987  1.00  0.00     0.017 C 
BRANCH   9  12
HETATM   12  N1  UNL     1      27.322  77.533  47.113  1.00  0.00    -0.355 N 
HETATM   13  C8  UNL     1      28.246  77.101  48.080  1.00  0.00     0.236 C 
HETATM   14  O3  UNL     1      28.669  77.919  48.936  1.00  0.00    -0.272 OA
ATOM     15  H1  UNL     1      26.986  76.861  46.423  1.00  0.00     0.162 HD
BRANCH  13  16
HETATM   16  C9  UNL     1      28.723  75.708  48.112  1.00  0.00     0.122 A 
HETATM   17  C15 UNL     1      27.950  74.655  48.818  1.00  0.00     0.031 A 
HETATM   18  C16 UNL     1      27.945  74.708  47.309  1.00  0.00     0.031 A 
BRANCH  16  19
HETATM   19  C10 UNL     1      30.223  75.524  48.114  1.00  0.00     0.240 C 
HETATM   20  O4  UNL     1      30.679  74.489  48.645  1.00  0.00    -0.272 OA
HETATM   21  N2  UNL     1      31.008  76.506  47.529  1.00  0.00    -0.326 N 
ATOM     22  H2  UNL     1      30.542  77.314  47.118  1.00  0.00     0.169 HD
BRANCH  21  23
HETATM   23  C11 UNL     1      32.462  76.446  47.472  1.00  0.00     0.041 A 
HETATM   24  C12 UNL     1      33.215  77.010  48.432  1.00  0.00     0.037 A 
HETATM   25  C13 UNL     1      34.567  76.900  48.321  1.00  0.00     0.052 A 
HETATM   26  S1  UNL     1      34.773  76.015  46.882  1.00  0.00    -0.111 SA
HETATM   27  C14 UNL     1      33.119  75.807  46.460  1.00  0.00     0.079 A 
ENDBRANCH  21  23
ENDBRANCH  16  19
ENDBRANCH  13  16
ENDBRANCH   9  12
ENDBRANCH   4   6
ENDBRANCH   3   4
TORSDOF 6
ENDMDL
MODEL 3
REMARK VINA RESULT: -7.505060323      2.694      3.119
REMARK  6 active torsions:
REMARK  status: ('A' for Active; 'I' for Inactive)
REMARK    1  A    between atoms: O1_3  and  C3_4 
REMARK    2  A    between atoms: C3_4  and  C4_6 
REMARK    3  A    between atoms: C7_9  and  N1_10 
REMARK       I    between atoms: N1_10  and  C8_12 
REMARK    4  A    between atoms: C8_12  and  C9_14 
REMARK    5  A    between atoms: C9_14  and  C10_15 
REMARK       I    between atoms: C10_15  and  N2_17 
REMARK    6  A    between atoms: N2_17  and  C11_19 
ROOT
HETATM    1  C1  UNL     1      27.344  83.261  50.881  1.00  0.00     0.132 C 
HETATM    2  C2  UNL     1      26.263  83.712  50.534  1.00  0.00    -0.021 C 
HETATM    3  O1  UNL     1      25.057  84.205  50.129  1.00  0.00    -0.239 OA
ENDROOT
BRANCH   3   4
HETATM    4  C3  UNL     1      24.646  83.988  48.833  1.00  0.00     0.275 C 
HETATM    5  O2  UNL     1      24.650  84.972  48.036  1.00  0.00    -0.264 OA
BRANCH   4   6
HETATM    6  C4  UNL     1      24.212  82.638  48.384  1.00  0.00     0.086 C 
HETATM    7  C5  UNL     1      25.060  82.273  47.202  1.00  0.00     0.017 C 
HETATM    8  C6  UNL     1      25.173  80.780  46.996  1.00  0.00     0.026 C 
HETATM    9  C7  UNL     1      25.535  80.065  48.254  1.00  0.00     0.084 C 
HETATM   10  C17 UNL     1      24.368  80.260  49.220  1.00  0.00     0.026 C 
HETATM   11  C18 UNL     1      24.301  81.714  49.546  1.00  0.00     0.017 C 
BRANCH   9  12
HETATM   12  N1  UNL     1      25.652  78.638  48.001  1.00  0.00    -0.355 N 
HETATM   13  C8  UNL     1      26.843  77.924  48.218  1.00  0.00     0.236 C 
HETATM   14  O3  UNL     1      27.856  78.533  48.647  1.00  0.00    -0.272 OA
ATOM     15  H1  UNL     1      24.837  78.135  47.651  1.00  0.00     0.162 HD
BRANCH  13  16
HETATM   16  C9  UNL     1      26.925  76.478  47.955  1.00  0.00     0.122 A 
HETATM   17  C15 UNL     1      25.795  75.755  47.318  1.00  0.00     0.031 A 
HETATM   18  C16 UNL     1      27.039  76.057  46.519  1.00  0.00     0.031 A 
BRANCH  16  19
HETATM   19  C10 UNL     1      27.739  75.671  48.941  1.00  0.00     0.240 C 
HETATM   20  O4  UNL     1      28.955  75.518  48.701  1.00  0.00    -0.272 OA
HETATM   21  N2  UNL     1      27.096  75.149  50.053  1.00  0.00    -0.326 N 
ATOM     22  H2  UNL     1      26.099  75.332  50.163  1.00  0.00     0.169 HD
BRANCH  21  23
HETATM   23  C11 UNL     1      27.767  74.353  51.071  1.00  0.00     0.041 A 
HETATM   24  C12 UNL     1      28.106  74.891  52.255  1.00  0.00     0.037 A 
HETATM   25  C13 UNL     1      28.716  74.083  53.165  1.00  0.00     0.052 A 
HETATM   26  S1  UNL     1      28.809  72.586  52.361  1.00  0.00    -0.111 SA
HETATM   27  C14 UNL     1      28.062  73.034  50.878  1.00  0.00     0.079 A 
ENDBRANCH  21  23
ENDBRANCH  16  19
ENDBRANCH  13  16
ENDBRANCH   9  12
ENDBRANCH   4   6
ENDBRANCH   3   4
TORSDOF 6
ENDMDL
MODEL 4
REMARK VINA RESULT: -7.492717579      4.803      5.697
REMARK  6 active torsions:
REMARK  status: ('A' for Active; 'I' for Inactive)
REMARK    1  A    between atoms: O1_3  and  C3_4 
REMARK    2  A    between atoms: C3_4  and  C4_6 
REMARK    3  A    between atoms: C7_9  and  N1_10 
REMARK       I    between atoms: N1_10  and  C8_12 
REMARK    4  A    between atoms: C8_12  and  C9_14 
REMARK    5  A    between atoms: C9_14  and  C10_15 
REMARK       I    between atoms: C10_15  and  N2_17 
REMARK    6  A    between atoms: N2_17  and  C11_19 
ROOT
HETATM    1  C1  UNL     1      28.462  83.662  50.910  1.00  0.00     0.132 C 
HETATM    2  C2  UNL     1      27.402  83.058  50.968  1.00  0.00    -0.021 C 
HETATM    3  O1  UNL     1      26.210  82.395  51.016  1.00  0.00    -0.239 OA
ENDROOT
BRANCH   3   4
HETATM    4  C3  UNL     1      25.136  82.898  50.317  1.00  0.00     0.275 C 
HETATM    5  O2  UNL     1      24.700  84.042  50.639  1.00  0.00    -0.264 OA
BRANCH   4   6
HETATM    6  C4  UNL     1      24.507  82.119  49.217  1.00  0.00     0.086 C 
HETATM    7  C5  UNL     1      24.402  83.033  48.033  1.00  0.00     0.017 C 
HETATM    8  C6  UNL     1      24.349  82.292  46.718  1.00  0.00     0.026 C 
HETATM    9  C7  UNL     1      25.427  81.266  46.607  1.00  0.00     0.084 C 
HETATM   10  C17 UNL     1      25.147  80.218  47.682  1.00  0.00     0.026 C 
HETATM   11  C18 UNL     1      25.312  80.886  49.006  1.00  0.00     0.017 C 
BRANCH   9  12
HETATM   12  N1  UNL     1      25.347  80.596  45.319  1.00  0.00    -0.355 N 
HETATM   13  C8  UNL     1      25.956  81.105  44.159  1.00  0.00     0.236 C 
HETATM   14  O3  UNL     1      26.598  82.185  44.225  1.00  0.00    -0.272 OA
ATOM     15  H1  UNL     1      24.828  79.721  45.254  1.00  0.00     0.162 HD
BRANCH  13  16
HETATM   16  C9  UNL     1      25.859  80.398  42.872  1.00  0.00     0.122 A 
HETATM   17  C15 UNL     1      24.747  80.683  41.930  1.00  0.00     0.031 A 
HETATM   18  C16 UNL     1      26.133  81.203  41.636  1.00  0.00     0.031 A 
BRANCH  16  19
HETATM   19  C10 UNL     1      26.374  78.977  42.857  1.00  0.00     0.240 C 
HETATM   20  O4  UNL     1      26.539  78.409  43.957  1.00  0.00    -0.272 OA
HETATM   21  N2  UNL     1      26.634  78.384  41.631  1.00  0.00    -0.326 N 
ATOM     22  H2  UNL     1      26.464  78.930  40.786  1.00  0.00     0.169 HD
BRANCH  21  23
HETATM   23  C11 UNL     1      27.137  77.025  41.484  1.00  0.00     0.041 A 
HETATM   24  C12 UNL     1      26.943  76.110  42.449  1.00  0.00     0.037 A 
HETATM   25  C13 UNL     1      27.425  74.855  42.236  1.00  0.00     0.052 A 
HETATM   26  S1  UNL     1      28.143  74.966  40.696  1.00  0.00    -0.111 SA
HETATM   27  C14 UNL     1      27.804  76.619  40.364  1.00  0.00     0.079 A 
ENDBRANCH  21  23
ENDBRANCH  16  19
ENDBRANCH  13  16
ENDBRANCH   9  12
ENDBRANCH   4   6
ENDBRANCH   3   4
TORSDOF 6
ENDMDL
MODEL 5
REMARK VINA RESULT: -7.486011741      2.665      3.856
REMARK  6 active torsions:
REMARK  status: ('A' for Active; 'I' for Inactive)
REMARK    1  A    between atoms: O1_3  and  C3_4 
REMARK    2  A    between atoms: C3_4  and  C4_6 
REMARK    3  A    between atoms: C7_9  and  N1_10 
REMARK       I    between atoms: N1_10  and  C8_12 
REMARK    4  A    between atoms: C8_12  and  C9_14 
REMARK    5  A    between atoms: C9_14  and  C10_15 
REMARK       I    between atoms: C10_15  and  N2_17 
REMARK    6  A    between atoms: N2_17  and  C11_19 
ROOT
HETATM    1  C1  UNL     1      24.532  84.751  51.254  1.00  0.00     0.132 C 
HETATM    2  C2  UNL     1      25.015  84.342  50.210  1.00  0.00    -0.021 C 
HETATM    3  O1  UNL     1      25.536  83.886  49.034  1.00  0.00    -0.239 OA
ENDROOT
BRANCH   3   4
HETATM    4  C3  UNL     1      24.683  83.582  47.997  1.00  0.00     0.275 C 
HETATM    5  O2  UNL     1      24.163  84.540  47.353  1.00  0.00    -0.264 OA
BRANCH   4   6
HETATM    6  C4  UNL     1      24.383  82.168  47.644  1.00  0.00     0.086 C 
HETATM    7  C5  UNL     1      25.206  81.829  46.438  1.00  0.00     0.017 C 
HETATM    8  C6  UNL     1      25.476  80.349  46.305  1.00  0.00     0.026 C 
HETATM    9  C7  UNL     1      25.978  79.752  47.578  1.00  0.00     0.084 C 
HETATM   10  C17 UNL     1      24.845  79.875  48.595  1.00  0.00     0.026 C 
HETATM   11  C18 UNL     1      24.631  81.330  48.847  1.00  0.00     0.017 C 
BRANCH   9  12
HETATM   12  N1  UNL     1      26.243  78.334  47.394  1.00  0.00    -0.355 N 
HETATM   13  C8  UNL     1      27.354  77.690  47.961  1.00  0.00     0.236 C 
HETATM   14  O3  UNL     1      28.162  78.356  48.659  1.00  0.00    -0.272 OA
ATOM     15  H1  UNL     1      25.595  77.785  46.829  1.00  0.00     0.162 HD
BRANCH  13  16
HETATM   16  C9  UNL     1      27.589  76.251  47.758  1.00  0.00     0.122 A 
HETATM   17  C15 UNL     1      28.906  75.643  48.079  1.00  0.00     0.031 A 
HETATM   18  C16 UNL     1      27.727  75.408  48.992  1.00  0.00     0.031 A 
BRANCH  16  19
HETATM   19  C10 UNL     1      26.843  75.614  46.609  1.00  0.00     0.240 C 
HETATM   20  O4  UNL     1      25.595  75.633  46.647  1.00  0.00    -0.272 OA
HETATM   21  N2  UNL     1      27.580  75.048  45.579  1.00  0.00    -0.326 N 
ATOM     22  H2  UNL     1      28.597  75.087  45.637  1.00  0.00     0.169 HD
BRANCH  21  23
HETATM   23  C11 UNL     1      26.979  74.402  44.420  1.00  0.00     0.041 A 
HETATM   24  C12 UNL     1      26.448  73.171  44.514  1.00  0.00     0.037 A 
HETATM   25  C13 UNL     1      25.889  72.637  43.394  1.00  0.00     0.052 A 
HETATM   26  S1  UNL     1      26.109  73.854  42.226  1.00  0.00    -0.111 SA
HETATM   27  C14 UNL     1      26.912  75.019  43.204  1.00  0.00     0.079 A 
ENDBRANCH  21  23
ENDBRANCH  16  19
ENDBRANCH  13  16
ENDBRANCH   9  12
ENDBRANCH   4   6
ENDBRANCH   3   4
TORSDOF 6
ENDMDL
