MODEL 1
REMARK VINA RESULT: -6.438905857      0.000      0.000
REMARK  3 active torsions:
REMARK  status: ('A' for Active; 'I' for Inactive)
REMARK    1  A    between atoms: C1_2  and  C2_4 
REMARK    2  A    between atoms: C2_4  and  N1_5 
REMARK    3  A    between atoms: N2_11  and  C6_13 
ROOT
HETATM    1  N1  UNL     1      52.430  41.943  89.551  1.00  0.00    -0.291 N 
HETATM    2  S1  UNL     1      50.720  42.340  89.514  1.00  0.00    -0.050 SA
HETATM    3  C3  UNL     1      50.498  43.776  88.452  1.00  0.00     0.108 C 
HETATM    4  C4  UNL     1      51.276  44.973  88.952  1.00  0.00     0.094 C 
HETATM    5  S2  UNL     1      53.019  44.635  89.173  1.00  0.00    -0.093 SA
HETATM    6  C5  UNL     1      53.429  42.927  89.194  1.00  0.00     0.149 C 
HETATM    7  N2  UNL     1      54.581  42.514  88.905  1.00  0.00    -0.366 N 
ATOM      8  H2  UNL     1      54.677  41.500  88.959  1.00  0.00     0.162 HD
ENDROOT
BRANCH   1   9
HETATM    9  C2  UNL     1      52.920  40.644  89.930  1.00  0.00     0.252 C 
BRANCH   9  10
HETATM   10  C1  UNL     1      53.146  40.439  91.358  1.00  0.00     0.192 C 
HETATM   11  O1  UNL     1      52.652  41.197  92.211  1.00  0.00    -0.647 OA
HETATM   12  O2  UNL     1      53.925  39.380  91.771  1.00  0.00    -0.647 OA
ENDBRANCH   9  10
ENDBRANCH   1   9
BRANCH   7  13
HETATM   13  C6  UNL     1      55.766  43.172  88.521  1.00  0.00     0.083 C 
HETATM   14  C7  UNL     1      56.331  42.836  87.181  1.00  0.00     0.025 C 
HETATM   15  C8  UNL     1      57.824  42.572  87.389  1.00  0.00     0.002 C 
HETATM   16  C9  UNL     1      58.101  43.222  88.707  1.00  0.00     0.002 C 
HETATM   17  C10 UNL     1      56.882  42.850  89.516  1.00  0.00     0.025 C 
ENDBRANCH   7  13
TORSDOF 3
ENDMDL
MODEL 2
REMARK VINA RESULT: -6.352027991      1.252      1.322
REMARK  3 active torsions:
REMARK  status: ('A' for Active; 'I' for Inactive)
REMARK    1  A    between atoms: C1_2  and  C2_4 
REMARK    2  A    between atoms: C2_4  and  N1_5 
REMARK    3  A    between atoms: N2_11  and  C6_13 
ROOT
HETATM    1  N1  UNL     1      52.098  43.038  88.717  1.00  0.00    -0.291 N 
HETATM    2  S1  UNL     1      50.556  43.874  88.639  1.00  0.00    -0.050 SA
HETATM    3  C3  UNL     1      50.858  45.565  88.104  1.00  0.00     0.108 C 
HETATM    4  C4  UNL     1      51.775  46.302  89.054  1.00  0.00     0.094 C 
HETATM    5  S2  UNL     1      53.329  45.457  89.328  1.00  0.00    -0.093 SA
HETATM    6  C5  UNL     1      53.339  43.777  88.817  1.00  0.00     0.149 C 
HETATM    7  N2  UNL     1      54.404  43.174  88.527  1.00  0.00    -0.366 N 
ATOM      8  H2  UNL     1      54.261  42.203  88.247  1.00  0.00     0.162 HD
ENDROOT
BRANCH   1   9
HETATM    9  C2  UNL     1      52.209  41.604  88.687  1.00  0.00     0.252 C 
BRANCH   9  10
HETATM   10  C1  UNL     1      52.038  40.923  89.968  1.00  0.00     0.192 C 
HETATM   11  O1  UNL     1      51.264  41.358  90.837  1.00  0.00    -0.647 OA
HETATM   12  O2  UNL     1      52.752  39.771  90.218  1.00  0.00    -0.647 OA
ENDBRANCH   9  10
ENDBRANCH   1   9
BRANCH   7  13
HETATM   13  C6  UNL     1      55.755  43.571  88.512  1.00  0.00     0.083 C 
HETATM   14  C7  UNL     1      56.525  43.328  87.256  1.00  0.00     0.025 C 
HETATM   15  C8  UNL     1      57.844  42.673  87.670  1.00  0.00     0.002 C 
HETATM   16  C9  UNL     1      57.946  43.011  89.123  1.00  0.00     0.002 C 
HETATM   17  C10 UNL     1      56.526  42.825  89.601  1.00  0.00     0.025 C 
ENDBRANCH   7  13
TORSDOF 3
ENDMDL
MODEL 3
REMARK VINA RESULT: -6.312988862      2.885      4.169
REMARK  3 active torsions:
REMARK  status: ('A' for Active; 'I' for Inactive)
REMARK    1  A    between atoms: C1_2  and  C2_4 
REMARK    2  A    between atoms: C2_4  and  N1_5 
REMARK    3  A    between atoms: N2_11  and  C6_13 
ROOT
HETATM    1  N1  UNL     1      51.592  43.723  87.743  1.00  0.00    -0.291 N 
HETATM    2  S1  UNL     1      51.169  44.084  86.078  1.00  0.00    -0.050 SA
HETATM    3  C3  UNL     1      51.933  42.844  85.021  1.00  0.00     0.108 C 
HETATM    4  C4  UNL     1      53.439  42.834  85.161  1.00  0.00     0.094 C 
HETATM    5  S2  UNL     1      53.986  42.622  86.851  1.00  0.00    -0.093 SA
HETATM    6  C5  UNL     1      52.737  42.895  88.056  1.00  0.00     0.149 C 
HETATM    7  N2  UNL     1      52.798  42.390  89.206  1.00  0.00    -0.366 N 
ATOM      8  H2  UNL     1      52.006  42.632  89.801  1.00  0.00     0.162 HD
ENDROOT
BRANCH   1   9
HETATM    9  C2  UNL     1      50.838  44.219  88.864  1.00  0.00     0.252 C 
BRANCH   9  10
HETATM   10  C1  UNL     1      49.784  43.340  89.364  1.00  0.00     0.192 C 
HETATM   11  O1  UNL     1      48.599  43.484  89.020  1.00  0.00    -0.647 OA
HETATM   12  O2  UNL     1      50.112  42.327  90.239  1.00  0.00    -0.647 OA
ENDBRANCH   9  10
ENDBRANCH   1   9
BRANCH   7  13
HETATM   13  C6  UNL     1      53.742  41.556  89.836  1.00  0.00     0.083 C 
HETATM   14  C7  UNL     1      53.217  40.499  90.751  1.00  0.00     0.025 C 
HETATM   15  C8  UNL     1      54.040  40.586  92.038  1.00  0.00     0.002 C 
HETATM   16  C9  UNL     1      55.258  41.340  91.609  1.00  0.00     0.002 C 
HETATM   17  C10 UNL     1      54.682  42.398  90.699  1.00  0.00     0.025 C 
ENDBRANCH   7  13
TORSDOF 3
ENDMDL
MODEL 4
REMARK VINA RESULT: -6.106450309      1.215      1.240
REMARK  3 active torsions:
REMARK  status: ('A' for Active; 'I' for Inactive)
REMARK    1  A    between atoms: C1_2  and  C2_4 
REMARK    2  A    between atoms: C2_4  and  N1_5 
REMARK    3  A    between atoms: N2_11  and  C6_13 
ROOT
HETATM    1  N1  UNL     1      53.163  42.753  89.425  1.00  0.00    -0.291 N 
HETATM    2  S1  UNL     1      51.443  42.904  89.109  1.00  0.00    -0.050 SA
HETATM    3  C3  UNL     1      51.228  43.504  87.427  1.00  0.00     0.108 C 
HETATM    4  C4  UNL     1      51.891  44.848  87.219  1.00  0.00     0.094 C 
HETATM    5  S2  UNL     1      53.626  44.850  87.656  1.00  0.00    -0.093 SA
HETATM    6  C5  UNL     1      54.130  43.475  88.626  1.00  0.00     0.149 C 
HETATM    7  N2  UNL     1      55.325  43.082  88.656  1.00  0.00    -0.366 N 
ATOM      8  H2  UNL     1      55.474  42.274  89.260  1.00  0.00     0.162 HD
ENDROOT
BRANCH   1   9
HETATM    9  C2  UNL     1      53.694  41.921  90.472  1.00  0.00     0.252 C 
BRANCH   9  10
HETATM   10  C1  UNL     1      52.844  40.812  90.898  1.00  0.00     0.192 C 
HETATM   11  O1  UNL     1      52.315  40.792  92.023  1.00  0.00    -0.647 OA
HETATM   12  O2  UNL     1      52.625  39.762  90.034  1.00  0.00    -0.647 OA
ENDBRANCH   9  10
ENDBRANCH   1   9
BRANCH   7  13
HETATM   13  C6  UNL     1      56.498  43.534  88.020  1.00  0.00     0.083 C 
HETATM   14  C7  UNL     1      56.838  42.926  86.701  1.00  0.00     0.025 C 
HETATM   15  C8  UNL     1      58.316  42.536  86.766  1.00  0.00     0.002 C 
HETATM   16  C9  UNL     1      58.831  43.356  87.906  1.00  0.00     0.002 C 
HETATM   17  C10 UNL     1      57.708  43.256  88.911  1.00  0.00     0.025 C 
ENDBRANCH   7  13
TORSDOF 3
ENDMDL
MODEL 5
REMARK VINA RESULT: -6.031499191      3.464      4.819
REMARK  3 active torsions:
REMARK  status: ('A' for Active; 'I' for Inactive)
REMARK    1  A    between atoms: C1_2  and  C2_4 
REMARK    2  A    between atoms: C2_4  and  N1_5 
REMARK    3  A    between atoms: N2_11  and  C6_13 
ROOT
HETATM    1  N1  UNL     1      51.702  43.846  87.780  1.00  0.00    -0.291 N 
HETATM    2  S1  UNL     1      51.360  44.123  86.081  1.00  0.00    -0.050 SA
HETATM    3  C3  UNL     1      51.889  42.674  85.155  1.00  0.00     0.108 C 
HETATM    4  C4  UNL     1      53.368  42.405  85.326  1.00  0.00     0.094 C 
HETATM    5  S2  UNL     1      53.860  42.252  87.040  1.00  0.00    -0.093 SA
HETATM    6  C5  UNL     1      52.676  42.856  88.189  1.00  0.00     0.149 C 
HETATM    7  N2  UNL     1      52.639  42.455  89.381  1.00  0.00    -0.366 N 
ATOM      8  H2  UNL     1      51.902  42.890  89.935  1.00  0.00     0.162 HD
ENDROOT
BRANCH   1   9
HETATM    9  C2  UNL     1      51.047  44.570  88.836  1.00  0.00     0.252 C 
BRANCH   9  10
HETATM   10  C1  UNL     1      51.377  45.990  88.936  1.00  0.00     0.192 C 
HETATM   11  O1  UNL     1      52.217  46.407  89.753  1.00  0.00    -0.647 OA
HETATM   12  O2  UNL     1      50.742  46.888  88.107  1.00  0.00    -0.647 OA
ENDBRANCH   9  10
ENDBRANCH   1   9
BRANCH   7  13
HETATM   13  C6  UNL     1      53.412  41.524  90.103  1.00  0.00     0.083 C 
HETATM   14  C7  UNL     1      52.725  40.759  91.185  1.00  0.00     0.025 C 
HETATM   15  C8  UNL     1      53.629  40.837  92.418  1.00  0.00     0.002 C 
HETATM   16  C9  UNL     1      54.954  41.221  91.840  1.00  0.00     0.002 C 
HETATM   17  C10 UNL     1      54.570  42.242  90.796  1.00  0.00     0.025 C 
ENDBRANCH   7  13
TORSDOF 3
ENDMDL
