MODEL 1
REMARK VINA RESULT: -6.993166441      0.000      0.000
REMARK  3 active torsions:
REMARK  status: ('A' for Active; 'I' for Inactive)
REMARK    1  A    between atoms: N1_10  and  C7_11 
REMARK    2  A    between atoms: C7_11  and  S2_12 
REMARK    3  A    between atoms: S2_12  and  C8_13 
ROOT
HETATM    1  O1  UNL     1      51.735  46.517  89.792  1.00  0.00    -0.211 OA
HETATM    2  S1  UNL     1      52.655  45.908  88.731  1.00  0.00     0.212 S 
HETATM    3  O2  UNL     1      54.039  46.392  89.127  1.00  0.00    -0.211 OA
HETATM    4  C1  UNL     1      52.340  46.618  87.155  1.00  0.00     0.157 C 
HETATM    5  C2  UNL     1      51.006  46.375  86.578  1.00  0.00     0.016 C 
HETATM    6  C3  UNL     1      50.181  45.315  87.202  1.00  0.00     0.001 C 
HETATM    7  C4  UNL     1      50.719  43.973  86.756  1.00  0.00     0.001 C 
HETATM    8  C5  UNL     1      50.825  42.990  87.873  1.00  0.00     0.015 C 
HETATM    9  C6  UNL     1      51.465  43.556  89.112  1.00  0.00     0.108 C 
HETATM   10  N1  UNL     1      52.676  44.226  88.785  1.00  0.00    -0.201 NA
ENDROOT
BRANCH  10  11
HETATM   11  C7  UNL     1      53.720  43.682  89.618  1.00  0.00     0.190 C 
BRANCH  11  12
HETATM   12  S2  UNL     1      53.783  41.886  89.238  1.00  0.00    -0.067 SA
BRANCH  12  13
HETATM   13  C8  UNL     1      53.340  40.954  90.674  1.00  0.00     0.227 A 
HETATM   14  N2  UNL     1      53.892  40.024  91.466  1.00  0.00    -0.252 N 
HETATM   15  N3  UNL     1      52.806  39.998  92.199  1.00  0.00    -0.197 N 
ATOM     16  H2  UNL     1      54.788  39.537  91.490  1.00  0.00     0.191 HD
HETATM   17  O3  UNL     1      52.245  40.901  91.441  1.00  0.00    -0.195 OA
ATOM     18  H3  UNL     1      52.515  39.480  93.028  1.00  0.00     0.216 HD
ENDBRANCH  12  13
ENDBRANCH  11  12
ENDBRANCH  10  11
TORSDOF 3
ENDMDL
MODEL 2
REMARK VINA RESULT: -6.968358724      1.855      1.972
REMARK  3 active torsions:
REMARK  status: ('A' for Active; 'I' for Inactive)
REMARK    1  A    between atoms: N1_10  and  C7_11 
REMARK    2  A    between atoms: C7_11  and  S2_12 
REMARK    3  A    between atoms: S2_12  and  C8_13 
ROOT
HETATM    1  O1  UNL     1      51.715  43.439  89.534  1.00  0.00    -0.211 OA
HETATM    2  S1  UNL     1      52.758  44.267  88.778  1.00  0.00     0.212 S 
HETATM    3  O2  UNL     1      53.986  44.207  89.668  1.00  0.00    -0.211 OA
HETATM    4  C1  UNL     1      52.290  45.960  88.730  1.00  0.00     0.157 C 
HETATM    5  C2  UNL     1      51.054  46.282  87.996  1.00  0.00     0.016 C 
HETATM    6  C3  UNL     1      50.500  45.232  87.109  1.00  0.00     0.001 C 
HETATM    7  C4  UNL     1      51.342  45.181  85.853  1.00  0.00     0.001 C 
HETATM    8  C5  UNL     1      51.673  43.789  85.432  1.00  0.00     0.015 C 
HETATM    9  C6  UNL     1      52.156  42.919  86.561  1.00  0.00     0.108 C 
HETATM   10  N1  UNL     1      53.175  43.581  87.298  1.00  0.00    -0.201 NA
ENDROOT
BRANCH  10  11
HETATM   11  C7  UNL     1      54.315  42.700  87.366  1.00  0.00     0.190 C 
BRANCH  11  12
HETATM   12  S2  UNL     1      53.630  41.004  87.541  1.00  0.00    -0.067 SA
BRANCH  12  13
HETATM   13  C8  UNL     1      53.296  40.666  89.244  1.00  0.00     0.227 A 
HETATM   14  N2  UNL     1      53.695  41.110  90.444  1.00  0.00    -0.252 N 
HETATM   15  N3  UNL     1      52.893  40.255  91.031  1.00  0.00    -0.197 N 
ATOM     16  H2  UNL     1      54.352  41.820  90.768  1.00  0.00     0.191 HD
HETATM   17  O3  UNL     1      52.490  39.803  89.875  1.00  0.00    -0.195 OA
ATOM     18  H3  UNL     1      52.673  40.033  92.002  1.00  0.00     0.216 HD
ENDBRANCH  12  13
ENDBRANCH  11  12
ENDBRANCH  10  11
TORSDOF 3
ENDMDL
MODEL 3
REMARK VINA RESULT: -6.739871903      2.567      3.218
REMARK  3 active torsions:
REMARK  status: ('A' for Active; 'I' for Inactive)
REMARK    1  A    between atoms: N1_10  and  C7_11 
REMARK    2  A    between atoms: C7_11  and  S2_12 
REMARK    3  A    between atoms: S2_12  and  C8_13 
ROOT
HETATM    1  O1  UNL     1      51.412  45.226  85.931  1.00  0.00    -0.211 OA
HETATM    2  S1  UNL     1      51.428  44.151  87.021  1.00  0.00     0.212 S 
HETATM    3  O2  UNL     1      50.444  43.109  86.519  1.00  0.00    -0.211 OA
HETATM    4  C1  UNL     1      50.739  44.771  88.514  1.00  0.00     0.157 C 
HETATM    5  C2  UNL     1      51.463  45.876  89.165  1.00  0.00     0.016 C 
HETATM    6  C3  UNL     1      52.844  46.147  88.700  1.00  0.00     0.001 C 
HETATM    7  C4  UNL     1      53.755  45.086  89.280  1.00  0.00     0.001 C 
HETATM    8  C5  UNL     1      54.722  44.544  88.282  1.00  0.00     0.015 C 
HETATM    9  C6  UNL     1      54.090  44.192  86.963  1.00  0.00     0.108 C 
HETATM   10  N1  UNL     1      52.927  43.400  87.164  1.00  0.00    -0.201 NA
ENDROOT
BRANCH  10  11
HETATM   11  C7  UNL     1      53.060  42.209  86.361  1.00  0.00     0.190 C 
BRANCH  11  12
HETATM   12  S2  UNL     1      53.807  40.942  87.462  1.00  0.00    -0.067 SA
BRANCH  12  13
HETATM   13  C8  UNL     1      52.907  40.863  88.982  1.00  0.00     0.227 A 
HETATM   14  N2  UNL     1      52.302  41.711  89.826  1.00  0.00    -0.252 N 
HETATM   15  N3  UNL     1      51.960  40.707  90.596  1.00  0.00    -0.197 N 
ATOM     16  H2  UNL     1      52.165  42.721  89.856  1.00  0.00     0.191 HD
HETATM   17  O3  UNL     1      52.545  39.860  89.792  1.00  0.00    -0.195 OA
ATOM     18  H3  UNL     1      51.445  40.621  91.472  1.00  0.00     0.216 HD
ENDBRANCH  12  13
ENDBRANCH  11  12
ENDBRANCH  10  11
TORSDOF 3
ENDMDL
MODEL 4
REMARK VINA RESULT: -6.738418471      2.105      3.397
REMARK  3 active torsions:
REMARK  status: ('A' for Active; 'I' for Inactive)
REMARK    1  A    between atoms: N1_10  and  C7_11 
REMARK    2  A    between atoms: C7_11  and  S2_12 
REMARK    3  A    between atoms: S2_12  and  C8_13 
ROOT
HETATM    1  O1  UNL     1      53.665  45.460  87.469  1.00  0.00    -0.211 OA
HETATM    2  S1  UNL     1      53.276  44.519  88.613  1.00  0.00     0.212 S 
HETATM    3  O2  UNL     1      52.330  45.350  89.462  1.00  0.00    -0.211 OA
HETATM    4  C1  UNL     1      54.662  44.184  89.639  1.00  0.00     0.157 C 
HETATM    5  C2  UNL     1      55.784  43.460  89.016  1.00  0.00     0.016 C 
HETATM    6  C3  UNL     1      55.526  42.806  87.712  1.00  0.00     0.001 C 
HETATM    7  C4  UNL     1      54.731  41.543  87.965  1.00  0.00     0.001 C 
HETATM    8  C5  UNL     1      53.599  41.369  87.009  1.00  0.00     0.015 C 
HETATM    9  C6  UNL     1      52.777  42.615  86.819  1.00  0.00     0.108 C 
HETATM   10  N1  UNL     1      52.420  43.173  88.077  1.00  0.00    -0.201 NA
ENDROOT
BRANCH  10  11
HETATM   11  C7  UNL     1      50.989  43.349  88.092  1.00  0.00     0.190 C 
BRANCH  11  12
HETATM   12  S2  UNL     1      50.367  42.296  89.462  1.00  0.00    -0.067 SA
BRANCH  12  13
HETATM   13  C8  UNL     1      51.679  41.288  90.087  1.00  0.00     0.227 A 
HETATM   14  N2  UNL     1      52.759  41.431  90.868  1.00  0.00    -0.252 N 
HETATM   15  N3  UNL     1      53.043  40.161  90.714  1.00  0.00    -0.197 N 
ATOM     16  H2  UNL     1      53.184  42.208  91.375  1.00  0.00     0.191 HD
HETATM   17  O3  UNL     1      51.999  39.995  89.948  1.00  0.00    -0.195 OA
ATOM     18  H3  UNL     1      53.783  39.547  91.056  1.00  0.00     0.216 HD
ENDBRANCH  12  13
ENDBRANCH  11  12
ENDBRANCH  10  11
TORSDOF 3
ENDMDL
MODEL 5
REMARK VINA RESULT: -6.722826030      2.920      5.726
REMARK  3 active torsions:
REMARK  status: ('A' for Active; 'I' for Inactive)
REMARK    1  A    between atoms: N1_10  and  C7_11 
REMARK    2  A    between atoms: C7_11  and  S2_12 
REMARK    3  A    between atoms: S2_12  and  C8_13 
ROOT
HETATM    1  O1  UNL     1      51.830  41.813  90.972  1.00  0.00    -0.211 OA
HETATM    2  S1  UNL     1      52.811  40.889  90.245  1.00  0.00     0.212 S 
HETATM    3  O2  UNL     1      51.914  39.943  89.466  1.00  0.00    -0.211 OA
HETATM    4  C1  UNL     1      53.679  39.879  91.393  1.00  0.00     0.157 C 
HETATM    5  C2  UNL     1      54.562  40.574  92.345  1.00  0.00     0.016 C 
HETATM    6  C3  UNL     1      54.890  41.990  92.056  1.00  0.00     0.001 C 
HETATM    7  C4  UNL     1      55.914  42.020  90.943  1.00  0.00     0.001 C 
HETATM    8  C5  UNL     1      55.610  43.045  89.902  1.00  0.00     0.015 C 
HETATM    9  C6  UNL     1      54.175  43.034  89.450  1.00  0.00     0.108 C 
HETATM   10  N1  UNL     1      53.764  41.711  89.128  1.00  0.00    -0.201 NA
ENDROOT
BRANCH  10  11
HETATM   11  C7  UNL     1      53.213  41.732  87.796  1.00  0.00     0.190 C 
BRANCH  11  12
HETATM   12  S2  UNL     1      52.297  43.318  87.654  1.00  0.00    -0.067 SA
BRANCH  12  13
HETATM   13  C8  UNL     1      50.573  43.041  87.937  1.00  0.00     0.227 A 
HETATM   14  N2  UNL     1      49.784  42.611  88.932  1.00  0.00    -0.252 N 
HETATM   15  N3  UNL     1      48.730  42.769  88.169  1.00  0.00    -0.197 N 
ATOM     16  H2  UNL     1      49.939  42.292  89.888  1.00  0.00     0.191 HD
HETATM   17  O3  UNL     1      49.476  43.188  87.183  1.00  0.00    -0.195 OA
ATOM     18  H3  UNL     1      47.728  42.624  88.294  1.00  0.00     0.216 HD
ENDBRANCH  12  13
ENDBRANCH  11  12
ENDBRANCH  10  11
TORSDOF 3
ENDMDL
