MODEL 1
REMARK VINA RESULT: -5.512163531      0.000      0.000
REMARK  4 active torsions:
REMARK  status: ('A' for Active; 'I' for Inactive)
REMARK    1  A    between atoms: O1_2  and  C2_3 
REMARK    2  A    between atoms: C2_3  and  O2_4 
REMARK    3  A    between atoms: C2_3  and  C3_6 
REMARK    4  A    between atoms: C7_12  and  O5_13 
ROOT
HETATM    1  C3  UNL     1      10.213 -40.844 -78.330  1.00  0.00     0.235 C 
HETATM    2  O3  UNL     1       9.060 -40.598 -77.581  1.00  0.00    -0.341 OA
HETATM    3  C4  UNL     1       8.117 -41.371 -78.221  1.00  0.00     0.161 C 
HETATM    4  C5  UNL     1       6.989 -41.799 -77.310  1.00  0.00     0.078 C 
HETATM    5  C6  UNL     1       7.491 -40.651 -79.410  1.00  0.00     0.078 C 
HETATM    6  O4  UNL     1       8.722 -42.508 -78.719  1.00  0.00    -0.324 OA
HETATM    7  C7  UNL     1      10.111 -42.340 -78.508  1.00  0.00     0.294 C 
ENDROOT
BRANCH   1   8
HETATM    8  C2  UNL     1      11.454 -40.390 -77.629  1.00  0.00     0.289 C 
BRANCH   8   9
HETATM    9  O1  UNL     1      12.465 -41.338 -77.580  1.00  0.00    -0.363 OA
HETATM   10  C1  UNL     1      13.599 -40.968 -78.259  1.00  0.00     0.204 C 
ENDBRANCH   8   9
BRANCH   8  11
HETATM   11  O2  UNL     1      11.052 -40.085 -76.304  1.00  0.00    -0.368 OA
ATOM     12  H2  UNL     1      10.659 -39.220 -76.295  1.00  0.00     0.212 HD
ENDBRANCH   8  11
ENDBRANCH   1   8
BRANCH   7  13
HETATM   13  O5  UNL     1      10.398 -43.046 -77.354  1.00  0.00    -0.368 OA
ATOM     14  H5  UNL     1      10.432 -43.986 -77.490  1.00  0.00     0.212 HD
ENDBRANCH   7  13
TORSDOF 4
ENDMDL
MODEL 2
REMARK VINA RESULT: -5.474601359      1.561      2.436
REMARK  4 active torsions:
REMARK  status: ('A' for Active; 'I' for Inactive)
REMARK    1  A    between atoms: O1_2  and  C2_3 
REMARK    2  A    between atoms: C2_3  and  O2_4 
REMARK    3  A    between atoms: C2_3  and  C3_6 
REMARK    4  A    between atoms: C7_12  and  O5_13 
ROOT
HETATM    1  C3  UNL     1       9.904 -40.467 -77.838  1.00  0.00     0.235 C 
HETATM    2  O3  UNL     1       9.839 -40.516 -79.232  1.00  0.00    -0.341 OA
HETATM    3  C4  UNL     1       8.483 -40.553 -79.469  1.00  0.00     0.161 C 
HETATM    4  C5  UNL     1       8.104 -39.985 -80.817  1.00  0.00     0.078 C 
HETATM    5  C6  UNL     1       7.923 -41.969 -79.398  1.00  0.00     0.078 C 
HETATM    6  O4  UNL     1       7.832 -39.821 -78.495  1.00  0.00    -0.324 OA
HETATM    7  C7  UNL     1       8.818 -39.458 -77.548  1.00  0.00     0.294 C 
ENDROOT
BRANCH   1   8
HETATM    8  C2  UNL     1      11.260 -40.073 -77.345  1.00  0.00     0.289 C 
BRANCH   8   9
HETATM    9  O1  UNL     1      12.090 -41.139 -77.033  1.00  0.00    -0.363 OA
HETATM   10  C1  UNL     1      13.203 -41.222 -77.830  1.00  0.00     0.204 C 
ENDBRANCH   8   9
BRANCH   8  11
HETATM   11  O2  UNL     1      11.031 -39.315 -76.169  1.00  0.00    -0.368 OA
ATOM     12  H2  UNL     1      10.353 -38.673 -76.347  1.00  0.00     0.212 HD
ENDBRANCH   8  11
ENDBRANCH   1   8
BRANCH   7  13
HETATM   13  O5  UNL     1       9.181 -38.162 -77.869  1.00  0.00    -0.368 OA
ATOM     14  H5  UNL     1       9.071 -37.961 -78.791  1.00  0.00     0.212 HD
ENDBRANCH   7  13
TORSDOF 4
ENDMDL
MODEL 3
REMARK VINA RESULT: -5.373162329      1.119      1.207
REMARK  4 active torsions:
REMARK  status: ('A' for Active; 'I' for Inactive)
REMARK    1  A    between atoms: O1_2  and  C2_3 
REMARK    2  A    between atoms: C2_3  and  O2_4 
REMARK    3  A    between atoms: C2_3  and  C3_6 
REMARK    4  A    between atoms: C7_12  and  O5_13 
ROOT
HETATM    1  C3  UNL     1      11.075 -41.130 -78.725  1.00  0.00     0.235 C 
HETATM    2  O3  UNL     1       9.741 -40.732 -78.614  1.00  0.00    -0.341 OA
HETATM    3  C4  UNL     1       9.096 -41.606 -79.460  1.00  0.00     0.161 C 
HETATM    4  C5  UNL     1       7.651 -41.838 -79.078  1.00  0.00     0.078 C 
HETATM    5  C6  UNL     1       9.113 -41.129 -80.907  1.00  0.00     0.078 C 
HETATM    6  O4  UNL     1       9.747 -42.824 -79.437  1.00  0.00    -0.324 OA
HETATM    7  C7  UNL     1      10.919 -42.631 -78.670  1.00  0.00     0.294 C 
ENDROOT
BRANCH   1   8
HETATM    8  C2  UNL     1      11.931 -40.558 -77.640  1.00  0.00     0.289 C 
BRANCH   8   9
HETATM    9  O1  UNL     1      12.953 -41.394 -77.216  1.00  0.00    -0.363 OA
HETATM   10  C1  UNL     1      14.151 -41.162 -77.844  1.00  0.00     0.204 C 
ENDBRANCH   8   9
BRANCH   8  11
HETATM   11  O2  UNL     1      11.056 -40.320 -76.551  1.00  0.00    -0.368 OA
ATOM     12  H2  UNL     1      10.541 -39.544 -76.737  1.00  0.00     0.212 HD
ENDBRANCH   8  11
ENDBRANCH   1   8
BRANCH   7  13
HETATM   13  O5  UNL     1      10.615 -43.100 -77.404  1.00  0.00    -0.368 OA
ATOM     14  H5  UNL     1      11.373 -43.433 -76.937  1.00  0.00     0.212 HD
ENDBRANCH   7  13
TORSDOF 4
ENDMDL
MODEL 4
REMARK VINA RESULT: -5.265277941      1.816      3.456
REMARK  4 active torsions:
REMARK  status: ('A' for Active; 'I' for Inactive)
REMARK    1  A    between atoms: O1_2  and  C2_3 
REMARK    2  A    between atoms: C2_3  and  O2_4 
REMARK    3  A    between atoms: C2_3  and  C3_6 
REMARK    4  A    between atoms: C7_12  and  O5_13 
ROOT
HETATM    1  C3  UNL     1      10.771 -40.616 -78.265  1.00  0.00     0.235 C 
HETATM    2  O3  UNL     1      10.409 -41.872 -78.756  1.00  0.00    -0.341 OA
HETATM    3  C4  UNL     1      11.415 -42.143 -79.656  1.00  0.00     0.161 C 
HETATM    4  C5  UNL     1      11.642 -43.624 -79.858  1.00  0.00     0.078 C 
HETATM    5  C6  UNL     1      11.142 -41.535 -81.027  1.00  0.00     0.078 C 
HETATM    6  O4  UNL     1      12.594 -41.585 -79.203  1.00  0.00    -0.324 OA
HETATM    7  C7  UNL     1      12.254 -40.816 -78.065  1.00  0.00     0.294 C 
ENDROOT
BRANCH   1   8
HETATM    8  C2  UNL     1      10.024 -40.255 -77.020  1.00  0.00     0.289 C 
BRANCH   8   9
HETATM    9  O1  UNL     1       8.850 -39.551 -77.239  1.00  0.00    -0.363 OA
HETATM   10  C1  UNL     1       8.882 -38.761 -78.361  1.00  0.00     0.204 C 
ENDBRANCH   8   9
BRANCH   8  11
HETATM   11  O2  UNL     1      10.910 -39.441 -76.269  1.00  0.00    -0.368 OA
ATOM     12  H2  UNL     1      11.050 -39.845 -75.420  1.00  0.00     0.212 HD
ENDBRANCH   8  11
ENDBRANCH   1   8
BRANCH   7  13
HETATM   13  O5  UNL     1      12.554 -41.614 -76.975  1.00  0.00    -0.368 OA
ATOM     14  H5  UNL     1      12.582 -42.540 -77.187  1.00  0.00     0.212 HD
ENDBRANCH   7  13
TORSDOF 4
ENDMDL
MODEL 5
REMARK VINA RESULT: -5.182830188      2.271      3.666
REMARK  4 active torsions:
REMARK  status: ('A' for Active; 'I' for Inactive)
REMARK    1  A    between atoms: O1_2  and  C2_3 
REMARK    2  A    between atoms: C2_3  and  O2_4 
REMARK    3  A    between atoms: C2_3  and  C3_6 
REMARK    4  A    between atoms: C7_12  and  O5_13 
ROOT
HETATM    1  C3  UNL     1       9.322 -40.277 -77.657  1.00  0.00     0.235 C 
HETATM    2  O3  UNL     1      10.399 -40.620 -78.477  1.00  0.00    -0.341 OA
HETATM    3  C4  UNL     1       9.778 -40.992 -79.649  1.00  0.00     0.161 C 
HETATM    4  C5  UNL     1      10.654 -40.802 -80.867  1.00  0.00     0.078 C 
HETATM    5  C6  UNL     1       9.336 -42.450 -79.630  1.00  0.00     0.078 C 
HETATM    6  O4  UNL     1       8.636 -40.234 -79.818  1.00  0.00    -0.324 OA
HETATM    7  C7  UNL     1       8.479 -39.486 -78.628  1.00  0.00     0.294 C 
ENDROOT
BRANCH   1   8
HETATM    8  C2  UNL     1       9.751 -39.512 -76.446  1.00  0.00     0.289 C 
BRANCH   8   9
HETATM    9  O1  UNL     1       9.025 -38.353 -76.213  1.00  0.00    -0.363 OA
HETATM   10  C1  UNL     1       8.319 -38.373 -75.037  1.00  0.00     0.204 C 
ENDBRANCH   8   9
BRANCH   8  11
HETATM   11  O2  UNL     1      11.105 -39.161 -76.677  1.00  0.00    -0.368 OA
ATOM     12  H2  UNL     1      11.574 -39.193 -75.851  1.00  0.00     0.212 HD
ENDBRANCH   8  11
ENDBRANCH   1   8
BRANCH   7  13
HETATM   13  O5  UNL     1       8.999 -38.234 -78.906  1.00  0.00    -0.368 OA
ATOM     14  H5  UNL     1       8.706 -37.885 -79.740  1.00  0.00     0.212 HD
ENDBRANCH   7  13
TORSDOF 4
ENDMDL
