MODEL 1
REMARK VINA RESULT: -5.532951691      0.000      0.000
REMARK  3 active torsions:
REMARK  status: ('A' for Active; 'I' for Inactive)
REMARK    1  A    between atoms: S1_2  and  C2_3 
REMARK    2  A    between atoms: C3_4  and  O1_5 
REMARK    3  A    between atoms: C4_7  and  O2_8 
ROOT
HETATM    1  C2  UNL     1       9.847 -41.295 -78.376  1.00  0.00     0.184 C 
HETATM    2  C3  UNL     1      11.011 -42.248 -78.295  1.00  0.00     0.181 C 
HETATM    3  C4  UNL     1      12.172 -41.450 -77.775  1.00  0.00     0.198 C 
HETATM    4  C5  UNL     1      11.663 -40.050 -77.607  1.00  0.00     0.297 C 
HETATM    5  O3  UNL     1      11.324 -39.725 -76.283  1.00  0.00    -0.196 OA
HETATM    6  O4  UNL     1      10.025 -39.903 -76.477  1.00  0.00    -0.134 OA
HETATM    7  N1  UNL     1      10.245 -40.050 -77.797  1.00  0.00    -0.113 NA
ENDROOT
BRANCH   1   8
HETATM    8  S1  UNL     1       9.326 -41.001 -80.099  1.00  0.00    -0.148 SA
HETATM    9  C1  UNL     1       8.437 -39.409 -80.110  1.00  0.00     0.091 C 
ENDBRANCH   1   8
BRANCH   2  10
HETATM   10  O1  UNL     1      10.790 -43.294 -77.406  1.00  0.00    -0.390 OA
ATOM     11  H1  UNL     1      10.504 -44.090 -77.839  1.00  0.00     0.210 HD
ENDBRANCH   2  10
BRANCH   3  12
HETATM   12  O2  UNL     1      13.250 -41.556 -78.634  1.00  0.00    -0.389 OA
ATOM     13  H2  UNL     1      13.098 -42.245 -79.270  1.00  0.00     0.210 HD
ENDBRANCH   3  12
TORSDOF 3
ENDMDL
MODEL 2
REMARK VINA RESULT: -5.528525844      0.901      1.006
REMARK  3 active torsions:
REMARK  status: ('A' for Active; 'I' for Inactive)
REMARK    1  A    between atoms: S1_2  and  C2_3 
REMARK    2  A    between atoms: C3_4  and  O1_5 
REMARK    3  A    between atoms: C4_7  and  O2_8 
ROOT
HETATM    1  C2  UNL     1       9.898 -41.301 -78.418  1.00  0.00     0.184 C 
HETATM    2  C3  UNL     1      11.069 -42.241 -78.302  1.00  0.00     0.181 C 
HETATM    3  C4  UNL     1      12.205 -41.432 -77.746  1.00  0.00     0.198 C 
HETATM    4  C5  UNL     1      11.677 -40.037 -77.593  1.00  0.00     0.297 C 
HETATM    5  O3  UNL     1      11.295 -39.718 -76.280  1.00  0.00    -0.196 OA
HETATM    6  O4  UNL     1      10.003 -39.909 -76.513  1.00  0.00    -0.134 OA
HETATM    7  N1  UNL     1      10.265 -40.053 -77.825  1.00  0.00    -0.113 NA
ENDROOT
BRANCH   1   8
HETATM    8  S1  UNL     1       9.426 -41.010 -80.155  1.00  0.00    -0.148 SA
HETATM    9  C1  UNL     1      10.891 -41.400 -81.166  1.00  0.00     0.091 C 
ENDBRANCH   1   8
BRANCH   2  10
HETATM   10  O1  UNL     1      10.833 -43.290 -77.421  1.00  0.00    -0.390 OA
ATOM     11  H1  UNL     1      11.153 -43.114 -76.544  1.00  0.00     0.210 HD
ENDBRANCH   2  10
BRANCH   3  12
HETATM   12  O2  UNL     1      13.310 -41.525 -78.573  1.00  0.00    -0.389 OA
ATOM     13  H2  UNL     1      14.097 -41.283 -78.099  1.00  0.00     0.210 HD
ENDBRANCH   3  12
TORSDOF 3
ENDMDL
MODEL 3
REMARK VINA RESULT: -5.421534022      2.837      3.445
REMARK  3 active torsions:
REMARK  status: ('A' for Active; 'I' for Inactive)
REMARK    1  A    between atoms: S1_2  and  C2_3 
REMARK    2  A    between atoms: C3_4  and  O1_5 
REMARK    3  A    between atoms: C4_7  and  O2_8 
ROOT
HETATM    1  C2  UNL     1       8.189 -40.808 -76.260  1.00  0.00     0.184 C 
HETATM    2  C3  UNL     1       9.198 -40.317 -77.266  1.00  0.00     0.181 C 
HETATM    3  C4  UNL     1       9.447 -38.872 -76.943  1.00  0.00     0.198 C 
HETATM    4  C5  UNL     1       8.549 -38.552 -75.786  1.00  0.00     0.297 C 
HETATM    5  O3  UNL     1       9.202 -38.559 -74.542  1.00  0.00    -0.196 OA
HETATM    6  O4  UNL     1       8.765 -39.769 -74.219  1.00  0.00    -0.134 OA
HETATM    7  N1  UNL     1       7.968 -39.768 -75.304  1.00  0.00    -0.113 NA
ENDROOT
BRANCH   1   8
HETATM    8  S1  UNL     1       6.598 -41.234 -77.042  1.00  0.00    -0.148 SA
HETATM    9  C1  UNL     1       6.847 -41.095 -78.842  1.00  0.00     0.091 C 
ENDBRANCH   1   8
BRANCH   2  10
HETATM   10  O1  UNL     1      10.415 -40.982 -77.177  1.00  0.00    -0.390 OA
ATOM     11  H1  UNL     1      11.074 -40.482 -76.710  1.00  0.00     0.210 HD
ENDBRANCH   2  10
BRANCH   3  12
HETATM   12  O2  UNL     1       9.226 -38.086 -78.058  1.00  0.00    -0.389 OA
ATOM     13  H2  UNL     1       9.069 -37.185 -77.800  1.00  0.00     0.210 HD
ENDBRANCH   3  12
TORSDOF 3
ENDMDL
MODEL 4
REMARK VINA RESULT: -5.223720669      1.945      3.332
REMARK  3 active torsions:
REMARK  status: ('A' for Active; 'I' for Inactive)
REMARK    1  A    between atoms: S1_2  and  C2_3 
REMARK    2  A    between atoms: C3_4  and  O1_5 
REMARK    3  A    between atoms: C4_7  and  O2_8 
ROOT
HETATM    1  C2  UNL     1      11.365 -41.527 -78.002  1.00  0.00     0.184 C 
HETATM    2  C3  UNL     1      10.750 -40.201 -77.639  1.00  0.00     0.181 C 
HETATM    3  C4  UNL     1       9.276 -40.338 -77.886  1.00  0.00     0.198 C 
HETATM    4  C5  UNL     1       9.079 -41.724 -78.423  1.00  0.00     0.297 C 
HETATM    5  O3  UNL     1       8.629 -42.645 -77.462  1.00  0.00    -0.196 OA
HETATM    6  O4  UNL     1       9.832 -43.166 -77.266  1.00  0.00    -0.134 OA
HETATM    7  N1  UNL     1      10.309 -42.445 -78.297  1.00  0.00    -0.113 NA
ENDROOT
BRANCH   1   8
HETATM    8  S1  UNL     1      12.455 -41.398 -79.459  1.00  0.00    -0.148 SA
HETATM    9  C1  UNL     1      11.368 -41.336 -80.920  1.00  0.00     0.091 C 
ENDBRANCH   1   8
BRANCH   2  10
HETATM   10  O1  UNL     1      10.922 -39.876 -76.299  1.00  0.00    -0.390 OA
ATOM     11  H1  UNL     1      11.201 -38.977 -76.170  1.00  0.00     0.210 HD
ENDBRANCH   2  10
BRANCH   3  12
HETATM   12  O2  UNL     1       8.836 -39.341 -78.736  1.00  0.00    -0.389 OA
ATOM     13  H2  UNL     1       8.304 -38.713 -78.260  1.00  0.00     0.210 HD
ENDBRANCH   3  12
TORSDOF 3
ENDMDL
MODEL 5
REMARK VINA RESULT: -5.153213499      1.282      1.452
REMARK  3 active torsions:
REMARK  status: ('A' for Active; 'I' for Inactive)
REMARK    1  A    between atoms: S1_2  and  C2_3 
REMARK    2  A    between atoms: C3_4  and  O1_5 
REMARK    3  A    between atoms: C4_7  and  O2_8 
ROOT
HETATM    1  C2  UNL     1       9.160 -40.647 -77.854  1.00  0.00     0.184 C 
HETATM    2  C3  UNL     1       9.450 -42.099 -78.131  1.00  0.00     0.181 C 
HETATM    3  C4  UNL     1      10.945 -42.226 -78.184  1.00  0.00     0.198 C 
HETATM    4  C5  UNL     1      11.482 -40.842 -77.977  1.00  0.00     0.297 C 
HETATM    5  O3  UNL     1      11.919 -40.594 -76.666  1.00  0.00    -0.196 OA
HETATM    6  O4  UNL     1      10.815 -39.944 -76.324  1.00  0.00    -0.134 OA
HETATM    7  N1  UNL     1      10.400 -39.981 -77.604  1.00  0.00    -0.113 NA
ENDROOT
BRANCH   1   8
HETATM    8  S1  UNL     1       8.333 -39.835 -79.263  1.00  0.00    -0.148 SA
HETATM    9  C1  UNL     1       8.947 -40.655 -80.771  1.00  0.00     0.091 C 
ENDBRANCH   1   8
BRANCH   2  10
HETATM   10  O1  UNL     1       8.993 -42.941 -77.125  1.00  0.00    -0.390 OA
ATOM     11  H1  UNL     1       8.688 -42.468 -76.359  1.00  0.00     0.210 HD
ENDBRANCH   2  10
BRANCH   3  12
HETATM   12  O2  UNL     1      11.336 -42.806 -79.377  1.00  0.00    -0.389 OA
ATOM     13  H2  UNL     1      10.700 -42.618 -80.058  1.00  0.00     0.210 HD
ENDBRANCH   3  12
TORSDOF 3
ENDMDL
