MODEL 1
REMARK VINA RESULT: -5.902975132      0.000      0.000
REMARK  3 active torsions:
REMARK  status: ('A' for Active; 'I' for Inactive)
REMARK    1  A    between atoms: O1_2  and  C2_3 
REMARK    2  A    between atoms: C3_5  and  O3_6 
REMARK    3  A    between atoms: C4_9  and  O5_10 
ROOT
HETATM    1  C2  UNL     1      11.362 -40.707 -77.564  1.00  0.00     0.306 C 
HETATM    2  O2  UNL     1      10.979 -39.789 -76.617  1.00  0.00    -0.305 OA
HETATM    3  C3  UNL     1       9.671 -39.358 -76.908  1.00  0.00     0.415 C 
HETATM    4  O4  UNL     1       8.845 -40.419 -76.517  1.00  0.00    -0.305 OA
HETATM    5  C4  UNL     1       8.959 -41.452 -77.412  1.00  0.00     0.304 C 
HETATM    6  C5  UNL     1      10.265 -41.553 -78.105  1.00  0.00     0.181 A 
HETATM    7  C6  UNL     1      10.280 -41.886 -79.537  1.00  0.00     0.217 A 
HETATM    8  O6  UNL     1      10.705 -42.842 -78.511  1.00  0.00    -0.364 OA
ENDROOT
BRANCH   1   9
HETATM    9  O1  UNL     1      12.435 -41.442 -77.075  1.00  0.00    -0.362 OA
HETATM   10  C1  UNL     1      13.622 -41.185 -77.739  1.00  0.00     0.204 C 
ENDBRANCH   1   9
BRANCH   3  11
HETATM   11  O3  UNL     1       9.379 -38.215 -76.188  1.00  0.00    -0.349 OA
ATOM     12  H3  UNL     1       8.438 -38.114 -76.107  1.00  0.00     0.215 HD
ENDBRANCH   3  11
BRANCH   5  13
HETATM   13  O5  UNL     1       7.864 -41.362 -78.299  1.00  0.00    -0.368 OA
ATOM     14  H5  UNL     1       7.603 -42.249 -78.516  1.00  0.00     0.212 HD
ENDBRANCH   5  13
TORSDOF 3
ENDMDL
MODEL 2
REMARK VINA RESULT: -5.803936362      1.317      3.441
REMARK  3 active torsions:
REMARK  status: ('A' for Active; 'I' for Inactive)
REMARK    1  A    between atoms: O1_2  and  C2_3 
REMARK    2  A    between atoms: C3_5  and  O3_6 
REMARK    3  A    between atoms: C4_9  and  O5_10 
ROOT
HETATM    1  C2  UNL     1       9.842 -41.442 -78.738  1.00  0.00     0.306 C 
HETATM    2  O2  UNL     1      10.949 -41.877 -78.051  1.00  0.00    -0.305 OA
HETATM    3  C3  UNL     1      11.675 -40.756 -77.607  1.00  0.00     0.415 C 
HETATM    4  O4  UNL     1      10.941 -40.254 -76.526  1.00  0.00    -0.305 OA
HETATM    5  C4  UNL     1       9.806 -39.635 -76.981  1.00  0.00     0.304 C 
HETATM    6  C5  UNL     1       9.262 -40.160 -78.255  1.00  0.00     0.181 A 
HETATM    7  C6  UNL     1       8.747 -39.207 -79.249  1.00  0.00     0.217 A 
HETATM    8  O6  UNL     1       7.858 -40.071 -78.467  1.00  0.00    -0.364 OA
ENDROOT
BRANCH   1   9
HETATM    9  O1  UNL     1       8.916 -42.475 -78.808  1.00  0.00    -0.362 OA
HETATM   10  C1  UNL     1       8.672 -42.905 -80.101  1.00  0.00     0.204 C 
ENDBRANCH   1   9
BRANCH   3  11
HETATM   11  O3  UNL     1      12.941 -41.142 -77.208  1.00  0.00    -0.349 OA
ATOM     12  H3  UNL     1      13.354 -40.442 -76.717  1.00  0.00     0.215 HD
ENDBRANCH   3  11
BRANCH   5  13
HETATM   13  O5  UNL     1      10.070 -38.248 -77.019  1.00  0.00    -0.368 OA
ATOM     14  H5  UNL     1      10.477 -38.061 -77.856  1.00  0.00     0.212 HD
ENDBRANCH   5  13
TORSDOF 3
ENDMDL
MODEL 3
REMARK VINA RESULT: -5.663392261      1.671      3.669
REMARK  3 active torsions:
REMARK  status: ('A' for Active; 'I' for Inactive)
REMARK    1  A    between atoms: O1_2  and  C2_3 
REMARK    2  A    between atoms: C3_5  and  O3_6 
REMARK    3  A    between atoms: C4_9  and  O5_10 
ROOT
HETATM    1  C2  UNL     1      11.442 -41.602 -79.911  1.00  0.00     0.306 C 
HETATM    2  O2  UNL     1      12.773 -41.835 -79.665  1.00  0.00    -0.305 OA
HETATM    3  C3  UNL     1      13.212 -40.941 -78.670  1.00  0.00     0.415 C 
HETATM    4  O4  UNL     1      12.685 -41.444 -77.474  1.00  0.00    -0.305 OA
HETATM    5  C4  UNL     1      11.336 -41.209 -77.424  1.00  0.00     0.304 C 
HETATM    6  C5  UNL     1      10.652 -41.146 -78.737  1.00  0.00     0.181 A 
HETATM    7  C6  UNL     1       9.617 -40.122 -78.945  1.00  0.00     0.217 A 
HETATM    8  O6  UNL     1       9.287 -41.542 -78.797  1.00  0.00    -0.364 OA
ENDROOT
BRANCH   1   9
HETATM    9  O1  UNL     1      10.897 -42.711 -80.546  1.00  0.00    -0.362 OA
HETATM   10  C1  UNL     1      11.483 -43.905 -80.162  1.00  0.00     0.204 C 
ENDBRANCH   1   9
BRANCH   3  11
HETATM   11  O3  UNL     1      14.594 -40.920 -78.630  1.00  0.00    -0.349 OA
ATOM     12  H3  UNL     1      14.899 -40.047 -78.413  1.00  0.00     0.215 HD
ENDBRANCH   3  11
BRANCH   5  13
HETATM   13  O5  UNL     1      11.139 -40.052 -76.638  1.00  0.00    -0.368 OA
ATOM     14  H5  UNL     1      11.985 -39.799 -76.290  1.00  0.00     0.212 HD
ENDBRANCH   5  13
TORSDOF 3
ENDMDL
MODEL 4
REMARK VINA RESULT: -5.529736121      1.785      3.239
REMARK  3 active torsions:
REMARK  status: ('A' for Active; 'I' for Inactive)
REMARK    1  A    between atoms: O1_2  and  C2_3 
REMARK    2  A    between atoms: C3_5  and  O3_6 
REMARK    3  A    between atoms: C4_9  and  O5_10 
ROOT
HETATM    1  C2  UNL     1       9.013 -39.791 -78.845  1.00  0.00     0.306 C 
HETATM    2  O2  UNL     1       8.773 -38.700 -78.045  1.00  0.00    -0.305 OA
HETATM    3  C3  UNL     1       9.291 -38.958 -76.762  1.00  0.00     0.415 C 
HETATM    4  O4  UNL     1      10.677 -38.818 -76.897  1.00  0.00    -0.305 OA
HETATM    5  C4  UNL     1      11.190 -39.891 -77.579  1.00  0.00     0.304 C 
HETATM    6  C5  UNL     1      10.266 -40.533 -78.542  1.00  0.00     0.181 A 
HETATM    7  C6  UNL     1      10.248 -42.001 -78.632  1.00  0.00     0.217 A 
HETATM    8  O6  UNL     1      10.828 -41.164 -79.686  1.00  0.00    -0.364 OA
ENDROOT
BRANCH   1   9
HETATM    9  O1  UNL     1       8.906 -39.409 -80.177  1.00  0.00    -0.362 OA
HETATM   10  C1  UNL     1       7.784 -39.921 -80.805  1.00  0.00     0.204 C 
ENDBRANCH   1   9
BRANCH   3  11
HETATM   11  O3  UNL     1       8.788 -38.043 -75.857  1.00  0.00    -0.349 OA
ATOM     12  H3  UNL     1       9.492 -37.507 -75.511  1.00  0.00     0.215 HD
ENDBRANCH   3  11
BRANCH   5  13
HETATM   13  O5  UNL     1      11.707 -40.790 -76.621  1.00  0.00    -0.368 OA
ATOM     14  H5  UNL     1      11.510 -40.434 -75.763  1.00  0.00     0.212 HD
ENDBRANCH   5  13
TORSDOF 3
ENDMDL
MODEL 5
REMARK VINA RESULT: -5.463768641      1.139      3.183
REMARK  3 active torsions:
REMARK  status: ('A' for Active; 'I' for Inactive)
REMARK    1  A    between atoms: O1_2  and  C2_3 
REMARK    2  A    between atoms: C3_5  and  O3_6 
REMARK    3  A    between atoms: C4_9  and  O5_10 
ROOT
HETATM    1  C2  UNL     1      10.115 -40.149 -77.484  1.00  0.00     0.306 C 
HETATM    2  O2  UNL     1       8.803 -40.527 -77.634  1.00  0.00    -0.305 OA
HETATM    3  C3  UNL     1       8.731 -41.522 -78.627  1.00  0.00     0.415 C 
HETATM    4  O4  UNL     1       9.214 -42.683 -78.012  1.00  0.00    -0.305 OA
HETATM    5  C4  UNL     1      10.574 -42.599 -77.861  1.00  0.00     0.304 C 
HETATM    6  C5  UNL     1      11.114 -41.227 -77.715  1.00  0.00     0.181 A 
HETATM    7  C6  UNL     1      12.366 -40.884 -78.405  1.00  0.00     0.217 A 
HETATM    8  O6  UNL     1      12.302 -41.056 -76.952  1.00  0.00    -0.364 OA
ENDROOT
BRANCH   1   9
HETATM    9  O1  UNL     1      10.266 -39.510 -76.259  1.00  0.00    -0.362 OA
HETATM   10  C1  UNL     1       9.070 -39.063 -75.724  1.00  0.00     0.204 C 
ENDBRANCH   1   9
BRANCH   3  11
HETATM   11  O3  UNL     1       7.420 -41.689 -79.034  1.00  0.00    -0.349 OA
ATOM     12  H3  UNL     1       7.053 -42.469 -78.636  1.00  0.00     0.215 HD
ENDBRANCH   3  11
BRANCH   5  13
HETATM   13  O5  UNL     1      11.161 -43.317 -78.925  1.00  0.00    -0.368 OA
ATOM     14  H5  UNL     1      10.466 -43.796 -79.360  1.00  0.00     0.212 HD
ENDBRANCH   5  13
TORSDOF 3
ENDMDL
