MODEL 1
REMARK VINA RESULT: -7.860717187      0.000      0.000
REMARK  7 active torsions:
REMARK  status: ('A' for Active; 'I' for Inactive)
REMARK    1  A    between atoms: O1_2  and  N1_3 
REMARK    2  A    between atoms: N1_3  and  C2_5 
REMARK    3  A    between atoms: C2_5  and  C3_6 
REMARK    4  A    between atoms: C2_5  and  C12_27 
REMARK    5  A    between atoms: C4_9  and  N3_10 
REMARK    6  A    between atoms: C6_16  and  C7_17 
REMARK    7  A    between atoms: C13_33  and  N10_34 
ROOT
HETATM    1  C3  UNL     1      -0.565   7.039 -34.174  1.00  0.00     0.140 A 
HETATM    2  N2  UNL     1       0.068   6.080 -34.849  1.00  0.00    -0.325 N 
ATOM      3  H2  UNL     1       0.278   6.240 -35.834  1.00  0.00     0.169 HD
HETATM    4  C4  UNL     1       0.439   4.925 -34.302  1.00  0.00     0.131 A 
HETATM    5  C5  UNL     1       0.180   4.652 -32.972  1.00  0.00     0.122 A 
HETATM    6  N4  UNL     1       0.399   3.637 -32.119  1.00  0.00    -0.339 N 
ATOM      7  H4  UNL     1       0.868   2.762 -32.356  1.00  0.00     0.167 HD
HETATM    8  C6  UNL     1      -0.090   3.945 -30.908  1.00  0.00     0.091 A 
HETATM    9  N6  UNL     1      -0.622   5.166 -30.999  1.00  0.00    -0.330 N 
ATOM     10  H6  UNL     1      -1.073   5.675 -30.240  1.00  0.00     0.168 HD
HETATM   11  C11 UNL     1      -0.464   5.615 -32.262  1.00  0.00     0.139 A 
HETATM   12  N7  UNL     1      -0.821   6.769 -32.851  1.00  0.00    -0.325 N 
ATOM     13  H7  UNL     1      -1.302   7.474 -32.293  1.00  0.00     0.169 HD
ENDROOT
BRANCH   1  14
HETATM   14  C2  UNL     1      -0.996   8.316 -34.700  1.00  0.00     0.131 C 
BRANCH  14  15
HETATM   15  N1  UNL     1      -1.927   9.001 -34.152  1.00  0.00    -0.261 N 
ATOM     16  H1  UNL     1      -1.672   9.147 -33.175  1.00  0.00     0.194 HD
BRANCH  15  17
HETATM   17  O1  UNL     1      -3.037   9.566 -34.350  1.00  0.00    -0.285 OA
HETATM   18  C1  UNL     1      -3.228  10.959 -34.503  1.00  0.00     0.237 C 
ENDBRANCH  15  17
ENDBRANCH  14  15
BRANCH  14  19
HETATM   19  C12 UNL     1      -0.446   8.972 -35.890  1.00  0.00     0.134 A 
HETATM   20  N8  UNL     1       0.838   9.482 -35.923  1.00  0.00    -0.236 N 
HETATM   21  O2  UNL     1       1.068  10.000 -37.077  1.00  0.00    -0.155 OA
ATOM     22  H8  UNL     1       1.503   9.453 -35.149  1.00  0.00     0.197 HD
HETATM   23  N9  UNL     1       0.040   9.883 -37.837  1.00  0.00    -0.224 N 
HETATM   24  C13 UNL     1      -0.937   9.235 -37.114  1.00  0.00     0.152 A 
ATOM     25  H9  UNL     1      -0.039  10.211 -38.800  1.00  0.00     0.198 HD
BRANCH  24  26
HETATM   26  N10 UNL     1      -2.088   8.977 -37.623  1.00  0.00    -0.382 N 
ATOM     27 2H10 UNL     1      -2.924   8.913 -37.042  1.00  0.00     0.157 HD
ATOM     28 1H10 UNL     1      -2.360   8.805 -38.591  1.00  0.00     0.157 HD
ENDBRANCH  24  26
ENDBRANCH  14  19
ENDBRANCH   1  14
BRANCH   4  29
HETATM   29  N3  UNL     1       1.053   4.016 -34.990  1.00  0.00    -0.383 N 
ATOM     30  H32 UNL     1       1.477   4.301 -35.873  1.00  0.00     0.157 HD
ATOM     31  H31 UNL     1       1.113   3.051 -34.666  1.00  0.00     0.157 HD
ENDBRANCH   4  29
BRANCH   8  32
HETATM   32  C7  UNL     1      -0.058   3.116 -29.705  1.00  0.00     0.110 C 
HETATM   33  C8  UNL     1       1.220   2.340 -29.465  1.00  0.00     0.285 C 
HETATM   34  N5  UNL     1       0.987   2.580 -28.031  1.00  0.00     0.085 N 
HETATM   35  C9  UNL     1       2.178   2.705 -27.245  1.00  0.00     0.309 C 
HETATM   36  C10 UNL     1       0.385   3.850 -28.435  1.00  0.00     0.285 C 
ENDBRANCH   8  32
TORSDOF 7
ENDMDL
MODEL 2
REMARK VINA RESULT: -7.837758596      1.809      2.221
REMARK  7 active torsions:
REMARK  status: ('A' for Active; 'I' for Inactive)
REMARK    1  A    between atoms: O1_2  and  N1_3 
REMARK    2  A    between atoms: N1_3  and  C2_5 
REMARK    3  A    between atoms: C2_5  and  C3_6 
REMARK    4  A    between atoms: C2_5  and  C12_27 
REMARK    5  A    between atoms: C4_9  and  N3_10 
REMARK    6  A    between atoms: C6_16  and  C7_17 
REMARK    7  A    between atoms: C13_33  and  N10_34 
ROOT
HETATM    1  C3  UNL     1      -1.325   7.010 -35.027  1.00  0.00     0.140 A 
HETATM    2  N2  UNL     1      -2.256   6.057 -35.006  1.00  0.00    -0.325 N 
ATOM      3  H2  UNL     1      -3.074   6.166 -35.605  1.00  0.00     0.169 HD
HETATM    4  C4  UNL     1      -2.172   4.969 -34.243  1.00  0.00     0.131 A 
HETATM    5  C5  UNL     1      -1.088   4.767 -33.410  1.00  0.00     0.122 A 
HETATM    6  N4  UNL     1      -0.684   3.828 -32.537  1.00  0.00    -0.339 N 
ATOM      7  H4  UNL     1      -1.198   2.976 -32.313  1.00  0.00     0.167 HD
HETATM    8  C6  UNL     1       0.496   4.179 -32.003  1.00  0.00     0.091 A 
HETATM    9  N6  UNL     1       0.839   5.349 -32.545  1.00  0.00    -0.330 N 
ATOM     10  H6  UNL     1       1.689   5.873 -32.338  1.00  0.00     0.168 HD
HETATM   11  C11 UNL     1      -0.125   5.725 -33.413  1.00  0.00     0.139 A 
HETATM   12  N7  UNL     1      -0.246   6.808 -34.199  1.00  0.00    -0.325 N 
ATOM     13  H7  UNL     1       0.494   7.510 -34.181  1.00  0.00     0.169 HD
ENDROOT
BRANCH   1  14
HETATM   14  C2  UNL     1      -1.348   8.214 -35.828  1.00  0.00     0.131 C 
BRANCH  14  15
HETATM   15  N1  UNL     1      -2.291   8.466 -36.654  1.00  0.00    -0.261 N 
ATOM     16  H1  UNL     1      -2.714   7.578 -36.925  1.00  0.00     0.194 HD
BRANCH  15  17
HETATM   17  O1  UNL     1      -2.902   9.386 -37.264  1.00  0.00    -0.285 OA
HETATM   18  C1  UNL     1      -4.250   9.330 -37.687  1.00  0.00     0.237 C 
ENDBRANCH  15  17
ENDBRANCH  14  15
BRANCH  14  19
HETATM   19  C12 UNL     1      -0.331   9.268 -35.802  1.00  0.00     0.134 A 
HETATM   20  N8  UNL     1       0.808   9.214 -36.584  1.00  0.00    -0.236 N 
HETATM   21  O2  UNL     1       1.528  10.258 -36.371  1.00  0.00    -0.155 OA
ATOM     22  H8  UNL     1       1.042   8.460 -37.230  1.00  0.00     0.197 HD
HETATM   23  N9  UNL     1       0.970  11.023 -35.505  1.00  0.00    -0.224 N 
HETATM   24  C13 UNL     1      -0.211  10.424 -35.125  1.00  0.00     0.152 A 
ATOM     25  H9  UNL     1       1.334  11.912 -35.161  1.00  0.00     0.198 HD
BRANCH  24  26
HETATM   26  N10 UNL     1      -0.990  10.967 -34.259  1.00  0.00    -0.382 N 
ATOM     27 2H10 UNL     1      -2.005  10.929 -34.359  1.00  0.00     0.157 HD
ATOM     28 1H10 UNL     1      -0.774  11.482 -33.406  1.00  0.00     0.157 HD
ENDBRANCH  24  26
ENDBRANCH  14  19
ENDBRANCH   1  14
BRANCH   4  29
HETATM   29  N3  UNL     1      -3.097   4.064 -34.250  1.00  0.00    -0.383 N 
ATOM     30  H32 UNL     1      -3.615   3.928 -35.118  1.00  0.00     0.157 HD
ATOM     31  H31 UNL     1      -3.304   3.505 -33.422  1.00  0.00     0.157 HD
ENDBRANCH   4  29
BRANCH   8  32
HETATM   32  C7  UNL     1       1.274   3.436 -31.015  1.00  0.00     0.110 C 
HETATM   33  C8  UNL     1       1.225   3.963 -29.596  1.00  0.00     0.285 C 
HETATM   34  N5  UNL     1       1.290   2.554 -29.169  1.00  0.00     0.085 N 
HETATM   35  C9  UNL     1       0.597   2.267 -27.949  1.00  0.00     0.309 C 
HETATM   36  C10 UNL     1       0.539   2.247 -30.386  1.00  0.00     0.285 C 
ENDBRANCH   8  32
TORSDOF 7
ENDMDL
MODEL 3
REMARK VINA RESULT: -7.704335300      1.466      1.826
REMARK  7 active torsions:
REMARK  status: ('A' for Active; 'I' for Inactive)
REMARK    1  A    between atoms: O1_2  and  N1_3 
REMARK    2  A    between atoms: N1_3  and  C2_5 
REMARK    3  A    between atoms: C2_5  and  C3_6 
REMARK    4  A    between atoms: C2_5  and  C12_27 
REMARK    5  A    between atoms: C4_9  and  N3_10 
REMARK    6  A    between atoms: C6_16  and  C7_17 
REMARK    7  A    between atoms: C13_33  and  N10_34 
ROOT
HETATM    1  C3  UNL     1      -0.643   7.052 -34.627  1.00  0.00     0.140 A 
HETATM    2  N2  UNL     1       0.082   5.991 -34.979  1.00  0.00    -0.325 N 
ATOM      3  H2  UNL     1       0.489   5.971 -35.914  1.00  0.00     0.169 HD
HETATM    4  C4  UNL     1       0.303   4.955 -34.172  1.00  0.00     0.131 A 
HETATM    5  C5  UNL     1      -0.223   4.925 -32.894  1.00  0.00     0.122 A 
HETATM    6  N4  UNL     1      -0.208   4.082 -31.848  1.00  0.00    -0.339 N 
ATOM      7  H4  UNL     1       0.271   3.182 -31.827  1.00  0.00     0.167 HD
HETATM    8  C6  UNL     1      -0.919   4.600 -30.834  1.00  0.00     0.091 A 
HETATM    9  N6  UNL     1      -1.385   5.781 -31.246  1.00  0.00    -0.330 N 
ATOM     10  H6  UNL     1      -1.963   6.416 -30.696  1.00  0.00     0.168 HD
HETATM   11  C11 UNL     1      -0.966   5.997 -32.511  1.00  0.00     0.139 A 
HETATM   12  N7  UNL     1      -1.165   7.023 -33.355  1.00  0.00    -0.325 N 
ATOM     13  H7  UNL     1      -1.726   7.814 -33.040  1.00  0.00     0.169 HD
ENDROOT
BRANCH   1  14
HETATM   14  C2  UNL     1      -0.923   8.209 -35.447  1.00  0.00     0.131 C 
BRANCH  14  15
HETATM   15  N1  UNL     1      -1.902   8.243 -36.270  1.00  0.00    -0.261 N 
ATOM     16  H1  UNL     1      -2.529   7.471 -36.040  1.00  0.00     0.194 HD
BRANCH  15  17
HETATM   17  O1  UNL     1      -2.393   8.858 -37.255  1.00  0.00    -0.285 OA
HETATM   18  C1  UNL     1      -3.687   9.426 -37.299  1.00  0.00     0.237 C 
ENDBRANCH  15  17
ENDBRANCH  14  15
BRANCH  14  19
HETATM   19  C12 UNL     1      -0.150   9.455 -35.448  1.00  0.00     0.134 A 
HETATM   20  N8  UNL     1       1.049   9.579 -36.124  1.00  0.00    -0.236 N 
HETATM   21  O2  UNL     1       1.516  10.766 -35.962  1.00  0.00    -0.155 OA
ATOM     22  H8  UNL     1       1.497   8.840 -36.668  1.00  0.00     0.197 HD
HETATM   23  N9  UNL     1       0.728  11.465 -35.228  1.00  0.00    -0.224 N 
HETATM   24  C13 UNL     1      -0.339  10.662 -34.886  1.00  0.00     0.152 A 
ATOM     25  H9  UNL     1       0.866  12.436 -34.949  1.00  0.00     0.198 HD
BRANCH  24  26
HETATM   26  N10 UNL     1      -1.296  11.098 -34.148  1.00  0.00    -0.382 N 
ATOM     27 2H10 UNL     1      -1.468  10.715 -33.219  1.00  0.00     0.157 HD
ATOM     28 1H10 UNL     1      -1.990  11.824 -34.326  1.00  0.00     0.157 HD
ENDBRANCH  24  26
ENDBRANCH  14  19
ENDBRANCH   1  14
BRANCH   4  29
HETATM   29  N3  UNL     1       1.013   3.942 -34.550  1.00  0.00    -0.383 N 
ATOM     30  H32 UNL     1       0.549   3.221 -35.103  1.00  0.00     0.157 HD
ATOM     31  H31 UNL     1       2.001   3.862 -34.307  1.00  0.00     0.157 HD
ENDBRANCH   4  29
BRANCH   8  32
HETATM   32  C7  UNL     1      -1.151   4.002 -29.521  1.00  0.00     0.110 C 
HETATM   33  C8  UNL     1      -1.261   2.492 -29.488  1.00  0.00     0.285 C 
HETATM   34  N5  UNL     1      -0.590   2.565 -28.179  1.00  0.00     0.085 N 
HETATM   35  C9  UNL     1       0.246   1.443 -27.872  1.00  0.00     0.309 C 
HETATM   36  C10 UNL     1       0.120   3.728 -28.711  1.00  0.00     0.285 C 
ENDBRANCH   8  32
TORSDOF 7
ENDMDL
MODEL 4
REMARK VINA RESULT: -7.630081671      1.608      2.460
REMARK  7 active torsions:
REMARK  status: ('A' for Active; 'I' for Inactive)
REMARK    1  A    between atoms: O1_2  and  N1_3 
REMARK    2  A    between atoms: N1_3  and  C2_5 
REMARK    3  A    between atoms: C2_5  and  C3_6 
REMARK    4  A    between atoms: C2_5  and  C12_27 
REMARK    5  A    between atoms: C4_9  and  N3_10 
REMARK    6  A    between atoms: C6_16  and  C7_17 
REMARK    7  A    between atoms: C13_33  and  N10_34 
ROOT
HETATM    1  C3  UNL     1      -1.086   7.347 -34.064  1.00  0.00     0.140 A 
HETATM    2  N2  UNL     1      -2.099   7.260 -33.203  1.00  0.00    -0.325 N 
ATOM      3  H2  UNL     1      -2.913   7.856 -33.351  1.00  0.00     0.169 HD
HETATM    4  C4  UNL     1      -2.101   6.433 -32.159  1.00  0.00     0.131 A 
HETATM    5  C5  UNL     1      -1.026   5.602 -31.907  1.00  0.00     0.122 A 
HETATM    6  N4  UNL     1      -0.694   4.679 -30.989  1.00  0.00    -0.339 N 
ATOM      7  H4  UNL     1      -1.279   4.399 -30.202  1.00  0.00     0.167 HD
HETATM    8  C6  UNL     1       0.522   4.180 -31.261  1.00  0.00     0.091 A 
HETATM    9  N6  UNL     1       0.960   4.795 -32.362  1.00  0.00    -0.330 N 
ATOM     10  H6  UNL     1       1.857   4.629 -32.818  1.00  0.00     0.168 HD
HETATM   11  C11 UNL     1       0.020   5.673 -32.773  1.00  0.00     0.139 A 
HETATM   12  N7  UNL     1      -0.017   6.520 -33.815  1.00  0.00    -0.325 N 
ATOM     13  H7  UNL     1       0.783   6.550 -34.448  1.00  0.00     0.169 HD
ENDROOT
BRANCH   1  14
HETATM   14  C2  UNL     1      -1.014   8.218 -35.217  1.00  0.00     0.131 C 
BRANCH  14  15
HETATM   15  N1  UNL     1      -1.713   8.017 -36.270  1.00  0.00    -0.261 N 
ATOM     16  H1  UNL     1      -1.896   7.016 -36.336  1.00  0.00     0.194 HD
BRANCH  15  17
HETATM   17  O1  UNL     1      -2.262   8.575 -37.258  1.00  0.00    -0.285 OA
HETATM   18  C1  UNL     1      -3.454   9.334 -37.207  1.00  0.00     0.237 C 
ENDBRANCH  15  17
ENDBRANCH  14  15
BRANCH  14  19
HETATM   19  C12 UNL     1      -0.162   9.405 -35.330  1.00  0.00     0.134 A 
HETATM   20  N8  UNL     1       1.027   9.395 -36.036  1.00  0.00    -0.236 N 
HETATM   21  O2  UNL     1       1.574  10.557 -35.978  1.00  0.00    -0.155 OA
ATOM     22  H8  UNL     1       1.412   8.588 -36.527  1.00  0.00     0.197 HD
HETATM   23  N9  UNL     1       0.851  11.362 -35.287  1.00  0.00    -0.224 N 
HETATM   24  C13 UNL     1      -0.257  10.662 -34.863  1.00  0.00     0.152 A 
ATOM     25  H9  UNL     1       1.059  12.341 -35.089  1.00  0.00     0.198 HD
BRANCH  24  26
HETATM   26  N10 UNL     1      -1.167  11.217 -34.145  1.00  0.00    -0.382 N 
ATOM     27 2H10 UNL     1      -2.084  11.443 -34.528  1.00  0.00     0.157 HD
ATOM     28 1H10 UNL     1      -1.152  11.508 -33.167  1.00  0.00     0.157 HD
ENDBRANCH  24  26
ENDBRANCH  14  19
ENDBRANCH   1  14
BRANCH   4  29
HETATM   29  N3  UNL     1      -3.104   6.376 -31.343  1.00  0.00    -0.383 N 
ATOM     30  H32 UNL     1      -3.867   5.741 -31.579  1.00  0.00     0.157 HD
ATOM     31  H31 UNL     1      -3.136   6.942 -30.496  1.00  0.00     0.157 HD
ENDBRANCH   4  29
BRANCH   8  32
HETATM   32  C7  UNL     1       1.246   3.159 -30.508  1.00  0.00     0.110 C 
HETATM   33  C8  UNL     1       1.354   3.384 -29.015  1.00  0.00     0.285 C 
HETATM   34  N5  UNL     1       1.249   1.921 -28.881  1.00  0.00     0.085 N 
HETATM   35  C9  UNL     1       0.595   1.476 -27.687  1.00  0.00     0.309 C 
HETATM   36  C10 UNL     1       0.392   1.966 -30.065  1.00  0.00     0.285 C 
ENDBRANCH   8  32
TORSDOF 7
ENDMDL
MODEL 5
REMARK VINA RESULT: -7.626448962      3.475      8.901
REMARK  7 active torsions:
REMARK  status: ('A' for Active; 'I' for Inactive)
REMARK    1  A    between atoms: O1_2  and  N1_3 
REMARK    2  A    between atoms: N1_3  and  C2_5 
REMARK    3  A    between atoms: C2_5  and  C3_6 
REMARK    4  A    between atoms: C2_5  and  C12_27 
REMARK    5  A    between atoms: C4_9  and  N3_10 
REMARK    6  A    between atoms: C6_16  and  C7_17 
REMARK    7  A    between atoms: C13_33  and  N10_34 
ROOT
HETATM    1  C3  UNL     1      -2.246   9.139 -34.682  1.00  0.00     0.140 A 
HETATM    2  N2  UNL     1      -2.664  10.094 -33.853  1.00  0.00    -0.325 N 
ATOM      3  H2  UNL     1      -2.164  10.225 -32.973  1.00  0.00     0.169 HD
HETATM    4  C4  UNL     1      -3.701  10.888 -34.114  1.00  0.00     0.131 A 
HETATM    5  C5  UNL     1      -4.418  10.757 -35.289  1.00  0.00     0.122 A 
HETATM    6  N4  UNL     1      -5.475  11.355 -35.864  1.00  0.00    -0.339 N 
ATOM      7  H4  UNL     1      -6.004  12.127 -35.458  1.00  0.00     0.167 HD
HETATM    8  C6  UNL     1      -5.730  10.787 -37.052  1.00  0.00     0.091 A 
HETATM    9  N6  UNL     1      -4.825   9.821 -37.227  1.00  0.00    -0.330 N 
ATOM     10  H6  UNL     1      -4.761   9.208 -38.040  1.00  0.00     0.168 HD
HETATM   11  C11 UNL     1      -4.010   9.790 -36.152  1.00  0.00     0.139 A 
HETATM   12  N7  UNL     1      -2.958   9.011 -35.851  1.00  0.00    -0.325 N 
ATOM     13  H7  UNL     1      -2.674   8.293 -36.519  1.00  0.00     0.169 HD
ENDROOT
BRANCH   1  14
HETATM   14  C2  UNL     1      -1.131   8.244 -34.466  1.00  0.00     0.131 C 
BRANCH  14  15
HETATM   15  N1  UNL     1      -1.154   7.327 -33.573  1.00  0.00    -0.261 N 
ATOM     16  H1  UNL     1      -2.131   7.123 -33.362  1.00  0.00     0.194 HD
BRANCH  15  17
HETATM   17  O1  UNL     1      -0.439   6.579 -32.853  1.00  0.00    -0.285 OA
HETATM   18  C1  UNL     1      -0.926   5.604 -31.953  1.00  0.00     0.237 C 
ENDBRANCH  15  17
ENDBRANCH  14  15
BRANCH  14  19
HETATM   19  C12 UNL     1       0.130   8.265 -35.212  1.00  0.00     0.134 A 
HETATM   20  N8  UNL     1       0.858   7.117 -35.463  1.00  0.00    -0.236 N 
HETATM   21  O2  UNL     1       1.915   7.413 -36.132  1.00  0.00    -0.155 OA
ATOM     22  H8  UNL     1       0.597   6.178 -35.162  1.00  0.00     0.197 HD
HETATM   23  N9  UNL     1       1.966   8.676 -36.360  1.00  0.00    -0.224 N 
HETATM   24  C13 UNL     1       0.848   9.244 -35.790  1.00  0.00     0.152 A 
ATOM     25  H9  UNL     1       2.701   9.168 -36.869  1.00  0.00     0.198 HD
BRANCH  24  26
HETATM   26  N10 UNL     1       0.630  10.508 -35.859  1.00  0.00    -0.382 N 
ATOM     27 2H10 UNL     1      -0.220  10.923 -35.477  1.00  0.00     0.157 HD
ATOM     28 1H10 UNL     1       1.195  11.256 -36.261  1.00  0.00     0.157 HD
ENDBRANCH  24  26
ENDBRANCH  14  19
ENDBRANCH   1  14
BRANCH   4  29
HETATM   29  N3  UNL     1      -4.078  11.805 -33.283  1.00  0.00    -0.383 N 
ATOM     30  H32 UNL     1      -4.850  12.409 -33.566  1.00  0.00     0.157 HD
ATOM     31  H31 UNL     1      -3.623  11.924 -32.377  1.00  0.00     0.157 HD
ENDBRANCH   4  29
BRANCH   8  32
HETATM   32  C7  UNL     1      -6.793  11.141 -37.991  1.00  0.00     0.110 C 
HETATM   33  C8  UNL     1      -8.210  10.972 -37.486  1.00  0.00     0.285 C 
HETATM   34  N5  UNL     1      -8.537  12.167 -38.283  1.00  0.00     0.085 N 
HETATM   35  C9  UNL     1      -9.578  12.984 -37.734  1.00  0.00     0.309 C 
HETATM   36  C10 UNL     1      -7.181  12.624 -37.986  1.00  0.00     0.285 C 
ENDBRANCH   8  32
TORSDOF 7
ENDMDL
