MODEL 1
REMARK VINA RESULT: -6.964467532      0.000      0.000
REMARK  3 active torsions:
REMARK  status: ('A' for Active; 'I' for Inactive)
REMARK    1  A    between atoms: C2_3  and  N2_4 
REMARK       I    between atoms: N2_4  and  C3_6 
REMARK    2  A    between atoms: C3_6  and  C4_8 
REMARK    3  A    between atoms: C4_8  and  N3_9 
ROOT
HETATM    1  N1  UNL     1      -2.581   2.320  16.261  1.00  0.00    -0.195 NA
HETATM    2  C1  UNL     1      -3.683   2.379  15.932  1.00  0.00     0.091 C 
HETATM    3  C2  UNL     1      -5.090   2.465  15.540  1.00  0.00     0.122 C 
HETATM    4  C7  UNL     1      -5.696   3.747  16.021  1.00  0.00     0.046 C 
HETATM    5  C8  UNL     1      -6.871   3.562  16.949  1.00  0.00     0.004 C 
HETATM    6  C9  UNL     1      -6.492   2.626  18.060  1.00  0.00     0.000 C 
HETATM    7  C10 UNL     1      -6.146   1.271  17.514  1.00  0.00     0.004 C 
HETATM    8  C11 UNL     1      -5.768   1.239  16.090  1.00  0.00     0.046 C 
ENDROOT
BRANCH   3   9
HETATM    9  N2  UNL     1      -5.276   2.427  14.093  1.00  0.00    -0.338 N 
HETATM   10  C3  UNL     1      -4.636   3.379  13.262  1.00  0.00     0.240 C 
HETATM   11  O1  UNL     1      -3.884   4.259  13.777  1.00  0.00    -0.272 OA
ATOM     12  H2  UNL     1      -5.870   1.710  13.677  1.00  0.00     0.164 HD
BRANCH  10  13
HETATM   13  C4  UNL     1      -4.836   3.366  11.796  1.00  0.00     0.272 C 
BRANCH  13  14
HETATM   14  N3  UNL     1      -4.477   2.110  11.177  1.00  0.00    -0.226 N 
HETATM   15  N4  UNL     1      -3.256   1.592  11.181  1.00  0.00    -0.294 N 
HETATM   16  C5  UNL     1      -3.213   0.422  10.539  1.00  0.00     0.127 A 
ATOM     17  H4  UNL     1      -2.449   2.034  11.621  1.00  0.00     0.187 HD
HETATM   18  C6  UNL     1      -4.507   0.210  10.108  1.00  0.00     0.127 A 
HETATM   19  N5  UNL     1      -5.237   1.262  10.519  1.00  0.00    -0.294 N 
ATOM     20  H5  UNL     1      -6.234   1.384  10.346  1.00  0.00     0.187 HD
ENDBRANCH  13  14
ENDBRANCH  10  13
ENDBRANCH   3   9
TORSDOF 3
ENDMDL
MODEL 2
REMARK VINA RESULT: -6.870381703      2.112      2.963
REMARK  3 active torsions:
REMARK  status: ('A' for Active; 'I' for Inactive)
REMARK    1  A    between atoms: C2_3  and  N2_4 
REMARK       I    between atoms: N2_4  and  C3_6 
REMARK    2  A    between atoms: C3_6  and  C4_8 
REMARK    3  A    between atoms: C4_8  and  N3_9 
ROOT
HETATM    1  N1  UNL     1      -6.015   2.739  17.739  1.00  0.00    -0.195 NA
HETATM    2  C1  UNL     1      -5.660   2.979  16.669  1.00  0.00     0.091 C 
HETATM    3  C2  UNL     1      -5.199   3.309  15.321  1.00  0.00     0.122 C 
HETATM    4  C7  UNL     1      -3.842   3.941  15.366  1.00  0.00     0.046 C 
HETATM    5  C8  UNL     1      -3.790   5.330  14.780  1.00  0.00     0.004 C 
HETATM    6  C9  UNL     1      -4.864   6.178  15.399  1.00  0.00     0.000 C 
HETATM    7  C10 UNL     1      -6.222   5.619  15.086  1.00  0.00     0.004 C 
HETATM    8  C11 UNL     1      -6.251   4.195  14.710  1.00  0.00     0.046 C 
ENDROOT
BRANCH   3   9
HETATM    9  N2  UNL     1      -5.091   2.137  14.459  1.00  0.00    -0.338 N 
HETATM   10  C3  UNL     1      -4.172   1.103  14.763  1.00  0.00     0.240 C 
HETATM   11  O1  UNL     1      -3.451   1.189  15.802  1.00  0.00    -0.272 OA
ATOM     12  H2  UNL     1      -5.682   2.062  13.630  1.00  0.00     0.164 HD
BRANCH  10  13
HETATM   13  C4  UNL     1      -4.037  -0.078  13.883  1.00  0.00     0.272 C 
BRANCH  13  14
HETATM   14  N3  UNL     1      -3.779   0.258  12.501  1.00  0.00    -0.226 N 
HETATM   15  N4  UNL     1      -2.809   1.065  12.093  1.00  0.00    -0.294 N 
HETATM   16  C5  UNL     1      -2.800   1.194  10.764  1.00  0.00     0.127 A 
ATOM     17  H4  UNL     1      -2.150   1.529  12.718  1.00  0.00     0.187 HD
HETATM   18  C6  UNL     1      -3.847   0.407  10.327  1.00  0.00     0.127 A 
HETATM   19  N5  UNL     1      -4.411  -0.139  11.419  1.00  0.00    -0.294 N 
ATOM     20  H5  UNL     1      -5.211  -0.771  11.409  1.00  0.00     0.187 HD
ENDBRANCH  13  14
ENDBRANCH  10  13
ENDBRANCH   3   9
TORSDOF 3
ENDMDL
MODEL 3
REMARK VINA RESULT: -6.804138276      2.373      5.963
REMARK  3 active torsions:
REMARK  status: ('A' for Active; 'I' for Inactive)
REMARK    1  A    between atoms: C2_3  and  N2_4 
REMARK       I    between atoms: N2_4  and  C3_6 
REMARK    2  A    between atoms: C3_6  and  C4_8 
REMARK    3  A    between atoms: C4_8  and  N3_9 
ROOT
HETATM    1  N1  UNL     1      -5.593   2.789  11.027  1.00  0.00    -0.195 NA
HETATM    2  C1  UNL     1      -4.601   2.727  11.609  1.00  0.00     0.091 C 
HETATM    3  C2  UNL     1      -3.328   2.666  12.329  1.00  0.00     0.122 C 
HETATM    4  C7  UNL     1      -2.675   4.014  12.363  1.00  0.00     0.046 C 
HETATM    5  C8  UNL     1      -1.310   4.052  11.722  1.00  0.00     0.004 C 
HETATM    6  C9  UNL     1      -1.384   3.459  10.344  1.00  0.00     0.000 C 
HETATM    7  C10 UNL     1      -1.798   2.018  10.412  1.00  0.00     0.004 C 
HETATM    8  C11 UNL     1      -2.495   1.615  11.645  1.00  0.00     0.046 C 
ENDROOT
BRANCH   3   9
HETATM    9  N2  UNL     1      -3.484   2.236  13.714  1.00  0.00    -0.338 N 
HETATM   10  C3  UNL     1      -4.137   1.017  14.018  1.00  0.00     0.240 C 
HETATM   11  O1  UNL     1      -4.574   0.286  13.079  1.00  0.00    -0.272 OA
ATOM     12  H2  UNL     1      -3.120   2.817  14.469  1.00  0.00     0.164 HD
BRANCH  10  13
HETATM   13  C4  UNL     1      -4.323   0.582  15.420  1.00  0.00     0.272 C 
BRANCH  13  14
HETATM   14  N3  UNL     1      -5.445   1.215  16.077  1.00  0.00    -0.226 N 
HETATM   15  N4  UNL     1      -6.040   0.746  17.165  1.00  0.00    -0.294 N 
HETATM   16  C5  UNL     1      -7.044   1.534  17.557  1.00  0.00     0.127 A 
ATOM     17  H4  UNL     1      -5.764  -0.110  17.644  1.00  0.00     0.187 HD
HETATM   18  C6  UNL     1      -7.065   2.562  16.636  1.00  0.00     0.127 A 
HETATM   19  N5  UNL     1      -6.076   2.323  15.757  1.00  0.00    -0.294 N 
ATOM     20  H5  UNL     1      -5.848   2.915  14.959  1.00  0.00     0.187 HD
ENDBRANCH  13  14
ENDBRANCH  10  13
ENDBRANCH   3   9
TORSDOF 3
ENDMDL
MODEL 4
REMARK VINA RESULT: -6.759119378      1.988      5.950
REMARK  3 active torsions:
REMARK  status: ('A' for Active; 'I' for Inactive)
REMARK    1  A    between atoms: C2_3  and  N2_4 
REMARK       I    between atoms: N2_4  and  C3_6 
REMARK    2  A    between atoms: C3_6  and  C4_8 
REMARK    3  A    between atoms: C4_8  and  N3_9 
ROOT
HETATM    1  N1  UNL     1      -3.077   4.255  10.105  1.00  0.00    -0.195 NA
HETATM    2  C1  UNL     1      -3.219   3.401  10.865  1.00  0.00     0.091 C 
HETATM    3  C2  UNL     1      -3.393   2.297  11.810  1.00  0.00     0.122 C 
HETATM    4  C7  UNL     1      -2.352   1.244  11.590  1.00  0.00     0.046 C 
HETATM    5  C8  UNL     1      -2.914  -0.114  11.248  1.00  0.00     0.004 C 
HETATM    6  C9  UNL     1      -3.883   0.015  10.108  1.00  0.00     0.000 C 
HETATM    7  C10 UNL     1      -5.042   0.884  10.497  1.00  0.00     0.004 C 
HETATM    8  C11 UNL     1      -4.800   1.794  11.630  1.00  0.00     0.046 C 
ENDROOT
BRANCH   3   9
HETATM    9  N2  UNL     1      -3.279   2.722  13.201  1.00  0.00    -0.338 N 
HETATM   10  C3  UNL     1      -3.891   1.971  14.234  1.00  0.00     0.240 C 
HETATM   11  O1  UNL     1      -4.527   0.912  13.949  1.00  0.00    -0.272 OA
ATOM     12  H2  UNL     1      -2.754   3.566  13.431  1.00  0.00     0.164 HD
BRANCH  10  13
HETATM   13  C4  UNL     1      -3.802   2.405  15.645  1.00  0.00     0.272 C 
BRANCH  13  14
HETATM   14  N3  UNL     1      -4.972   2.071  16.426  1.00  0.00    -0.226 N 
HETATM   15  N4  UNL     1      -5.288   0.845  16.818  1.00  0.00    -0.294 N 
HETATM   16  C5  UNL     1      -6.419   0.829  17.529  1.00  0.00     0.127 A 
ATOM     17  H4  UNL     1      -4.736   0.015  16.604  1.00  0.00     0.187 HD
HETATM   18  C6  UNL     1      -6.826   2.148  17.572  1.00  0.00     0.127 A 
HETATM   19  N5  UNL     1      -5.915   2.863  16.888  1.00  0.00    -0.294 N 
ATOM     20  H5  UNL     1      -5.950   3.872  16.748  1.00  0.00     0.187 HD
ENDBRANCH  13  14
ENDBRANCH  10  13
ENDBRANCH   3   9
TORSDOF 3
ENDMDL
MODEL 5
REMARK VINA RESULT: -6.652893367      2.109      5.916
REMARK  3 active torsions:
REMARK  status: ('A' for Active; 'I' for Inactive)
REMARK    1  A    between atoms: C2_3  and  N2_4 
REMARK       I    between atoms: N2_4  and  C3_6 
REMARK    2  A    between atoms: C3_6  and  C4_8 
REMARK    3  A    between atoms: C4_8  and  N3_9 
ROOT
HETATM    1  N1  UNL     1      -5.675   2.663  11.187  1.00  0.00    -0.195 NA
HETATM    2  C1  UNL     1      -4.649   2.589  11.706  1.00  0.00     0.091 C 
HETATM    3  C2  UNL     1      -3.335   2.512  12.345  1.00  0.00     0.122 C 
HETATM    4  C7  UNL     1      -2.678   3.858  12.365  1.00  0.00     0.046 C 
HETATM    5  C8  UNL     1      -1.355   3.907  11.643  1.00  0.00     0.004 C 
HETATM    6  C9  UNL     1      -1.515   3.341  10.260  1.00  0.00     0.000 C 
HETATM    7  C10 UNL     1      -1.927   1.899  10.326  1.00  0.00     0.004 C 
HETATM    8  C11 UNL     1      -2.549   1.474  11.591  1.00  0.00     0.046 C 
ENDROOT
BRANCH   3   9
HETATM    9  N2  UNL     1      -3.407   2.056  13.729  1.00  0.00    -0.338 N 
HETATM   10  C3  UNL     1      -3.955   2.890  14.733  1.00  0.00     0.240 C 
HETATM   11  O1  UNL     1      -4.403   4.035  14.424  1.00  0.00    -0.272 OA
ATOM     12  H2  UNL     1      -3.059   1.129  13.975  1.00  0.00     0.164 HD
BRANCH  10  13
HETATM   13  C4  UNL     1      -4.011   2.448  16.144  1.00  0.00     0.272 C 
BRANCH  13  14
HETATM   14  N3  UNL     1      -5.318   1.987  16.552  1.00  0.00    -0.226 N 
HETATM   15  N4  UNL     1      -6.460   2.570  16.213  1.00  0.00    -0.294 N 
HETATM   16  C5  UNL     1      -7.514   1.930  16.727  1.00  0.00     0.127 A 
ATOM     17  H4  UNL     1      -6.525   3.405  15.631  1.00  0.00     0.187 HD
HETATM   18  C6  UNL     1      -6.974   0.876  17.436  1.00  0.00     0.127 A 
HETATM   19  N5  UNL     1      -5.638   0.954  17.300  1.00  0.00    -0.294 N 
ATOM     20  H5  UNL     1      -4.970   0.305  17.716  1.00  0.00     0.187 HD
ENDBRANCH  13  14
ENDBRANCH  10  13
ENDBRANCH   3   9
TORSDOF 3
ENDMDL
