MODEL 1
REMARK VINA RESULT: -8.073034299      0.000      0.000
REMARK  3 active torsions:
REMARK  status: ('A' for Active; 'I' for Inactive)
REMARK    1  A    between atoms: C4_5  and  C5_6 
REMARK    2  A    between atoms: C5_6  and  C6_7 
REMARK    3  A    between atoms: C6_7  and  N2_8 
ROOT
HETATM    1  C1  UNL     1      -6.363   2.716  19.459  1.00  0.00     0.060 C 
HETATM    2  C2  UNL     1      -6.397   2.441  18.009  1.00  0.00     0.015 C 
HETATM    3  C3  UNL     1      -6.188   1.114  17.540  1.00  0.00     0.094 C 
HETATM    4  N1  UNL     1      -5.999   0.035  17.158  1.00  0.00    -0.192 NA
HETATM    5  C4  UNL     1      -6.620   3.427  17.179  1.00  0.00    -0.007 C 
ENDROOT
BRANCH   5   6
HETATM    6  C5  UNL     1      -6.652   3.141  15.721  1.00  0.00     0.048 C 
BRANCH   6   7
HETATM    7  C6  UNL     1      -5.269   3.230  15.105  1.00  0.00     0.142 C 
BRANCH   7   8
HETATM    8  N2  UNL     1      -4.861   1.912  14.721  1.00  0.00    -0.226 N 
HETATM    9  C7  UNL     1      -4.442   1.665  13.531  1.00  0.00     0.682 A 
HETATM   10  N3  UNL     1      -4.382   2.653  12.619  1.00  0.00    -0.166 N 
HETATM   11  N7  UNL     1      -4.059   0.421  13.174  1.00  0.00    -0.166 N 
HETATM   12  C8  UNL     1      -3.955   2.456  11.363  1.00  0.00     0.205 A 
ATOM     13  H3  UNL     1      -4.673   3.591  12.895  1.00  0.00     0.186 HD
HETATM   14  C9  UNL     1      -3.908   3.540  10.421  1.00  0.00     0.137 C 
HETATM   15  N5  UNL     1      -3.577   1.194  11.039  1.00  0.00    -0.310 N 
HETATM   16  N4  UNL     1      -3.876   4.415   9.637  1.00  0.00    -0.188 NA
HETATM   17  C10 UNL     1      -3.623   0.180  11.924  1.00  0.00     0.205 A 
ATOM     18  H5  UNL     1      -3.248   1.007  10.092  1.00  0.00     0.170 HD
HETATM   19  C11 UNL     1      -3.230  -1.155  11.604  1.00  0.00     0.137 C 
HETATM   20  N6  UNL     1      -2.915  -2.239  11.363  1.00  0.00    -0.188 NA
ATOM     21  H7  UNL     1      -4.099  -0.338  13.854  1.00  0.00     0.186 HD
ATOM     22  H2  UNL     1      -4.902   1.156  15.404  1.00  0.00     0.177 HD
ENDBRANCH   7   8
ENDBRANCH   6   7
ENDBRANCH   5   6
TORSDOF 3
ENDMDL
MODEL 2
REMARK VINA RESULT: -7.721510476      1.670      1.934
REMARK  3 active torsions:
REMARK  status: ('A' for Active; 'I' for Inactive)
REMARK    1  A    between atoms: C4_5  and  C5_6 
REMARK    2  A    between atoms: C5_6  and  C6_7 
REMARK    3  A    between atoms: C6_7  and  N2_8 
ROOT
HETATM    1  C1  UNL     1      -7.164   1.681  17.018  1.00  0.00     0.060 C 
HETATM    2  C2  UNL     1      -6.036   2.333  16.326  1.00  0.00     0.015 C 
HETATM    3  C3  UNL     1      -4.748   1.733  16.360  1.00  0.00     0.094 C 
HETATM    4  N1  UNL     1      -3.693   1.252  16.405  1.00  0.00    -0.192 NA
HETATM    5  C4  UNL     1      -6.245   3.457  15.689  1.00  0.00    -0.007 C 
ENDROOT
BRANCH   5   6
HETATM    6  C5  UNL     1      -5.104   4.107  14.994  1.00  0.00     0.048 C 
BRANCH   6   7
HETATM    7  C6  UNL     1      -5.157   3.873  13.496  1.00  0.00     0.142 C 
BRANCH   7   8
HETATM    8  N2  UNL     1      -5.096   2.462  13.258  1.00  0.00    -0.226 N 
HETATM    9  C7  UNL     1      -4.117   1.938  12.612  1.00  0.00     0.682 A 
HETATM   10  N3  UNL     1      -3.124   2.716  12.145  1.00  0.00    -0.166 N 
HETATM   11  N7  UNL     1      -4.065   0.607  12.390  1.00  0.00    -0.166 N 
HETATM   12  C8  UNL     1      -2.077   2.226  11.465  1.00  0.00     0.205 A 
ATOM     13  H3  UNL     1      -3.168   3.721  12.316  1.00  0.00     0.186 HD
HETATM   14  C9  UNL     1      -1.038   3.094  10.984  1.00  0.00     0.137 C 
HETATM   15  N5  UNL     1      -2.057   0.885  11.260  1.00  0.00    -0.310 N 
HETATM   16  N4  UNL     1      -0.188   3.794  10.573  1.00  0.00    -0.188 NA
HETATM   17  C10 UNL     1      -3.032   0.074  11.712  1.00  0.00     0.205 A 
ATOM     18  H5  UNL     1      -1.276   0.478  10.745  1.00  0.00     0.170 HD
HETATM   19  C11 UNL     1      -3.030  -1.339  11.508  1.00  0.00     0.137 C 
HETATM   20  N6  UNL     1      -3.044  -2.484  11.354  1.00  0.00    -0.188 NA
ATOM     21  H7  UNL     1      -4.811   0.004  12.738  1.00  0.00     0.186 HD
ATOM     22  H2  UNL     1      -5.844   1.863  13.607  1.00  0.00     0.177 HD
ENDBRANCH   7   8
ENDBRANCH   6   7
ENDBRANCH   5   6
TORSDOF 3
ENDMDL
MODEL 3
REMARK VINA RESULT: -7.526271061      2.110      3.534
REMARK  3 active torsions:
REMARK  status: ('A' for Active; 'I' for Inactive)
REMARK    1  A    between atoms: C4_5  and  C5_6 
REMARK    2  A    between atoms: C5_6  and  C6_7 
REMARK    3  A    between atoms: C6_7  and  N2_8 
ROOT
HETATM    1  C1  UNL     1      -6.665   1.202  17.256  1.00  0.00     0.060 C 
HETATM    2  C2  UNL     1      -5.762   2.094  16.504  1.00  0.00     0.015 C 
HETATM    3  C3  UNL     1      -4.409   1.710  16.294  1.00  0.00     0.094 C 
HETATM    4  N1  UNL     1      -3.300   1.405  16.140  1.00  0.00    -0.192 NA
HETATM    5  C4  UNL     1      -6.225   3.227  16.042  1.00  0.00    -0.007 C 
ENDROOT
BRANCH   5   6
HETATM    6  C5  UNL     1      -5.309   4.119  15.287  1.00  0.00     0.048 C 
BRANCH   6   7
HETATM    7  C6  UNL     1      -5.337   3.817  13.801  1.00  0.00     0.142 C 
BRANCH   7   8
HETATM    8  N2  UNL     1      -4.126   4.311  13.217  1.00  0.00    -0.226 N 
HETATM    9  C7  UNL     1      -3.332   3.534  12.572  1.00  0.00     0.682 A 
HETATM   10  N3  UNL     1      -3.631   2.229  12.434  1.00  0.00    -0.166 N 
HETATM   11  N7  UNL     1      -2.192   4.006  12.023  1.00  0.00    -0.166 N 
HETATM   12  C8  UNL     1      -2.842   1.370  11.772  1.00  0.00     0.205 A 
ATOM     13  H3  UNL     1      -4.494   1.878  12.850  1.00  0.00     0.186 HD
HETATM   14  C9  UNL     1      -3.199  -0.016  11.650  1.00  0.00     0.137 C 
HETATM   15  N5  UNL     1      -1.704   1.877  11.234  1.00  0.00    -0.310 N 
HETATM   16  N4  UNL     1      -3.473  -1.155  11.553  1.00  0.00    -0.188 NA
HETATM   17  C10 UNL     1      -1.372   3.177  11.350  1.00  0.00     0.205 A 
ATOM     18  H5  UNL     1      -1.080   1.253  10.724  1.00  0.00     0.170 HD
HETATM   19  C11 UNL     1      -0.181   3.732  10.792  1.00  0.00     0.137 C 
HETATM   20  N6  UNL     1       0.777   4.198  10.345  1.00  0.00    -0.188 NA
ATOM     21  H7  UNL     1      -1.952   4.992  12.119  1.00  0.00     0.186 HD
ATOM     22  H2  UNL     1      -3.889   5.299  13.315  1.00  0.00     0.177 HD
ENDBRANCH   7   8
ENDBRANCH   6   7
ENDBRANCH   5   6
TORSDOF 3
ENDMDL
MODEL 4
REMARK VINA RESULT: -7.197293943      2.456      4.571
REMARK  3 active torsions:
REMARK  status: ('A' for Active; 'I' for Inactive)
REMARK    1  A    between atoms: C4_5  and  C5_6 
REMARK    2  A    between atoms: C5_6  and  C6_7 
REMARK    3  A    between atoms: C6_7  and  N2_8 
ROOT
HETATM    1  C1  UNL     1      -6.339   5.770  15.157  1.00  0.00     0.060 C 
HETATM    2  C2  UNL     1      -5.106   5.907  14.359  1.00  0.00     0.015 C 
HETATM    3  C3  UNL     1      -5.188   5.953  12.940  1.00  0.00     0.094 C 
HETATM    4  N1  UNL     1      -5.255   5.971  11.782  1.00  0.00    -0.192 NA
HETATM    5  C4  UNL     1      -3.954   5.985  14.975  1.00  0.00    -0.007 C 
ENDROOT
BRANCH   5   6
HETATM    6  C5  UNL     1      -2.717   6.123  14.164  1.00  0.00     0.048 C 
BRANCH   6   7
HETATM    7  C6  UNL     1      -1.881   4.859  14.204  1.00  0.00     0.142 C 
BRANCH   7   8
HETATM    8  N2  UNL     1      -2.080   4.147  12.977  1.00  0.00    -0.226 N 
HETATM    9  C7  UNL     1      -2.798   3.083  12.934  1.00  0.00     0.682 A 
HETATM   10  N3  UNL     1      -3.380   2.616  14.054  1.00  0.00    -0.166 N 
HETATM   11  N7  UNL     1      -2.983   2.416  11.774  1.00  0.00    -0.166 N 
HETATM   12  C8  UNL     1      -4.140   1.511  14.071  1.00  0.00     0.205 A 
ATOM     13  H3  UNL     1      -3.238   3.124  14.927  1.00  0.00     0.186 HD
HETATM   14  C9  UNL     1      -4.742   1.048  15.290  1.00  0.00     0.137 C 
HETATM   15  N5  UNL     1      -4.304   0.866  12.889  1.00  0.00    -0.310 N 
HETATM   16  N4  UNL     1      -5.230   0.651  16.283  1.00  0.00    -0.188 NA
HETATM   17  C10 UNL     1      -3.739   1.302  11.747  1.00  0.00     0.205 A 
ATOM     18  H5  UNL     1      -4.876   0.021  12.864  1.00  0.00     0.170 HD
HETATM   19  C11 UNL     1      -3.898   0.640  10.493  1.00  0.00     0.137 C 
HETATM   20  N6  UNL     1      -4.019   0.117   9.470  1.00  0.00    -0.188 NA
ATOM     21  H7  UNL     1      -2.548   2.757  10.917  1.00  0.00     0.186 HD
ATOM     22  H2  UNL     1      -1.644   4.491  12.122  1.00  0.00     0.177 HD
ENDBRANCH   7   8
ENDBRANCH   6   7
ENDBRANCH   5   6
TORSDOF 3
ENDMDL
MODEL 5
REMARK VINA RESULT: -7.176267522      2.124      3.504
REMARK  3 active torsions:
REMARK  status: ('A' for Active; 'I' for Inactive)
REMARK    1  A    between atoms: C4_5  and  C5_6 
REMARK    2  A    between atoms: C5_6  and  C6_7 
REMARK    3  A    between atoms: C6_7  and  N2_8 
ROOT
HETATM    1  C1  UNL     1      -6.714   3.499  16.514  1.00  0.00     0.060 C 
HETATM    2  C2  UNL     1      -5.875   2.369  16.071  1.00  0.00     0.015 C 
HETATM    3  C3  UNL     1      -5.962   1.121  16.748  1.00  0.00     0.094 C 
HETATM    4  N1  UNL     1      -6.020   0.109  17.312  1.00  0.00    -0.192 NA
HETATM    5  C4  UNL     1      -5.063   2.537  15.059  1.00  0.00    -0.007 C 
ENDROOT
BRANCH   5   6
HETATM    6  C5  UNL     1      -4.223   1.394  14.619  1.00  0.00     0.048 C 
BRANCH   6   7
HETATM    7  C6  UNL     1      -4.255   1.225  13.113  1.00  0.00     0.142 C 
BRANCH   7   8
HETATM    8  N2  UNL     1      -2.940   1.471  12.603  1.00  0.00    -0.226 N 
HETATM    9  C7  UNL     1      -2.695   2.486  11.854  1.00  0.00     0.682 A 
HETATM   10  N3  UNL     1      -3.683   3.342  11.535  1.00  0.00    -0.166 N 
HETATM   11  N7  UNL     1      -1.453   2.714  11.376  1.00  0.00    -0.166 N 
HETATM   12  C8  UNL     1      -3.488   4.418  10.758  1.00  0.00     0.205 A 
ATOM     13  H3  UNL     1      -4.619   3.166  11.899  1.00  0.00     0.186 HD
HETATM   14  C9  UNL     1      -4.572   5.306  10.441  1.00  0.00     0.137 C 
HETATM   15  N5  UNL     1      -2.228   4.616  10.295  1.00  0.00    -0.310 N 
HETATM   16  N4  UNL     1      -5.453   6.033  10.164  1.00  0.00    -0.188 NA
HETATM   17  C10 UNL     1      -1.214   3.782  10.593  1.00  0.00     0.205 A 
ATOM     18  H5  UNL     1      -2.043   5.424   9.700  1.00  0.00     0.170 HD
HETATM   19  C11 UNL     1       0.119   3.971  10.118  1.00  0.00     0.137 C 
HETATM   20  N6  UNL     1       1.203   4.110   9.743  1.00  0.00    -0.188 NA
ATOM     21  H7  UNL     1      -0.693   2.074  11.609  1.00  0.00     0.186 HD
ATOM     22  H2  UNL     1      -2.183   0.829  12.838  1.00  0.00     0.177 HD
ENDBRANCH   7   8
ENDBRANCH   6   7
ENDBRANCH   5   6
TORSDOF 3
ENDMDL
