MODEL 1
REMARK VINA RESULT: -6.529913794      0.000      0.000
REMARK  2 active torsions:
REMARK  status: ('A' for Active; 'I' for Inactive)
REMARK    1  A    between atoms: C2_2  and  C4_4 
REMARK    2  A    between atoms: N2_14  and  O1_15 
ROOT
HETATM    1  C4  UNL     1      -4.045   2.899  13.425  1.00  0.00     0.011 C 
HETATM    2  N1  UNL     1      -3.113   3.487  12.768  1.00  0.00    -0.394 N 
ATOM      3  H1  UNL     1      -2.943   3.161  11.816  1.00  0.00     0.159 HD
HETATM    4  C5  UNL     1      -2.301   4.540  13.236  1.00  0.00     0.119 C 
HETATM    5  C6  UNL     1      -3.058   5.303  14.329  1.00  0.00     0.022 C 
HETATM    6  C7  UNL     1      -3.472   4.269  15.336  1.00  0.00     0.035 C 
HETATM    7  C8  UNL     1      -4.425   3.238  14.805  1.00  0.00     0.076 C 
HETATM    8  C9  UNL     1      -5.825   3.810  14.872  1.00  0.00     0.035 C 
HETATM    9  C10 UNL     1      -6.430   3.260  16.117  1.00  0.00     0.019 C 
HETATM   10  C11 UNL     1      -5.410   2.324  16.705  1.00  0.00     0.122 C 
HETATM   11  N2  UNL     1      -4.391   2.125  15.728  1.00  0.00    -0.184 NA
ENDROOT
BRANCH   1  12
HETATM   12  C2  UNL     1      -4.762   1.805  12.696  1.00  0.00     0.025 C 
HETATM   13  C1  UNL     1      -3.881   0.573  12.633  1.00  0.00     0.016 C 
HETATM   14  C3  UNL     1      -5.095   2.189  11.279  1.00  0.00     0.016 C 
ENDBRANCH   1  12
BRANCH  11  15
HETATM   15  O1  UNL     1      -3.206   1.981  16.351  1.00  0.00    -0.312 OA
ATOM     16  H1  UNL     1      -3.111   1.148  16.799  1.00  0.00     0.237 HD
ENDBRANCH  11  15
TORSDOF 2
ENDMDL
MODEL 2
REMARK VINA RESULT: -6.123896448      1.706      3.780
REMARK  2 active torsions:
REMARK  status: ('A' for Active; 'I' for Inactive)
REMARK    1  A    between atoms: C2_2  and  C4_4 
REMARK    2  A    between atoms: N2_14  and  O1_15 
ROOT
HETATM    1  C4  UNL     1      -5.417   2.128  15.750  1.00  0.00     0.011 C 
HETATM    2  N1  UNL     1      -5.102   0.902  15.546  1.00  0.00    -0.394 N 
ATOM      3  H1  UNL     1      -5.449   0.217  16.219  1.00  0.00     0.159 HD
HETATM    4  C5  UNL     1      -4.320   0.409  14.481  1.00  0.00     0.119 C 
HETATM    5  C6  UNL     1      -4.435   1.373  13.294  1.00  0.00     0.022 C 
HETATM    6  C7  UNL     1      -4.071   2.727  13.830  1.00  0.00     0.035 C 
HETATM    7  C8  UNL     1      -5.006   3.244  14.885  1.00  0.00     0.076 C 
HETATM    8  C9  UNL     1      -6.193   3.880  14.193  1.00  0.00     0.035 C 
HETATM    9  C10 UNL     1      -5.919   5.343  14.176  1.00  0.00     0.019 C 
HETATM   10  C11 UNL     1      -4.627   5.540  14.921  1.00  0.00     0.122 C 
HETATM   11  N2  UNL     1      -4.310   4.311  15.570  1.00  0.00    -0.184 NA
ENDROOT
BRANCH   1  12
HETATM   12  C2  UNL     1      -6.261   2.388  16.960  1.00  0.00     0.025 C 
HETATM   13  C1  UNL     1      -5.552   1.870  18.196  1.00  0.00     0.016 C 
HETATM   14  C3  UNL     1      -7.593   1.691  16.885  1.00  0.00     0.016 C 
ENDBRANCH   1  12
BRANCH  11  15
HETATM   15  O1  UNL     1      -2.973   4.155  15.589  1.00  0.00    -0.312 OA
ATOM     16  H1  UNL     1      -2.619   4.020  16.461  1.00  0.00     0.237 HD
ENDBRANCH  11  15
TORSDOF 2
ENDMDL
MODEL 3
REMARK VINA RESULT: -6.102090014      1.963      3.221
REMARK  2 active torsions:
REMARK  status: ('A' for Active; 'I' for Inactive)
REMARK    1  A    between atoms: C2_2  and  C4_4 
REMARK    2  A    between atoms: N2_14  and  O1_15 
ROOT
HETATM    1  C4  UNL     1      -4.206   2.397  13.383  1.00  0.00     0.011 C 
HETATM    2  N1  UNL     1      -4.259   1.258  13.972  1.00  0.00    -0.394 N 
ATOM      3  H1  UNL     1      -4.079   0.434  13.400  1.00  0.00     0.159 HD
HETATM    4  C5  UNL     1      -4.543   1.038  15.336  1.00  0.00     0.119 C 
HETATM    5  C6  UNL     1      -4.153   2.290  16.132  1.00  0.00     0.022 C 
HETATM    6  C7  UNL     1      -4.864   3.434  15.469  1.00  0.00     0.035 C 
HETATM    7  C8  UNL     1      -4.438   3.687  14.052  1.00  0.00     0.076 C 
HETATM    8  C9  UNL     1      -3.183   4.533  14.080  1.00  0.00     0.035 C 
HETATM    9  C10 UNL     1      -3.632   5.934  13.855  1.00  0.00     0.019 C 
HETATM   10  C11 UNL     1      -5.116   5.870  13.622  1.00  0.00     0.122 C 
HETATM   11  N2  UNL     1      -5.469   4.500  13.446  1.00  0.00    -0.184 NA
ENDROOT
BRANCH   1  12
HETATM   12  C2  UNL     1      -3.883   2.357  11.922  1.00  0.00     0.025 C 
HETATM   13  C1  UNL     1      -5.040   1.738  11.161  1.00  0.00     0.016 C 
HETATM   14  C3  UNL     1      -2.663   1.524  11.631  1.00  0.00     0.016 C 
ENDBRANCH   1  12
BRANCH  11  15
HETATM   15  O1  UNL     1      -6.693   4.290  13.965  1.00  0.00    -0.312 OA
ATOM     16  H1  UNL     1      -7.117   3.507  13.633  1.00  0.00     0.237 HD
ENDBRANCH  11  15
TORSDOF 2
ENDMDL
MODEL 4
REMARK VINA RESULT: -5.949288322      2.308      4.215
REMARK  2 active torsions:
REMARK  status: ('A' for Active; 'I' for Inactive)
REMARK    1  A    between atoms: C2_2  and  C4_4 
REMARK    2  A    between atoms: N2_14  and  O1_15 
ROOT
HETATM    1  C4  UNL     1      -3.839   2.996  13.169  1.00  0.00     0.011 C 
HETATM    2  N1  UNL     1      -3.051   3.982  13.402  1.00  0.00    -0.394 N 
ATOM      3  H1  UNL     1      -3.205   4.501  14.267  1.00  0.00     0.159 HD
HETATM    4  C5  UNL     1      -1.994   4.416  12.577  1.00  0.00     0.119 C 
HETATM    5  C6  UNL     1      -1.503   3.232  11.736  1.00  0.00     0.022 C 
HETATM    6  C7  UNL     1      -2.720   2.689  11.045  1.00  0.00     0.035 C 
HETATM    7  C8  UNL     1      -3.763   2.140  11.975  1.00  0.00     0.076 C 
HETATM    8  C9  UNL     1      -3.378   0.720  12.332  1.00  0.00     0.035 C 
HETATM    9  C10 UNL     1      -4.179  -0.157  11.435  1.00  0.00     0.019 C 
HETATM   10  C11 UNL     1      -5.067   0.756  10.635  1.00  0.00     0.122 C 
HETATM   11  N2  UNL     1      -4.992   2.054  11.218  1.00  0.00    -0.184 NA
ENDROOT
BRANCH   1  12
HETATM   12  C2  UNL     1      -4.885   2.741  14.210  1.00  0.00     0.025 C 
HETATM   13  C1  UNL     1      -5.853   3.908  14.255  1.00  0.00     0.016 C 
HETATM   14  C3  UNL     1      -4.295   2.598  15.587  1.00  0.00     0.016 C 
ENDBRANCH   1  12
BRANCH  11  15
HETATM   15  O1  UNL     1      -5.090   2.981  10.246  1.00  0.00    -0.312 OA
ATOM     16  H1  UNL     1      -5.874   2.895   9.716  1.00  0.00     0.237 HD
ENDBRANCH  11  15
TORSDOF 2
ENDMDL
MODEL 5
REMARK VINA RESULT: -5.553356144      1.984      4.542
REMARK  2 active torsions:
REMARK  status: ('A' for Active; 'I' for Inactive)
REMARK    1  A    between atoms: C2_2  and  C4_4 
REMARK    2  A    between atoms: N2_14  and  O1_15 
ROOT
HETATM    1  C4  UNL     1      -4.055   2.776  13.273  1.00  0.00     0.011 C 
HETATM    2  N1  UNL     1      -4.383   1.657  13.810  1.00  0.00    -0.394 N 
ATOM      3  H1  UNL     1      -4.838   1.699  14.722  1.00  0.00     0.159 HD
HETATM    4  C5  UNL     1      -4.175   0.377  13.258  1.00  0.00     0.119 C 
HETATM    5  C6  UNL     1      -4.110   0.498  11.731  1.00  0.00     0.022 C 
HETATM    6  C7  UNL     1      -3.061   1.535  11.449  1.00  0.00     0.035 C 
HETATM    7  C8  UNL     1      -3.393   2.904  11.966  1.00  0.00     0.076 C 
HETATM    8  C9  UNL     1      -4.288   3.588  10.954  1.00  0.00     0.035 C 
HETATM    9  C10 UNL     1      -3.395   4.462  10.145  1.00  0.00     0.019 C 
HETATM   10  C11 UNL     1      -2.022   4.334  10.746  1.00  0.00     0.122 C 
HETATM   11  N2  UNL     1      -2.155   3.651  11.990  1.00  0.00    -0.184 NA
ENDROOT
BRANCH   1  12
HETATM   12  C2  UNL     1      -4.389   4.000  14.069  1.00  0.00     0.025 C 
HETATM   13  C1  UNL     1      -3.659   3.958  15.398  1.00  0.00     0.016 C 
HETATM   14  C3  UNL     1      -5.860   4.098  14.372  1.00  0.00     0.016 C 
ENDBRANCH   1  12
BRANCH  11  15
HETATM   15  O1  UNL     1      -1.068   2.882  12.189  1.00  0.00    -0.312 OA
ATOM     16  H1  UNL     1      -0.833   2.354  11.435  1.00  0.00     0.237 HD
ENDBRANCH  11  15
TORSDOF 2
ENDMDL
