MODEL 1
REMARK VINA RESULT: -7.162388181      0.000      0.000
REMARK  3 active torsions:
REMARK  status: ('A' for Active; 'I' for Inactive)
REMARK    1  A    between atoms: C9_9  and  N1_10 
REMARK       I    between atoms: N1_10  and  C10_12 
REMARK    2  A    between atoms: C10_12  and  C11_14 
REMARK    3  A    between atoms: C11_14  and  N2_15 
ROOT
HETATM    1  N1  UNL     1      -4.680   2.891  13.497  1.00  0.00    -0.354 N 
ATOM      2  H1  UNL     1      -5.581   2.705  13.058  1.00  0.00     0.162 HD
HETATM    3  C10 UNL     1      -4.653   3.396  14.809  1.00  0.00     0.237 C 
HETATM    4  O1  UNL     1      -3.564   3.636  15.371  1.00  0.00    -0.272 OA
ENDROOT
BRANCH   1   5
HETATM    5  C9  UNL     1      -3.451   2.622  12.741  1.00  0.00     0.092 C 
HETATM    6  C2  UNL     1      -3.604   1.418  11.886  1.00  0.00    -0.027 C 
HETATM    7  C1  UNL     1      -4.647   1.584  10.799  1.00  0.00     0.017 C 
HETATM    8  C3  UNL     1      -4.035   0.252  12.766  1.00  0.00     0.017 C 
HETATM    9  C4  UNL     1      -2.233   1.062  11.320  1.00  0.00     0.011 C 
HETATM   10  C5  UNL     1      -1.696   2.135  10.404  1.00  0.00     0.001 C 
HETATM   11  C6  UNL     1      -0.840   3.137  11.091  1.00  0.00     0.000 C 
HETATM   12  C7  UNL     1      -1.581   4.018  12.060  1.00  0.00     0.002 C 
HETATM   13  C8  UNL     1      -3.070   3.870  11.944  1.00  0.00     0.026 C 
ENDBRANCH   1   5
BRANCH   3  14
HETATM   14  C11 UNL     1      -5.908   3.650  15.535  1.00  0.00     0.254 C 
BRANCH  14  15
HETATM   15  N2  UNL     1      -6.133   2.529  16.427  1.00  0.00    -0.262 N 
HETATM   16  C12 UNL     1      -7.360   2.096  16.833  1.00  0.00     0.220 A 
HETATM   17  N3  UNL     1      -7.144   1.065  17.624  1.00  0.00    -0.279 N 
HETATM   18  N4  UNL     1      -5.844   0.852  17.715  1.00  0.00    -0.227 N 
ATOM     19  H3  UNL     1      -7.866   0.518  18.092  1.00  0.00     0.189 HD
HETATM   20  N5  UNL     1      -5.237   1.757  16.975  1.00  0.00    -0.225 N 
ATOM     21  H4  UNL     1      -5.391   0.120  18.261  1.00  0.00     0.210 HD
ATOM     22  H5  UNL     1      -4.228   1.840  16.851  1.00  0.00     0.210 HD
ENDBRANCH  14  15
ENDBRANCH   3  14
TORSDOF 3
ENDMDL
MODEL 2
REMARK VINA RESULT: -6.769413255      2.896      5.914
REMARK  3 active torsions:
REMARK  status: ('A' for Active; 'I' for Inactive)
REMARK    1  A    between atoms: C9_9  and  N1_10 
REMARK       I    between atoms: N1_10  and  C10_12 
REMARK    2  A    between atoms: C10_12  and  C11_14 
REMARK    3  A    between atoms: C11_14  and  N2_15 
ROOT
HETATM    1  N1  UNL     1      -4.042   3.249  13.231  1.00  0.00    -0.354 N 
ATOM      2  H1  UNL     1      -3.069   3.471  13.441  1.00  0.00     0.162 HD
HETATM    3  C10 UNL     1      -4.448   3.168  11.887  1.00  0.00     0.237 C 
HETATM    4  O1  UNL     1      -5.633   2.902  11.600  1.00  0.00    -0.272 OA
ENDROOT
BRANCH   1   5
HETATM    5  C9  UNL     1      -4.975   3.022  14.341  1.00  0.00     0.092 C 
HETATM    6  C2  UNL     1      -4.508   1.915  15.212  1.00  0.00    -0.027 C 
HETATM    7  C1  UNL     1      -3.203   2.220  15.919  1.00  0.00     0.017 C 
HETATM    8  C3  UNL     1      -4.290   0.680  14.349  1.00  0.00     0.017 C 
HETATM    9  C4  UNL     1      -5.628   1.578  16.191  1.00  0.00     0.011 C 
HETATM   10  C5  UNL     1      -5.932   2.722  17.128  1.00  0.00     0.001 C 
HETATM   11  C6  UNL     1      -7.009   3.625  16.644  1.00  0.00     0.000 C 
HETATM   12  C7  UNL     1      -6.639   4.424  15.425  1.00  0.00     0.002 C 
HETATM   13  C8  UNL     1      -5.176   4.332  15.102  1.00  0.00     0.026 C 
ENDBRANCH   1   5
BRANCH   3  14
HETATM   14  C11 UNL     1      -3.480   3.401  10.802  1.00  0.00     0.254 C 
BRANCH  14  15
HETATM   15  N2  UNL     1      -2.194   3.674  11.414  1.00  0.00    -0.262 N 
HETATM   16  C12 UNL     1      -1.764   4.909  11.797  1.00  0.00     0.220 A 
HETATM   17  N3  UNL     1      -0.562   4.740  12.308  1.00  0.00    -0.279 N 
HETATM   18  N4  UNL     1      -0.243   3.459  12.253  1.00  0.00    -0.227 N 
ATOM     19  H3  UNL     1       0.030   5.480  12.686  1.00  0.00     0.189 HD
HETATM   20  N5  UNL     1      -1.254   2.818  11.704  1.00  0.00    -0.225 N 
ATOM     21  H4  UNL     1       0.628   3.042  12.578  1.00  0.00     0.210 HD
ATOM     22  H5  UNL     1      -1.294   1.813  11.533  1.00  0.00     0.210 HD
ENDBRANCH  14  15
ENDBRANCH   3  14
TORSDOF 3
ENDMDL
MODEL 3
REMARK VINA RESULT: -6.407427344      3.129      6.253
REMARK  3 active torsions:
REMARK  status: ('A' for Active; 'I' for Inactive)
REMARK    1  A    between atoms: C9_9  and  N1_10 
REMARK       I    between atoms: N1_10  and  C10_12 
REMARK    2  A    between atoms: C10_12  and  C11_14 
REMARK    3  A    between atoms: C11_14  and  N2_15 
ROOT
HETATM    1  N1  UNL     1      -3.943   4.460  14.420  1.00  0.00    -0.354 N 
ATOM      2  H1  UNL     1      -4.421   4.981  13.686  1.00  0.00     0.162 HD
HETATM    3  C10 UNL     1      -2.537   4.448  14.441  1.00  0.00     0.237 C 
HETATM    4  O1  UNL     1      -1.924   3.815  15.326  1.00  0.00    -0.272 OA
ENDROOT
BRANCH   1   5
HETATM    5  C9  UNL     1      -4.743   3.747  15.423  1.00  0.00     0.092 C 
HETATM    6  C2  UNL     1      -6.120   4.296  15.495  1.00  0.00    -0.027 C 
HETATM    7  C1  UNL     1      -6.912   4.094  14.218  1.00  0.00     0.017 C 
HETATM    8  C3  UNL     1      -6.031   5.794  15.751  1.00  0.00     0.017 C 
HETATM    9  C4  UNL     1      -6.814   3.680  16.705  1.00  0.00     0.011 C 
HETATM   10  C5  UNL     1      -6.986   2.187  16.567  1.00  0.00     0.001 C 
HETATM   11  C6  UNL     1      -5.873   1.397  17.157  1.00  0.00     0.000 C 
HETATM   12  C7  UNL     1      -4.565   1.541  16.428  1.00  0.00     0.002 C 
HETATM   13  C8  UNL     1      -4.716   2.251  15.114  1.00  0.00     0.026 C 
ENDBRANCH   1   5
BRANCH   3  14
HETATM   14  C11 UNL     1      -1.771   5.177  13.418  1.00  0.00     0.254 C 
BRANCH  14  15
HETATM   15  N2  UNL     1      -1.352   4.216  12.416  1.00  0.00    -0.262 N 
HETATM   16  C12 UNL     1      -0.445   4.469  11.431  1.00  0.00     0.220 A 
HETATM   17  N3  UNL     1      -0.334   3.354  10.737  1.00  0.00    -0.279 N 
HETATM   18  N4  UNL     1      -1.130   2.437  11.257  1.00  0.00    -0.227 N 
ATOM     19  H3  UNL     1       0.272   3.220   9.927  1.00  0.00     0.189 HD
HETATM   20  N5  UNL     1      -1.747   2.980  12.286  1.00  0.00    -0.225 N 
ATOM     21  H4  UNL     1      -1.247   1.482  10.922  1.00  0.00     0.210 HD
ATOM     22  H5  UNL     1      -2.425   2.509  12.885  1.00  0.00     0.210 HD
ENDBRANCH  14  15
ENDBRANCH   3  14
TORSDOF 3
ENDMDL
MODEL 4
REMARK VINA RESULT: -6.378209977      1.316      1.739
REMARK  3 active torsions:
REMARK  status: ('A' for Active; 'I' for Inactive)
REMARK    1  A    between atoms: C9_9  and  N1_10 
REMARK       I    between atoms: N1_10  and  C10_12 
REMARK    2  A    between atoms: C10_12  and  C11_14 
REMARK    3  A    between atoms: C11_14  and  N2_15 
ROOT
HETATM    1  N1  UNL     1      -4.333   1.670  13.753  1.00  0.00    -0.354 N 
ATOM      2  H1  UNL     1      -5.274   1.495  13.401  1.00  0.00     0.162 HD
HETATM    3  C10 UNL     1      -4.120   1.697  15.143  1.00  0.00     0.237 C 
HETATM    4  O1  UNL     1      -2.979   1.912  15.602  1.00  0.00    -0.272 OA
ENDROOT
BRANCH   1   5
HETATM    5  C9  UNL     1      -3.243   1.884  12.794  1.00  0.00     0.092 C 
HETATM    6  C2  UNL     1      -3.445   1.074  11.567  1.00  0.00    -0.027 C 
HETATM    7  C1  UNL     1      -4.678   1.476  10.781  1.00  0.00     0.017 C 
HETATM    8  C3  UNL     1      -3.611  -0.384  11.972  1.00  0.00     0.017 C 
HETATM    9  C4  UNL     1      -2.175   1.159  10.727  1.00  0.00     0.011 C 
HETATM   10  C5  UNL     1      -1.904   2.561  10.239  1.00  0.00     0.001 C 
HETATM   11  C6  UNL     1      -1.025   3.352  11.140  1.00  0.00     0.000 C 
HETATM   12  C7  UNL     1      -1.650   3.691  12.466  1.00  0.00     0.002 C 
HETATM   13  C8  UNL     1      -3.118   3.380  12.503  1.00  0.00     0.026 C 
ENDBRANCH   1   5
BRANCH   3  14
HETATM   14  C11 UNL     1      -5.240   1.476  16.072  1.00  0.00     0.254 C 
BRANCH  14  15
HETATM   15  N2  UNL     1      -5.931   2.740  16.234  1.00  0.00    -0.262 N 
HETATM   16  C12 UNL     1      -6.901   2.980  17.161  1.00  0.00     0.220 A 
HETATM   17  N3  UNL     1      -7.271   4.233  16.992  1.00  0.00    -0.279 N 
HETATM   18  N4  UNL     1      -6.569   4.764  16.007  1.00  0.00    -0.227 N 
ATOM     19  H3  UNL     1      -7.985   4.717  17.535  1.00  0.00     0.189 HD
HETATM   20  N5  UNL     1      -5.752   3.837  15.553  1.00  0.00    -0.225 N 
ATOM     21  H4  UNL     1      -6.647   5.720  15.660  1.00  0.00     0.210 HD
ATOM     22  H5  UNL     1      -5.085   3.959  14.790  1.00  0.00     0.210 HD
ENDBRANCH  14  15
ENDBRANCH   3  14
TORSDOF 3
ENDMDL
MODEL 5
REMARK VINA RESULT: -6.213859291      2.917      6.124
REMARK  3 active torsions:
REMARK  status: ('A' for Active; 'I' for Inactive)
REMARK    1  A    between atoms: C9_9  and  N1_10 
REMARK       I    between atoms: N1_10  and  C10_12 
REMARK    2  A    between atoms: C10_12  and  C11_14 
REMARK    3  A    between atoms: C11_14  and  N2_15 
ROOT
HETATM    1  N1  UNL     1      -3.206   2.922  13.227  1.00  0.00    -0.354 N 
ATOM      2  H1  UNL     1      -2.284   2.880  13.660  1.00  0.00     0.162 HD
HETATM    3  C10 UNL     1      -3.306   2.856  11.827  1.00  0.00     0.237 C 
HETATM    4  O1  UNL     1      -4.423   2.909  11.270  1.00  0.00    -0.272 OA
ENDROOT
BRANCH   1   5
HETATM    5  C9  UNL     1      -4.389   3.049  14.088  1.00  0.00     0.092 C 
HETATM    6  C2  UNL     1      -4.416   1.980  15.117  1.00  0.00    -0.027 C 
HETATM    7  C1  UNL     1      -3.266   2.068  16.101  1.00  0.00     0.017 C 
HETATM    8  C3  UNL     1      -4.324   0.631  14.417  1.00  0.00     0.017 C 
HETATM    9  C4  UNL     1      -5.773   2.026  15.813  1.00  0.00     0.011 C 
HETATM   10  C5  UNL     1      -5.985   3.315  16.569  1.00  0.00     0.001 C 
HETATM   11  C6  UNL     1      -6.670   4.371  15.778  1.00  0.00     0.000 C 
HETATM   12  C7  UNL     1      -5.852   4.911  14.637  1.00  0.00     0.002 C 
HETATM   13  C8  UNL     1      -4.424   4.453  14.689  1.00  0.00     0.026 C 
ENDBRANCH   1   5
BRANCH   3  14
HETATM   14  C11 UNL     1      -2.095   2.728  10.999  1.00  0.00     0.254 C 
BRANCH  14  15
HETATM   15  N2  UNL     1      -1.198   3.806  11.366  1.00  0.00    -0.262 N 
HETATM   16  C12 UNL     1      -1.389   5.117  11.045  1.00  0.00     0.220 A 
HETATM   17  N3  UNL     1      -0.369   5.774  11.557  1.00  0.00    -0.279 N 
HETATM   18  N4  UNL     1       0.430   4.924  12.175  1.00  0.00    -0.227 N 
ATOM     19  H3  UNL     1      -0.220   6.781  11.488  1.00  0.00     0.189 HD
HETATM   20  N5  UNL     1      -0.091   3.721  12.050  1.00  0.00    -0.225 N 
ATOM     21  H4  UNL     1       1.296   5.156  12.661  1.00  0.00     0.210 HD
ATOM     22  H5  UNL     1       0.307   2.862  12.428  1.00  0.00     0.210 HD
ENDBRANCH  14  15
ENDBRANCH   3  14
TORSDOF 3
ENDMDL
