MODEL 1
REMARK VINA RESULT: -7.098228109      0.000      0.000
REMARK  5 active torsions:
REMARK  status: ('A' for Active; 'I' for Inactive)
REMARK    1  A    between atoms: C1_2  and  C2_3 
REMARK    2  A    between atoms: C1_2  and  C9_11 
REMARK    3  A    between atoms: C2_3  and  N1_4 
REMARK    4  A    between atoms: C11_14  and  N2_15 
REMARK    5  A    between atoms: N2_15  and  O2_17 
ROOT
HETATM    1  C9  UNL     1      -3.959   0.191  12.722  1.00  0.00     0.089 A 
HETATM    2  C10 UNL     1      -4.343   0.824  11.553  1.00  0.00     0.086 A 
HETATM    3  S1  UNL     1      -3.787  -0.261  10.360  1.00  0.00    -0.062 SA
HETATM    4  C11 UNL     1      -3.107  -1.442  11.385  1.00  0.00     0.169 A 
HETATM    5  N3  UNL     1      -3.342  -0.944  12.584  1.00  0.00    -0.332 N 
ATOM      6  H3  UNL     1      -3.036  -1.455  13.412  1.00  0.00     0.168 HD
ENDROOT
BRANCH   1   7
HETATM    7  C1  UNL     1      -4.242   0.786  14.046  1.00  0.00     0.204 C 
HETATM    8  O1  UNL     1      -4.725   0.076  14.940  1.00  0.00    -0.289 OA
BRANCH   7   9
HETATM    9  C2  UNL     1      -3.947   2.193  14.276  1.00  0.00     0.357 C 
BRANCH   9  10
HETATM   10  N1  UNL     1      -4.996   2.978  14.847  1.00  0.00     0.095 N 
HETATM   11  C3  UNL     1      -5.018   2.892  16.302  1.00  0.00     0.273 C 
HETATM   12  C4  UNL     1      -6.420   2.733  16.791  1.00  0.00     0.030 C 
HETATM   13  C5  UNL     1      -7.213   3.988  16.855  1.00  0.00     0.002 C 
HETATM   14  C6  UNL     1      -6.591   5.164  16.158  1.00  0.00     0.002 C 
HETATM   15  C7  UNL     1      -6.375   4.906  14.678  1.00  0.00     0.030 C 
HETATM   16  C8  UNL     1      -4.943   4.383  14.535  1.00  0.00     0.273 C 
ENDBRANCH   9  10
ENDBRANCH   7   9
ENDBRANCH   1   7
BRANCH   4  17
HETATM   17  N2  UNL     1      -2.498  -2.572  11.072  1.00  0.00    -0.247 N 
ATOM     18  H2  UNL     1      -1.586  -2.591  10.616  1.00  0.00     0.196 HD
BRANCH  17  19
HETATM   19  O2  UNL     1      -3.178  -3.719  11.404  1.00  0.00    -0.288 OA
ATOM     20  H2  UNL     1      -3.504  -4.225  10.670  1.00  0.00     0.244 HD
ENDBRANCH  17  19
ENDBRANCH   4  17
TORSDOF 5
ENDMDL
MODEL 2
REMARK VINA RESULT: -6.936391753      3.305      5.904
REMARK  5 active torsions:
REMARK  status: ('A' for Active; 'I' for Inactive)
REMARK    1  A    between atoms: C1_2  and  C2_3 
REMARK    2  A    between atoms: C1_2  and  C9_11 
REMARK    3  A    between atoms: C2_3  and  N1_4 
REMARK    4  A    between atoms: C11_14  and  N2_15 
REMARK    5  A    between atoms: N2_15  and  O2_17 
ROOT
HETATM    1  C9  UNL     1      -4.454   3.352  15.439  1.00  0.00     0.089 A 
HETATM    2  C10 UNL     1      -5.655   4.030  15.323  1.00  0.00     0.086 A 
HETATM    3  S1  UNL     1      -6.639   3.210  16.450  1.00  0.00    -0.062 SA
HETATM    4  C11 UNL     1      -5.498   2.069  17.003  1.00  0.00     0.169 A 
HETATM    5  N3  UNL     1      -4.427   2.376  16.296  1.00  0.00    -0.332 N 
ATOM      6  H3  UNL     1      -3.568   1.841  16.424  1.00  0.00     0.168 HD
ENDROOT
BRANCH   1   7
HETATM    7  C1  UNL     1      -3.278   3.729  14.626  1.00  0.00     0.204 C 
HETATM    8  O1  UNL     1      -2.212   4.010  15.194  1.00  0.00    -0.289 OA
BRANCH   7   9
HETATM    9  C2  UNL     1      -3.391   3.763  13.176  1.00  0.00     0.357 C 
BRANCH   9  10
HETATM   10  N1  UNL     1      -3.168   2.529  12.490  1.00  0.00     0.095 N 
HETATM   11  C3  UNL     1      -4.403   1.785  12.281  1.00  0.00     0.273 C 
HETATM   12  C4  UNL     1      -4.195   0.337  12.584  1.00  0.00     0.030 C 
HETATM   13  C5  UNL     1      -3.542  -0.446  11.504  1.00  0.00     0.002 C 
HETATM   14  C6  UNL     1      -2.938   0.378  10.403  1.00  0.00     0.002 C 
HETATM   15  C7  UNL     1      -1.865   1.320  10.914  1.00  0.00     0.030 C 
HETATM   16  C8  UNL     1      -2.559   2.656  11.192  1.00  0.00     0.273 C 
ENDBRANCH   9  10
ENDBRANCH   7   9
ENDBRANCH   1   7
BRANCH   4  17
HETATM   17  N2  UNL     1      -5.638   1.116  17.906  1.00  0.00    -0.247 N 
ATOM     18  H2  UNL     1      -5.542   1.294  18.906  1.00  0.00     0.196 HD
BRANCH  17  19
HETATM   19  O2  UNL     1      -5.922  -0.132  17.407  1.00  0.00    -0.288 OA
ATOM     20  H2  UNL     1      -6.718  -0.532  17.737  1.00  0.00     0.244 HD
ENDBRANCH  17  19
ENDBRANCH   4  17
TORSDOF 5
ENDMDL
MODEL 3
REMARK VINA RESULT: -6.860003853      1.655      2.267
REMARK  5 active torsions:
REMARK  status: ('A' for Active; 'I' for Inactive)
REMARK    1  A    between atoms: C1_2  and  C2_3 
REMARK    2  A    between atoms: C1_2  and  C9_11 
REMARK    3  A    between atoms: C2_3  and  N1_4 
REMARK    4  A    between atoms: C11_14  and  N2_15 
REMARK    5  A    between atoms: N2_15  and  O2_17 
ROOT
HETATM    1  C9  UNL     1      -4.076   1.973  12.364  1.00  0.00     0.089 A 
HETATM    2  C10 UNL     1      -4.679   2.217  11.143  1.00  0.00     0.086 A 
HETATM    3  S1  UNL     1      -4.771   0.652  10.470  1.00  0.00    -0.062 SA
HETATM    4  C11 UNL     1      -4.053  -0.219  11.749  1.00  0.00     0.169 A 
HETATM    5  N3  UNL     1      -3.782   0.733  12.621  1.00  0.00    -0.332 N 
ATOM      6  H3  UNL     1      -3.336   0.494  13.507  1.00  0.00     0.168 HD
ENDROOT
BRANCH   1   7
HETATM    7  C1  UNL     1      -3.788   3.071  13.312  1.00  0.00     0.204 C 
HETATM    8  O1  UNL     1      -2.612   3.399  13.521  1.00  0.00    -0.289 OA
BRANCH   7   9
HETATM    9  C2  UNL     1      -4.891   3.745  13.982  1.00  0.00     0.357 C 
BRANCH   9  10
HETATM   10  N1  UNL     1      -5.480   3.058  15.088  1.00  0.00     0.095 N 
HETATM   11  C3  UNL     1      -4.478   2.515  15.995  1.00  0.00     0.273 C 
HETATM   12  C4  UNL     1      -4.848   1.126  16.406  1.00  0.00     0.030 C 
HETATM   13  C5  UNL     1      -5.869   1.037  17.481  1.00  0.00     0.002 C 
HETATM   14  C6  UNL     1      -6.576   2.326  17.790  1.00  0.00     0.002 C 
HETATM   15  C7  UNL     1      -7.316   2.877  16.586  1.00  0.00     0.030 C 
HETATM   16  C8  UNL     1      -6.359   3.858  15.902  1.00  0.00     0.273 C 
ENDBRANCH   9  10
ENDBRANCH   7   9
ENDBRANCH   1   7
BRANCH   4  17
HETATM   17  N2  UNL     1      -3.822  -1.515  11.852  1.00  0.00    -0.247 N 
ATOM     18  H2  UNL     1      -4.538  -2.173  12.159  1.00  0.00     0.196 HD
BRANCH  17  19
HETATM   19  O2  UNL     1      -2.551  -1.915  11.518  1.00  0.00    -0.288 OA
ATOM     20  H2  UNL     1      -2.439  -2.849  11.390  1.00  0.00     0.244 HD
ENDBRANCH  17  19
ENDBRANCH   4  17
TORSDOF 5
ENDMDL
MODEL 4
REMARK VINA RESULT: -6.725646914      2.866      3.360
REMARK  5 active torsions:
REMARK  status: ('A' for Active; 'I' for Inactive)
REMARK    1  A    between atoms: C1_2  and  C2_3 
REMARK    2  A    between atoms: C1_2  and  C9_11 
REMARK    3  A    between atoms: C2_3  and  N1_4 
REMARK    4  A    between atoms: C11_14  and  N2_15 
REMARK    5  A    between atoms: N2_15  and  O2_17 
ROOT
HETATM    1  C9  UNL     1      -3.638   2.114  12.342  1.00  0.00     0.089 A 
HETATM    2  C10 UNL     1      -4.543   2.768  11.525  1.00  0.00     0.086 A 
HETATM    3  S1  UNL     1      -3.541   3.868  10.691  1.00  0.00    -0.062 SA
HETATM    4  C11 UNL     1      -2.050   3.451  11.407  1.00  0.00     0.169 A 
HETATM    5  N3  UNL     1      -2.399   2.493  12.245  1.00  0.00    -0.332 N 
ATOM      6  H3  UNL     1      -1.688   2.045  12.823  1.00  0.00     0.168 HD
ENDROOT
BRANCH   1   7
HETATM    7  C1  UNL     1      -4.071   1.046  13.268  1.00  0.00     0.204 C 
HETATM    8  O1  UNL     1      -4.478  -0.030  12.807  1.00  0.00    -0.289 OA
BRANCH   7   9
HETATM    9  C2  UNL     1      -4.013   1.277  14.704  1.00  0.00     0.357 C 
BRANCH   9  10
HETATM   10  N1  UNL     1      -5.119   1.972  15.283  1.00  0.00     0.095 N 
HETATM   11  C3  UNL     1      -5.320   1.618  16.682  1.00  0.00     0.273 C 
HETATM   12  C4  UNL     1      -6.773   1.412  16.962  1.00  0.00     0.030 C 
HETATM   13  C5  UNL     1      -7.560   2.656  17.165  1.00  0.00     0.002 C 
HETATM   14  C6  UNL     1      -6.849   3.922  16.781  1.00  0.00     0.002 C 
HETATM   15  C7  UNL     1      -6.455   3.937  15.316  1.00  0.00     0.030 C 
HETATM   16  C8  UNL     1      -5.019   3.408  15.249  1.00  0.00     0.273 C 
ENDBRANCH   9  10
ENDBRANCH   7   9
ENDBRANCH   1   7
BRANCH   4  17
HETATM   17  N2  UNL     1      -0.848   3.950  11.188  1.00  0.00    -0.247 N 
ATOM     18  H2  UNL     1      -0.634   4.516  10.366  1.00  0.00     0.196 HD
BRANCH  17  19
HETATM   19  O2  UNL     1       0.095   3.656  12.142  1.00  0.00    -0.288 OA
ATOM     20  H2  UNL     1       0.963   4.007  11.980  1.00  0.00     0.244 HD
ENDBRANCH  17  19
ENDBRANCH   4  17
TORSDOF 5
ENDMDL
MODEL 5
REMARK VINA RESULT: -6.644661148      3.299      5.872
REMARK  5 active torsions:
REMARK  status: ('A' for Active; 'I' for Inactive)
REMARK    1  A    between atoms: C1_2  and  C2_3 
REMARK    2  A    between atoms: C1_2  and  C9_11 
REMARK    3  A    between atoms: C2_3  and  N1_4 
REMARK    4  A    between atoms: C11_14  and  N2_15 
REMARK    5  A    between atoms: N2_15  and  O2_17 
ROOT
HETATM    1  C9  UNL     1      -3.957   3.766  14.783  1.00  0.00     0.089 A 
HETATM    2  C10 UNL     1      -5.110   4.487  14.529  1.00  0.00     0.086 A 
HETATM    3  S1  UNL     1      -6.244   3.718  15.544  1.00  0.00    -0.062 SA
HETATM    4  C11 UNL     1      -5.217   2.540  16.228  1.00  0.00     0.169 A 
HETATM    5  N3  UNL     1      -4.063   2.798  15.644  1.00  0.00    -0.332 N 
ATOM      6  H3  UNL     1      -3.245   2.233  15.870  1.00  0.00     0.168 HD
ENDROOT
BRANCH   1   7
HETATM    7  C1  UNL     1      -2.683   4.089  14.104  1.00  0.00     0.204 C 
HETATM    8  O1  UNL     1      -1.698   4.410  14.783  1.00  0.00    -0.289 OA
BRANCH   7   9
HETATM    9  C2  UNL     1      -2.610   4.023  12.652  1.00  0.00     0.357 C 
BRANCH   9  10
HETATM   10  N1  UNL     1      -3.005   2.789  12.049  1.00  0.00     0.095 N 
HETATM   11  C3  UNL     1      -4.058   2.973  11.060  1.00  0.00     0.273 C 
HETATM   12  C4  UNL     1      -5.103   1.916  11.211  1.00  0.00     0.030 C 
HETATM   13  C5  UNL     1      -4.765   0.602  10.606  1.00  0.00     0.002 C 
HETATM   14  C6  UNL     1      -3.330   0.449  10.190  1.00  0.00     0.002 C 
HETATM   15  C7  UNL     1      -2.374   0.605  11.358  1.00  0.00     0.030 C 
HETATM   16  C8  UNL     1      -1.950   2.076  11.376  1.00  0.00     0.273 C 
ENDBRANCH   9  10
ENDBRANCH   7   9
ENDBRANCH   1   7
BRANCH   4  17
HETATM   17  N2  UNL     1      -5.494   1.603  17.117  1.00  0.00    -0.247 N 
ATOM     18  H2  UNL     1      -5.639   1.814  18.105  1.00  0.00     0.196 HD
BRANCH  17  19
HETATM   19  O2  UNL     1      -5.575   0.325  16.620  1.00  0.00    -0.288 OA
ATOM     20  H2  UNL     1      -4.935  -0.287  16.963  1.00  0.00     0.244 HD
ENDBRANCH  17  19
ENDBRANCH   4  17
TORSDOF 5
ENDMDL
