MODEL 1
REMARK VINA RESULT: -7.484091567      0.000      0.000
REMARK  3 active torsions:
REMARK  status: ('A' for Active; 'I' for Inactive)
REMARK    1  A    between atoms: O1_2  and  C2_3 
REMARK    2  A    between atoms: C2_3  and  C5_7 
REMARK       I    between atoms: C5_7  and  N2_9 
REMARK    3  A    between atoms: N2_9  and  C6_11 
ROOT
HETATM    1  C2  UNL     1      -3.627   1.471  11.856  1.00  0.00     0.225 C 
HETATM    2  C3  UNL     1      -3.841   0.177  11.102  1.00  0.00     0.073 C 
HETATM    3  C4  UNL     1      -4.192   2.556  11.022  1.00  0.00     0.107 C 
HETATM    4  N1  UNL     1      -4.639   3.417  10.387  1.00  0.00    -0.193 NA
ENDROOT
BRANCH   1   5
HETATM    5  O1  UNL     1      -2.277   1.700  11.989  1.00  0.00    -0.362 OA
HETATM    6  C1  UNL     1      -1.571   1.599  10.817  1.00  0.00     0.204 C 
ENDBRANCH   1   5
BRANCH   1   7
HETATM    7  C5  UNL     1      -4.321   1.478  13.162  1.00  0.00     0.267 C 
HETATM    8  O2  UNL     1      -4.537   0.374  13.711  1.00  0.00    -0.269 OA
HETATM    9  N2  UNL     1      -4.728   2.661  13.775  1.00  0.00    -0.353 N 
ATOM     10  H2  UNL     1      -4.530   3.536  13.289  1.00  0.00     0.163 HD
BRANCH   9  11
HETATM   11  C6  UNL     1      -5.412   2.745  15.051  1.00  0.00     0.084 C 
HETATM   12  C7  UNL     1      -4.542   2.408  16.216  1.00  0.00     0.025 C 
HETATM   13  C8  UNL     1      -5.264   1.667  17.307  1.00  0.00     0.002 C 
HETATM   14  C9  UNL     1      -6.242   2.493  18.060  1.00  0.00     0.000 C 
HETATM   15  C10 UNL     1      -7.148   3.325  17.186  1.00  0.00     0.000 C 
HETATM   16  C11 UNL     1      -6.459   4.475  16.542  1.00  0.00     0.002 C 
HETATM   17  C12 UNL     1      -5.865   4.180  15.202  1.00  0.00     0.025 C 
ENDBRANCH   9  11
ENDBRANCH   1   7
TORSDOF 3
ENDMDL
MODEL 2
REMARK VINA RESULT: -7.013863207      1.246      1.501
REMARK  3 active torsions:
REMARK  status: ('A' for Active; 'I' for Inactive)
REMARK    1  A    between atoms: O1_2  and  C2_3 
REMARK    2  A    between atoms: C2_3  and  C5_7 
REMARK       I    between atoms: C5_7  and  N2_9 
REMARK    3  A    between atoms: N2_9  and  C6_11 
ROOT
HETATM    1  C2  UNL     1      -3.583   0.571  11.962  1.00  0.00     0.225 C 
HETATM    2  C3  UNL     1      -4.503   0.525  10.762  1.00  0.00     0.073 C 
HETATM    3  C4  UNL     1      -2.623   1.673  11.730  1.00  0.00     0.107 C 
HETATM    4  N1  UNL     1      -1.871   2.541  11.569  1.00  0.00    -0.193 NA
ENDROOT
BRANCH   1   5
HETATM    5  O1  UNL     1      -2.868  -0.603  12.030  1.00  0.00    -0.362 OA
HETATM    6  C1  UNL     1      -3.292  -1.572  11.157  1.00  0.00     0.204 C 
ENDBRANCH   1   5
BRANCH   1   7
HETATM    7  C5  UNL     1      -4.314   0.847  13.217  1.00  0.00     0.267 C 
HETATM    8  O2  UNL     1      -4.714  -0.134  13.885  1.00  0.00    -0.269 OA
HETATM    9  N2  UNL     1      -4.560   2.145  13.659  1.00  0.00    -0.353 N 
ATOM     10  H2  UNL     1      -4.215   2.912  13.081  1.00  0.00     0.163 HD
BRANCH   9  11
HETATM   11  C6  UNL     1      -5.268   2.491  14.875  1.00  0.00     0.084 C 
HETATM   12  C7  UNL     1      -4.461   2.285  16.113  1.00  0.00     0.025 C 
HETATM   13  C8  UNL     1      -5.271   1.792  17.281  1.00  0.00     0.002 C 
HETATM   14  C9  UNL     1      -6.197   2.804  17.850  1.00  0.00     0.000 C 
HETATM   15  C10 UNL     1      -7.008   3.548  16.816  1.00  0.00     0.000 C 
HETATM   16  C11 UNL     1      -6.209   4.519  16.023  1.00  0.00     0.002 C 
HETATM   17  C12 UNL     1      -5.606   3.962  14.773  1.00  0.00     0.025 C 
ENDBRANCH   9  11
ENDBRANCH   1   7
TORSDOF 3
ENDMDL
MODEL 3
REMARK VINA RESULT: -7.013797472      1.742      2.353
REMARK  3 active torsions:
REMARK  status: ('A' for Active; 'I' for Inactive)
REMARK    1  A    between atoms: O1_2  and  C2_3 
REMARK    2  A    between atoms: C2_3  and  C5_7 
REMARK       I    between atoms: C5_7  and  N2_9 
REMARK    3  A    between atoms: N2_9  and  C6_11 
ROOT
HETATM    1  C2  UNL     1      -3.842   0.748  11.458  1.00  0.00     0.225 C 
HETATM    2  C3  UNL     1      -4.376   0.513  10.063  1.00  0.00     0.073 C 
HETATM    3  C4  UNL     1      -2.446   1.222  11.313  1.00  0.00     0.107 C 
HETATM    4  N1  UNL     1      -1.356   1.605  11.217  1.00  0.00    -0.193 NA
ENDROOT
BRANCH   1   5
HETATM    5  O1  UNL     1      -3.812  -0.447  12.140  1.00  0.00    -0.362 OA
HETATM    6  C1  UNL     1      -3.246  -1.481  11.438  1.00  0.00     0.204 C 
ENDBRANCH   1   5
BRANCH   1   7
HETATM    7  C5  UNL     1      -4.611   1.781  12.185  1.00  0.00     0.267 C 
HETATM    8  O2  UNL     1      -5.619   2.261  11.619  1.00  0.00    -0.269 OA
HETATM    9  N2  UNL     1      -4.243   2.218  13.456  1.00  0.00    -0.353 N 
ATOM     10  H2  UNL     1      -3.414   1.798  13.877  1.00  0.00     0.163 HD
BRANCH   9  11
HETATM   11  C6  UNL     1      -4.946   3.224  14.226  1.00  0.00     0.084 C 
HETATM   12  C7  UNL     1      -5.072   2.886  15.674  1.00  0.00     0.025 C 
HETATM   13  C8  UNL     1      -6.378   3.321  16.280  1.00  0.00     0.002 C 
HETATM   14  C9  UNL     1      -6.516   4.791  16.438  1.00  0.00     0.000 C 
HETATM   15  C10 UNL     1      -6.116   5.582  15.216  1.00  0.00     0.000 C 
HETATM   16  C11 UNL     1      -4.649   5.604  14.977  1.00  0.00     0.002 C 
HETATM   17  C12 UNL     1      -4.139   4.498  14.109  1.00  0.00     0.025 C 
ENDBRANCH   9  11
ENDBRANCH   1   7
TORSDOF 3
ENDMDL
MODEL 4
REMARK VINA RESULT: -6.827475329      1.158      1.914
REMARK  3 active torsions:
REMARK  status: ('A' for Active; 'I' for Inactive)
REMARK    1  A    between atoms: O1_2  and  C2_3 
REMARK    2  A    between atoms: C2_3  and  C5_7 
REMARK       I    between atoms: C5_7  and  N2_9 
REMARK    3  A    between atoms: N2_9  and  C6_11 
ROOT
HETATM    1  C2  UNL     1      -3.505   2.019  12.221  1.00  0.00     0.225 C 
HETATM    2  C3  UNL     1      -3.873   0.565  12.020  1.00  0.00     0.073 C 
HETATM    3  C4  UNL     1      -4.127   2.780  11.114  1.00  0.00     0.107 C 
HETATM    4  N1  UNL     1      -4.617   3.392  10.259  1.00  0.00    -0.193 NA
ENDROOT
BRANCH   1   5
HETATM    5  O1  UNL     1      -2.140   2.161  12.115  1.00  0.00    -0.362 OA
HETATM    6  C1  UNL     1      -1.603   1.608  10.981  1.00  0.00     0.204 C 
ENDBRANCH   1   5
BRANCH   1   7
HETATM    7  C5  UNL     1      -4.020   2.554  13.500  1.00  0.00     0.267 C 
HETATM    8  O2  UNL     1      -3.757   3.746  13.778  1.00  0.00    -0.269 OA
HETATM    9  N2  UNL     1      -4.772   1.776  14.378  1.00  0.00    -0.353 N 
ATOM     10  H2  UNL     1      -4.961   0.810  14.107  1.00  0.00     0.163 HD
BRANCH   9  11
HETATM   11  C6  UNL     1      -5.308   2.232  15.645  1.00  0.00     0.084 C 
HETATM   12  C7  UNL     1      -6.489   3.131  15.503  1.00  0.00     0.025 C 
HETATM   13  C8  UNL     1      -6.532   4.230  16.528  1.00  0.00     0.002 C 
HETATM   14  C9  UNL     1      -6.838   3.767  17.905  1.00  0.00     0.000 C 
HETATM   15  C10 UNL     1      -6.044   2.559  18.339  1.00  0.00     0.000 C 
HETATM   16  C11 UNL     1      -6.466   1.300  17.670  1.00  0.00     0.002 C 
HETATM   17  C12 UNL     1      -5.746   0.995  16.396  1.00  0.00     0.025 C 
ENDBRANCH   9  11
ENDBRANCH   1   7
TORSDOF 3
ENDMDL
MODEL 5
REMARK VINA RESULT: -6.746442215      1.786      5.855
REMARK  3 active torsions:
REMARK  status: ('A' for Active; 'I' for Inactive)
REMARK    1  A    between atoms: O1_2  and  C2_3 
REMARK    2  A    between atoms: C2_3  and  C5_7 
REMARK       I    between atoms: C5_7  and  N2_9 
REMARK    3  A    between atoms: N2_9  and  C6_11 
ROOT
HETATM    1  C2  UNL     1      -5.850   1.878  16.152  1.00  0.00     0.225 C 
HETATM    2  C3  UNL     1      -5.111   1.828  17.471  1.00  0.00     0.073 C 
HETATM    3  C4  UNL     1      -6.141   3.303  15.873  1.00  0.00     0.107 C 
HETATM    4  N1  UNL     1      -6.367   4.415  15.635  1.00  0.00    -0.193 NA
ENDROOT
BRANCH   1   5
HETATM    5  O1  UNL     1      -7.051   1.219  16.280  1.00  0.00    -0.362 OA
HETATM    6  C1  UNL     1      -7.671   1.408  17.489  1.00  0.00     0.204 C 
ENDBRANCH   1   5
BRANCH   1   7
HETATM    7  C5  UNL     1      -5.040   1.342  15.037  1.00  0.00     0.267 C 
HETATM    8  O2  UNL     1      -4.740   0.127  15.068  1.00  0.00    -0.269 OA
HETATM    9  N2  UNL     1      -4.616   2.145  13.979  1.00  0.00    -0.353 N 
ATOM     10  H2  UNL     1      -4.885   3.129  13.998  1.00  0.00     0.163 HD
BRANCH   9  11
HETATM   11  C6  UNL     1      -3.822   1.690  12.855  1.00  0.00     0.084 C 
HETATM   12  C7  UNL     1      -4.633   1.079  11.762  1.00  0.00     0.025 C 
HETATM   13  C8  UNL     1      -3.954  -0.081  11.090  1.00  0.00     0.002 C 
HETATM   14  C9  UNL     1      -2.792   0.298  10.246  1.00  0.00     0.000 C 
HETATM   15  C10 UNL     1      -1.838   1.262  10.909  1.00  0.00     0.000 C 
HETATM   16  C11 UNL     1      -2.379   2.641  11.032  1.00  0.00     0.002 C 
HETATM   17  C12 UNL     1      -3.125   2.912  12.299  1.00  0.00     0.025 C 
ENDBRANCH   9  11
ENDBRANCH   1   7
TORSDOF 3
ENDMDL
