MODEL 1
REMARK VINA RESULT: -4.439705566      0.000      0.000
REMARK  5 active torsions:
REMARK  status: ('A' for Active; 'I' for Inactive)
REMARK    1  A    between atoms: O1_1  and  C1_3 
REMARK    2  A    between atoms: C1_3  and  C2_4 
REMARK    3  A    between atoms: C2_4  and  C7_13 
REMARK    4  A    between atoms: C4_6  and  C6_11 
REMARK    5  A    between atoms: C5_8  and  O3_9 
ROOT
HETATM    1  C2  UNL     1       5.799  -7.708  27.256  1.00  0.00     0.061 C 
HETATM    2  C3  UNL     1       6.351  -7.235  25.901  1.00  0.00     0.054 C 
HETATM    3  C4  UNL     1       5.959  -8.539  25.182  1.00  0.00     0.157 C 
HETATM    4  O2  UNL     1       6.558  -9.508  25.983  1.00  0.00    -0.353 OA
HETATM    5  C5  UNL     1       6.539  -9.038  27.300  1.00  0.00     0.270 C 
ENDROOT
BRANCH   1   6
HETATM    6  C1  UNL     1       6.058  -6.806  28.360  1.00  0.00     0.181 C 
BRANCH   6   7
HETATM    7  O1  UNL     1       7.103  -5.943  28.015  1.00  0.00    -0.400 OA
ATOM      8  H1  UNL     1       7.325  -5.406  28.766  1.00  0.00     0.209 HD
ENDBRANCH   6   7
ENDBRANCH   1   6
BRANCH   1   9
HETATM    9  C7  UNL     1       4.384  -7.986  26.897  1.00  0.00     0.169 A 
HETATM   10  C6  UNL     1       3.723  -8.282  28.254  1.00  0.00     0.181 A 
HETATM   11  O4  UNL     1       3.362  -7.213  27.449  1.00  0.00    -0.372 OA
ENDBRANCH   1   9
BRANCH   5  12
HETATM   12  O3  UNL     1       7.851  -8.756  27.649  1.00  0.00    -0.370 OA
ATOM     13  H3  UNL     1       7.921  -8.894  28.586  1.00  0.00     0.212 HD
ENDBRANCH   5  12
TORSDOF 5
ENDMDL
MODEL 2
REMARK VINA RESULT: -4.404492036      1.512      2.480
REMARK  5 active torsions:
REMARK  status: ('A' for Active; 'I' for Inactive)
REMARK    1  A    between atoms: O1_1  and  C1_3 
REMARK    2  A    between atoms: C1_3  and  C2_4 
REMARK    3  A    between atoms: C2_4  and  C7_13 
REMARK    4  A    between atoms: C4_6  and  C6_11 
REMARK    5  A    between atoms: C5_8  and  O3_9 
ROOT
HETATM    1  C2  UNL     1       4.841  -8.220  28.132  1.00  0.00     0.061 C 
HETATM    2  C3  UNL     1       5.498  -7.065  28.905  1.00  0.00     0.054 C 
HETATM    3  C4  UNL     1       6.461  -6.721  27.754  1.00  0.00     0.157 C 
HETATM    4  O2  UNL     1       7.069  -7.948  27.502  1.00  0.00    -0.353 OA
HETATM    5  C5  UNL     1       6.126  -8.947  27.762  1.00  0.00     0.270 C 
ENDROOT
BRANCH   1   6
HETATM    6  C1  UNL     1       3.880  -8.988  28.898  1.00  0.00     0.181 C 
BRANCH   6   7
HETATM    7  O1  UNL     1       4.282  -9.025  30.237  1.00  0.00    -0.400 OA
ATOM      8  H1  UNL     1       3.742  -9.649  30.707  1.00  0.00     0.209 HD
ENDBRANCH   6   7
ENDBRANCH   1   6
BRANCH   1   9
HETATM    9  C7  UNL     1       4.359  -7.504  26.922  1.00  0.00     0.169 A 
HETATM   10  C6  UNL     1       3.128  -8.320  26.491  1.00  0.00     0.181 A 
HETATM   11  O4  UNL     1       3.060  -6.994  26.887  1.00  0.00    -0.372 OA
ENDBRANCH   1   9
BRANCH   5  12
HETATM   12  O3  UNL     1       6.549  -9.617  28.900  1.00  0.00    -0.370 OA
ATOM     13  H3  UNL     1       6.547 -10.543  28.690  1.00  0.00     0.212 HD
ENDBRANCH   5  12
TORSDOF 5
ENDMDL
MODEL 3
REMARK VINA RESULT: -4.333831926      8.500      9.726
REMARK  5 active torsions:
REMARK  status: ('A' for Active; 'I' for Inactive)
REMARK    1  A    between atoms: O1_1  and  C1_3 
REMARK    2  A    between atoms: C1_3  and  C2_4 
REMARK    3  A    between atoms: C2_4  and  C7_13 
REMARK    4  A    between atoms: C4_6  and  C6_11 
REMARK    5  A    between atoms: C5_8  and  O3_9 
ROOT
HETATM    1  C2  UNL     1       2.576  -2.397  20.458  1.00  0.00     0.061 C 
HETATM    2  C3  UNL     1       3.722  -1.462  20.878  1.00  0.00     0.054 C 
HETATM    3  C4  UNL     1       3.133  -1.222  22.281  1.00  0.00     0.157 C 
HETATM    4  O2  UNL     1       1.838  -0.802  21.989  1.00  0.00    -0.353 OA
HETATM    5  C5  UNL     1       1.432  -1.463  20.826  1.00  0.00     0.270 C 
ENDROOT
BRANCH   1   6
HETATM    6  C1  UNL     1       2.622  -2.822  19.073  1.00  0.00     0.181 C 
BRANCH   6   7
HETATM    7  O1  UNL     1       3.177  -1.801  18.296  1.00  0.00    -0.400 OA
ATOM      8  H1  UNL     1       3.173  -2.066  17.384  1.00  0.00     0.209 HD
ENDBRANCH   6   7
ENDBRANCH   1   6
BRANCH   1   9
HETATM    9  C7  UNL     1       2.669  -3.440  21.512  1.00  0.00     0.169 A 
HETATM   10  C6  UNL     1       1.564  -4.437  21.127  1.00  0.00     0.181 A 
HETATM   11  O4  UNL     1       2.909  -4.768  21.158  1.00  0.00    -0.372 OA
ENDBRANCH   1   9
BRANCH   5  12
HETATM   12  O3  UNL     1       1.356  -0.508  19.823  1.00  0.00    -0.370 OA
ATOM     13  H3  UNL     1       2.045   0.123  19.993  1.00  0.00     0.212 HD
ENDBRANCH   5  12
TORSDOF 5
ENDMDL
MODEL 4
REMARK VINA RESULT: -4.251373600      1.085      3.313
REMARK  5 active torsions:
REMARK  status: ('A' for Active; 'I' for Inactive)
REMARK    1  A    between atoms: O1_1  and  C1_3 
REMARK    2  A    between atoms: C1_3  and  C2_4 
REMARK    3  A    between atoms: C2_4  and  C7_13 
REMARK    4  A    between atoms: C4_6  and  C6_11 
REMARK    5  A    between atoms: C5_8  and  O3_9 
ROOT
HETATM    1  C2  UNL     1       5.672  -7.779  27.855  1.00  0.00     0.061 C 
HETATM    2  C3  UNL     1       5.316  -7.565  29.335  1.00  0.00     0.054 C 
HETATM    3  C4  UNL     1       4.642  -8.944  29.466  1.00  0.00     0.157 C 
HETATM    4  O2  UNL     1       3.722  -8.923  28.422  1.00  0.00    -0.353 OA
HETATM    5  C5  UNL     1       4.278  -8.168  27.384  1.00  0.00     0.270 C 
ENDROOT
BRANCH   1   6
HETATM    6  C1  UNL     1       6.258  -6.625  27.203  1.00  0.00     0.181 C 
BRANCH   6   7
HETATM    7  O1  UNL     1       7.160  -6.011  28.077  1.00  0.00    -0.400 OA
ATOM      8  H1  UNL     1       7.071  -5.068  28.006  1.00  0.00     0.209 HD
ENDBRANCH   6   7
ENDBRANCH   1   6
BRANCH   1   9
HETATM    9  C7  UNL     1       6.485  -9.020  27.943  1.00  0.00     0.169 A 
HETATM   10  C6  UNL     1       6.887  -9.288  26.482  1.00  0.00     0.181 A 
HETATM   11  O4  UNL     1       7.804  -9.022  27.486  1.00  0.00    -0.372 OA
ENDBRANCH   1   9
BRANCH   5  12
HETATM   12  O3  UNL     1       3.543  -6.996  27.298  1.00  0.00    -0.370 OA
ATOM     13  H3  UNL     1       4.037  -6.403  26.744  1.00  0.00     0.212 HD
ENDBRANCH   5  12
TORSDOF 5
ENDMDL
MODEL 5
REMARK VINA RESULT: -4.229734818      7.372      8.414
REMARK  5 active torsions:
REMARK  status: ('A' for Active; 'I' for Inactive)
REMARK    1  A    between atoms: O1_1  and  C1_3 
REMARK    2  A    between atoms: C1_3  and  C2_4 
REMARK    3  A    between atoms: C2_4  and  C7_13 
REMARK    4  A    between atoms: C4_6  and  C6_11 
REMARK    5  A    between atoms: C5_8  and  O3_9 
ROOT
HETATM    1  C2  UNL     1       3.189  -2.662  21.971  1.00  0.00     0.061 C 
HETATM    2  C3  UNL     1       2.249  -1.600  22.564  1.00  0.00     0.054 C 
HETATM    3  C4  UNL     1       1.524  -1.363  21.226  1.00  0.00     0.157 C 
HETATM    4  O2  UNL     1       2.582  -1.086  20.364  1.00  0.00    -0.353 OA
HETATM    5  C5  UNL     1       3.683  -1.832  20.794  1.00  0.00     0.270 C 
ENDROOT
BRANCH   1   6
HETATM    6  C1  UNL     1       4.213  -3.137  22.880  1.00  0.00     0.181 C 
BRANCH   6   7
HETATM    7  O1  UNL     1       3.629  -3.433  24.116  1.00  0.00    -0.400 OA
ATOM      8  H1  UNL     1       3.618  -2.649  24.652  1.00  0.00     0.209 HD
ENDBRANCH   6   7
ENDBRANCH   1   6
BRANCH   1   9
HETATM    9  C7  UNL     1       2.204  -3.646  21.452  1.00  0.00     0.169 A 
HETATM   10  C6  UNL     1       3.086  -4.729  20.809  1.00  0.00     0.181 A 
HETATM   11  O4  UNL     1       2.249  -4.971  21.887  1.00  0.00    -0.372 OA
ENDBRANCH   1   9
BRANCH   5  12
HETATM   12  O3  UNL     1       4.609  -0.932  21.299  1.00  0.00    -0.370 OA
ATOM     13  H3  UNL     1       4.486  -0.912  22.241  1.00  0.00     0.212 HD
ENDBRANCH   5  12
TORSDOF 5
ENDMDL
