MODEL 1
REMARK VINA RESULT: -6.152643039      0.000      0.000
REMARK  8 active torsions:
REMARK  status: ('A' for Active; 'I' for Inactive)
REMARK    1  A    between atoms: C2_2  and  C12_22 
REMARK    2  A    between atoms: C3_3  and  C4_4 
REMARK       I    between atoms: C4_4  and  N1_6 
REMARK    3  A    between atoms: N1_6  and  C5_8 
REMARK    4  A    between atoms: C6_9  and  C7_10 
REMARK    5  A    between atoms: C7_10  and  O2_11 
REMARK    6  A    between atoms: C10_16  and  O4_17 
REMARK    7  A    between atoms: C11_19  and  O5_20 
REMARK    8  A    between atoms: C12_22  and  C13_23 
ROOT
HETATM    1  C5  UNL     1       4.574  -4.724  26.544  1.00  0.00     0.147 C 
HETATM    2  C6  UNL     1       5.568  -5.553  25.810  1.00  0.00     0.170 C 
HETATM    3  O3  UNL     1       6.437  -6.270  26.585  1.00  0.00    -0.374 OA
HETATM    4  C8  UNL     1       7.076  -5.581  27.576  1.00  0.00     0.149 C 
HETATM    5  C9  UNL     1       7.861  -6.609  28.402  1.00  0.00     0.042 C 
HETATM    6  C10 UNL     1       6.087  -4.950  28.545  1.00  0.00     0.177 C 
HETATM    7  C11 UNL     1       5.054  -4.148  27.842  1.00  0.00     0.174 C 
ENDROOT
BRANCH   1   8
HETATM    8  N1  UNL     1       4.176  -3.612  25.705  1.00  0.00    -0.348 N 
HETATM    9  C4  UNL     1       2.820  -3.564  25.181  1.00  0.00     0.241 C 
HETATM   10  O1  UNL     1       2.052  -4.497  25.483  1.00  0.00    -0.269 OA
ATOM     11  H1  UNL     1       4.840  -2.870  25.485  1.00  0.00     0.163 HD
BRANCH   9  12
HETATM   12  C3  UNL     1       2.425  -2.463  24.351  1.00  0.00     0.076 C 
HETATM   13  C2  UNL     1       2.569  -2.429  23.052  1.00  0.00    -0.078 C 
HETATM   14  C1  UNL     1       3.166  -3.545  22.321  1.00  0.00     0.043 C 
BRANCH  13  15
HETATM   15  C12 UNL     1       2.125  -1.187  22.373  1.00  0.00     0.042 C 
BRANCH  15  16
HETATM   16  C13 UNL     1       3.164  -0.166  22.124  1.00  0.00    -0.048 C 
HETATM   17  C14 UNL     1       4.484  -0.465  22.733  1.00  0.00     0.015 C 
HETATM   18  C15 UNL     1       3.404   0.048  20.630  1.00  0.00     0.015 C 
HETATM   19  C16 UNL     1       2.599   1.166  22.665  1.00  0.00     0.015 C 
ENDBRANCH  15  16
ENDBRANCH  13  15
ENDBRANCH   9  12
ENDBRANCH   1   8
BRANCH   2  20
HETATM   20  C7  UNL     1       6.300  -4.747  24.730  1.00  0.00     0.198 C 
BRANCH  20  21
HETATM   21  O2  UNL     1       7.416  -5.481  24.270  1.00  0.00    -0.398 OA
ATOM     22  H2  UNL     1       7.312  -5.666  23.344  1.00  0.00     0.209 HD
ENDBRANCH  20  21
ENDBRANCH   2  20
BRANCH   7  23
HETATM   23  O5  UNL     1       5.569  -2.877  27.599  1.00  0.00    -0.391 OA
ATOM     24  H5  UNL     1       5.230  -2.282  28.258  1.00  0.00     0.210 HD
ENDBRANCH   7  23
BRANCH   6  25
HETATM   25  O4  UNL     1       5.548  -5.938  29.349  1.00  0.00    -0.390 OA
ATOM     26  H4  UNL     1       4.827  -5.574  29.848  1.00  0.00     0.210 HD
ENDBRANCH   6  25
TORSDOF 8
ENDMDL
MODEL 2
REMARK VINA RESULT: -6.090106166      1.268      1.650
REMARK  8 active torsions:
REMARK  status: ('A' for Active; 'I' for Inactive)
REMARK    1  A    between atoms: C2_2  and  C12_22 
REMARK    2  A    between atoms: C3_3  and  C4_4 
REMARK       I    between atoms: C4_4  and  N1_6 
REMARK    3  A    between atoms: N1_6  and  C5_8 
REMARK    4  A    between atoms: C6_9  and  C7_10 
REMARK    5  A    between atoms: C7_10  and  O2_11 
REMARK    6  A    between atoms: C10_16  and  O4_17 
REMARK    7  A    between atoms: C11_19  and  O5_20 
REMARK    8  A    between atoms: C12_22  and  C13_23 
ROOT
HETATM    1  C5  UNL     1       5.214  -5.261  25.899  1.00  0.00     0.147 C 
HETATM    2  C6  UNL     1       5.973  -6.447  25.419  1.00  0.00     0.170 C 
HETATM    3  O3  UNL     1       6.765  -7.066  26.346  1.00  0.00    -0.374 OA
HETATM    4  C8  UNL     1       7.604  -6.261  27.062  1.00  0.00     0.149 C 
HETATM    5  C9  UNL     1       8.263  -7.139  28.133  1.00  0.00     0.042 C 
HETATM    6  C10 UNL     1       6.836  -5.192  27.825  1.00  0.00     0.177 C 
HETATM    7  C11 UNL     1       5.905  -4.440  26.947  1.00  0.00     0.174 C 
ENDROOT
BRANCH   1   8
HETATM    8  N1  UNL     1       4.949  -4.384  24.777  1.00  0.00    -0.348 N 
HETATM    9  C4  UNL     1       3.657  -3.720  24.682  1.00  0.00     0.241 C 
HETATM   10  O1  UNL     1       2.829  -3.940  25.585  1.00  0.00    -0.269 OA
ATOM     11  H1  UNL     1       5.659  -4.234  24.062  1.00  0.00     0.163 HD
BRANCH   9  12
HETATM   12  C3  UNL     1       3.394  -2.851  23.572  1.00  0.00     0.076 C 
HETATM   13  C2  UNL     1       3.918  -1.662  23.425  1.00  0.00    -0.078 C 
HETATM   14  C1  UNL     1       4.839  -1.106  24.414  1.00  0.00     0.043 C 
BRANCH  13  15
HETATM   15  C12 UNL     1       3.499  -0.902  22.222  1.00  0.00     0.042 C 
BRANCH  15  16
HETATM   16  C13 UNL     1       2.573   0.227  22.446  1.00  0.00    -0.048 C 
HETATM   17  C14 UNL     1       1.875   0.205  23.756  1.00  0.00     0.015 C 
HETATM   18  C15 UNL     1       3.285   1.576  22.347  1.00  0.00     0.015 C 
HETATM   19  C16 UNL     1       1.557   0.190  21.282  1.00  0.00     0.015 C 
ENDBRANCH  15  16
ENDBRANCH  13  15
ENDBRANCH   9  12
ENDBRANCH   1   8
BRANCH   2  20
HETATM   20  C7  UNL     1       6.738  -6.151  24.122  1.00  0.00     0.198 C 
BRANCH  20  21
HETATM   21  O2  UNL     1       5.976  -6.589  23.017  1.00  0.00    -0.398 OA
ATOM     22  H2  UNL     1       6.228  -6.095  22.245  1.00  0.00     0.209 HD
ENDBRANCH  20  21
ENDBRANCH   2  20
BRANCH   7  23
HETATM   23  O5  UNL     1       6.616  -3.423  26.314  1.00  0.00    -0.391 OA
ATOM     24  H5  UNL     1       6.902  -3.737  25.464  1.00  0.00     0.210 HD
ENDBRANCH   7  23
BRANCH   6  25
HETATM   25  O4  UNL     1       6.203  -5.777  28.907  1.00  0.00    -0.390 OA
ATOM     26  H4  UNL     1       6.440  -5.307  29.698  1.00  0.00     0.210 HD
ENDBRANCH   6  25
TORSDOF 8
ENDMDL
MODEL 3
REMARK VINA RESULT: -5.995853492      1.190      1.329
REMARK  8 active torsions:
REMARK  status: ('A' for Active; 'I' for Inactive)
REMARK    1  A    between atoms: C2_2  and  C12_22 
REMARK    2  A    between atoms: C3_3  and  C4_4 
REMARK       I    between atoms: C4_4  and  N1_6 
REMARK    3  A    between atoms: N1_6  and  C5_8 
REMARK    4  A    between atoms: C6_9  and  C7_10 
REMARK    5  A    between atoms: C7_10  and  O2_11 
REMARK    6  A    between atoms: C10_16  and  O4_17 
REMARK    7  A    between atoms: C11_19  and  O5_20 
REMARK    8  A    between atoms: C12_22  and  C13_23 
ROOT
HETATM    1  C5  UNL     1       5.168  -5.266  26.157  1.00  0.00     0.147 C 
HETATM    2  C6  UNL     1       5.965  -6.354  25.528  1.00  0.00     0.170 C 
HETATM    3  O3  UNL     1       6.840  -7.008  26.351  1.00  0.00    -0.374 OA
HETATM    4  C8  UNL     1       7.670  -6.224  27.101  1.00  0.00     0.149 C 
HETATM    5  C9  UNL     1       8.433  -7.158  28.049  1.00  0.00     0.042 C 
HETATM    6  C10 UNL     1       6.885  -5.281  28.001  1.00  0.00     0.177 C 
HETATM    7  C11 UNL     1       5.868  -4.508  27.245  1.00  0.00     0.174 C 
ENDROOT
BRANCH   1   8
HETATM    8  N1  UNL     1       4.795  -4.305  25.140  1.00  0.00    -0.348 N 
HETATM    9  C4  UNL     1       3.423  -3.823  25.085  1.00  0.00     0.241 C 
HETATM   10  O1  UNL     1       2.623  -4.266  25.929  1.00  0.00    -0.269 OA
ATOM     11  H1  UNL     1       5.486  -3.970  24.469  1.00  0.00     0.163 HD
BRANCH   9  12
HETATM   12  C3  UNL     1       3.052  -2.871  24.078  1.00  0.00     0.076 C 
HETATM   13  C2  UNL     1       2.556  -3.188  22.911  1.00  0.00    -0.078 C 
HETATM   14  C1  UNL     1       2.337  -4.581  22.526  1.00  0.00     0.043 C 
BRANCH  13  15
HETATM   15  C12 UNL     1       2.263  -2.059  21.993  1.00  0.00     0.042 C 
BRANCH  15  16
HETATM   16  C13 UNL     1       3.376  -1.602  21.136  1.00  0.00    -0.048 C 
HETATM   17  C14 UNL     1       4.526  -2.538  21.063  1.00  0.00     0.015 C 
HETATM   18  C15 UNL     1       2.922  -1.348  19.699  1.00  0.00     0.015 C 
HETATM   19  C16 UNL     1       3.818  -0.232  21.697  1.00  0.00     0.015 C 
ENDBRANCH  15  16
ENDBRANCH  13  15
ENDBRANCH   9  12
ENDBRANCH   1   8
BRANCH   2  20
HETATM   20  C7  UNL     1       6.642  -5.891  24.231  1.00  0.00     0.198 C 
BRANCH  20  21
HETATM   21  O2  UNL     1       5.935  -6.405  23.122  1.00  0.00    -0.398 OA
ATOM     22  H2  UNL     1       5.635  -7.285  23.319  1.00  0.00     0.209 HD
ENDBRANCH  20  21
ENDBRANCH   2  20
BRANCH   7  23
HETATM   23  O5  UNL     1       6.486  -3.394  26.681  1.00  0.00    -0.391 OA
ATOM     24  H5  UNL     1       7.113  -3.692  26.032  1.00  0.00     0.210 HD
ENDBRANCH   7  23
BRANCH   6  25
HETATM   25  O4  UNL     1       6.345  -6.002  29.050  1.00  0.00    -0.390 OA
ATOM     26  H4  UNL     1       6.221  -5.424  29.793  1.00  0.00     0.210 HD
ENDBRANCH   6  25
TORSDOF 8
ENDMDL
MODEL 4
REMARK VINA RESULT: -5.939962055      1.815      2.823
REMARK  8 active torsions:
REMARK  status: ('A' for Active; 'I' for Inactive)
REMARK    1  A    between atoms: C2_2  and  C12_22 
REMARK    2  A    between atoms: C3_3  and  C4_4 
REMARK       I    between atoms: C4_4  and  N1_6 
REMARK    3  A    between atoms: N1_6  and  C5_8 
REMARK    4  A    between atoms: C6_9  and  C7_10 
REMARK    5  A    between atoms: C7_10  and  O2_11 
REMARK    6  A    between atoms: C10_16  and  O4_17 
REMARK    7  A    between atoms: C11_19  and  O5_20 
REMARK    8  A    between atoms: C12_22  and  C13_23 
ROOT
HETATM    1  C5  UNL     1       5.982  -3.523  25.674  1.00  0.00     0.147 C 
HETATM    2  C6  UNL     1       6.910  -2.809  26.592  1.00  0.00     0.170 C 
HETATM    3  O3  UNL     1       7.223  -3.460  27.753  1.00  0.00    -0.374 OA
HETATM    4  C8  UNL     1       6.172  -3.950  28.476  1.00  0.00     0.149 C 
HETATM    5  C9  UNL     1       6.765  -4.766  29.631  1.00  0.00     0.042 C 
HETATM    6  C10 UNL     1       5.346  -4.934  27.661  1.00  0.00     0.177 C 
HETATM    7  C11 UNL     1       4.946  -4.372  26.347  1.00  0.00     0.174 C 
ENDROOT
BRANCH   1   8
HETATM    8  N1  UNL     1       5.277  -2.550  24.866  1.00  0.00    -0.348 N 
HETATM    9  C4  UNL     1       5.743  -2.274  23.515  1.00  0.00     0.241 C 
HETATM   10  O1  UNL     1       6.742  -2.897  23.112  1.00  0.00    -0.269 OA
ATOM     11  H1  UNL     1       4.462  -2.064  25.239  1.00  0.00     0.163 HD
BRANCH   9  12
HETATM   12  C3  UNL     1       5.044  -1.311  22.714  1.00  0.00     0.076 C 
HETATM   13  C2  UNL     1       4.033  -1.595  21.935  1.00  0.00    -0.078 C 
HETATM   14  C1  UNL     1       3.521  -2.958  21.814  1.00  0.00     0.043 C 
BRANCH  13  15
HETATM   15  C12 UNL     1       3.462  -0.465  21.162  1.00  0.00     0.042 C 
BRANCH  15  16
HETATM   16  C13 UNL     1       2.533   0.426  21.886  1.00  0.00    -0.048 C 
HETATM   17  C14 UNL     1       1.833  -0.209  23.031  1.00  0.00     0.015 C 
HETATM   18  C15 UNL     1       3.241   1.665  22.434  1.00  0.00     0.015 C 
HETATM   19  C16 UNL     1       1.519   0.938  20.838  1.00  0.00     0.015 C 
ENDBRANCH  15  16
ENDBRANCH  13  15
ENDBRANCH   9  12
ENDBRANCH   1   8
BRANCH   2  20
HETATM   20  C7  UNL     1       6.462  -1.365  26.852  1.00  0.00     0.198 C 
BRANCH  20  21
HETATM   21  O2  UNL     1       7.343  -0.474  26.201  1.00  0.00    -0.398 OA
ATOM     22  H2  UNL     1       7.372   0.347  26.679  1.00  0.00     0.209 HD
ENDBRANCH  20  21
ENDBRANCH   2  20
BRANCH   7  23
HETATM   23  O5  UNL     1       3.794  -3.609  26.522  1.00  0.00    -0.391 OA
ATOM     24  H5  UNL     1       3.039  -4.185  26.469  1.00  0.00     0.210 HD
ENDBRANCH   7  23
BRANCH   6  25
HETATM   25  O4  UNL     1       6.041  -6.125  27.550  1.00  0.00    -0.390 OA
ATOM     26  H4  UNL     1       5.735  -6.727  28.217  1.00  0.00     0.210 HD
ENDBRANCH   6  25
TORSDOF 8
ENDMDL
MODEL 5
REMARK VINA RESULT: -5.901596387      1.693      2.464
REMARK  8 active torsions:
REMARK  status: ('A' for Active; 'I' for Inactive)
REMARK    1  A    between atoms: C2_2  and  C12_22 
REMARK    2  A    between atoms: C3_3  and  C4_4 
REMARK       I    between atoms: C4_4  and  N1_6 
REMARK    3  A    between atoms: N1_6  and  C5_8 
REMARK    4  A    between atoms: C6_9  and  C7_10 
REMARK    5  A    between atoms: C7_10  and  O2_11 
REMARK    6  A    between atoms: C10_16  and  O4_17 
REMARK    7  A    between atoms: C11_19  and  O5_20 
REMARK    8  A    between atoms: C12_22  and  C13_23 
ROOT
HETATM    1  C5  UNL     1       4.728  -3.809  26.026  1.00  0.00     0.147 C 
HETATM    2  C6  UNL     1       4.815  -5.246  26.404  1.00  0.00     0.170 C 
HETATM    3  O3  UNL     1       5.352  -5.509  27.634  1.00  0.00    -0.374 OA
HETATM    4  C8  UNL     1       6.541  -4.900  27.921  1.00  0.00     0.149 C 
HETATM    5  C9  UNL     1       6.860  -5.209  29.389  1.00  0.00     0.042 C 
HETATM    6  C10 UNL     1       6.425  -3.385  27.838  1.00  0.00     0.177 C 
HETATM    7  C11 UNL     1       5.831  -2.941  26.553  1.00  0.00     0.174 C 
ENDROOT
BRANCH   1   8
HETATM    8  N1  UNL     1       4.751  -3.699  24.582  1.00  0.00    -0.348 N 
HETATM    9  C4  UNL     1       3.547  -3.279  23.881  1.00  0.00     0.241 C 
HETATM   10  O1  UNL     1       2.539  -3.029  24.566  1.00  0.00    -0.269 OA
ATOM     11  H1  UNL     1       5.601  -3.914  24.063  1.00  0.00     0.163 HD
BRANCH   9  12
HETATM   12  C3  UNL     1       3.569  -3.169  22.451  1.00  0.00     0.076 C 
HETATM   13  C2  UNL     1       3.867  -2.074  21.800  1.00  0.00    -0.078 C 
HETATM   14  C1  UNL     1       4.208  -0.838  22.500  1.00  0.00     0.043 C 
BRANCH  13  15
HETATM   15  C12 UNL     1       3.805  -2.153  20.320  1.00  0.00     0.042 C 
BRANCH  15  16
HETATM   16  C13 UNL     1       2.638  -1.518  19.675  1.00  0.00    -0.048 C 
HETATM   17  C14 UNL     1       1.432  -1.423  20.535  1.00  0.00     0.015 C 
HETATM   18  C15 UNL     1       2.951  -0.101  19.196  1.00  0.00     0.015 C 
HETATM   19  C16 UNL     1       2.342  -2.347  18.405  1.00  0.00     0.015 C 
ENDBRANCH  15  16
ENDBRANCH  13  15
ENDBRANCH   9  12
ENDBRANCH   1   8
BRANCH   2  20
HETATM   20  C7  UNL     1       5.473  -6.089  25.304  1.00  0.00     0.198 C 
BRANCH  20  21
HETATM   21  O2  UNL     1       4.969  -7.407  25.357  1.00  0.00    -0.398 OA
ATOM     22  H2  UNL     1       5.689  -8.016  25.469  1.00  0.00     0.209 HD
ENDBRANCH  20  21
ENDBRANCH   2  20
BRANCH   7  23
HETATM   23  O5  UNL     1       6.840  -2.878  25.595  1.00  0.00    -0.391 OA
ATOM     24  H5  UNL     1       7.609  -3.320  25.936  1.00  0.00     0.210 HD
ENDBRANCH   7  23
BRANCH   6  25
HETATM   25  O4  UNL     1       5.731  -2.923  28.942  1.00  0.00    -0.390 OA
ATOM     26  H4  UNL     1       6.224  -2.220  29.347  1.00  0.00     0.210 HD
ENDBRANCH   6  25
TORSDOF 8
ENDMDL
