MODEL 1
REMARK VINA RESULT: -6.487717174      0.000      0.000
REMARK  6 active torsions:
REMARK  status: ('A' for Active; 'I' for Inactive)
REMARK    1  A    between atoms: C2_2  and  C3_3 
REMARK    2  A    between atoms: C5_6  and  O1_7 
REMARK    3  A    between atoms: C6_9  and  C7_10 
REMARK    4  A    between atoms: N2_14  and  C9_15 
REMARK    5  A    between atoms: C12_18  and  O2_19 
REMARK    6  A    between atoms: C13_21  and  O3_22 
ROOT
HETATM    1  C7  UNL     1      -2.986 -11.990  72.863  1.00  0.00    -0.017 A 
HETATM    2  C8  UNL     1      -3.676 -12.006  74.052  1.00  0.00     0.116 A 
HETATM    3  N1  UNL     1      -3.105 -12.955  74.831  1.00  0.00    -0.309 N 
ATOM      4  H1  UNL     1      -3.407 -13.191  75.775  1.00  0.00     0.186 HD
HETATM    5  N2  UNL     1      -2.112 -13.524  74.202  1.00  0.00    -0.292 N 
HETATM    6  C14 UNL     1      -2.011 -12.953  72.988  1.00  0.00     0.120 A 
ENDROOT
BRANCH   1   7
HETATM    7  C6  UNL     1      -3.211 -11.131  71.665  1.00  0.00     0.057 C 
HETATM    8  C3  UNL     1      -3.091 -11.852  70.355  1.00  0.00     0.017 C 
HETATM    9  C4  UNL     1      -4.591 -11.843  70.252  1.00  0.00     0.116 C 
HETATM   10 CL1  UNL     1      -5.211 -11.093  68.764  1.00  0.00    -0.122 Cl
HETATM   11  C5  UNL     1      -4.684 -10.886  71.419  1.00  0.00     0.146 C 
BRANCH   8  12
HETATM   12  C2  UNL     1      -2.481 -11.063  69.231  1.00  0.00     0.002 C 
HETATM   13  C1  UNL     1      -1.188 -10.401  69.594  1.00  0.00     0.005 C 
ENDBRANCH   8  12
BRANCH  11  14
HETATM   14  O1  UNL     1      -4.932  -9.552  71.030  1.00  0.00    -0.393 OA
ATOM     15  H1  UNL     1      -4.422  -8.916  71.517  1.00  0.00     0.210 HD
ENDBRANCH  11  14
ENDBRANCH   1   7
BRANCH   5  16
HETATM   16  C9  UNL     1      -1.228 -14.596  74.683  1.00  0.00     0.161 C 
HETATM   17  C10 UNL     1      -1.968 -15.560  75.502  1.00  0.00     0.001 C 
HETATM   18  C11 UNL     1      -1.182 -15.981  76.480  1.00  0.00     0.005 C 
HETATM   19  C12 UNL     1       0.158 -15.340  76.406  1.00  0.00     0.172 C 
HETATM   20  C13 UNL     1      -0.207 -14.057  75.644  1.00  0.00     0.179 C 
BRANCH  19  21
HETATM   21  O2  UNL     1       0.686 -15.067  77.650  1.00  0.00    -0.389 OA
ATOM     22  H2  UNL     1       1.566 -15.410  77.758  1.00  0.00     0.210 HD
ENDBRANCH  19  21
BRANCH  20  23
HETATM   23  O3  UNL     1      -0.861 -13.235  76.554  1.00  0.00    -0.390 OA
ATOM     24  H3  UNL     1      -0.293 -13.116  77.307  1.00  0.00     0.210 HD
ENDBRANCH  20  23
ENDBRANCH   5  16
TORSDOF 6
ENDMDL
MODEL 2
REMARK VINA RESULT: -6.260329687      3.544      6.768
REMARK  6 active torsions:
REMARK  status: ('A' for Active; 'I' for Inactive)
REMARK    1  A    between atoms: C2_2  and  C3_3 
REMARK    2  A    between atoms: C5_6  and  O1_7 
REMARK    3  A    between atoms: C6_9  and  C7_10 
REMARK    4  A    between atoms: N2_14  and  C9_15 
REMARK    5  A    between atoms: C12_18  and  O2_19 
REMARK    6  A    between atoms: C13_21  and  O3_22 
ROOT
HETATM    1  C7  UNL     1      -1.510 -11.568  72.532  1.00  0.00    -0.017 A 
HETATM    2  C8  UNL     1      -2.594 -11.794  73.346  1.00  0.00     0.116 A 
HETATM    3  N1  UNL     1      -3.702 -11.530  72.614  1.00  0.00    -0.309 N 
ATOM      4  H1  UNL     1      -4.659 -11.611  72.957  1.00  0.00     0.186 HD
HETATM    5  N2  UNL     1      -3.373 -11.159  71.406  1.00  0.00    -0.292 N 
HETATM    6  C14 UNL     1      -2.031 -11.172  71.322  1.00  0.00     0.120 A 
ENDROOT
BRANCH   1   7
HETATM    7  C6  UNL     1      -0.059 -11.710  72.849  1.00  0.00     0.057 C 
HETATM    8  C3  UNL     1       0.769 -10.504  72.515  1.00  0.00     0.017 C 
HETATM    9  C4  UNL     1       0.804 -10.165  73.979  1.00  0.00     0.116 C 
HETATM   10 CL1  UNL     1       2.444 -10.000  74.646  1.00  0.00    -0.122 Cl
HETATM   11  C5  UNL     1       0.214 -11.514  74.325  1.00  0.00     0.146 C 
BRANCH   8  12
HETATM   12  C2  UNL     1       2.154 -10.787  72.005  1.00  0.00     0.002 C 
HETATM   13  C1  UNL     1       2.342 -10.451  70.559  1.00  0.00     0.005 C 
ENDBRANCH   8  12
BRANCH  11  14
HETATM   14  O1  UNL     1       1.168 -12.436  74.805  1.00  0.00    -0.393 OA
ATOM     15  H1  UNL     1       0.991 -13.333  74.546  1.00  0.00     0.210 HD
ENDBRANCH  11  14
ENDBRANCH   1   7
BRANCH   5  16
HETATM   16  C9  UNL     1      -4.263 -10.784  70.297  1.00  0.00     0.161 C 
HETATM   17  C10 UNL     1      -5.668 -10.825  70.714  1.00  0.00     0.001 C 
HETATM   18  C11 UNL     1      -6.401 -11.255  69.699  1.00  0.00     0.005 C 
HETATM   19  C12 UNL     1      -5.557 -11.541  68.509  1.00  0.00     0.172 C 
HETATM   20  C13 UNL     1      -4.212 -11.810  69.200  1.00  0.00     0.179 C 
BRANCH  19  21
HETATM   21  O2  UNL     1      -5.997 -12.636  67.796  1.00  0.00    -0.389 OA
ATOM     22  H2  UNL     1      -5.402 -13.374  67.855  1.00  0.00     0.210 HD
ENDBRANCH  19  21
BRANCH  20  23
HETATM   23  O3  UNL     1      -4.314 -13.068  69.779  1.00  0.00    -0.390 OA
ATOM     24  H3  UNL     1      -4.367 -13.712  69.082  1.00  0.00     0.210 HD
ENDBRANCH  20  23
ENDBRANCH   5  16
TORSDOF 6
ENDMDL
MODEL 3
REMARK VINA RESULT: -6.248311425      3.599      7.041
REMARK  6 active torsions:
REMARK  status: ('A' for Active; 'I' for Inactive)
REMARK    1  A    between atoms: C2_2  and  C3_3 
REMARK    2  A    between atoms: C5_6  and  O1_7 
REMARK    3  A    between atoms: C6_9  and  C7_10 
REMARK    4  A    between atoms: N2_14  and  C9_15 
REMARK    5  A    between atoms: C12_18  and  O2_19 
REMARK    6  A    between atoms: C13_21  and  O3_22 
ROOT
HETATM    1  C7  UNL     1      -1.190 -10.887  72.250  1.00  0.00    -0.017 A 
HETATM    2  C8  UNL     1      -0.862 -10.205  71.102  1.00  0.00     0.116 A 
HETATM    3  N1  UNL     1      -1.993 -10.095  70.367  1.00  0.00    -0.309 N 
ATOM      4  H1  UNL     1      -2.054  -9.633  69.460  1.00  0.00     0.186 HD
HETATM    5  N2  UNL     1      -2.994 -10.663  70.984  1.00  0.00    -0.292 N 
HETATM    6  C14 UNL     1      -2.535 -11.160  72.146  1.00  0.00     0.120 A 
ENDROOT
BRANCH   1   7
HETATM    7  C6  UNL     1      -0.311 -11.271  73.391  1.00  0.00     0.057 C 
HETATM    8  C3  UNL     1       0.627 -12.405  73.096  1.00  0.00     0.017 C 
HETATM    9  C4  UNL     1       1.744 -11.407  72.981  1.00  0.00     0.116 C 
HETATM   10 CL1  UNL     1       3.118 -11.728  74.062  1.00  0.00    -0.122 Cl
HETATM   11  C5  UNL     1       0.856 -10.320  73.545  1.00  0.00     0.146 C 
BRANCH   8  12
HETATM   12  C2  UNL     1       0.881 -13.353  74.235  1.00  0.00     0.002 C 
HETATM   13  C1  UNL     1      -0.243 -13.423  75.221  1.00  0.00     0.005 C 
ENDBRANCH   8  12
BRANCH  11  14
HETATM   14  O1  UNL     1       1.118 -10.031  74.902  1.00  0.00    -0.393 OA
ATOM     15  H1  UNL     1       0.331  -9.945  75.428  1.00  0.00     0.210 HD
ENDBRANCH  11  14
ENDBRANCH   1   7
BRANCH   5  16
HETATM   16  C9  UNL     1      -4.392 -10.769  70.539  1.00  0.00     0.161 C 
HETATM   17  C10 UNL     1      -4.980 -12.046  70.953  1.00  0.00     0.001 C 
HETATM   18  C11 UNL     1      -5.803 -12.464  70.005  1.00  0.00     0.005 C 
HETATM   19  C12 UNL     1      -5.844 -11.506  68.868  1.00  0.00     0.172 C 
HETATM   20  C13 UNL     1      -4.472 -10.837  69.040  1.00  0.00     0.179 C 
BRANCH  19  21
HETATM   21  O2  UNL     1      -5.960 -12.135  67.647  1.00  0.00    -0.389 OA
ATOM     22  H2  UNL     1      -6.113 -13.070  67.729  1.00  0.00     0.210 HD
ENDBRANCH  19  21
BRANCH  20  23
HETATM   23  O3  UNL     1      -3.530 -11.757  68.597  1.00  0.00    -0.390 OA
ATOM     24  H3  UNL     1      -3.595 -12.533  69.142  1.00  0.00     0.210 HD
ENDBRANCH  20  23
ENDBRANCH   5  16
TORSDOF 6
ENDMDL
MODEL 4
REMARK VINA RESULT: -6.193621464      1.183      1.450
REMARK  6 active torsions:
REMARK  status: ('A' for Active; 'I' for Inactive)
REMARK    1  A    between atoms: C2_2  and  C3_3 
REMARK    2  A    between atoms: C5_6  and  O1_7 
REMARK    3  A    between atoms: C6_9  and  C7_10 
REMARK    4  A    between atoms: N2_14  and  C9_15 
REMARK    5  A    between atoms: C12_18  and  O2_19 
REMARK    6  A    between atoms: C13_21  and  O3_22 
ROOT
HETATM    1  C7  UNL     1      -2.404 -11.845  73.178  1.00  0.00    -0.017 A 
HETATM    2  C8  UNL     1      -3.402 -12.130  74.080  1.00  0.00     0.116 A 
HETATM    3  N1  UNL     1      -3.002 -13.213  74.787  1.00  0.00    -0.309 N 
ATOM      4  H1  UNL     1      -3.541 -13.653  75.532  1.00  0.00     0.186 HD
HETATM    5  N2  UNL     1      -1.827 -13.613  74.381  1.00  0.00    -0.292 N 
HETATM    6  C14 UNL     1      -1.430 -12.793  73.392  1.00  0.00     0.120 A 
ENDROOT
BRANCH   1   7
HETATM    7  C6  UNL     1      -2.346 -10.752  72.165  1.00  0.00     0.057 C 
HETATM    8  C3  UNL     1      -1.240 -10.896  71.162  1.00  0.00     0.017 C 
HETATM    9  C4  UNL     1      -2.258 -11.349  70.154  1.00  0.00     0.116 C 
HETATM   10 CL1  UNL     1      -2.280 -10.384  68.661  1.00  0.00    -0.122 Cl
HETATM   11  C5  UNL     1      -3.383 -10.940  71.078  1.00  0.00     0.146 C 
BRANCH   8  12
HETATM   12  C2  UNL     1      -0.593  -9.614  70.718  1.00  0.00     0.002 C 
HETATM   13  C1  UNL     1       0.617  -9.244  71.518  1.00  0.00     0.005 C 
ENDBRANCH   8  12
BRANCH  11  14
HETATM   14  O1  UNL     1      -3.987  -9.716  70.717  1.00  0.00    -0.393 OA
ATOM     15  H1  UNL     1      -4.295  -9.214  71.462  1.00  0.00     0.210 HD
ENDBRANCH  11  14
ENDBRANCH   1   7
BRANCH   5  16
HETATM   16  C9  UNL     1      -1.032 -14.747  74.879  1.00  0.00     0.161 C 
HETATM   17  C10 UNL     1      -1.832 -15.604  75.758  1.00  0.00     0.001 C 
HETATM   18  C11 UNL     1      -1.056 -16.061  76.728  1.00  0.00     0.005 C 
HETATM   19  C12 UNL     1       0.334 -15.554  76.589  1.00  0.00     0.172 C 
HETATM   20  C13 UNL     1       0.066 -14.271  75.787  1.00  0.00     0.179 C 
BRANCH  19  21
HETATM   21  O2  UNL     1       0.927 -15.286  77.805  1.00  0.00    -0.389 OA
ATOM     22  H2  UNL     1       1.275 -16.066  78.222  1.00  0.00     0.210 HD
ENDBRANCH  19  21
BRANCH  20  23
HETATM   23  O3  UNL     1      -0.476 -13.357  76.682  1.00  0.00    -0.390 OA
ATOM     24  H3  UNL     1      -1.423 -13.405  76.616  1.00  0.00     0.210 HD
ENDBRANCH  20  23
ENDBRANCH   5  16
TORSDOF 6
ENDMDL
MODEL 5
REMARK VINA RESULT: -6.103564756      3.178      7.102
REMARK  6 active torsions:
REMARK  status: ('A' for Active; 'I' for Inactive)
REMARK    1  A    between atoms: C2_2  and  C3_3 
REMARK    2  A    between atoms: C5_6  and  O1_7 
REMARK    3  A    between atoms: C6_9  and  C7_10 
REMARK    4  A    between atoms: N2_14  and  C9_15 
REMARK    5  A    between atoms: C12_18  and  O2_19 
REMARK    6  A    between atoms: C13_21  and  O3_22 
ROOT
HETATM    1  C7  UNL     1      -2.939 -12.023  73.149  1.00  0.00    -0.017 A 
HETATM    2  C8  UNL     1      -1.877 -11.403  72.534  1.00  0.00     0.116 A 
HETATM    3  N1  UNL     1      -2.336 -10.891  71.368  1.00  0.00    -0.309 N 
ATOM      4  H1  UNL     1      -1.769 -10.373  70.697  1.00  0.00     0.186 HD
HETATM    5  N2  UNL     1      -3.607 -11.155  71.223  1.00  0.00    -0.292 N 
HETATM    6  C14 UNL     1      -4.009 -11.849  72.302  1.00  0.00     0.120 A 
ENDROOT
BRANCH   1   7
HETATM    7  C6  UNL     1      -2.971 -12.743  74.454  1.00  0.00     0.057 C 
HETATM    8  C3  UNL     1      -3.524 -14.136  74.380  1.00  0.00     0.017 C 
HETATM    9  C4  UNL     1      -2.120 -14.662  74.483  1.00  0.00     0.116 C 
HETATM   10 CL1  UNL     1      -1.866 -15.792  75.831  1.00  0.00    -0.122 Cl
HETATM   11  C5  UNL     1      -1.609 -13.282  74.832  1.00  0.00     0.146 C 
BRANCH   8  12
HETATM   12  C2  UNL     1      -4.340 -14.576  75.562  1.00  0.00     0.002 C 
HETATM   13  C1  UNL     1      -5.755 -14.924  75.220  1.00  0.00     0.005 C 
ENDBRANCH   8  12
BRANCH  11  14
HETATM   14  O1  UNL     1      -1.344 -13.114  76.208  1.00  0.00    -0.393 OA
ATOM     15  H1  UNL     1      -0.678 -12.461  76.387  1.00  0.00     0.210 HD
ENDBRANCH  11  14
ENDBRANCH   1   7
BRANCH   5  16
HETATM   16  C9  UNL     1      -4.489 -10.783  70.107  1.00  0.00     0.161 C 
HETATM   17  C10 UNL     1      -5.889 -11.080  70.422  1.00  0.00     0.001 C 
HETATM   18  C11 UNL     1      -6.498 -11.487  69.320  1.00  0.00     0.005 C 
HETATM   19  C12 UNL     1      -5.564 -11.500  68.163  1.00  0.00     0.172 C 
HETATM   20  C13 UNL     1      -4.228 -11.650  68.908  1.00  0.00     0.179 C 
BRANCH  19  21
HETATM   21  O2  UNL     1      -5.795 -12.553  67.304  1.00  0.00    -0.389 OA
ATOM     22  H2  UNL     1      -5.566 -13.393  67.685  1.00  0.00     0.210 HD
ENDBRANCH  19  21
BRANCH  20  23
HETATM   23  O3  UNL     1      -4.164 -12.971  69.333  1.00  0.00    -0.390 OA
ATOM     24  H3  UNL     1      -4.138 -12.975  70.283  1.00  0.00     0.210 HD
ENDBRANCH  20  23
ENDBRANCH   5  16
TORSDOF 6
ENDMDL
