MODEL 1
REMARK VINA RESULT: -6.975969289      0.000      0.000
REMARK  4 active torsions:
REMARK  status: ('A' for Active; 'I' for Inactive)
REMARK    1  A    between atoms: C2_2  and  O1_4 
REMARK    2  A    between atoms: O1_4  and  C4_5 
REMARK    3  A    between atoms: C4_5  and  O3_7 
REMARK    4  A    between atoms: O3_7  and  C5_8 
ROOT
HETATM    1  C5  UNL     1     -15.326   2.525   6.991  1.00  0.00     0.174 C 
HETATM    2  C6  UNL     1     -15.861   2.093   8.326  1.00  0.00     0.046 C 
HETATM    3  C7  UNL     1     -15.018   2.248   9.575  1.00  0.00     0.054 C 
HETATM    4  C8  UNL     1     -15.756   2.954  10.691  1.00  0.00     0.016 C 
HETATM    5  C9  UNL     1     -13.834   2.954   9.141  1.00  0.00     0.228 C 
HETATM    6  O4  UNL     1     -14.373   4.163   8.747  1.00  0.00    -0.343 OA
HETATM    7  C10 UNL     1     -13.421   5.128   8.403  1.00  0.00     0.243 C 
HETATM    8  C11 UNL     1     -12.469   4.150   7.653  1.00  0.00     0.216 C 
HETATM    9  C12 UNL     1     -11.417   5.098   7.045  1.00  0.00     0.084 C 
HETATM   10  O5  UNL     1     -11.872   3.505   8.679  1.00  0.00    -0.195 OA
HETATM   11  O6  UNL     1     -12.688   3.252   9.740  1.00  0.00    -0.192 OA
HETATM   12  O7  UNL     1     -13.192   3.652   6.678  1.00  0.00    -0.332 OA
HETATM   13  C13 UNL     1     -13.873   2.435   6.762  1.00  0.00     0.127 C 
HETATM   14  C14 UNL     1     -13.402   1.980   8.092  1.00  0.00     0.018 C 
HETATM   15  C15 UNL     1     -12.747   0.876   7.989  1.00  0.00    -0.014 C 
HETATM   16  C16 UNL     1     -12.667   0.393   6.587  1.00  0.00     0.040 C 
HETATM   17  C17 UNL     1     -13.276   1.533   5.800  1.00  0.00    -0.006 C 
HETATM   18  C18 UNL     1     -12.055   2.185   5.104  1.00  0.00     0.018 C 
HETATM   19  C19 UNL     1     -14.064   0.893   4.713  1.00  0.00     0.018 C 
ENDROOT
BRANCH   1  20
HETATM   20  O3  UNL     1     -16.145   1.850   6.053  1.00  0.00    -0.289 OA
BRANCH  20  21
HETATM   21  C4  UNL     1     -17.205   2.396   5.373  1.00  0.00     0.407 C 
HETATM   22  O2  UNL     1     -17.813   3.349   5.908  1.00  0.00    -0.229 OA
BRANCH  21  23
HETATM   23  O1  UNL     1     -17.641   1.956   4.134  1.00  0.00    -0.293 OA
BRANCH  23  24
HETATM   24  C2  UNL     1     -17.196   2.621   2.971  1.00  0.00     0.126 C 
HETATM   25  C1  UNL     1     -18.320   3.302   2.224  1.00  0.00     0.040 C 
HETATM   26  C3  UNL     1     -16.493   1.699   2.005  1.00  0.00     0.040 C 
ENDBRANCH  23  24
ENDBRANCH  21  23
ENDBRANCH  20  21
ENDBRANCH   1  20
TORSDOF 4
ENDMDL
MODEL 2
REMARK VINA RESULT: -6.756549129      1.299      1.636
REMARK  4 active torsions:
REMARK  status: ('A' for Active; 'I' for Inactive)
REMARK    1  A    between atoms: C2_2  and  O1_4 
REMARK    2  A    between atoms: O1_4  and  C4_5 
REMARK    3  A    between atoms: C4_5  and  O3_7 
REMARK    4  A    between atoms: O3_7  and  C5_8 
ROOT
HETATM    1  C5  UNL     1     -15.851   3.926   7.073  1.00  0.00     0.174 C 
HETATM    2  C6  UNL     1     -16.600   4.003   8.371  1.00  0.00     0.046 C 
HETATM    3  C7  UNL     1     -15.853   4.201   9.675  1.00  0.00     0.054 C 
HETATM    4  C8  UNL     1     -16.414   5.339  10.500  1.00  0.00     0.016 C 
HETATM    5  C9  UNL     1     -14.476   4.404   9.288  1.00  0.00     0.228 C 
HETATM    6  O4  UNL     1     -14.568   5.586   8.580  1.00  0.00    -0.343 OA
HETATM    7  C10 UNL     1     -13.334   6.118   8.193  1.00  0.00     0.243 C 
HETATM    8  C11 UNL     1     -12.687   4.754   7.810  1.00  0.00     0.216 C 
HETATM    9  C12 UNL     1     -11.343   5.178   7.186  1.00  0.00     0.084 C 
HETATM   10  O5  UNL     1     -12.410   4.229   9.024  1.00  0.00    -0.195 OA
HETATM   11  O6  UNL     1     -13.346   4.489   9.980  1.00  0.00    -0.192 OA
HETATM   12  O7  UNL     1     -13.452   4.269   6.860  1.00  0.00    -0.332 OA
HETATM   13  C13 UNL     1     -14.489   3.362   7.087  1.00  0.00     0.127 C 
HETATM   14  C14 UNL     1     -14.295   3.123   8.537  1.00  0.00     0.018 C 
HETATM   15  C15 UNL     1     -14.021   1.885   8.761  1.00  0.00    -0.014 C 
HETATM   16  C16 UNL     1     -13.987   1.078   7.516  1.00  0.00     0.040 C 
HETATM   17  C17 UNL     1     -14.137   2.121   6.431  1.00  0.00    -0.006 C 
HETATM   18  C18 UNL     1     -12.721   2.201   5.807  1.00  0.00     0.018 C 
HETATM   19  C19 UNL     1     -14.999   1.498   5.391  1.00  0.00     0.018 C 
ENDROOT
BRANCH   1  20
HETATM   20  O3  UNL     1     -16.765   3.314   6.180  1.00  0.00    -0.289 OA
BRANCH  20  21
HETATM   21  C4  UNL     1     -17.857   3.920   5.609  1.00  0.00     0.407 C 
HETATM   22  O2  UNL     1     -18.835   4.174   6.344  1.00  0.00    -0.229 OA
BRANCH  21  23
HETATM   23  O1  UNL     1     -17.940   4.266   4.270  1.00  0.00    -0.293 OA
BRANCH  23  24
HETATM   24  C2  UNL     1     -18.294   3.279   3.324  1.00  0.00     0.126 C 
HETATM   25  C1  UNL     1     -17.116   2.813   2.500  1.00  0.00     0.040 C 
HETATM   26  C3  UNL     1     -19.369   3.743   2.372  1.00  0.00     0.040 C 
ENDBRANCH  23  24
ENDBRANCH  21  23
ENDBRANCH  20  21
ENDBRANCH   1  20
TORSDOF 4
ENDMDL
MODEL 3
REMARK VINA RESULT: -6.690586072      0.870      1.347
REMARK  4 active torsions:
REMARK  status: ('A' for Active; 'I' for Inactive)
REMARK    1  A    between atoms: C2_2  and  O1_4 
REMARK    2  A    between atoms: O1_4  and  C4_5 
REMARK    3  A    between atoms: C4_5  and  O3_7 
REMARK    4  A    between atoms: O3_7  and  C5_8 
ROOT
HETATM    1  C5  UNL     1     -15.207   2.281   6.748  1.00  0.00     0.174 C 
HETATM    2  C6  UNL     1     -15.850   1.895   8.049  1.00  0.00     0.046 C 
HETATM    3  C7  UNL     1     -15.174   2.225   9.364  1.00  0.00     0.054 C 
HETATM    4  C8  UNL     1     -16.097   2.933  10.331  1.00  0.00     0.016 C 
HETATM    5  C9  UNL     1     -14.018   3.013   9.002  1.00  0.00     0.228 C 
HETATM    6  O4  UNL     1     -14.617   4.130   8.452  1.00  0.00    -0.343 OA
HETATM    7  C10 UNL     1     -13.724   5.158   8.133  1.00  0.00     0.243 C 
HETATM    8  C11 UNL     1     -12.606   4.229   7.574  1.00  0.00     0.216 C 
HETATM    9  C12 UNL     1     -11.584   5.231   7.005  1.00  0.00     0.084 C 
HETATM   10  O5  UNL     1     -12.075   3.723   8.709  1.00  0.00    -0.195 OA
HETATM   11  O6  UNL     1     -12.981   3.468   9.694  1.00  0.00    -0.192 OA
HETATM   12  O7  UNL     1     -13.164   3.590   6.572  1.00  0.00    -0.332 OA
HETATM   13  C13 UNL     1     -13.735   2.320   6.685  1.00  0.00     0.127 C 
HETATM   14  C14 UNL     1     -13.380   2.014   8.091  1.00  0.00     0.018 C 
HETATM   15  C15 UNL     1     -12.620   0.976   8.152  1.00  0.00    -0.014 C 
HETATM   16  C16 UNL     1     -12.334   0.403   6.813  1.00  0.00     0.040 C 
HETATM   17  C17 UNL     1     -12.952   1.415   5.872  1.00  0.00    -0.006 C 
HETATM   18  C18 UNL     1     -11.724   2.134   5.258  1.00  0.00     0.018 C 
HETATM   19  C19 UNL     1     -13.547   0.621   4.763  1.00  0.00     0.018 C 
ENDROOT
BRANCH   1  20
HETATM   20  O3  UNL     1     -15.847   1.459   5.788  1.00  0.00    -0.289 OA
BRANCH  20  21
HETATM   21  C4  UNL     1     -16.692   1.892   4.796  1.00  0.00     0.407 C 
HETATM   22  O2  UNL     1     -16.903   1.123   3.833  1.00  0.00    -0.229 OA
BRANCH  21  23
HETATM   23  O1  UNL     1     -17.321   3.126   4.796  1.00  0.00    -0.293 OA
BRANCH  23  24
HETATM   24  C2  UNL     1     -18.672   3.211   4.394  1.00  0.00     0.126 C 
HETATM   25  C1  UNL     1     -18.850   3.992   3.113  1.00  0.00     0.040 C 
HETATM   26  C3  UNL     1     -19.554   3.840   5.445  1.00  0.00     0.040 C 
ENDBRANCH  23  24
ENDBRANCH  21  23
ENDBRANCH  20  21
ENDBRANCH   1  20
TORSDOF 4
ENDMDL
MODEL 4
REMARK VINA RESULT: -6.226033712      2.293      4.537
REMARK  4 active torsions:
REMARK  status: ('A' for Active; 'I' for Inactive)
REMARK    1  A    between atoms: C2_2  and  O1_4 
REMARK    2  A    between atoms: O1_4  and  C4_5 
REMARK    3  A    between atoms: C4_5  and  O3_7 
REMARK    4  A    between atoms: O3_7  and  C5_8 
ROOT
HETATM    1  C5  UNL     1     -14.362   4.796   8.227  1.00  0.00     0.174 C 
HETATM    2  C6  UNL     1     -13.906   4.774   9.657  1.00  0.00     0.046 C 
HETATM    3  C7  UNL     1     -12.946   3.705  10.138  1.00  0.00     0.054 C 
HETATM    4  C8  UNL     1     -11.754   4.280  10.870  1.00  0.00     0.016 C 
HETATM    5  C9  UNL     1     -12.582   2.968   8.949  1.00  0.00     0.228 C 
HETATM    6  O4  UNL     1     -11.924   3.942   8.223  1.00  0.00    -0.343 OA
HETATM    7  C10 UNL     1     -11.319   3.470   7.054  1.00  0.00     0.243 C 
HETATM    8  C11 UNL     1     -12.479   2.514   6.649  1.00  0.00     0.216 C 
HETATM    9  C12 UNL     1     -12.045   2.021   5.255  1.00  0.00     0.084 C 
HETATM   10  O5  UNL     1     -12.301   1.484   7.505  1.00  0.00    -0.195 OA
HETATM   11  O6  UNL     1     -11.895   1.850   8.754  1.00  0.00    -0.192 OA
HETATM   12  O7  UNL     1     -13.527   3.292   6.507  1.00  0.00    -0.332 OA
HETATM   13  C13 UNL     1     -14.471   3.512   7.512  1.00  0.00     0.127 C 
HETATM   14  C14 UNL     1     -13.963   2.570   8.538  1.00  0.00     0.018 C 
HETATM   15  C15 UNL     1     -14.841   1.664   8.797  1.00  0.00    -0.014 C 
HETATM   16  C16 UNL     1     -16.084   1.836   8.004  1.00  0.00     0.040 C 
HETATM   17  C17 UNL     1     -15.730   2.962   7.058  1.00  0.00    -0.006 C 
HETATM   18  C18 UNL     1     -15.569   2.249   5.691  1.00  0.00     0.018 C 
HETATM   19  C19 UNL     1     -16.963   3.787   6.936  1.00  0.00     0.018 C 
ENDROOT
BRANCH   1  20
HETATM   20  O3  UNL     1     -15.531   5.596   8.247  1.00  0.00    -0.289 OA
BRANCH  20  21
HETATM   21  C4  UNL     1     -15.785   6.624   9.121  1.00  0.00     0.407 C 
HETATM   22  O2  UNL     1     -15.167   7.698   8.954  1.00  0.00    -0.229 OA
BRANCH  21  23
HETATM   23  O1  UNL     1     -16.681   6.544  10.174  1.00  0.00    -0.293 OA
BRANCH  23  24
HETATM   24  C2  UNL     1     -17.546   5.431  10.260  1.00  0.00     0.126 C 
HETATM   25  C1  UNL     1     -18.973   5.824  10.563  1.00  0.00     0.040 C 
HETATM   26  C3  UNL     1     -17.109   4.434  11.306  1.00  0.00     0.040 C 
ENDBRANCH  23  24
ENDBRANCH  21  23
ENDBRANCH  20  21
ENDBRANCH   1  20
TORSDOF 4
ENDMDL
MODEL 5
REMARK VINA RESULT: -6.176364215      6.587      8.824
REMARK  4 active torsions:
REMARK  status: ('A' for Active; 'I' for Inactive)
REMARK    1  A    between atoms: C2_2  and  O1_4 
REMARK    2  A    between atoms: O1_4  and  C4_5 
REMARK    3  A    between atoms: C4_5  and  O3_7 
REMARK    4  A    between atoms: O3_7  and  C5_8 
ROOT
HETATM    1  C5  UNL     1     -13.221  -3.895   4.350  1.00  0.00     0.174 C 
HETATM    2  C6  UNL     1     -12.051  -3.404   5.152  1.00  0.00     0.046 C 
HETATM    3  C7  UNL     1     -10.915  -4.343   5.501  1.00  0.00     0.054 C 
HETATM    4  C8  UNL     1      -9.559  -3.774   5.144  1.00  0.00     0.016 C 
HETATM    5  C9  UNL     1     -11.217  -5.571   4.803  1.00  0.00     0.228 C 
HETATM    6  O4  UNL     1     -11.139  -5.157   3.487  1.00  0.00    -0.343 OA
HETATM    7  C10 UNL     1     -11.248  -6.193   2.555  1.00  0.00     0.243 C 
HETATM    8  C11 UNL     1     -12.370  -6.967   3.308  1.00  0.00     0.216 C 
HETATM    9  C12 UNL     1     -12.744  -8.081   2.313  1.00  0.00     0.084 C 
HETATM   10  O5  UNL     1     -11.677  -7.549   4.312  1.00  0.00    -0.195 OA
HETATM   11  O6  UNL     1     -10.676  -6.783   4.829  1.00  0.00    -0.192 OA
HETATM   12  O7  UNL     1     -13.373  -6.123   3.384  1.00  0.00    -0.332 OA
HETATM   13  C13 UNL     1     -13.618  -5.307   4.491  1.00  0.00     0.127 C 
HETATM   14  C14 UNL     1     -12.564  -5.810   5.406  1.00  0.00     0.018 C 
HETATM   15  C15 UNL     1     -13.088  -6.316   6.467  1.00  0.00    -0.014 C 
HETATM   16  C16 UNL     1     -14.571  -6.242   6.459  1.00  0.00     0.040 C 
HETATM   17  C17 UNL     1     -14.877  -5.723   5.071  1.00  0.00    -0.006 C 
HETATM   18  C18 UNL     1     -15.447  -6.964   4.338  1.00  0.00     0.018 C 
HETATM   19  C19 UNL     1     -16.025  -4.791   5.236  1.00  0.00     0.018 C 
ENDROOT
BRANCH   1  20
HETATM   20  O3  UNL     1     -14.236  -2.938   4.595  1.00  0.00    -0.289 OA
BRANCH  20  21
HETATM   21  C4  UNL     1     -14.748  -2.057   3.675  1.00  0.00     0.407 C 
HETATM   22  O2  UNL     1     -15.505  -2.511   2.790  1.00  0.00    -0.229 OA
BRANCH  21  23
HETATM   23  O1  UNL     1     -14.476  -0.698   3.667  1.00  0.00    -0.293 OA
BRANCH  23  24
HETATM   24  C2  UNL     1     -14.116  -0.061   4.875  1.00  0.00     0.126 C 
HETATM   25  C1  UNL     1     -14.848   1.244   5.084  1.00  0.00     0.040 C 
HETATM   26  C3  UNL     1     -12.636   0.220   4.966  1.00  0.00     0.040 C 
ENDBRANCH  23  24
ENDBRANCH  21  23
ENDBRANCH  20  21
ENDBRANCH   1  20
TORSDOF 4
ENDMDL
