MODEL 1
REMARK VINA RESULT: -6.828102905      0.000      0.000
REMARK  5 active torsions:
REMARK  status: ('A' for Active; 'I' for Inactive)
REMARK    1  A    between atoms: C2_2  and  C4_4 
REMARK    2  A    between atoms: C5_7  and  O1_8 
REMARK    3  A    between atoms: C6_10  and  C7_11 
REMARK    4  A    between atoms: N2_12  and  C8_14 
REMARK    5  A    between atoms: C14_20  and  O2_21 
ROOT
HETATM    1  C4  UNL     1      44.541  72.732  42.470  1.00  0.00     0.049 A 
HETATM    2  N1  UNL     1      45.534  72.744  41.528  1.00  0.00    -0.337 N 
ATOM      3  H1  UNL     1      46.044  71.923  41.200  1.00  0.00     0.168 HD
HETATM    4  C5  UNL     1      45.735  74.012  41.098  1.00  0.00     0.155 A 
HETATM    5  C6  UNL     1      44.842  74.869  41.770  1.00  0.00     0.065 A 
HETATM    6  C14 UNL     1      44.130  74.037  42.602  1.00  0.00     0.104 A 
ENDROOT
BRANCH   5   7
HETATM    7  C7  UNL     1      44.698  76.299  41.600  1.00  0.00     0.102 C 
HETATM    8  N2  UNL     1      43.613  76.945  41.593  1.00  0.00    -0.393 N 
ATOM      9  H2  UNL     1      42.729  76.451  41.716  1.00  0.00     0.159 HD
BRANCH   8  10
HETATM   10  C8  UNL     1      43.614  78.357  41.414  1.00  0.00     0.081 C 
HETATM   11  C9  UNL     1      43.652  78.895  40.038  1.00  0.00     0.025 C 
HETATM   12  C10 UNL     1      43.257  80.369  40.146  1.00  0.00     0.002 C 
HETATM   13  C11 UNL     1      43.965  81.156  41.158  1.00  0.00     0.000 C 
HETATM   14  C12 UNL     1      44.533  80.420  42.328  1.00  0.00     0.002 C 
HETATM   15  C13 UNL     1      44.839  79.004  42.098  1.00  0.00     0.025 C 
ENDBRANCH   8  10
ENDBRANCH   5   7
BRANCH   4  16
HETATM   16  O1  UNL     1      46.659  74.418  40.156  1.00  0.00    -0.345 OA
ATOM     17  H1  UNL     1      46.496  74.552  39.230  1.00  0.00     0.219 HD
ENDBRANCH   4  16
BRANCH   6  18
HETATM   18  O2  UNL     1      43.112  74.383  43.492  1.00  0.00    -0.358 OA
ATOM     19  H2  UNL     1      43.312  74.680  44.372  1.00  0.00     0.217 HD
ENDBRANCH   6  18
BRANCH   1  20
HETATM   20  C2  UNL     1      44.205  71.558  43.297  1.00  0.00     0.030 C 
HETATM   21  C1  UNL     1      44.508  70.292  42.446  1.00  0.00     0.016 C 
HETATM   22  C3  UNL     1      45.313  71.489  44.430  1.00  0.00     0.016 C 
ENDBRANCH   1  20
TORSDOF 5
ENDMDL
MODEL 2
REMARK VINA RESULT: -6.820166207      1.618      3.025
REMARK  5 active torsions:
REMARK  status: ('A' for Active; 'I' for Inactive)
REMARK    1  A    between atoms: C2_2  and  C4_4 
REMARK    2  A    between atoms: C5_7  and  O1_8 
REMARK    3  A    between atoms: C6_10  and  C7_11 
REMARK    4  A    between atoms: N2_12  and  C8_14 
REMARK    5  A    between atoms: C14_20  and  O2_21 
ROOT
HETATM    1  C4  UNL     1      44.517  72.738  42.223  1.00  0.00     0.049 A 
HETATM    2  N1  UNL     1      43.533  72.760  43.173  1.00  0.00    -0.337 N 
ATOM      3  H1  UNL     1      43.031  71.942  43.519  1.00  0.00     0.168 HD
HETATM    4  C5  UNL     1      43.327  74.035  43.583  1.00  0.00     0.155 A 
HETATM    5  C6  UNL     1      44.209  74.885  42.889  1.00  0.00     0.065 A 
HETATM    6  C14 UNL     1      44.919  74.043  42.065  1.00  0.00     0.104 A 
ENDROOT
BRANCH   5   7
HETATM    7  C7  UNL     1      44.346  76.319  43.033  1.00  0.00     0.102 C 
HETATM    8  N2  UNL     1      45.428  76.969  43.041  1.00  0.00    -0.393 N 
ATOM      9  H2  UNL     1      46.316  76.476  42.938  1.00  0.00     0.159 HD
BRANCH   8  10
HETATM   10  C8  UNL     1      45.420  78.383  43.193  1.00  0.00     0.081 C 
HETATM   11  C9  UNL     1      45.396  78.948  44.559  1.00  0.00     0.025 C 
HETATM   12  C10 UNL     1      45.779  80.422  44.418  1.00  0.00     0.002 C 
HETATM   13  C11 UNL     1      45.053  81.185  43.401  1.00  0.00     0.000 C 
HETATM   14  C12 UNL     1      44.476  80.423  42.252  1.00  0.00     0.002 C 
HETATM   15  C13 UNL     1      44.182  79.009  42.512  1.00  0.00     0.025 C 
ENDBRANCH   8  10
ENDBRANCH   5   7
BRANCH   4  16
HETATM   16  O1  UNL     1      42.409  74.450  44.526  1.00  0.00    -0.345 OA
ATOM     17  H1  UNL     1      41.583  74.885  44.352  1.00  0.00     0.219 HD
ENDBRANCH   4  16
BRANCH   6  18
HETATM   18  O2  UNL     1      45.928  74.380  41.161  1.00  0.00    -0.358 OA
ATOM     19  H2  UNL     1      46.089  75.285  40.923  1.00  0.00     0.217 HD
ENDBRANCH   6  18
BRANCH   1  20
HETATM   20  C2  UNL     1      44.853  71.552  41.413  1.00  0.00     0.030 C 
HETATM   21  C1  UNL     1      44.462  70.298  42.246  1.00  0.00     0.016 C 
HETATM   22  C3  UNL     1      43.803  71.522  40.224  1.00  0.00     0.016 C 
ENDBRANCH   1  20
TORSDOF 5
ENDMDL
MODEL 3
REMARK VINA RESULT: -6.799314216      0.436      1.233
REMARK  5 active torsions:
REMARK  status: ('A' for Active; 'I' for Inactive)
REMARK    1  A    between atoms: C2_2  and  C4_4 
REMARK    2  A    between atoms: C5_7  and  O1_8 
REMARK    3  A    between atoms: C6_10  and  C7_11 
REMARK    4  A    between atoms: N2_12  and  C8_14 
REMARK    5  A    between atoms: C14_20  and  O2_21 
ROOT
HETATM    1  C4  UNL     1      44.599  72.558  42.306  1.00  0.00     0.049 A 
HETATM    2  N1  UNL     1      45.569  72.538  41.342  1.00  0.00    -0.337 N 
ATOM      3  H1  UNL     1      46.030  71.700  40.988  1.00  0.00     0.168 HD
HETATM    4  C5  UNL     1      45.823  73.803  40.928  1.00  0.00     0.155 A 
HETATM    5  C6  UNL     1      44.990  74.691  41.636  1.00  0.00     0.065 A 
HETATM    6  C14 UNL     1      44.256  73.880  42.470  1.00  0.00     0.104 A 
ENDROOT
BRANCH   5   7
HETATM    7  C7  UNL     1      44.913  76.129  41.494  1.00  0.00     0.102 C 
HETATM    8  N2  UNL     1      43.857  76.819  41.438  1.00  0.00    -0.393 N 
ATOM      9  H2  UNL     1      42.948  76.359  41.495  1.00  0.00     0.159 HD
BRANCH   8  10
HETATM   10  C8  UNL     1      43.925  78.233  41.295  1.00  0.00     0.081 C 
HETATM   11  C9  UNL     1      43.968  79.066  42.516  1.00  0.00     0.025 C 
HETATM   12  C10 UNL     1      44.422  80.456  42.067  1.00  0.00     0.002 C 
HETATM   13  C11 UNL     1      43.706  81.034  40.927  1.00  0.00     0.000 C 
HETATM   14  C12 UNL     1      43.058  80.085  39.971  1.00  0.00     0.002 C 
HETATM   15  C13 UNL     1      42.701  78.774  40.522  1.00  0.00     0.025 C 
ENDBRANCH   8  10
ENDBRANCH   5   7
BRANCH   4  16
HETATM   16  O1  UNL     1      46.745  74.180  39.972  1.00  0.00    -0.345 OA
ATOM     17  H1  UNL     1      46.688  74.939  39.405  1.00  0.00     0.219 HD
ENDBRANCH   4  16
BRANCH   6  18
HETATM   18  O2  UNL     1      43.277  74.259  43.389  1.00  0.00    -0.358 OA
ATOM     19  H2  UNL     1      43.195  73.818  44.227  1.00  0.00     0.217 HD
ENDBRANCH   6  18
BRANCH   1  20
HETATM   20  C2  UNL     1      44.224  71.388  43.121  1.00  0.00     0.030 C 
HETATM   21  C1  UNL     1      44.638  70.119  42.323  1.00  0.00     0.016 C 
HETATM   22  C3  UNL     1      45.228  71.369  44.349  1.00  0.00     0.016 C 
ENDBRANCH   1  20
TORSDOF 5
ENDMDL
MODEL 4
REMARK VINA RESULT: -6.733167781      1.171      2.316
REMARK  5 active torsions:
REMARK  status: ('A' for Active; 'I' for Inactive)
REMARK    1  A    between atoms: C2_2  and  C4_4 
REMARK    2  A    between atoms: C5_7  and  O1_8 
REMARK    3  A    between atoms: C6_10  and  C7_11 
REMARK    4  A    between atoms: N2_12  and  C8_14 
REMARK    5  A    between atoms: C14_20  and  O2_21 
ROOT
HETATM    1  C4  UNL     1      44.469  72.579  42.047  1.00  0.00     0.049 A 
HETATM    2  N1  UNL     1      43.683  72.642  43.166  1.00  0.00    -0.337 N 
ATOM      3  H1  UNL     1      43.363  71.838  43.706  1.00  0.00     0.168 HD
HETATM    4  C5  UNL     1      43.396  73.936  43.446  1.00  0.00     0.155 A 
HETATM    5  C6  UNL     1      44.017  74.759  42.487  1.00  0.00     0.065 A 
HETATM    6  C14 UNL     1      44.664  73.881  41.650  1.00  0.00     0.104 A 
ENDROOT
BRANCH   5   7
HETATM    7  C7  UNL     1      43.994  76.205  42.420  1.00  0.00     0.102 C 
HETATM    8  N2  UNL     1      43.788  76.902  41.387  1.00  0.00    -0.393 N 
ATOM      9  H2  UNL     1      43.616  76.442  40.493  1.00  0.00     0.159 HD
BRANCH   8  10
HETATM   10  C8  UNL     1      43.794  78.322  41.462  1.00  0.00     0.081 C 
HETATM   11  C9  UNL     1      43.687  79.097  40.206  1.00  0.00     0.025 C 
HETATM   12  C10 UNL     1      43.333  80.527  40.617  1.00  0.00     0.002 C 
HETATM   13  C11 UNL     1      44.163  81.124  41.665  1.00  0.00     0.000 C 
HETATM   14  C12 UNL     1      44.846  80.193  42.614  1.00  0.00     0.002 C 
HETATM   15  C13 UNL     1      45.100  78.841  42.105  1.00  0.00     0.025 C 
ENDBRANCH   8  10
ENDBRANCH   5   7
BRANCH   4  16
HETATM   16  O1  UNL     1      42.622  74.392  44.495  1.00  0.00    -0.345 OA
ATOM     17  H1  UNL     1      42.057  75.155  44.486  1.00  0.00     0.219 HD
ENDBRANCH   4  16
BRANCH   6  18
HETATM   18  O2  UNL     1      45.436  74.180  40.526  1.00  0.00    -0.358 OA
ATOM     19  H2  UNL     1      46.222  74.710  40.599  1.00  0.00     0.217 HD
ENDBRANCH   6  18
BRANCH   1  20
HETATM   20  C2  UNL     1      44.798  71.327  41.342  1.00  0.00     0.030 C 
HETATM   21  C1  UNL     1      44.364  70.151  42.263  1.00  0.00     0.016 C 
HETATM   22  C3  UNL     1      43.773  71.222  40.136  1.00  0.00     0.016 C 
ENDBRANCH   1  20
TORSDOF 5
ENDMDL
MODEL 5
REMARK VINA RESULT: -6.705014039      1.552      2.308
REMARK  5 active torsions:
REMARK  status: ('A' for Active; 'I' for Inactive)
REMARK    1  A    between atoms: C2_2  and  C4_4 
REMARK    2  A    between atoms: C5_7  and  O1_8 
REMARK    3  A    between atoms: C6_10  and  C7_11 
REMARK    4  A    between atoms: N2_12  and  C8_14 
REMARK    5  A    between atoms: C14_20  and  O2_21 
ROOT
HETATM    1  C4  UNL     1      44.360  73.126  40.923  1.00  0.00     0.049 A 
HETATM    2  N1  UNL     1      45.353  73.328  40.004  1.00  0.00    -0.337 N 
ATOM      3  H1  UNL     1      45.677  72.638  39.327  1.00  0.00     0.168 HD
HETATM    4  C5  UNL     1      45.839  74.587  40.130  1.00  0.00     0.155 A 
HETATM    5  C6  UNL     1      45.141  75.243  41.162  1.00  0.00     0.065 A 
HETATM    6  C14 UNL     1      44.243  74.306  41.618  1.00  0.00     0.104 A 
ENDROOT
BRANCH   5   7
HETATM    7  C7  UNL     1      45.319  76.606  41.617  1.00  0.00     0.102 C 
HETATM    8  N2  UNL     1      44.977  77.069  42.741  1.00  0.00    -0.393 N 
ATOM      9  H2  UNL     1      44.530  76.459  43.425  1.00  0.00     0.159 HD
BRANCH   8  10
HETATM   10  C8  UNL     1      45.211  78.435  43.060  1.00  0.00     0.081 C 
HETATM   11  C9  UNL     1      45.287  78.826  44.484  1.00  0.00     0.025 C 
HETATM   12  C10 UNL     1      45.916  80.220  44.510  1.00  0.00     0.002 C 
HETATM   13  C11 UNL     1      45.328  81.213  43.609  1.00  0.00     0.000 C 
HETATM   14  C12 UNL     1      44.625  80.704  42.392  1.00  0.00     0.002 C 
HETATM   15  C13 UNL     1      44.095  79.339  42.488  1.00  0.00     0.025 C 
ENDBRANCH   8  10
ENDBRANCH   5   7
BRANCH   4  16
HETATM   16  O1  UNL     1      46.851  75.150  39.380  1.00  0.00    -0.345 OA
ATOM     17  H1  UNL     1      47.048  76.076  39.306  1.00  0.00     0.219 HD
ENDBRANCH   4  16
BRANCH   6  18
HETATM   18  O2  UNL     1      43.305  74.447  42.643  1.00  0.00    -0.358 OA
ATOM     19  H2  UNL     1      43.077  75.305  42.982  1.00  0.00     0.217 HD
ENDBRANCH   6  18
BRANCH   1  20
HETATM   20  C2  UNL     1      43.755  71.811  41.206  1.00  0.00     0.030 C 
HETATM   21  C1  UNL     1      43.612  71.068  39.847  1.00  0.00     0.016 C 
HETATM   22  C3  UNL     1      44.871  70.966  41.949  1.00  0.00     0.016 C 
ENDBRANCH   1  20
TORSDOF 5
ENDMDL
