MODEL 1
REMARK VINA RESULT: -6.481178324      0.000      0.000
REMARK  6 active torsions:
REMARK  status: ('A' for Active; 'I' for Inactive)
REMARK    1  A    between atoms: C2_2  and  C3_3 
REMARK    2  A    between atoms: C3_3  and  C4_4 
REMARK    3  A    between atoms: C4_4  and  O1_5 
REMARK    4  A    between atoms: C4_4  and  C5_7 
REMARK    5  A    between atoms: C7_9  and  O2_10 
REMARK    6  A    between atoms: C12_17  and  C13_18 
ROOT
HETATM    1  C5  UNL     1     -22.138   0.444 -25.049  1.00  0.00    -0.024 C 
HETATM    2  C6  UNL     1     -23.091  -0.393 -24.169  1.00  0.00     0.076 C 
HETATM    3  C7  UNL     1     -22.582  -0.698 -22.822  1.00  0.00     0.156 C 
HETATM    4  C8  UNL     1     -21.398  -1.554 -22.710  1.00  0.00     0.199 C 
HETATM    5  F1  UNL     1     -20.275  -0.788 -22.357  1.00  0.00    -0.247 F 
HETATM    6  C9  UNL     1     -20.995  -2.347 -23.922  1.00  0.00     0.040 C 
HETATM    7  C10 UNL     1     -20.084  -1.599 -24.842  1.00  0.00     0.007 C 
HETATM    8  C11 UNL     1     -20.597  -1.233 -26.166  1.00  0.00     0.036 C 
HETATM    9  C12 UNL     1     -21.811  -0.294 -26.229  1.00  0.00    -0.064 C 
ENDROOT
BRANCH   1  10
HETATM   10  C4  UNL     1     -22.354   1.841 -24.786  1.00  0.00     0.050 C 
BRANCH  10  11
HETATM   11  C3  UNL     1     -22.192   2.413 -23.398  1.00  0.00     0.064 C 
BRANCH  11  12
HETATM   12  C2  UNL     1     -20.677   2.438 -23.061  1.00  0.00     0.002 C 
HETATM   13  C1  UNL     1     -20.480   2.373 -21.577  1.00  0.00     0.005 C 
ENDBRANCH  11  12
ENDBRANCH  10  11
BRANCH  10  14
HETATM   14  O1  UNL     1     -23.450   2.480 -25.339  1.00  0.00    -0.364 OA
ATOM     15  H1  UNL     1     -24.068   1.795 -25.565  1.00  0.00     0.217 HD
ENDBRANCH  10  14
ENDBRANCH   1  10
BRANCH   9  16
HETATM   16  C13 UNL     1     -21.743   0.216 -27.631  1.00  0.00    -0.027 C 
HETATM   17  C14 UNL     1     -23.043   0.624 -28.248  1.00  0.00     0.019 C 
HETATM   18  C15 UNL     1     -20.611   1.163 -27.912  1.00  0.00     0.019 C 
HETATM   19  C16 UNL     1     -21.378  -1.029 -28.464  1.00  0.00     0.019 C 
ENDBRANCH   9  16
BRANCH   3  20
HETATM   20  O2  UNL     1     -23.665  -1.229 -22.091  1.00  0.00    -0.392 OA
ATOM     21  H2  UNL     1     -23.793  -0.661 -21.340  1.00  0.00     0.210 HD
ENDBRANCH   3  20
TORSDOF 6
ENDMDL
MODEL 2
REMARK VINA RESULT: -6.385217676      2.134      3.764
REMARK  6 active torsions:
REMARK  status: ('A' for Active; 'I' for Inactive)
REMARK    1  A    between atoms: C2_2  and  C3_3 
REMARK    2  A    between atoms: C3_3  and  C4_4 
REMARK    3  A    between atoms: C4_4  and  O1_5 
REMARK    4  A    between atoms: C4_4  and  C5_7 
REMARK    5  A    between atoms: C7_9  and  O2_10 
REMARK    6  A    between atoms: C12_17  and  C13_18 
ROOT
HETATM    1  C5  UNL     1     -21.130  -0.406 -25.109  1.00  0.00    -0.024 C 
HETATM    2  C6  UNL     1     -20.148   0.392 -24.226  1.00  0.00     0.076 C 
HETATM    3  C7  UNL     1     -20.623   0.659 -22.857  1.00  0.00     0.156 C 
HETATM    4  C8  UNL     1     -21.795   1.522 -22.690  1.00  0.00     0.199 C 
HETATM    5  F1  UNL     1     -22.917   0.756 -22.336  1.00  0.00    -0.247 F 
HETATM    6  C9  UNL     1     -22.217   2.357 -23.866  1.00  0.00     0.040 C 
HETATM    7  C10 UNL     1     -23.157   1.649 -24.787  1.00  0.00     0.007 C 
HETATM    8  C11 UNL     1     -22.679   1.321 -26.134  1.00  0.00     0.036 C 
HETATM    9  C12 UNL     1     -21.477   0.373 -26.256  1.00  0.00    -0.064 C 
ENDROOT
BRANCH   1  10
HETATM   10  C4  UNL     1     -20.923  -1.813 -24.896  1.00  0.00     0.050 C 
BRANCH  10  11
HETATM   11  C3  UNL     1     -21.007  -2.419 -23.516  1.00  0.00     0.064 C 
BRANCH  11  12
HETATM   12  C2  UNL     1     -22.502  -2.474 -23.104  1.00  0.00     0.002 C 
HETATM   13  C1  UNL     1     -22.627  -2.403 -21.612  1.00  0.00     0.005 C 
ENDBRANCH  11  12
ENDBRANCH  10  11
BRANCH  10  14
HETATM   14  O1  UNL     1     -19.876  -2.455 -25.534  1.00  0.00    -0.364 OA
ATOM     15  H1  UNL     1     -20.255  -2.898 -26.284  1.00  0.00     0.217 HD
ENDBRANCH  10  14
ENDBRANCH   1  10
BRANCH   9  16
HETATM   16  C13 UNL     1     -21.583  -0.091 -27.673  1.00  0.00    -0.027 C 
HETATM   17  C14 UNL     1     -20.291  -0.348 -28.380  1.00  0.00     0.019 C 
HETATM   18  C15 UNL     1     -22.635  -1.133 -27.926  1.00  0.00     0.019 C 
HETATM   19  C16 UNL     1     -22.116   1.141 -28.429  1.00  0.00     0.019 C 
ENDBRANCH   9  16
BRANCH   3  20
HETATM   20  O2  UNL     1     -19.517   1.155 -22.135  1.00  0.00    -0.392 OA
ATOM     21  H2  UNL     1     -19.745   1.097 -21.214  1.00  0.00     0.210 HD
ENDBRANCH   3  20
TORSDOF 6
ENDMDL
MODEL 3
REMARK VINA RESULT: -5.469626212      2.676      4.918
REMARK  6 active torsions:
REMARK  status: ('A' for Active; 'I' for Inactive)
REMARK    1  A    between atoms: C2_2  and  C3_3 
REMARK    2  A    between atoms: C3_3  and  C4_4 
REMARK    3  A    between atoms: C4_4  and  O1_5 
REMARK    4  A    between atoms: C4_4  and  C5_7 
REMARK    5  A    between atoms: C7_9  and  O2_10 
REMARK    6  A    between atoms: C12_17  and  C13_18 
ROOT
HETATM    1  C5  UNL     1     -21.692  -0.852 -26.039  1.00  0.00    -0.024 C 
HETATM    2  C6  UNL     1     -22.520  -1.498 -27.169  1.00  0.00     0.076 C 
HETATM    3  C7  UNL     1     -21.786  -1.720 -28.427  1.00  0.00     0.156 C 
HETATM    4  C8  UNL     1     -21.316  -0.545 -29.166  1.00  0.00     0.199 C 
HETATM    5  F1  UNL     1     -19.925  -0.406 -29.025  1.00  0.00    -0.247 F 
HETATM    6  C9  UNL     1     -21.905   0.789 -28.800  1.00  0.00     0.040 C 
HETATM    7  C10 UNL     1     -21.171   1.477 -27.695  1.00  0.00     0.007 C 
HETATM    8  C11 UNL     1     -21.866   1.651 -26.415  1.00  0.00     0.036 C 
HETATM    9  C12 UNL     1     -22.295   0.386 -25.656  1.00  0.00    -0.064 C 
ENDROOT
BRANCH   1  10
HETATM   10  C4  UNL     1     -21.000  -1.881 -25.310  1.00  0.00     0.050 C 
BRANCH  10  11
HETATM   11  C3  UNL     1     -20.653  -1.711 -23.851  1.00  0.00     0.064 C 
BRANCH  11  12
HETATM   12  C2  UNL     1     -21.564  -2.657 -23.025  1.00  0.00     0.002 C 
HETATM   13  C1  UNL     1     -21.717  -2.135 -21.629  1.00  0.00     0.005 C 
ENDBRANCH  11  12
ENDBRANCH  10  11
BRANCH  10  14
HETATM   14  O1  UNL     1     -19.919  -2.521 -25.890  1.00  0.00    -0.364 OA
ATOM     15  H1  UNL     1     -19.658  -1.982 -26.627  1.00  0.00     0.217 HD
ENDBRANCH  10  14
ENDBRANCH   1  10
BRANCH   9  16
HETATM   16  C13 UNL     1     -22.507   0.905 -24.272  1.00  0.00    -0.027 C 
HETATM   17  C14 UNL     1     -23.543   0.201 -23.455  1.00  0.00     0.019 C 
HETATM   18  C15 UNL     1     -21.253   1.233 -23.514  1.00  0.00     0.019 C 
HETATM   19  C16 UNL     1     -23.161   2.284 -24.486  1.00  0.00     0.019 C 
ENDBRANCH   9  16
BRANCH   3  20
HETATM   20  O2  UNL     1     -22.605  -2.535 -29.235  1.00  0.00    -0.392 OA
ATOM     21  H2  UNL     1     -22.097  -3.311 -29.443  1.00  0.00     0.210 HD
ENDBRANCH   3  20
TORSDOF 6
ENDMDL
MODEL 4
REMARK VINA RESULT: -5.457853199      2.323      4.431
REMARK  6 active torsions:
REMARK  status: ('A' for Active; 'I' for Inactive)
REMARK    1  A    between atoms: C2_2  and  C3_3 
REMARK    2  A    between atoms: C3_3  and  C4_4 
REMARK    3  A    between atoms: C4_4  and  O1_5 
REMARK    4  A    between atoms: C4_4  and  C5_7 
REMARK    5  A    between atoms: C7_9  and  O2_10 
REMARK    6  A    between atoms: C12_17  and  C13_18 
ROOT
HETATM    1  C5  UNL     1     -21.511   0.833 -26.048  1.00  0.00    -0.024 C 
HETATM    2  C6  UNL     1     -20.691   1.482 -27.183  1.00  0.00     0.076 C 
HETATM    3  C7  UNL     1     -21.434   1.704 -28.435  1.00  0.00     0.156 C 
HETATM    4  C8  UNL     1     -21.908   0.529 -29.172  1.00  0.00     0.199 C 
HETATM    5  F1  UNL     1     -23.298   0.388 -29.022  1.00  0.00    -0.247 F 
HETATM    6  C9  UNL     1     -21.315  -0.804 -28.813  1.00  0.00     0.040 C 
HETATM    7  C10 UNL     1     -22.040  -1.495 -27.703  1.00  0.00     0.007 C 
HETATM    8  C11 UNL     1     -21.335  -1.669 -26.429  1.00  0.00     0.036 C 
HETATM    9  C12 UNL     1     -20.903  -0.404 -25.671  1.00  0.00    -0.064 C 
ENDROOT
BRANCH   1  10
HETATM   10  C4  UNL     1     -22.199   1.860 -25.312  1.00  0.00     0.050 C 
BRANCH  10  11
HETATM   11  C3  UNL     1     -22.553   1.679 -23.856  1.00  0.00     0.064 C 
BRANCH  11  12
HETATM   12  C2  UNL     1     -21.673   2.649 -23.023  1.00  0.00     0.002 C 
HETATM   13  C1  UNL     1     -21.490   2.112 -21.636  1.00  0.00     0.005 C 
ENDBRANCH  11  12
ENDBRANCH  10  11
BRANCH  10  14
HETATM   14  O1  UNL     1     -23.274   2.511 -25.891  1.00  0.00    -0.364 OA
ATOM     15  H1  UNL     1     -23.550   3.171 -25.266  1.00  0.00     0.217 HD
ENDBRANCH  10  14
ENDBRANCH   1  10
BRANCH   9  16
HETATM   16  C13 UNL     1     -20.680  -0.925 -24.289  1.00  0.00    -0.027 C 
HETATM   17  C14 UNL     1     -19.659  -0.204 -23.469  1.00  0.00     0.019 C 
HETATM   18  C15 UNL     1     -21.928  -1.281 -23.532  1.00  0.00     0.019 C 
HETATM   19  C16 UNL     1     -19.999  -2.290 -24.509  1.00  0.00     0.019 C 
ENDBRANCH   9  16
BRANCH   3  20
HETATM   20  O2  UNL     1     -20.623   2.522 -29.248  1.00  0.00    -0.392 OA
ATOM     21  H2  UNL     1     -19.724   2.250 -29.098  1.00  0.00     0.210 HD
ENDBRANCH   3  20
TORSDOF 6
ENDMDL
MODEL 5
REMARK VINA RESULT: -5.235982062      2.416      4.682
REMARK  6 active torsions:
REMARK  status: ('A' for Active; 'I' for Inactive)
REMARK    1  A    between atoms: C2_2  and  C3_3 
REMARK    2  A    between atoms: C3_3  and  C4_4 
REMARK    3  A    between atoms: C4_4  and  O1_5 
REMARK    4  A    between atoms: C4_4  and  C5_7 
REMARK    5  A    between atoms: C7_9  and  O2_10 
REMARK    6  A    between atoms: C12_17  and  C13_18 
ROOT
HETATM    1  C5  UNL     1     -20.863  -0.324 -27.209  1.00  0.00    -0.024 C 
HETATM    2  C6  UNL     1     -20.346  -0.269 -25.756  1.00  0.00     0.076 C 
HETATM    3  C7  UNL     1     -21.351  -0.589 -24.728  1.00  0.00     0.156 C 
HETATM    4  C8  UNL     1     -22.491   0.319 -24.574  1.00  0.00     0.199 C 
HETATM    5  F1  UNL     1     -23.654  -0.265 -25.102  1.00  0.00    -0.247 F 
HETATM    6  C9  UNL     1     -22.388   1.680 -25.204  1.00  0.00     0.040 C 
HETATM    7  C10 UNL     1     -22.852   1.710 -26.624  1.00  0.00     0.007 C 
HETATM    8  C11 UNL     1     -21.852   1.966 -27.666  1.00  0.00     0.036 C 
HETATM    9  C12 UNL     1     -20.703   0.958 -27.820  1.00  0.00    -0.064 C 
ENDROOT
BRANCH   1  10
HETATM   10  C4  UNL     1     -20.756  -1.672 -27.700  1.00  0.00     0.050 C 
BRANCH  10  11
HETATM   11  C3  UNL     1     -21.923  -2.362 -28.363  1.00  0.00     0.064 C 
BRANCH  11  12
HETATM   12  C2  UNL     1     -23.184  -1.482 -28.155  1.00  0.00     0.002 C 
HETATM   13  C1  UNL     1     -23.959  -1.384 -29.434  1.00  0.00     0.005 C 
ENDBRANCH  11  12
ENDBRANCH  10  11
BRANCH  10  14
HETATM   14  O1  UNL     1     -20.131  -2.634 -26.926  1.00  0.00    -0.364 OA
ATOM     15  H1  UNL     1     -19.266  -2.294 -26.731  1.00  0.00     0.217 HD
ENDBRANCH  10  14
ENDBRANCH   1  10
BRANCH   9  16
HETATM   16  C13 UNL     1     -20.204   1.255 -29.196  1.00  0.00    -0.027 C 
HETATM   17  C14 UNL     1     -18.740   1.052 -29.424  1.00  0.00     0.019 C 
HETATM   18  C15 UNL     1     -21.071   0.748 -30.313  1.00  0.00     0.019 C 
HETATM   19  C16 UNL     1     -20.331   2.786 -29.316  1.00  0.00     0.019 C 
ENDBRANCH   9  16
BRANCH   3  20
HETATM   20  O2  UNL     1     -20.653  -0.741 -23.513  1.00  0.00    -0.392 OA
ATOM     21  H2  UNL     1     -21.287  -1.032 -22.868  1.00  0.00     0.210 HD
ENDBRANCH   3  20
TORSDOF 6
ENDMDL
