MODEL 1
REMARK VINA RESULT: -7.848136367      0.000      0.000
REMARK  4 active torsions:
REMARK  status: ('A' for Active; 'I' for Inactive)
REMARK    1  A    between atoms: C2_2  and  C4_5 
REMARK    2  A    between atoms: C9_14  and  O3_15 
REMARK    3  A    between atoms: C10_17  and  C11_18 
REMARK    4  A    between atoms: C11_18  and  C12_19 
ROOT
HETATM    1  C4  UNL     1      -4.879 -15.023 -18.081  1.00  0.00     0.107 C 
HETATM    2  N1  UNL     1      -3.473 -15.395 -18.099  1.00  0.00    -0.414 N 
ATOM      3  H1  UNL     1      -2.820 -15.071 -17.386  1.00  0.00     0.153 HD
HETATM    4  C5  UNL     1      -3.062 -16.239 -19.170  1.00  0.00     0.122 C 
HETATM    5  C6  UNL     1      -3.662 -17.587 -18.951  1.00  0.00     0.046 C 
HETATM    6  C7  UNL     1      -4.206 -18.328 -20.169  1.00  0.00     0.153 C 
HETATM    7  O1  UNL     1      -4.271 -17.563 -21.272  1.00  0.00    -0.309 OA
HETATM    8  C8  UNL     1      -4.886 -17.529 -22.461  1.00  0.00     0.313 C 
HETATM    9  O2  UNL     1      -4.165 -17.444 -23.487  1.00  0.00    -0.257 OA
HETATM   10  C9  UNL     1      -6.360 -17.581 -22.687  1.00  0.00     0.123 C 
HETATM   11  C10 UNL     1      -7.126 -16.400 -22.226  1.00  0.00     0.054 C 
HETATM   12  C15 UNL     1      -8.105 -16.735 -21.130  1.00  0.00     0.038 C 
HETATM   13  C16 UNL     1      -7.978 -16.186 -19.809  1.00  0.00    -0.029 C 
HETATM   14  C17 UNL     1      -7.053 -15.907 -18.964  1.00  0.00    -0.023 C 
HETATM   15  C18 UNL     1      -5.574 -16.050 -19.007  1.00  0.00     0.044 C 
HETATM   16  C19 UNL     1      -5.091 -17.365 -18.537  1.00  0.00     0.013 C 
HETATM   17  C20 UNL     1      -5.464 -17.693 -17.147  1.00  0.00     0.190 C 
HETATM   18  O4  UNL     1      -5.476 -19.128 -17.090  1.00  0.00    -0.320 OA
HETATM   19  C21 UNL     1      -5.014 -19.638 -18.290  1.00  0.00     0.266 C 
HETATM   20  O5  UNL     1      -4.424 -20.709 -18.530  1.00  0.00    -0.265 OA
HETATM   21  C22 UNL     1      -5.383 -18.582 -19.319  1.00  0.00     0.127 C 
ENDROOT
BRANCH  11  22
HETATM   22  C11 UNL     1      -7.885 -15.645 -23.263  1.00  0.00     0.038 C 
BRANCH  22  23
HETATM   23  C12 UNL     1      -7.371 -14.349 -23.770  1.00  0.00     0.101 C 
HETATM   24  C13 UNL     1      -8.569 -13.569 -24.388  1.00  0.00     0.048 C 
HETATM   25  C14 UNL     1      -8.391 -13.878 -25.847  1.00  0.00     0.141 C 
HETATM   26  N2  UNL     1      -6.994 -14.055 -25.949  1.00  0.00    -0.340 N 
HETATM   27  N3  UNL     1      -6.487 -14.303 -24.842  1.00  0.00    -0.336 N 
ATOM     28  H2  UNL     1      -6.468 -13.988 -26.821  1.00  0.00     0.179 HD
ATOM     29  H3  UNL     1      -5.486 -14.462 -24.728  1.00  0.00     0.180 HD
ENDBRANCH  22  23
ENDBRANCH  11  22
BRANCH  10  30
HETATM   30  O3  UNL     1      -6.650 -18.131 -23.911  1.00  0.00    -0.359 OA
ATOM     31  H3  UNL     1      -7.063 -18.980 -23.813  1.00  0.00     0.217 HD
ENDBRANCH  10  30
BRANCH   1  32
HETATM   32  C2  UNL     1      -4.901 -13.626 -18.668  1.00  0.00     0.050 C 
HETATM   33  C1  UNL     1      -3.634 -12.870 -18.200  1.00  0.00     0.034 C 
HETATM   34  C3  UNL     1      -6.027 -12.834 -18.015  1.00  0.00     0.034 C 
HETATM   35 CL1  UNL     1      -5.008 -13.562 -20.407  1.00  0.00    -0.118 Cl
ENDBRANCH   1  32
TORSDOF 4
ENDMDL
MODEL 2
REMARK VINA RESULT: -7.771248984      3.270      7.242
REMARK  4 active torsions:
REMARK  status: ('A' for Active; 'I' for Inactive)
REMARK    1  A    between atoms: C2_2  and  C4_5 
REMARK    2  A    between atoms: C9_14  and  O3_15 
REMARK    3  A    between atoms: C10_17  and  C11_18 
REMARK    4  A    between atoms: C11_18  and  C12_19 
ROOT
HETATM    1  C4  UNL     1      -5.673 -18.277 -21.545  1.00  0.00     0.107 C 
HETATM    2  N1  UNL     1      -4.512 -17.883 -22.327  1.00  0.00    -0.414 N 
ATOM      3  H1  UNL     1      -4.469 -18.021 -23.336  1.00  0.00     0.153 HD
HETATM    4  C5  UNL     1      -3.440 -17.291 -21.601  1.00  0.00     0.122 C 
HETATM    5  C6  UNL     1      -3.884 -15.943 -21.138  1.00  0.00     0.046 C 
HETATM    6  C7  UNL     1      -3.486 -15.509 -19.731  1.00  0.00     0.153 C 
HETATM    7  O1  UNL     1      -2.960 -16.504 -18.996  1.00  0.00    -0.309 OA
HETATM    8  C8  UNL     1      -2.727 -16.820 -17.716  1.00  0.00     0.313 C 
HETATM    9  O2  UNL     1      -1.548 -17.115 -17.394  1.00  0.00    -0.257 OA
HETATM   10  C9  UNL     1      -3.744 -16.858 -16.624  1.00  0.00     0.123 C 
HETATM   11  C10 UNL     1      -4.766 -17.925 -16.731  1.00  0.00     0.054 C 
HETATM   12  C15 UNL     1      -6.161 -17.378 -16.899  1.00  0.00     0.038 C 
HETATM   13  C16 UNL     1      -6.926 -17.613 -18.091  1.00  0.00    -0.029 C 
HETATM   14  C17 UNL     1      -6.744 -17.671 -19.360  1.00  0.00    -0.023 C 
HETATM   15  C18 UNL     1      -5.537 -17.503 -20.211  1.00  0.00     0.044 C 
HETATM   16  C19 UNL     1      -5.285 -16.104 -20.615  1.00  0.00     0.013 C 
HETATM   17  C20 UNL     1      -6.382 -15.481 -21.383  1.00  0.00     0.190 C 
HETATM   18  O4  UNL     1      -6.256 -14.071 -21.144  1.00  0.00    -0.320 OA
HETATM   19  C21 UNL     1      -5.104 -13.833 -20.415  1.00  0.00     0.266 C 
HETATM   20  O5  UNL     1      -4.367 -12.828 -20.390  1.00  0.00    -0.265 OA
HETATM   21  C22 UNL     1      -4.897 -15.101 -19.605  1.00  0.00     0.127 C 
ENDROOT
BRANCH  11  22
HETATM   22  C11 UNL     1      -4.825 -18.912 -15.616  1.00  0.00     0.038 C 
BRANCH  22  23
HETATM   23  C12 UNL     1      -4.035 -20.166 -15.686  1.00  0.00     0.101 C 
HETATM   24  C13 UNL     1      -3.307 -20.349 -14.321  1.00  0.00     0.048 C 
HETATM   25  C14 UNL     1      -1.942 -19.815 -14.650  1.00  0.00     0.141 C 
HETATM   26  N2  UNL     1      -1.831 -20.100 -16.028  1.00  0.00    -0.340 N 
HETATM   27  N3  UNL     1      -2.947 -20.278 -16.545  1.00  0.00    -0.336 N 
ATOM     28  H2  UNL     1      -0.948 -20.153 -16.534  1.00  0.00     0.179 HD
ATOM     29  H3  UNL     1      -3.058 -20.492 -17.536  1.00  0.00     0.180 HD
ENDBRANCH  22  23
ENDBRANCH  11  22
BRANCH  10  30
HETATM   30  O3  UNL     1      -3.165 -16.605 -15.405  1.00  0.00    -0.359 OA
ATOM     31  H3  UNL     1      -3.598 -17.093 -14.716  1.00  0.00     0.217 HD
ENDBRANCH  10  30
BRANCH   1  32
HETATM   32  C2  UNL     1      -5.501 -19.770 -21.352  1.00  0.00     0.050 C 
HETATM   33  C1  UNL     1      -4.599 -20.317 -22.485  1.00  0.00     0.034 C 
HETATM   34  C3  UNL     1      -6.833 -20.459 -21.620  1.00  0.00     0.034 C 
HETATM   35 CL1  UNL     1      -4.845 -20.240 -19.807  1.00  0.00    -0.118 Cl
ENDBRANCH   1  32
TORSDOF 4
ENDMDL
MODEL 3
REMARK VINA RESULT: -7.660246935      2.532      6.442
REMARK  4 active torsions:
REMARK  status: ('A' for Active; 'I' for Inactive)
REMARK    1  A    between atoms: C2_2  and  C4_5 
REMARK    2  A    between atoms: C9_14  and  O3_15 
REMARK    3  A    between atoms: C10_17  and  C11_18 
REMARK    4  A    between atoms: C11_18  and  C12_19 
ROOT
HETATM    1  C4  UNL     1      -6.850 -16.908 -22.201  1.00  0.00     0.107 C 
HETATM    2  N1  UNL     1      -7.481 -18.216 -22.296  1.00  0.00    -0.414 N 
ATOM      3  H1  UNL     1      -8.219 -18.411 -22.973  1.00  0.00     0.153 HD
HETATM    4  C5  UNL     1      -7.007 -19.208 -21.392  1.00  0.00     0.122 C 
HETATM    5  C6  UNL     1      -5.621 -19.581 -21.801  1.00  0.00     0.046 C 
HETATM    6  C7  UNL     1      -4.591 -19.802 -20.698  1.00  0.00     0.153 C 
HETATM    7  O1  UNL     1      -5.018 -19.413 -19.485  1.00  0.00    -0.309 OA
HETATM    8  C8  UNL     1      -4.528 -19.082 -18.283  1.00  0.00     0.313 C 
HETATM    9  O2  UNL     1      -4.960 -19.713 -17.285  1.00  0.00    -0.257 OA
HETATM   10  C9  UNL     1      -3.509 -18.026 -18.013  1.00  0.00     0.123 C 
HETATM   11  C10 UNL     1      -3.948 -16.631 -18.248  1.00  0.00     0.054 C 
HETATM   12  C15 UNL     1      -3.166 -15.954 -19.345  1.00  0.00     0.038 C 
HETATM   13  C16 UNL     1      -3.792 -15.526 -20.564  1.00  0.00    -0.029 C 
HETATM   14  C17 UNL     1      -4.686 -15.938 -21.388  1.00  0.00    -0.023 C 
HETATM   15  C18 UNL     1      -5.533 -17.158 -21.425  1.00  0.00     0.044 C 
HETATM   16  C19 UNL     1      -4.902 -18.299 -22.119  1.00  0.00     0.013 C 
HETATM   17  C20 UNL     1      -4.548 -18.040 -23.528  1.00  0.00     0.190 C 
HETATM   18  O4  UNL     1      -3.463 -18.936 -23.815  1.00  0.00    -0.320 OA
HETATM   19  C21 UNL     1      -3.262 -19.772 -22.731  1.00  0.00     0.266 C 
HETATM   20  O5  UNL     1      -2.814 -20.934 -22.689  1.00  0.00    -0.265 OA
HETATM   21  C22 UNL     1      -3.718 -18.957 -21.533  1.00  0.00     0.127 C 
ENDROOT
BRANCH  11  22
HETATM   22  C11 UNL     1      -3.923 -15.712 -17.075  1.00  0.00     0.038 C 
BRANCH  22  23
HETATM   23  C12 UNL     1      -4.940 -15.842 -16.002  1.00  0.00     0.101 C 
HETATM   24  C13 UNL     1      -4.275 -15.412 -14.660  1.00  0.00     0.048 C 
HETATM   25  C14 UNL     1      -3.916 -16.749 -14.078  1.00  0.00     0.141 C 
HETATM   26  N2  UNL     1      -4.911 -17.591 -14.619  1.00  0.00    -0.340 N 
HETATM   27  N3  UNL     1      -5.430 -17.088 -15.630  1.00  0.00    -0.336 N 
ATOM     28  H2  UNL     1      -5.171 -18.497 -14.229  1.00  0.00     0.179 HD
ATOM     29  H3  UNL     1      -6.167 -17.560 -16.152  1.00  0.00     0.180 HD
ENDBRANCH  22  23
ENDBRANCH  11  22
BRANCH  10  30
HETATM   30  O3  UNL     1      -2.787 -18.319 -16.882  1.00  0.00    -0.359 OA
ATOM     31  H3  UNL     1      -1.917 -17.941 -16.928  1.00  0.00     0.217 HD
ENDBRANCH  10  30
BRANCH   1  32
HETATM   32  C2  UNL     1      -7.832 -16.081 -21.396  1.00  0.00     0.050 C 
HETATM   33  C1  UNL     1      -9.271 -16.465 -21.820  1.00  0.00     0.034 C 
HETATM   34  C3  UNL     1      -7.728 -14.626 -21.838  1.00  0.00     0.034 C 
HETATM   35 CL1  UNL     1      -7.675 -16.231 -19.667  1.00  0.00    -0.118 Cl
ENDBRANCH   1  32
TORSDOF 4
ENDMDL
MODEL 4
REMARK VINA RESULT: -7.576773944      3.225      7.192
REMARK  4 active torsions:
REMARK  status: ('A' for Active; 'I' for Inactive)
REMARK    1  A    between atoms: C2_2  and  C4_5 
REMARK    2  A    between atoms: C9_14  and  O3_15 
REMARK    3  A    between atoms: C10_17  and  C11_18 
REMARK    4  A    between atoms: C11_18  and  C12_19 
ROOT
HETATM    1  C4  UNL     1      -5.960 -16.793 -21.511  1.00  0.00     0.107 C 
HETATM    2  N1  UNL     1      -4.880 -16.034 -22.123  1.00  0.00    -0.414 N 
ATOM      3  H1  UNL     1      -4.900 -15.765 -23.107  1.00  0.00     0.153 HD
HETATM    4  C5  UNL     1      -3.794 -15.689 -21.269  1.00  0.00     0.122 C 
HETATM    5  C6  UNL     1      -4.281 -14.668 -20.295  1.00  0.00     0.046 C 
HETATM    6  C7  UNL     1      -3.810 -14.786 -18.849  1.00  0.00     0.153 C 
HETATM    7  O1  UNL     1      -3.178 -15.943 -18.588  1.00  0.00    -0.309 OA
HETATM    8  C8  UNL     1      -2.839 -16.714 -17.546  1.00  0.00     0.313 C 
HETATM    9  O2  UNL     1      -1.626 -17.015 -17.416  1.00  0.00    -0.257 OA
HETATM   10  C9  UNL     1      -3.773 -17.254 -16.515  1.00  0.00     0.123 C 
HETATM   11  C10 UNL     1      -4.738 -18.273 -16.990  1.00  0.00     0.054 C 
HETATM   12  C15 UNL     1      -6.170 -17.816 -16.870  1.00  0.00     0.038 C 
HETATM   13  C16 UNL     1      -7.002 -17.628 -18.024  1.00  0.00    -0.029 C 
HETATM   14  C17 UNL     1      -6.906 -17.173 -19.221  1.00  0.00    -0.023 C 
HETATM   15  C18 UNL     1      -5.774 -16.591 -19.988  1.00  0.00     0.044 C 
HETATM   16  C19 UNL     1      -5.631 -15.130 -19.819  1.00  0.00     0.013 C 
HETATM   17  C20 UNL     1      -6.812 -14.347 -20.233  1.00  0.00     0.190 C 
HETATM   18  O4  UNL     1      -6.749 -13.136 -19.464  1.00  0.00    -0.320 OA
HETATM   19  C21 UNL     1      -5.565 -13.110 -18.749  1.00  0.00     0.266 C 
HETATM   20  O5  UNL     1      -4.886 -12.139 -18.362  1.00  0.00    -0.265 OA
HETATM   21  C22 UNL     1      -5.229 -14.572 -18.513  1.00  0.00     0.127 C 
ENDROOT
BRANCH  11  22
HETATM   22  C11 UNL     1      -4.662 -19.618 -16.352  1.00  0.00     0.038 C 
BRANCH  22  23
HETATM   23  C12 UNL     1      -3.473 -20.478 -16.562  1.00  0.00     0.101 C 
HETATM   24  C13 UNL     1      -3.568 -21.675 -15.570  1.00  0.00     0.048 C 
HETATM   25  C14 UNL     1      -2.668 -21.203 -14.464  1.00  0.00     0.141 C 
HETATM   26  N2  UNL     1      -1.745 -20.388 -15.153  1.00  0.00    -0.340 N 
HETATM   27  N3  UNL     1      -2.197 -20.021 -16.252  1.00  0.00    -0.336 N 
ATOM     28  H2  UNL     1      -0.825 -20.132 -14.796  1.00  0.00     0.179 HD
ATOM     29  H3  UNL     1      -1.666 -19.424 -16.884  1.00  0.00     0.180 HD
ENDBRANCH  22  23
ENDBRANCH  11  22
BRANCH  10  30
HETATM   30  O3  UNL     1      -3.125 -17.451 -15.321  1.00  0.00    -0.359 OA
ATOM     31  H3  UNL     1      -3.657 -17.153 -14.593  1.00  0.00     0.217 HD
ENDBRANCH  10  30
BRANCH   1  32
HETATM   32  C2  UNL     1      -5.690 -18.225 -21.928  1.00  0.00     0.050 C 
HETATM   33  C1  UNL     1      -5.035 -18.219 -23.331  1.00  0.00     0.034 C 
HETATM   34  C3  UNL     1      -7.020 -18.924 -22.181  1.00  0.00     0.034 C 
HETATM   35 CL1  UNL     1      -4.695 -19.137 -20.825  1.00  0.00    -0.118 Cl
ENDBRANCH   1  32
TORSDOF 4
ENDMDL
MODEL 5
REMARK VINA RESULT: -7.407727289      3.307      5.515
REMARK  4 active torsions:
REMARK  status: ('A' for Active; 'I' for Inactive)
REMARK    1  A    between atoms: C2_2  and  C4_5 
REMARK    2  A    between atoms: C9_14  and  O3_15 
REMARK    3  A    between atoms: C10_17  and  C11_18 
REMARK    4  A    between atoms: C11_18  and  C12_19 
ROOT
HETATM    1  C4  UNL     1      -9.828 -14.339 -19.003  1.00  0.00     0.107 C 
HETATM    2  N1  UNL     1      -9.826 -12.949 -19.432  1.00  0.00    -0.414 N 
ATOM      3  H1  UNL     1     -10.668 -12.373 -19.400  1.00  0.00     0.153 HD
HETATM    4  C5  UNL     1      -8.582 -12.439 -19.899  1.00  0.00     0.122 C 
HETATM    5  C6  UNL     1      -7.661 -12.328 -18.730  1.00  0.00     0.046 C 
HETATM    6  C7  UNL     1      -6.204 -12.729 -18.935  1.00  0.00     0.153 C 
HETATM    7  O1  UNL     1      -5.981 -13.347 -20.107  1.00  0.00    -0.309 OA
HETATM    8  C8  UNL     1      -5.077 -14.144 -20.691  1.00  0.00     0.313 C 
HETATM    9  O2  UNL     1      -4.579 -13.760 -21.779  1.00  0.00    -0.257 OA
HETATM   10  C9  UNL     1      -4.599 -15.457 -20.167  1.00  0.00     0.123 C 
HETATM   11  C10 UNL     1      -5.598 -16.551 -20.160  1.00  0.00     0.054 C 
HETATM   12  C15 UNL     1      -5.916 -17.036 -18.768  1.00  0.00     0.038 C 
HETATM   13  C16 UNL     1      -7.227 -16.895 -18.201  1.00  0.00    -0.029 C 
HETATM   14  C17 UNL     1      -8.180 -16.035 -18.170  1.00  0.00    -0.023 C 
HETATM   15  C18 UNL     1      -8.337 -14.687 -18.776  1.00  0.00     0.044 C 
HETATM   16  C19 UNL     1      -7.822 -13.592 -17.930  1.00  0.00     0.013 C 
HETATM   17  C20 UNL     1      -8.463 -13.489 -16.604  1.00  0.00     0.190 C 
HETATM   18  O4  UNL     1      -7.486 -12.858 -15.761  1.00  0.00    -0.320 OA
HETATM   19  C21 UNL     1      -6.399 -12.477 -16.527  1.00  0.00     0.266 C 
HETATM   20  O5  UNL     1      -5.594 -11.540 -16.363  1.00  0.00    -0.265 OA
HETATM   21  C22 UNL     1      -6.373 -13.473 -17.674  1.00  0.00     0.127 C 
ENDROOT
BRANCH  11  22
HETATM   22  C11 UNL     1      -5.278 -17.758 -20.972  1.00  0.00     0.038 C 
BRANCH  22  23
HETATM   23  C12 UNL     1      -5.269 -17.681 -22.454  1.00  0.00     0.101 C 
HETATM   24  C13 UNL     1      -4.533 -18.944 -22.993  1.00  0.00     0.048 C 
HETATM   25  C14 UNL     1      -3.160 -18.389 -23.247  1.00  0.00     0.141 C 
HETATM   26  N2  UNL     1      -3.432 -17.036 -23.544  1.00  0.00    -0.340 N 
HETATM   27  N3  UNL     1      -4.546 -16.693 -23.113  1.00  0.00    -0.336 N 
ATOM     28  H2  UNL     1      -2.796 -16.419 -24.047  1.00  0.00     0.179 HD
ATOM     29  H3  UNL     1      -4.907 -15.747 -23.235  1.00  0.00     0.180 HD
ENDBRANCH  22  23
ENDBRANCH  11  22
BRANCH  10  30
HETATM   30  O3  UNL     1      -3.321 -15.721 -20.595  1.00  0.00    -0.359 OA
ATOM     31  H3  UNL     1      -2.997 -16.529 -20.217  1.00  0.00     0.217 HD
ENDBRANCH  10  30
BRANCH   1  32
HETATM   32  C2  UNL     1     -10.411 -15.091 -20.182  1.00  0.00     0.050 C 
HETATM   33  C1  UNL     1     -11.466 -14.192 -20.873  1.00  0.00     0.034 C 
HETATM   34  C3  UNL     1     -11.249 -16.253 -19.661  1.00  0.00     0.034 C 
HETATM   35 CL1  UNL     1      -9.245 -15.629 -21.360  1.00  0.00    -0.118 Cl
ENDBRANCH   1  32
TORSDOF 4
ENDMDL
