MODEL 1
REMARK VINA RESULT: -8.061149037      0.000      0.000
REMARK  4 active torsions:
REMARK  status: ('A' for Active; 'I' for Inactive)
REMARK    1  A    between atoms: N1_1  and  C1_5 
REMARK    2  A    between atoms: C4_8  and  N2_9 
REMARK    3  A    between atoms: N3_13  and  C5_14 
REMARK    4  A    between atoms: C16_32  and  N6_33 
ROOT
HETATM    1  C5  UNL     1      -4.177 -19.433 -18.470  1.00  0.00     0.149 C 
HETATM    2  C6  UNL     1      -4.777 -20.536 -17.611  1.00  0.00     0.033 C 
HETATM    3  C7  UNL     1      -3.851 -21.699 -17.388  1.00  0.00     0.002 C 
HETATM    4  C8  UNL     1      -2.584 -21.401 -16.669  1.00  0.00     0.000 C 
HETATM    5  C9  UNL     1      -2.539 -21.747 -15.226  1.00  0.00     0.006 C 
HETATM    6  C10 UNL     1      -3.242 -20.861 -14.271  1.00  0.00     0.080 C 
HETATM    7  C11 UNL     1      -2.467 -19.667 -13.780  1.00  0.00     0.252 C 
HETATM    8  F1  UNL     1      -1.825 -18.936 -14.711  1.00  0.00    -0.206 F 
HETATM    9  F2  UNL     1      -1.465 -20.183 -12.941  1.00  0.00    -0.206 F 
HETATM   10  C12 UNL     1      -3.336 -18.803 -12.939  1.00  0.00     0.159 C 
HETATM   11  S1  UNL     1      -4.301 -17.552 -13.721  1.00  0.00    -0.104 SA
HETATM   12  C13 UNL     1      -4.069 -17.290 -15.442  1.00  0.00     0.099 A 
HETATM   13  N4  UNL     1      -4.189 -18.280 -16.327  1.00  0.00    -0.337 N 
ATOM     14  H4  UNL     1      -4.428 -19.199 -15.953  1.00  0.00     0.168 HD
HETATM   15  C14 UNL     1      -4.030 -18.198 -17.647  1.00  0.00     0.105 A 
HETATM   16  N5  UNL     1      -3.720 -16.992 -18.136  1.00  0.00    -0.352 N 
ATOM     17  H5  UNL     1      -3.588 -16.872 -19.141  1.00  0.00     0.166 HD
HETATM   18  C15 UNL     1      -3.580 -15.923 -17.307  1.00  0.00     0.121 A 
HETATM   19  C16 UNL     1      -3.748 -16.030 -15.933  1.00  0.00     0.080 A 
ENDROOT
BRANCH   1  20
HETATM   20  N3  UNL     1      -4.837 -19.254 -19.710  1.00  0.00    -0.373 N 
HETATM   21  C4  UNL     1      -4.852 -20.328 -20.631  1.00  0.00     0.280 C 
HETATM   22  C3  UNL     1      -6.240 -20.402 -21.251  1.00  0.00     0.056 C 
HETATM   23  C2  UNL     1      -6.608 -19.075 -21.901  1.00  0.00     0.038 C 
HETATM   24  C1  UNL     1      -6.338 -17.913 -20.991  1.00  0.00     0.201 C 
HETATM   25  C21 UNL     1      -6.049 -18.492 -19.603  1.00  0.00     0.152 C 
BRANCH  21  26
HETATM   26  N2  UNL     1      -3.928 -20.057 -21.715  1.00  0.00    -0.059 N 
ATOM     27  H23 UNL     1      -3.807 -20.846 -22.349  1.00  0.00     0.276 HD
ATOM     28  H22 UNL     1      -4.294 -19.397 -22.401  1.00  0.00     0.276 HD
ATOM     29  H21 UNL     1      -3.056 -19.749 -21.285  1.00  0.00     0.276 HD
ENDBRANCH  21  26
BRANCH  24  30
HETATM   30  N1  UNL     1      -7.448 -16.976 -20.905  1.00  0.00    -0.073 N 
ATOM     31  H13 UNL     1      -7.119 -16.017 -21.018  1.00  0.00     0.274 HD
ATOM     32  H12 UNL     1      -8.046 -17.049 -21.728  1.00  0.00     0.274 HD
ATOM     33  H11 UNL     1      -7.995 -17.073 -20.050  1.00  0.00     0.274 HD
ENDBRANCH  24  30
ENDBRANCH   1  20
BRANCH  19  34
HETATM   34  N6  UNL     1      -3.592 -14.887 -15.088  1.00  0.00    -0.373 N 
HETATM   35  C17 UNL     1      -2.357 -14.538 -14.438  1.00  0.00     0.149 C 
HETATM   36  C18 UNL     1      -2.538 -13.098 -13.921  1.00  0.00     0.187 C 
HETATM   37  O1  UNL     1      -3.523 -13.158 -12.947  1.00  0.00    -0.388 OA
HETATM   38  C19 UNL     1      -4.742 -13.395 -13.518  1.00  0.00     0.187 C 
HETATM   39  C20 UNL     1      -4.730 -14.020 -14.869  1.00  0.00     0.149 C 
ENDBRANCH  19  34
TORSDOF 4
ENDMDL
MODEL 2
REMARK VINA RESULT: -7.955646510      1.691      2.098
REMARK  4 active torsions:
REMARK  status: ('A' for Active; 'I' for Inactive)
REMARK    1  A    between atoms: N1_1  and  C1_5 
REMARK    2  A    between atoms: C4_8  and  N2_9 
REMARK    3  A    between atoms: N3_13  and  C5_14 
REMARK    4  A    between atoms: C16_32  and  N6_33 
ROOT
HETATM    1  C5  UNL     1      -4.293 -18.634 -17.806  1.00  0.00     0.149 C 
HETATM    2  C6  UNL     1      -4.991 -19.879 -17.282  1.00  0.00     0.033 C 
HETATM    3  C7  UNL     1      -4.279 -21.159 -17.623  1.00  0.00     0.002 C 
HETATM    4  C8  UNL     1      -2.908 -21.315 -17.069  1.00  0.00     0.000 C 
HETATM    5  C9  UNL     1      -2.771 -22.161 -15.856  1.00  0.00     0.006 C 
HETATM    6  C10 UNL     1      -3.188 -21.592 -14.556  1.00  0.00     0.080 C 
HETATM    7  C11 UNL     1      -2.155 -20.772 -13.828  1.00  0.00     0.252 C 
HETATM    8  F1  UNL     1      -1.494 -19.850 -14.552  1.00  0.00    -0.206 F 
HETATM    9  F2  UNL     1      -1.182 -21.687 -13.393  1.00  0.00    -0.206 F 
HETATM   10  C12 UNL     1      -2.751 -20.160 -12.612  1.00  0.00     0.159 C 
HETATM   11  S1  UNL     1      -3.545 -18.592 -12.753  1.00  0.00    -0.104 SA
HETATM   12  C13 UNL     1      -3.458 -17.762 -14.298  1.00  0.00     0.099 A 
HETATM   13  N4  UNL     1      -3.856 -18.341 -15.431  1.00  0.00    -0.337 N 
ATOM     14  H4  UNL     1      -4.219 -19.291 -15.354  1.00  0.00     0.168 HD
HETATM   15  C14 UNL     1      -3.830 -17.810 -16.652  1.00  0.00     0.105 A 
HETATM   16  N5  UNL     1      -3.355 -16.563 -16.751  1.00  0.00    -0.352 N 
ATOM     17  H5  UNL     1      -3.314 -16.109 -17.664  1.00  0.00     0.166 HD
HETATM   18  C15 UNL     1      -2.928 -15.895 -15.647  1.00  0.00     0.121 A 
HETATM   19  C16 UNL     1      -2.963 -16.466 -14.382  1.00  0.00     0.080 A 
ENDROOT
BRANCH   1  20
HETATM   20  N3  UNL     1      -5.039 -17.932 -18.784  1.00  0.00    -0.373 N 
HETATM   21  C4  UNL     1      -4.782 -18.194 -20.151  1.00  0.00     0.280 C 
HETATM   22  C3  UNL     1      -6.116 -18.249 -20.882  1.00  0.00     0.056 C 
HETATM   23  C2  UNL     1      -6.894 -16.956 -20.675  1.00  0.00     0.038 C 
HETATM   24  C1  UNL     1      -6.935 -16.554 -19.231  1.00  0.00     0.201 C 
HETATM   25  C21 UNL     1      -6.416 -17.745 -18.421  1.00  0.00     0.152 C 
BRANCH  21  26
HETATM   26  N2  UNL     1      -4.037 -17.092 -20.729  1.00  0.00    -0.059 N 
ATOM     27  H23 UNL     1      -3.082 -17.342 -20.985  1.00  0.00     0.276 HD
ATOM     28  H22 UNL     1      -4.357 -16.836 -21.663  1.00  0.00     0.276 HD
ATOM     29  H21 UNL     1      -4.088 -16.324 -20.061  1.00  0.00     0.276 HD
ENDBRANCH  21  26
BRANCH  24  30
HETATM   30  N1  UNL     1      -8.267 -16.195 -18.768  1.00  0.00    -0.073 N 
ATOM     31  H13 UNL     1      -8.832 -17.030 -18.611  1.00  0.00     0.274 HD
ATOM     32  H12 UNL     1      -8.233 -15.832 -17.815  1.00  0.00     0.274 HD
ATOM     33  H11 UNL     1      -8.749 -15.544 -19.387  1.00  0.00     0.274 HD
ENDBRANCH  24  30
ENDBRANCH   1  20
BRANCH  19  34
HETATM   34  N6  UNL     1      -2.505 -15.737 -13.240  1.00  0.00    -0.373 N 
HETATM   35  C17 UNL     1      -3.280 -14.723 -12.575  1.00  0.00     0.149 C 
HETATM   36  C18 UNL     1      -2.568 -14.451 -11.236  1.00  0.00     0.187 C 
HETATM   37  O1  UNL     1      -1.339 -13.896 -11.557  1.00  0.00    -0.388 OA
HETATM   38  C19 UNL     1      -0.520 -14.842 -12.110  1.00  0.00     0.187 C 
HETATM   39  C20 UNL     1      -1.191 -16.029 -12.706  1.00  0.00     0.149 C 
ENDBRANCH  19  34
TORSDOF 4
ENDMDL
MODEL 3
REMARK VINA RESULT: -7.895156763      1.387      1.574
REMARK  4 active torsions:
REMARK  status: ('A' for Active; 'I' for Inactive)
REMARK    1  A    between atoms: N1_1  and  C1_5 
REMARK    2  A    between atoms: C4_8  and  N2_9 
REMARK    3  A    between atoms: N3_13  and  C5_14 
REMARK    4  A    between atoms: C16_32  and  N6_33 
ROOT
HETATM    1  C5  UNL     1      -3.944 -19.601 -19.908  1.00  0.00     0.149 C 
HETATM    2  C6  UNL     1      -4.707 -20.756 -19.278  1.00  0.00     0.033 C 
HETATM    3  C7  UNL     1      -3.897 -22.018 -19.156  1.00  0.00     0.002 C 
HETATM    4  C8  UNL     1      -2.687 -21.940 -18.296  1.00  0.00     0.000 C 
HETATM    5  C9  UNL     1      -2.808 -22.491 -16.922  1.00  0.00     0.006 C 
HETATM    6  C10 UNL     1      -3.531 -21.691 -15.908  1.00  0.00     0.080 C 
HETATM    7  C11 UNL     1      -2.718 -20.653 -15.179  1.00  0.00     0.252 C 
HETATM    8  F1  UNL     1      -1.936 -19.858 -15.933  1.00  0.00    -0.206 F 
HETATM    9  F2  UNL     1      -1.844 -21.372 -14.346  1.00  0.00    -0.206 F 
HETATM   10  C12 UNL     1      -3.596 -19.845 -14.294  1.00  0.00     0.159 C 
HETATM   11  S1  UNL     1      -4.382 -18.413 -14.958  1.00  0.00    -0.104 SA
HETATM   12  C13 UNL     1      -3.967 -17.930 -16.595  1.00  0.00     0.099 A 
HETATM   13  N4  UNL     1      -4.075 -18.769 -17.625  1.00  0.00    -0.337 N 
ATOM     14  H4  UNL     1      -4.418 -19.707 -17.415  1.00  0.00     0.168 HD
HETATM   15  C14 UNL     1      -3.784 -18.513 -18.899  1.00  0.00     0.105 A 
HETATM   16  N5  UNL     1      -3.337 -17.282 -19.174  1.00  0.00    -0.352 N 
ATOM     17  H5  UNL     1      -3.100 -17.033 -20.134  1.00  0.00     0.166 HD
HETATM   18  C15 UNL     1      -3.196 -16.360 -18.185  1.00  0.00     0.121 A 
HETATM   19  C16 UNL     1      -3.505 -16.647 -16.862  1.00  0.00     0.080 A 
ENDROOT
BRANCH   1  20
HETATM   20  N3  UNL     1      -4.465 -19.188 -21.158  1.00  0.00    -0.373 N 
HETATM   21  C4  UNL     1      -3.872 -19.691 -22.340  1.00  0.00     0.280 C 
HETATM   22  C3  UNL     1      -4.984 -20.026 -23.323  1.00  0.00     0.056 C 
HETATM   23  C2  UNL     1      -5.853 -18.804 -23.586  1.00  0.00     0.038 C 
HETATM   24  C1  UNL     1      -6.263 -18.126 -22.313  1.00  0.00     0.201 C 
HETATM   25  C21 UNL     1      -5.896 -19.072 -21.166  1.00  0.00     0.152 C 
BRANCH  21  26
HETATM   26  N2  UNL     1      -3.065 -18.659 -22.962  1.00  0.00    -0.059 N 
ATOM     27  H23 UNL     1      -2.390 -19.024 -23.633  1.00  0.00     0.276 HD
ATOM     28  H22 UNL     1      -3.590 -18.075 -23.613  1.00  0.00     0.276 HD
ATOM     29  H21 UNL     1      -2.635 -18.130 -22.204  1.00  0.00     0.276 HD
ENDBRANCH  21  26
BRANCH  24  30
HETATM   30  N1  UNL     1      -7.683 -17.818 -22.253  1.00  0.00    -0.073 N 
ATOM     31  H13 UNL     1      -7.859 -17.047 -21.608  1.00  0.00     0.274 HD
ATOM     32  H12 UNL     1      -7.997 -17.386 -23.123  1.00  0.00     0.274 HD
ATOM     33  H11 UNL     1      -8.264 -18.623 -22.020  1.00  0.00     0.274 HD
ENDBRANCH  24  30
ENDBRANCH   1  20
BRANCH  19  34
HETATM   34  N6  UNL     1      -3.344 -15.655 -15.844  1.00  0.00    -0.373 N 
HETATM   35  C17 UNL     1      -2.201 -15.582 -14.973  1.00  0.00     0.149 C 
HETATM   36  C18 UNL     1      -2.276 -14.206 -14.283  1.00  0.00     0.187 C 
HETATM   37  O1  UNL     1      -3.410 -14.235 -13.486  1.00  0.00    -0.388 OA
HETATM   38  C19 UNL     1      -4.537 -14.210 -14.261  1.00  0.00     0.187 C 
HETATM   39  C20 UNL     1      -4.379 -14.657 -15.672  1.00  0.00     0.149 C 
ENDBRANCH  19  34
TORSDOF 4
ENDMDL
MODEL 4
REMARK VINA RESULT: -7.699717581      2.052      2.713
REMARK  4 active torsions:
REMARK  status: ('A' for Active; 'I' for Inactive)
REMARK    1  A    between atoms: N1_1  and  C1_5 
REMARK    2  A    between atoms: C4_8  and  N2_9 
REMARK    3  A    between atoms: N3_13  and  C5_14 
REMARK    4  A    between atoms: C16_32  and  N6_33 
ROOT
HETATM    1  C5  UNL     1      -3.859 -18.457 -18.000  1.00  0.00     0.149 C 
HETATM    2  C6  UNL     1      -4.711 -19.634 -17.549  1.00  0.00     0.033 C 
HETATM    3  C7  UNL     1      -4.109 -20.973 -17.871  1.00  0.00     0.002 C 
HETATM    4  C8  UNL     1      -2.800 -21.275 -17.232  1.00  0.00     0.000 C 
HETATM    5  C9  UNL     1      -2.829 -22.148 -16.031  1.00  0.00     0.006 C 
HETATM    6  C10 UNL     1      -3.274 -21.559 -14.748  1.00  0.00     0.080 C 
HETATM    7  C11 UNL     1      -2.216 -20.858 -13.937  1.00  0.00     0.252 C 
HETATM    8  F1  UNL     1      -1.419 -19.996 -14.597  1.00  0.00    -0.206 F 
HETATM    9  F2  UNL     1      -1.370 -21.873 -13.460  1.00  0.00    -0.206 F 
HETATM   10  C12 UNL     1      -2.828 -20.208 -12.749  1.00  0.00     0.159 C 
HETATM   11  S1  UNL     1      -3.451 -18.566 -12.909  1.00  0.00    -0.104 SA
HETATM   12  C13 UNL     1      -3.179 -17.726 -14.426  1.00  0.00     0.099 A 
HETATM   13  N4  UNL     1      -3.556 -18.245 -15.595  1.00  0.00    -0.337 N 
ATOM     14  H4  UNL     1      -4.016 -19.155 -15.563  1.00  0.00     0.168 HD
HETATM   15  C14 UNL     1      -3.395 -17.702 -16.801  1.00  0.00     0.105 A 
HETATM   16  N5  UNL     1      -2.793 -16.507 -16.842  1.00  0.00    -0.352 N 
ATOM     17  H5  UNL     1      -2.646 -16.046 -17.739  1.00  0.00     0.166 HD
HETATM   18  C15 UNL     1      -2.377 -15.902 -15.697  1.00  0.00     0.121 A 
HETATM   19  C16 UNL     1      -2.553 -16.485 -14.450  1.00  0.00     0.080 A 
ENDROOT
BRANCH   1  20
HETATM   20  N3  UNL     1      -4.465 -17.670 -19.009  1.00  0.00    -0.373 N 
HETATM   21  C4  UNL     1      -5.548 -16.830 -18.655  1.00  0.00     0.280 C 
HETATM   22  C3  UNL     1      -5.375 -15.503 -19.379  1.00  0.00     0.056 C 
HETATM   23  C2  UNL     1      -5.279 -15.722 -20.883  1.00  0.00     0.038 C 
HETATM   24  C1  UNL     1      -4.304 -16.808 -21.228  1.00  0.00     0.201 C 
HETATM   25  C21 UNL     1      -3.525 -17.131 -19.950  1.00  0.00     0.152 C 
BRANCH  21  26
HETATM   26  N2  UNL     1      -6.791 -17.405 -19.133  1.00  0.00    -0.059 N 
ATOM     27  H23 UNL     1      -6.727 -18.406 -19.317  1.00  0.00     0.276 HD
ATOM     28  H22 UNL     1      -7.514 -17.452 -18.415  1.00  0.00     0.276 HD
ATOM     29  H21 UNL     1      -7.068 -16.862 -19.950  1.00  0.00     0.276 HD
ENDBRANCH  21  26
BRANCH  24  30
HETATM   30  N1  UNL     1      -3.374 -16.437 -22.283  1.00  0.00    -0.073 N 
ATOM     31  H13 UNL     1      -3.500 -15.460 -22.548  1.00  0.00     0.274 HD
ATOM     32  H12 UNL     1      -2.419 -16.395 -21.925  1.00  0.00     0.274 HD
ATOM     33  H11 UNL     1      -3.427 -17.044 -23.102  1.00  0.00     0.274 HD
ENDBRANCH  24  30
ENDBRANCH   1  20
BRANCH  19  34
HETATM   34  N6  UNL     1      -2.102 -15.823 -13.265  1.00  0.00    -0.373 N 
HETATM   35  C17 UNL     1      -2.822 -14.755 -12.624  1.00  0.00     0.149 C 
HETATM   36  C18 UNL     1      -2.173 -14.574 -11.238  1.00  0.00     0.187 C 
HETATM   37  O1  UNL     1      -0.881 -14.129 -11.471  1.00  0.00    -0.388 OA
HETATM   38  C19 UNL     1      -0.119 -15.136 -11.996  1.00  0.00     0.187 C 
HETATM   39  C20 UNL     1      -0.856 -16.245 -12.661  1.00  0.00     0.149 C 
ENDBRANCH  19  34
TORSDOF 4
ENDMDL
MODEL 5
REMARK VINA RESULT: -7.657434305      1.706      2.064
REMARK  4 active torsions:
REMARK  status: ('A' for Active; 'I' for Inactive)
REMARK    1  A    between atoms: N1_1  and  C1_5 
REMARK    2  A    between atoms: C4_8  and  N2_9 
REMARK    3  A    between atoms: N3_13  and  C5_14 
REMARK    4  A    between atoms: C16_32  and  N6_33 
ROOT
HETATM    1  C5  UNL     1      -4.070 -18.808 -19.799  1.00  0.00     0.149 C 
HETATM    2  C6  UNL     1      -4.967 -19.957 -19.365  1.00  0.00     0.033 C 
HETATM    3  C7  UNL     1      -4.364 -21.315 -19.602  1.00  0.00     0.002 C 
HETATM    4  C8  UNL     1      -3.105 -21.610 -18.870  1.00  0.00     0.000 C 
HETATM    5  C9  UNL     1      -3.224 -22.441 -17.645  1.00  0.00     0.006 C 
HETATM    6  C10 UNL     1      -3.743 -21.804 -16.414  1.00  0.00     0.080 C 
HETATM    7  C11 UNL     1      -2.729 -21.088 -15.560  1.00  0.00     0.252 C 
HETATM    8  F1  UNL     1      -1.879 -20.260 -16.194  1.00  0.00    -0.206 F 
HETATM    9  F2  UNL     1      -1.931 -22.097 -14.994  1.00  0.00    -0.206 F 
HETATM   10  C12 UNL     1      -3.407 -20.390 -14.437  1.00  0.00     0.159 C 
HETATM   11  S1  UNL     1      -3.994 -18.747 -14.691  1.00  0.00    -0.104 SA
HETATM   12  C13 UNL     1      -3.612 -17.962 -16.215  1.00  0.00     0.099 A 
HETATM   13  N4  UNL     1      -3.920 -18.517 -17.388  1.00  0.00    -0.337 N 
ATOM     14  H4  UNL     1      -4.394 -19.419 -17.355  1.00  0.00     0.168 HD
HETATM   15  C14 UNL     1      -3.673 -18.017 -18.598  1.00  0.00     0.105 A 
HETATM   16  N5  UNL     1      -3.053 -16.832 -18.640  1.00  0.00    -0.352 N 
ATOM     17  H5  UNL     1      -2.840 -16.404 -19.541  1.00  0.00     0.166 HD
HETATM   18  C15 UNL     1      -2.703 -16.194 -17.491  1.00  0.00     0.121 A 
HETATM   19  C16 UNL     1      -2.968 -16.731 -16.239  1.00  0.00     0.080 A 
ENDROOT
BRANCH   1  20
HETATM   20  N3  UNL     1      -4.597 -18.048 -20.871  1.00  0.00    -0.373 N 
HETATM   21  C4  UNL     1      -3.850 -17.955 -22.069  1.00  0.00     0.280 C 
HETATM   22  C3  UNL     1      -4.815 -18.077 -23.240  1.00  0.00     0.056 C 
HETATM   23  C2  UNL     1      -5.902 -17.014 -23.151  1.00  0.00     0.038 C 
HETATM   24  C1  UNL     1      -6.511 -16.951 -21.782  1.00  0.00     0.201 C 
HETATM   25  C21 UNL     1      -6.019 -18.183 -21.018  1.00  0.00     0.152 C 
BRANCH  21  26
HETATM   26  N2  UNL     1      -3.242 -16.643 -22.168  1.00  0.00    -0.059 N 
ATOM     27  H23 UNL     1      -3.501 -16.020 -21.402  1.00  0.00     0.276 HD
ATOM     28  H22 UNL     1      -2.237 -16.650 -21.992  1.00  0.00     0.276 HD
ATOM     29  H21 UNL     1      -3.487 -16.275 -23.086  1.00  0.00     0.276 HD
ENDBRANCH  21  26
BRANCH  24  30
HETATM   30  N1  UNL     1      -7.965 -16.936 -21.796  1.00  0.00    -0.073 N 
ATOM     31  H13 UNL     1      -8.328 -16.376 -21.024  1.00  0.00     0.274 HD
ATOM     32  H12 UNL     1      -8.314 -16.387 -22.582  1.00  0.00     0.274 HD
ATOM     33  H11 UNL     1      -8.380 -17.868 -21.793  1.00  0.00     0.274 HD
ENDBRANCH  24  30
ENDBRANCH   1  20
BRANCH  19  34
HETATM   34  N6  UNL     1      -2.585 -16.035 -15.050  1.00  0.00    -0.373 N 
HETATM   35  C17 UNL     1      -1.310 -16.199 -14.404  1.00  0.00     0.149 C 
HETATM   36  C18 UNL     1      -1.193 -15.045 -13.390  1.00  0.00     0.187 C 
HETATM   37  O1  UNL     1      -2.177 -15.266 -12.438  1.00  0.00    -0.388 OA
HETATM   38  C19 UNL     1      -3.414 -15.032 -12.971  1.00  0.00     0.187 C 
HETATM   39  C20 UNL     1      -3.520 -15.104 -14.454  1.00  0.00     0.149 C 
ENDBRANCH  19  34
TORSDOF 4
ENDMDL
