MODEL 1
REMARK VINA RESULT: -7.939921151      0.000      0.000
REMARK  9 active torsions:
REMARK  status: ('A' for Active; 'I' for Inactive)
REMARK    1  A    between atoms: C3_3  and  N1_4 
REMARK    2  A    between atoms: N1_4  and  C5_6 
REMARK    3  A    between atoms: C5_6  and  C6_7 
REMARK    4  A    between atoms: C6_7  and  N2_8 
REMARK       I    between atoms: N2_8  and  C8_10 
REMARK    5  A    between atoms: C8_10  and  O2_12 
REMARK    6  A    between atoms: O2_12  and  C9_13 
REMARK    7  A    between atoms: C26_31  and  O4_32 
REMARK    8  A    between atoms: C30_37  and  O5_39 
REMARK    9  A    between atoms: C34_43  and  O6_45 
ROOT
HETATM    1  C1  UNL     1       6.884  39.737  27.935  1.00  0.00     0.013 C 
HETATM    2  C2  UNL     1       7.420  38.982  28.693  1.00  0.00    -0.087 C 
HETATM    3  C3  UNL     1       8.057  38.039  29.632  1.00  0.00     0.364 C 
ENDROOT
BRANCH   3   4
HETATM    4  N1  UNL     1       7.625  36.662  29.252  1.00  0.00     0.096 N 
HETATM    5  C4  UNL     1       8.253  35.849  30.313  1.00  0.00     0.311 C 
BRANCH   4   6
HETATM    6  C5  UNL     1       8.253  36.415  27.996  1.00  0.00     0.293 C 
BRANCH   6   7
HETATM    7  C6  UNL     1       7.484  35.652  26.979  1.00  0.00     0.157 C 
BRANCH   7   8
HETATM    8  N2  UNL     1       6.698  36.400  26.071  1.00  0.00    -0.331 N 
HETATM    9  C7  UNL     1       5.344  36.781  26.506  1.00  0.00     0.155 C 
HETATM   10  C8  UNL     1       7.115  36.800  24.795  1.00  0.00     0.362 C 
HETATM   11  O1  UNL     1       8.253  36.530  24.382  1.00  0.00    -0.238 OA
BRANCH  10  12
HETATM   12  O2  UNL     1       6.306  37.509  23.926  1.00  0.00    -0.298 OA
BRANCH  12  13
HETATM   13  C9  UNL     1       6.267  38.957  23.843  1.00  0.00     0.141 C 
HETATM   14  C10 UNL     1       7.612  39.341  23.470  1.00  0.00     0.065 C 
HETATM   15  C11 UNL     1       8.161  39.200  22.124  1.00  0.00     0.136 C 
HETATM   16  O3  UNL     1       7.398  39.402  21.037  1.00  0.00    -0.366 OA
HETATM   17  C29 UNL     1       8.930  40.479  21.739  1.00  0.00     0.090 C 
HETATM   18  C12 UNL     1       7.767  40.718  20.819  1.00  0.00     0.118 C 
HETATM   19  C13 UNL     1       6.845  41.739  21.306  1.00  0.00     0.011 C 
HETATM   20  C34 UNL     1       8.362  41.024  19.463  1.00  0.00     0.089 C 
HETATM   21  C14 UNL     1       5.841  41.563  22.342  1.00  0.00    -0.018 C 
HETATM   22  C15 UNL     1       4.829  40.504  22.356  1.00  0.00    -0.020 C 
HETATM   23  C16 UNL     1       4.432  40.239  20.902  1.00  0.00     0.020 C 
HETATM   24  C17 UNL     1       3.522  41.162  22.889  1.00  0.00     0.019 C 
HETATM   25  C28 UNL     1       5.007  39.293  23.178  1.00  0.00     0.035 C 
HETATM   26  C18 UNL     1       2.442  40.131  22.713  1.00  0.00    -0.002 C 
HETATM   27  C19 UNL     1       1.067  40.734  22.542  1.00  0.00     0.006 C 
HETATM   28  C25 UNL     1       2.572  39.358  24.003  1.00  0.00    -0.003 A 
HETATM   29  C20 UNL     1       0.094  39.777  23.199  1.00  0.00     0.009 C 
HETATM   30  C21 UNL     1       0.250  39.995  24.689  1.00  0.00    -0.047 C 
HETATM   31  C22 UNL     1      -0.346  41.352  25.003  1.00  0.00     0.015 C 
HETATM   32  C23 UNL     1      -0.522  38.972  25.487  1.00  0.00     0.015 C 
HETATM   33  C24 UNL     1       1.705  40.036  25.061  1.00  0.00     0.021 C 
HETATM   34  C26 UNL     1       2.959  37.966  24.122  1.00  0.00     0.133 A 
HETATM   35  C27 UNL     1       3.944  39.100  24.284  1.00  0.00     0.034 A 
HETATM   36  C33 UNL     1       9.578  41.938  19.694  1.00  0.00     0.044 C 
HETATM   37  C35 UNL     1       7.503  41.763  18.508  1.00  0.00     0.049 C 
HETATM   38  C32 UNL     1      10.704  40.979  20.012  1.00  0.00     0.041 C 
HETATM   39  C30 UNL     1      10.245  40.176  21.196  1.00  0.00     0.063 C 
HETATM   40  C31 UNL     1      11.283  40.458  22.301  1.00  0.00     0.046 C 
BRANCH  34  41
HETATM   41  O4  UNL     1       3.074  37.119  23.027  1.00  0.00    -0.394 OA
ATOM     42  H4  UNL     1       2.596  36.302  22.955  1.00  0.00     0.210 HD
ENDBRANCH  34  41
BRANCH  20  43
HETATM   43  O6  UNL     1       8.771  39.852  18.810  1.00  0.00    -0.387 OA
ATOM     44  H6  UNL     1       9.391  39.361  19.337  1.00  0.00     0.210 HD
ENDBRANCH  20  43
BRANCH  39  45
HETATM   45  O5  UNL     1      10.455  38.807  20.899  1.00  0.00    -0.390 OA
ATOM     46  H5  UNL     1      11.094  38.648  20.214  1.00  0.00     0.210 HD
ENDBRANCH  39  45
ENDBRANCH  12  13
ENDBRANCH  10  12
ENDBRANCH   7   8
ENDBRANCH   6   7
ENDBRANCH   4   6
ENDBRANCH   3   4
TORSDOF 9
ENDMDL
MODEL 2
REMARK VINA RESULT: -7.674248856      1.568      2.296
REMARK  9 active torsions:
REMARK  status: ('A' for Active; 'I' for Inactive)
REMARK    1  A    between atoms: C3_3  and  N1_4 
REMARK    2  A    between atoms: N1_4  and  C5_6 
REMARK    3  A    between atoms: C5_6  and  C6_7 
REMARK    4  A    between atoms: C6_7  and  N2_8 
REMARK       I    between atoms: N2_8  and  C8_10 
REMARK    5  A    between atoms: C8_10  and  O2_12 
REMARK    6  A    between atoms: O2_12  and  C9_13 
REMARK    7  A    between atoms: C26_31  and  O4_32 
REMARK    8  A    between atoms: C30_37  and  O5_39 
REMARK    9  A    between atoms: C34_43  and  O6_45 
ROOT
HETATM    1  C1  UNL     1       9.749  33.774  26.152  1.00  0.00     0.013 C 
HETATM    2  C2  UNL     1       9.570  33.715  27.334  1.00  0.00    -0.087 C 
HETATM    3  C3  UNL     1       9.371  33.658  28.795  1.00  0.00     0.364 C 
ENDROOT
BRANCH   3   4
HETATM    4  N1  UNL     1       9.419  35.057  29.313  1.00  0.00     0.096 N 
HETATM    5  C4  UNL     1       9.381  34.836  30.772  1.00  0.00     0.311 C 
BRANCH   4   6
HETATM    6  C5  UNL     1       8.202  35.653  28.867  1.00  0.00     0.293 C 
BRANCH   6   7
HETATM    7  C6  UNL     1       8.256  37.061  28.397  1.00  0.00     0.157 C 
BRANCH   7   8
HETATM    8  N2  UNL     1       7.185  37.513  27.590  1.00  0.00    -0.331 N 
HETATM    9  C7  UNL     1       6.210  38.426  28.209  1.00  0.00     0.155 C 
HETATM   10  C8  UNL     1       6.988  37.152  26.250  1.00  0.00     0.362 C 
HETATM   11  O1  UNL     1       7.788  36.405  25.666  1.00  0.00    -0.238 OA
BRANCH  10  12
HETATM   12  O2  UNL     1       5.913  37.595  25.501  1.00  0.00    -0.298 OA
BRANCH  12  13
HETATM   13  C9  UNL     1       5.702  38.976  25.111  1.00  0.00     0.141 C 
HETATM   14  C10 UNL     1       6.933  39.366  24.457  1.00  0.00     0.065 C 
HETATM   15  C11 UNL     1       7.309  38.959  23.106  1.00  0.00     0.136 C 
HETATM   16  O3  UNL     1       6.388  38.842  22.134  1.00  0.00    -0.366 OA
HETATM   17  C29 UNL     1       7.871  40.169  22.335  1.00  0.00     0.090 C 
HETATM   18  C12 UNL     1       6.576  40.096  21.578  1.00  0.00     0.118 C 
HETATM   19  C13 UNL     1       5.619  41.127  21.968  1.00  0.00     0.011 C 
HETATM   20  C34 UNL     1       6.945  40.124  20.113  1.00  0.00     0.089 C 
HETATM   21  C14 UNL     1       4.789  41.120  23.161  1.00  0.00    -0.018 C 
HETATM   22  C15 UNL     1       3.914  40.018  23.565  1.00  0.00    -0.020 C 
HETATM   23  C16 UNL     1       3.357  39.390  22.285  1.00  0.00     0.020 C 
HETATM   24  C17 UNL     1       2.625  40.677  24.139  1.00  0.00     0.019 C 
HETATM   25  C28 UNL     1       4.334  39.049  24.594  1.00  0.00     0.035 C 
HETATM   26  C18 UNL     1       1.653  39.552  24.364  1.00  0.00    -0.002 C 
HETATM   27  C19 UNL     1       0.209  39.989  24.282  1.00  0.00     0.006 C 
HETATM   28  C25 UNL     1       2.041  39.113  25.755  1.00  0.00    -0.003 A 
HETATM   29  C20 UNL     1      -0.554  39.138  25.276  1.00  0.00     0.009 C 
HETATM   30  C21 UNL     1      -0.225  39.709  26.640  1.00  0.00    -0.047 C 
HETATM   31  C22 UNL     1      -0.920  41.051  26.738  1.00  0.00     0.015 C 
HETATM   32  C23 UNL     1      -0.763  38.842  27.753  1.00  0.00     0.015 C 
HETATM   33  C24 UNL     1       1.253  39.948  26.761  1.00  0.00     0.021 C 
HETATM   34  C26 UNL     1       2.594  37.821  26.113  1.00  0.00     0.133 A 
HETATM   35  C27 UNL     1       3.458  39.036  25.868  1.00  0.00     0.034 A 
HETATM   36  C33 UNL     1       8.072  41.159  19.945  1.00  0.00     0.044 C 
HETATM   37  C35 UNL     1       5.888  40.551  19.165  1.00  0.00     0.049 C 
HETATM   38  C32 UNL     1       9.330  40.391  20.285  1.00  0.00     0.041 C 
HETATM   39  C30 UNL     1       9.127  39.853  21.672  1.00  0.00     0.063 C 
HETATM   40  C31 UNL     1      10.266  40.464  22.513  1.00  0.00     0.046 C 
BRANCH  34  41
HETATM   41  O4  UNL     1       2.654  36.755  25.226  1.00  0.00    -0.394 OA
ATOM     42  H4  UNL     1       3.383  36.147  25.199  1.00  0.00     0.210 HD
ENDBRANCH  34  41
BRANCH  20  43
HETATM   43  O6  UNL     1       7.391  38.868  19.676  1.00  0.00    -0.387 OA
ATOM     44  H6  UNL     1       7.964  38.947  18.923  1.00  0.00     0.210 HD
ENDBRANCH  20  43
BRANCH  39  45
HETATM   45  O5  UNL     1       9.446  38.473  21.653  1.00  0.00    -0.390 OA
ATOM     46  H5  UNL     1       8.731  37.909  21.384  1.00  0.00     0.210 HD
ENDBRANCH  39  45
ENDBRANCH  12  13
ENDBRANCH  10  12
ENDBRANCH   7   8
ENDBRANCH   6   7
ENDBRANCH   4   6
ENDBRANCH   3   4
TORSDOF 9
ENDMDL
MODEL 3
REMARK VINA RESULT: -7.566313519      2.342      7.297
REMARK  9 active torsions:
REMARK  status: ('A' for Active; 'I' for Inactive)
REMARK    1  A    between atoms: C3_3  and  N1_4 
REMARK    2  A    between atoms: N1_4  and  C5_6 
REMARK    3  A    between atoms: C5_6  and  C6_7 
REMARK    4  A    between atoms: C6_7  and  N2_8 
REMARK       I    between atoms: N2_8  and  C8_10 
REMARK    5  A    between atoms: C8_10  and  O2_12 
REMARK    6  A    between atoms: O2_12  and  C9_13 
REMARK    7  A    between atoms: C26_31  and  O4_32 
REMARK    8  A    between atoms: C30_37  and  O5_39 
REMARK    9  A    between atoms: C34_43  and  O6_45 
ROOT
HETATM    1  C1  UNL     1       9.393  34.152  26.071  1.00  0.00     0.013 C 
HETATM    2  C2  UNL     1       9.378  34.006  27.259  1.00  0.00    -0.087 C 
HETATM    3  C3  UNL     1       9.378  33.844  28.726  1.00  0.00     0.364 C 
ENDROOT
BRANCH   3   4
HETATM    4  N1  UNL     1       9.378  35.208  29.331  1.00  0.00     0.096 N 
HETATM    5  C4  UNL     1       9.613  34.902  30.756  1.00  0.00     0.311 C 
BRANCH   4   6
HETATM    6  C5  UNL     1       8.051  35.694  29.138  1.00  0.00     0.293 C 
BRANCH   6   7
HETATM    7  C6  UNL     1       7.771  37.104  29.513  1.00  0.00     0.157 C 
BRANCH   7   8
HETATM    8  N2  UNL     1       6.811  37.798  28.739  1.00  0.00    -0.331 N 
HETATM    9  C7  UNL     1       5.852  38.652  29.459  1.00  0.00     0.155 C 
HETATM   10  C8  UNL     1       6.709  37.728  27.343  1.00  0.00     0.362 C 
HETATM   11  O1  UNL     1       7.503  37.044  26.679  1.00  0.00    -0.238 OA
BRANCH  10  12
HETATM   12  O2  UNL     1       5.739  38.402  26.624  1.00  0.00    -0.298 OA
BRANCH  12  13
HETATM   13  C9  UNL     1       4.965  37.815  25.547  1.00  0.00     0.141 C 
HETATM   14  C10 UNL     1       3.884  37.116  26.208  1.00  0.00     0.065 C 
HETATM   15  C11 UNL     1       2.718  37.774  26.792  1.00  0.00     0.136 C 
HETATM   16  O3  UNL     1       2.169  38.855  26.215  1.00  0.00    -0.366 OA
HETATM   17  C29 UNL     1       1.439  37.004  26.410  1.00  0.00     0.090 C 
HETATM   18  C12 UNL     1       1.176  38.185  25.521  1.00  0.00     0.118 C 
HETATM   19  C13 UNL     1       1.439  37.918  24.110  1.00  0.00     0.011 C 
HETATM   20  C34 UNL     1      -0.243  38.618  25.811  1.00  0.00     0.089 C 
HETATM   21  C14 UNL     1       2.744  37.877  23.475  1.00  0.00    -0.018 C 
HETATM   22  C15 UNL     1       3.752  38.937  23.561  1.00  0.00    -0.020 C 
HETATM   23  C16 UNL     1       3.002  40.271  23.604  1.00  0.00     0.020 C 
HETATM   24  C17 UNL     1       4.407  39.027  22.152  1.00  0.00     0.019 C 
HETATM   25  C28 UNL     1       4.884  38.835  24.501  1.00  0.00     0.035 C 
HETATM   26  C18 UNL     1       5.291  40.242  22.188  1.00  0.00    -0.002 C 
HETATM   27  C19 UNL     1       5.490  40.873  20.828  1.00  0.00     0.006 C 
HETATM   28  C25 UNL     1       6.567  39.651  22.736  1.00  0.00    -0.003 A 
HETATM   29  C20 UNL     1       6.899  41.429  20.816  1.00  0.00     0.009 C 
HETATM   30  C21 UNL     1       7.809  40.232  20.641  1.00  0.00    -0.047 C 
HETATM   31  C22 UNL     1       7.626  39.739  19.220  1.00  0.00     0.015 C 
HETATM   32  C23 UNL     1       9.263  40.608  20.801  1.00  0.00     0.015 C 
HETATM   33  C24 UNL     1       7.396  39.124  21.568  1.00  0.00     0.021 C 
HETATM   34  C26 UNL     1       7.180  39.988  24.006  1.00  0.00     0.133 A 
HETATM   35  C27 UNL     1       6.277  38.789  23.832  1.00  0.00     0.034 A 
HETATM   36  C33 UNL     1      -1.092  37.341  25.948  1.00  0.00     0.044 C 
HETATM   37  C35 UNL     1      -0.924  39.419  24.765  1.00  0.00     0.049 C 
HETATM   38  C32 UNL     1      -0.889  36.918  27.387  1.00  0.00     0.041 C 
HETATM   39  C30 UNL     1       0.593  36.752  27.566  1.00  0.00     0.063 C 
HETATM   40  C31 UNL     1       0.786  35.277  27.975  1.00  0.00     0.046 C 
BRANCH  34  41
HETATM   41  O4  UNL     1       6.753  41.050  24.791  1.00  0.00    -0.394 OA
ATOM     42  H4  UNL     1       5.958  41.021  25.310  1.00  0.00     0.210 HD
ENDBRANCH  34  41
BRANCH  20  43
HETATM   43  O6  UNL     1      -0.317  39.362  26.997  1.00  0.00    -0.387 OA
ATOM     44  H6  UNL     1      -1.188  39.326  27.374  1.00  0.00     0.210 HD
ENDBRANCH  20  43
BRANCH  39  45
HETATM   45  O5  UNL     1       0.971  37.461  28.733  1.00  0.00    -0.390 OA
ATOM     46  H5  UNL     1       0.772  38.389  28.708  1.00  0.00     0.210 HD
ENDBRANCH  39  45
ENDBRANCH  12  13
ENDBRANCH  10  12
ENDBRANCH   7   8
ENDBRANCH   6   7
ENDBRANCH   4   6
ENDBRANCH   3   4
TORSDOF 9
ENDMDL
MODEL 4
REMARK VINA RESULT: -7.529529873      2.528      7.358
REMARK  9 active torsions:
REMARK  status: ('A' for Active; 'I' for Inactive)
REMARK    1  A    between atoms: C3_3  and  N1_4 
REMARK    2  A    between atoms: N1_4  and  C5_6 
REMARK    3  A    between atoms: C5_6  and  C6_7 
REMARK    4  A    between atoms: C6_7  and  N2_8 
REMARK       I    between atoms: N2_8  and  C8_10 
REMARK    5  A    between atoms: C8_10  and  O2_12 
REMARK    6  A    between atoms: O2_12  and  C9_13 
REMARK    7  A    between atoms: C26_31  and  O4_32 
REMARK    8  A    between atoms: C30_37  and  O5_39 
REMARK    9  A    between atoms: C34_43  and  O6_45 
ROOT
HETATM    1  C1  UNL     1       4.878  35.496  24.007  1.00  0.00     0.013 C 
HETATM    2  C2  UNL     1       3.721  35.292  24.235  1.00  0.00    -0.087 C 
HETATM    3  C3  UNL     1       2.300  35.044  24.543  1.00  0.00     0.364 C 
ENDROOT
BRANCH   3   4
HETATM    4  N1  UNL     1       1.844  36.119  25.473  1.00  0.00     0.096 N 
HETATM    5  C4  UNL     1       1.529  35.346  26.691  1.00  0.00     0.311 C 
BRANCH   4   6
HETATM    6  C5  UNL     1       0.650  36.629  24.883  1.00  0.00     0.293 C 
BRANCH   6   7
HETATM    7  C6  UNL     1       0.753  37.235  23.530  1.00  0.00     0.157 C 
BRANCH   7   8
HETATM    8  N2  UNL     1       1.247  38.558  23.452  1.00  0.00    -0.331 N 
HETATM    9  C7  UNL     1       0.400  39.629  24.001  1.00  0.00     0.155 C 
HETATM   10  C8  UNL     1       2.480  38.918  22.892  1.00  0.00     0.362 C 
HETATM   11  O1  UNL     1       3.248  38.058  22.434  1.00  0.00    -0.238 OA
BRANCH  10  12
HETATM   12  O2  UNL     1       2.916  40.227  22.811  1.00  0.00    -0.298 OA
BRANCH  12  13
HETATM   13  C9  UNL     1       4.100  40.737  23.478  1.00  0.00     0.141 C 
HETATM   14  C10 UNL     1       3.763  40.724  24.885  1.00  0.00     0.065 C 
HETATM   15  C11 UNL     1       3.722  39.519  25.708  1.00  0.00     0.136 C 
HETATM   16  O3  UNL     1       4.604  38.522  25.525  1.00  0.00    -0.366 OA
HETATM   17  C29 UNL     1       4.411  39.787  27.061  1.00  0.00     0.090 C 
HETATM   18  C12 UNL     1       5.496  38.907  26.511  1.00  0.00     0.118 C 
HETATM   19  C13 UNL     1       6.673  39.647  26.067  1.00  0.00     0.011 C 
HETATM   20  C34 UNL     1       5.784  37.879  27.582  1.00  0.00     0.089 C 
HETATM   21  C14 UNL     1       6.801  40.386  24.822  1.00  0.00    -0.018 C 
HETATM   22  C15 UNL     1       6.523  39.841  23.492  1.00  0.00    -0.020 C 
HETATM   23  C16 UNL     1       6.936  38.367  23.512  1.00  0.00     0.020 C 
HETATM   24  C17 UNL     1       7.613  40.426  22.548  1.00  0.00     0.019 C 
HETATM   25  C28 UNL     1       5.244  40.114  22.810  1.00  0.00     0.035 C 
HETATM   26  C18 UNL     1       7.447  39.711  21.236  1.00  0.00    -0.002 C 
HETATM   27  C19 UNL     1       8.728  39.629  20.437  1.00  0.00     0.006 C 
HETATM   28  C25 UNL     1       6.410  40.580  20.567  1.00  0.00    -0.003 A 
HETATM   29  C20 UNL     1       8.329  39.712  18.978  1.00  0.00     0.009 C 
HETATM   30  C21 UNL     1       8.002  41.168  18.725  1.00  0.00    -0.047 C 
HETATM   31  C22 UNL     1       9.311  41.930  18.763  1.00  0.00     0.015 C 
HETATM   32  C23 UNL     1       7.401  41.377  17.356  1.00  0.00     0.015 C 
HETATM   33  C24 UNL     1       7.128  41.704  19.823  1.00  0.00     0.021 C 
HETATM   34  C26 UNL     1       5.068  40.169  20.201  1.00  0.00     0.133 A 
HETATM   35  C27 UNL     1       5.372  40.902  21.487  1.00  0.00     0.034 A 
HETATM   36  C33 UNL     1       5.768  38.613  28.935  1.00  0.00     0.044 C 
HETATM   37  C35 UNL     1       7.104  37.208  27.526  1.00  0.00     0.049 C 
HETATM   38  C32 UNL     1       4.304  38.652  29.315  1.00  0.00     0.041 C 
HETATM   39  C30 UNL     1       3.598  39.339  28.181  1.00  0.00     0.063 C 
HETATM   40  C31 UNL     1       2.940  40.584  28.810  1.00  0.00     0.046 C 
BRANCH  34  41
HETATM   41  O4  UNL     1       4.642  38.849  20.257  1.00  0.00    -0.394 OA
ATOM     42  H4  UNL     1       4.495  38.389  21.074  1.00  0.00     0.210 HD
ENDBRANCH  34  41
BRANCH  20  43
HETATM   43  O6  UNL     1       4.817  36.863  27.586  1.00  0.00    -0.387 OA
ATOM     44  H6  UNL     1       5.050  36.163  26.988  1.00  0.00     0.210 HD
ENDBRANCH  20  43
BRANCH  39  45
HETATM   45  O5  UNL     1       2.488  38.539  27.814  1.00  0.00    -0.390 OA
ATOM     46  H5  UNL     1       1.840  38.429  28.500  1.00  0.00     0.210 HD
ENDBRANCH  39  45
ENDBRANCH  12  13
ENDBRANCH  10  12
ENDBRANCH   7   8
ENDBRANCH   6   7
ENDBRANCH   4   6
ENDBRANCH   3   4
TORSDOF 9
ENDMDL
MODEL 5
REMARK VINA RESULT: -7.483348768      2.631      7.391
REMARK  9 active torsions:
REMARK  status: ('A' for Active; 'I' for Inactive)
REMARK    1  A    between atoms: C3_3  and  N1_4 
REMARK    2  A    between atoms: N1_4  and  C5_6 
REMARK    3  A    between atoms: C5_6  and  C6_7 
REMARK    4  A    between atoms: C6_7  and  N2_8 
REMARK       I    between atoms: N2_8  and  C8_10 
REMARK    5  A    between atoms: C8_10  and  O2_12 
REMARK    6  A    between atoms: O2_12  and  C9_13 
REMARK    7  A    between atoms: C26_31  and  O4_32 
REMARK    8  A    between atoms: C30_37  and  O5_39 
REMARK    9  A    between atoms: C34_43  and  O6_45 
ROOT
HETATM    1  C1  UNL     1       0.753  35.633  28.387  1.00  0.00     0.013 C 
HETATM    2  C2  UNL     1       1.429  35.652  27.400  1.00  0.00    -0.087 C 
HETATM    3  C3  UNL     1       2.253  35.652  26.176  1.00  0.00     0.364 C 
ENDROOT
BRANCH   3   4
HETATM    4  N1  UNL     1       1.367  35.277  25.035  1.00  0.00     0.096 N 
HETATM    5  C4  UNL     1       2.354  34.919  23.996  1.00  0.00     0.311 C 
BRANCH   4   6
HETATM    6  C5  UNL     1       0.691  36.483  24.686  1.00  0.00     0.293 C 
BRANCH   6   7
HETATM    7  C6  UNL     1       0.950  37.054  23.339  1.00  0.00     0.157 C 
BRANCH   7   8
HETATM    8  N2  UNL     1       1.361  38.406  23.281  1.00  0.00    -0.331 N 
HETATM    9  C7  UNL     1       0.378  39.430  23.673  1.00  0.00     0.155 C 
HETATM   10  C8  UNL     1       2.632  38.837  22.877  1.00  0.00     0.362 C 
HETATM   11  O1  UNL     1       3.511  38.022  22.558  1.00  0.00    -0.238 OA
BRANCH  10  12
HETATM   12  O2  UNL     1       2.988  40.171  22.809  1.00  0.00    -0.298 OA
BRANCH  12  13
HETATM   13  C9  UNL     1       4.150  40.742  23.464  1.00  0.00     0.141 C 
HETATM   14  C10 UNL     1       3.810  40.756  24.871  1.00  0.00     0.065 C 
HETATM   15  C11 UNL     1       3.810  39.573  25.727  1.00  0.00     0.136 C 
HETATM   16  O3  UNL     1       4.728  38.604  25.573  1.00  0.00    -0.366 OA
HETATM   17  C29 UNL     1       4.485  39.904  27.073  1.00  0.00     0.090 C 
HETATM   18  C12 UNL     1       5.602  39.048  26.550  1.00  0.00     0.118 C 
HETATM   19  C13 UNL     1       6.753  39.818  26.088  1.00  0.00     0.011 C 
HETATM   20  C34 UNL     1       5.924  38.062  27.650  1.00  0.00     0.089 C 
HETATM   21  C14 UNL     1       6.859  40.526  24.823  1.00  0.00    -0.018 C 
HETATM   22  C15 UNL     1       6.604  39.935  23.508  1.00  0.00    -0.020 C 
HETATM   23  C16 UNL     1       7.070  38.478  23.570  1.00  0.00     0.020 C 
HETATM   24  C17 UNL     1       7.676  40.533  22.550  1.00  0.00     0.019 C 
HETATM   25  C28 UNL     1       5.318  40.142  22.816  1.00  0.00     0.035 C 
HETATM   26  C18 UNL     1       7.539  39.777  21.258  1.00  0.00    -0.002 C 
HETATM   27  C19 UNL     1       8.825  39.719  20.465  1.00  0.00     0.006 C 
HETATM   28  C25 UNL     1       6.473  40.588  20.563  1.00  0.00    -0.003 A 
HETATM   29  C20 UNL     1       8.428  39.746  19.003  1.00  0.00     0.009 C 
HETATM   30  C21 UNL     1       8.049  41.183  18.710  1.00  0.00    -0.047 C 
HETATM   31  C22 UNL     1       9.329  41.992  18.729  1.00  0.00     0.015 C 
HETATM   32  C23 UNL     1       7.446  41.331  17.333  1.00  0.00     0.015 C 
HETATM   33  C24 UNL     1       7.153  41.716  19.790  1.00  0.00     0.021 C 
HETATM   34  C26 UNL     1       5.149  40.119  20.206  1.00  0.00     0.133 A 
HETATM   35  C27 UNL     1       5.422  40.898  21.472  1.00  0.00     0.034 A 
HETATM   36  C33 UNL     1       5.877  38.832  28.981  1.00  0.00     0.044 C 
HETATM   37  C35 UNL     1       7.268  37.437  27.615  1.00  0.00     0.049 C 
HETATM   38  C32 UNL     1       4.412  38.828  29.357  1.00  0.00     0.041 C 
HETATM   39  C30 UNL     1       3.685  39.457  28.203  1.00  0.00     0.063 C 
HETATM   40  C31 UNL     1       2.981  40.694  28.796  1.00  0.00     0.046 C 
BRANCH  34  41
HETATM   41  O4  UNL     1       4.771  38.786  20.298  1.00  0.00    -0.394 OA
ATOM     42  H4  UNL     1       4.090  38.483  20.886  1.00  0.00     0.210 HD
ENDBRANCH  34  41
BRANCH  20  43
HETATM   43  O6  UNL     1       4.995  37.012  27.680  1.00  0.00    -0.387 OA
ATOM     44  H6  UNL     1       5.223  36.331  27.058  1.00  0.00     0.210 HD
ENDBRANCH  20  43
BRANCH  39  45
HETATM   45  O5  UNL     1       2.605  38.608  27.856  1.00  0.00    -0.390 OA
ATOM     46  H5  UNL     1       2.527  37.832  28.399  1.00  0.00     0.210 HD
ENDBRANCH  39  45
ENDBRANCH  12  13
ENDBRANCH  10  12
ENDBRANCH   7   8
ENDBRANCH   6   7
ENDBRANCH   4   6
ENDBRANCH   3   4
TORSDOF 9
ENDMDL
