MODEL 1
REMARK VINA RESULT: -8.383875913      0.000      0.000
REMARK  13 active torsions:
REMARK  status: ('A' for Active; 'I' for Inactive)
REMARK    1  A    between atoms: C2_2  and  O1_5 
REMARK    2  A    between atoms: O1_5  and  C5_6 
REMARK    3  A    between atoms: C5_6  and  C6_7 
REMARK    4  A    between atoms: C6_7  and  C7_8 
REMARK    5  A    between atoms: C7_8  and  N1_9 
REMARK    6  A    between atoms: N1_9  and  C8_11 
REMARK    7  A    between atoms: C8_11  and  N2_13 
REMARK    8  A    between atoms: N2_13  and  N3_15 
REMARK       I    between atoms: N3_15  and  C9_16 
REMARK       I    between atoms: C9_16  and  N4_18 
REMARK    9  A    between atoms: N4_18  and  N5_20 
REMARK   10  A    between atoms: N5_20  and  C10_21 
REMARK   11  A    between atoms: C10_21  and  O3_22 
REMARK   12  A    between atoms: C10_21  and  N6_24 
REMARK   13  A    between atoms: N6_24  and  C11_26 
ROOT
HETATM    1  N3  UNL     1     -15.629  16.084 -49.297  1.00  0.00    -0.261 NA
HETATM    2  C9  UNL     1     -14.620  15.724 -50.108  1.00  0.00     0.441 C 
HETATM    3  O2  UNL     1     -14.692  14.863 -50.992  1.00  0.00    -0.226 OA
HETATM    4  N4  UNL     1     -13.342  16.389 -49.815  1.00  0.00    -0.167 N 
ATOM      5  H4  UNL     1     -13.316  17.164 -49.152  1.00  0.00     0.208 HD
ENDROOT
BRANCH   4   6
HETATM    6  N5  UNL     1     -12.233  15.996 -50.399  1.00  0.00    -0.275 NA
BRANCH   6   7
HETATM    7  C10 UNL     1     -11.021  15.633 -50.920  1.00  0.00     0.315 C 
BRANCH   7   8
HETATM    8  O3  UNL     1     -10.979  15.365 -52.260  1.00  0.00    -0.320 OA
ATOM      9  H3  UNL     1     -10.170  15.003 -52.600  1.00  0.00     0.222 HD
ENDBRANCH   7   8
BRANCH   7  10
HETATM   10  N6  UNL     1      -9.768  15.435 -50.380  1.00  0.00    -0.337 N 
ATOM     11  H6  UNL     1      -9.361  14.500 -50.388  1.00  0.00     0.164 HD
BRANCH  10  12
HETATM   12  C11 UNL     1      -9.008  16.549 -49.792  1.00  0.00     0.108 C 
HETATM   13  C12 UNL     1      -9.973  17.437 -49.151  1.00  0.00     0.046 C 
HETATM   14  C13 UNL     1      -9.812  18.929 -49.390  1.00  0.00     0.128 C 
HETATM   15  N7  UNL     1      -9.569  19.086 -50.803  1.00  0.00    -0.345 N 
HETATM   16  C14 UNL     1      -9.873  19.573 -52.082  1.00  0.00     0.222 C 
HETATM   17  C16 UNL     1      -8.389  18.460 -51.336  1.00  0.00     0.116 C 
HETATM   18  O4  UNL     1     -10.475  20.536 -52.629  1.00  0.00    -0.273 OA
HETATM   19  C15 UNL     1      -9.141  18.388 -52.688  1.00  0.00     0.130 C 
HETATM   20  C17 UNL     1      -8.046  17.142 -50.792  1.00  0.00     0.128 C 
HETATM   21 CL1  UNL     1      -6.384  17.214 -50.194  1.00  0.00    -0.121 Cl
ENDBRANCH  10  12
ENDBRANCH   7  10
ENDBRANCH   6   7
ENDBRANCH   4   6
BRANCH   1  22
HETATM   22  N2  UNL     1     -16.621  16.431 -48.506  1.00  0.00    -0.204 N 
ATOM     23  H2  UNL     1     -16.955  15.843 -47.742  1.00  0.00     0.204 HD
BRANCH  22  24
HETATM   24  C8  UNL     1     -17.197  17.728 -48.821  1.00  0.00     0.197 C 
HETATM   25  S1  UNL     1     -16.586  18.967 -47.794  1.00  0.00    -0.039 SA
BRANCH  24  26
HETATM   26  N1  UNL     1     -18.084  18.102 -49.774  1.00  0.00    -0.365 N 
ATOM     27  H1  UNL     1     -18.914  18.523 -49.357  1.00  0.00     0.161 HD
BRANCH  26  28
HETATM   28  C7  UNL     1     -18.181  18.074 -51.196  1.00  0.00     0.124 C 
BRANCH  28  29
HETATM   29  C6  UNL     1     -18.723  19.305 -51.859  1.00  0.00     0.046 C 
BRANCH  29  30
HETATM   30  C5  UNL     1     -20.275  19.211 -51.601  1.00  0.00     0.170 C 
BRANCH  30  31
HETATM   31  O1  UNL     1     -20.728  18.770 -52.854  1.00  0.00    -0.381 OA
BRANCH  31  32
HETATM   32  C2  UNL     1     -21.694  17.814 -52.831  1.00  0.00     0.050 C 
HETATM   33  C1  UNL     1     -22.610  17.823 -54.040  1.00  0.00     0.045 C 
HETATM   34  C3  UNL     1     -22.564  18.038 -51.579  1.00  0.00     0.045 C 
HETATM   35  C4  UNL     1     -21.107  16.410 -52.658  1.00  0.00     0.045 C 
ENDBRANCH  31  32
ENDBRANCH  30  31
ENDBRANCH  29  30
ENDBRANCH  28  29
ENDBRANCH  26  28
ENDBRANCH  24  26
ENDBRANCH  22  24
ENDBRANCH   1  22
TORSDOF 13
ENDMDL
MODEL 2
REMARK VINA RESULT: -8.312643591      3.016      4.918
REMARK  13 active torsions:
REMARK  status: ('A' for Active; 'I' for Inactive)
REMARK    1  A    between atoms: C2_2  and  O1_5 
REMARK    2  A    between atoms: O1_5  and  C5_6 
REMARK    3  A    between atoms: C5_6  and  C6_7 
REMARK    4  A    between atoms: C6_7  and  C7_8 
REMARK    5  A    between atoms: C7_8  and  N1_9 
REMARK    6  A    between atoms: N1_9  and  C8_11 
REMARK    7  A    between atoms: C8_11  and  N2_13 
REMARK    8  A    between atoms: N2_13  and  N3_15 
REMARK       I    between atoms: N3_15  and  C9_16 
REMARK       I    between atoms: C9_16  and  N4_18 
REMARK    9  A    between atoms: N4_18  and  N5_20 
REMARK   10  A    between atoms: N5_20  and  C10_21 
REMARK   11  A    between atoms: C10_21  and  O3_22 
REMARK   12  A    between atoms: C10_21  and  N6_24 
REMARK   13  A    between atoms: N6_24  and  C11_26 
ROOT
HETATM    1  N3  UNL     1     -15.635  16.160 -49.610  1.00  0.00    -0.261 NA
HETATM    2  C9  UNL     1     -14.573  15.727 -50.309  1.00  0.00     0.441 C 
HETATM    3  O2  UNL     1     -14.595  14.813 -51.140  1.00  0.00    -0.226 OA
HETATM    4  N4  UNL     1     -13.306  16.381 -49.951  1.00  0.00    -0.167 N 
ATOM      5  H4  UNL     1     -13.314  17.196 -49.337  1.00  0.00     0.208 HD
ENDROOT
BRANCH   4   6
HETATM    6  N5  UNL     1     -12.163  15.927 -50.414  1.00  0.00    -0.275 NA
BRANCH   6   7
HETATM    7  C10 UNL     1     -10.963  15.552 -50.951  1.00  0.00     0.315 C 
BRANCH   7   8
HETATM    8  O3  UNL     1     -10.937  15.302 -52.295  1.00  0.00    -0.320 OA
ATOM      9  H3  UNL     1     -10.491  14.514 -52.577  1.00  0.00     0.222 HD
ENDBRANCH   7   8
BRANCH   7  10
HETATM   10  N6  UNL     1      -9.708  15.327 -50.426  1.00  0.00    -0.337 N 
ATOM     11  H6  UNL     1      -9.336  14.377 -50.405  1.00  0.00     0.164 HD
BRANCH  10  12
HETATM   12  C11 UNL     1      -8.895  16.432 -49.895  1.00  0.00     0.108 C 
HETATM   13  C12 UNL     1      -9.803  17.335 -49.193  1.00  0.00     0.046 C 
HETATM   14  C13 UNL     1      -9.638  18.824 -49.447  1.00  0.00     0.128 C 
HETATM   15  N7  UNL     1      -9.490  18.974 -50.874  1.00  0.00    -0.345 N 
HETATM   16  C14 UNL     1      -9.872  19.461 -52.131  1.00  0.00     0.222 C 
HETATM   17  C16 UNL     1      -8.356  18.330 -51.483  1.00  0.00     0.116 C 
HETATM   18  O4  UNL     1     -10.497  20.431 -52.641  1.00  0.00    -0.273 OA
HETATM   19  C15 UNL     1      -9.199  18.265 -52.781  1.00  0.00     0.130 C 
HETATM   20  C17 UNL     1      -7.995  17.010 -50.959  1.00  0.00     0.128 C 
HETATM   21 CL1  UNL     1      -6.295  17.061 -50.473  1.00  0.00    -0.121 Cl
ENDBRANCH  10  12
ENDBRANCH   7  10
ENDBRANCH   6   7
ENDBRANCH   4   6
BRANCH   1  22
HETATM   22  N2  UNL     1     -16.680  16.579 -48.929  1.00  0.00    -0.204 N 
ATOM     23  H2  UNL     1     -17.250  15.963 -48.348  1.00  0.00     0.204 HD
BRANCH  22  24
HETATM   24  C8  UNL     1     -16.948  18.000 -49.080  1.00  0.00     0.197 C 
HETATM   25  S1  UNL     1     -17.819  18.338 -50.525  1.00  0.00    -0.039 SA
BRANCH  24  26
HETATM   26  N1  UNL     1     -16.654  19.053 -48.279  1.00  0.00    -0.365 N 
ATOM     27  H1  UNL     1     -16.648  19.925 -48.808  1.00  0.00     0.161 HD
BRANCH  26  28
HETATM   28  C7  UNL     1     -16.352  19.284 -46.906  1.00  0.00     0.124 C 
BRANCH  28  29
HETATM   29  C6  UNL     1     -15.826  18.117 -46.125  1.00  0.00     0.046 C 
BRANCH  29  30
HETATM   30  C5  UNL     1     -14.379  18.577 -45.702  1.00  0.00     0.170 C 
BRANCH  30  31
HETATM   31  O1  UNL     1     -14.067  19.468 -46.741  1.00  0.00    -0.381 OA
BRANCH  31  32
HETATM   32  C2  UNL     1     -12.866  19.272 -47.347  1.00  0.00     0.050 C 
HETATM   33  C1  UNL     1     -11.852  20.370 -47.092  1.00  0.00     0.045 C 
HETATM   34  C3  UNL     1     -13.101  19.191 -48.868  1.00  0.00     0.045 C 
HETATM   35  C4  UNL     1     -12.247  17.922 -46.971  1.00  0.00     0.045 C 
ENDBRANCH  31  32
ENDBRANCH  30  31
ENDBRANCH  29  30
ENDBRANCH  28  29
ENDBRANCH  26  28
ENDBRANCH  24  26
ENDBRANCH  22  24
ENDBRANCH   1  22
TORSDOF 13
ENDMDL
MODEL 3
REMARK VINA RESULT: -8.245542311      4.960      9.223
REMARK  13 active torsions:
REMARK  status: ('A' for Active; 'I' for Inactive)
REMARK    1  A    between atoms: C2_2  and  O1_5 
REMARK    2  A    between atoms: O1_5  and  C5_6 
REMARK    3  A    between atoms: C5_6  and  C6_7 
REMARK    4  A    between atoms: C6_7  and  C7_8 
REMARK    5  A    between atoms: C7_8  and  N1_9 
REMARK    6  A    between atoms: N1_9  and  C8_11 
REMARK    7  A    between atoms: C8_11  and  N2_13 
REMARK    8  A    between atoms: N2_13  and  N3_15 
REMARK       I    between atoms: N3_15  and  C9_16 
REMARK       I    between atoms: C9_16  and  N4_18 
REMARK    9  A    between atoms: N4_18  and  N5_20 
REMARK   10  A    between atoms: N5_20  and  C10_21 
REMARK   11  A    between atoms: C10_21  and  O3_22 
REMARK   12  A    between atoms: C10_21  and  N6_24 
REMARK   13  A    between atoms: N6_24  and  C11_26 
ROOT
HETATM    1  N3  UNL     1     -11.299  15.557 -53.215  1.00  0.00    -0.261 NA
HETATM    2  C9  UNL     1     -11.268  15.577 -51.872  1.00  0.00     0.441 C 
HETATM    3  O2  UNL     1     -11.319  14.578 -51.146  1.00  0.00    -0.226 OA
HETATM    4  N4  UNL     1     -11.249  16.925 -51.287  1.00  0.00    -0.167 N 
ATOM      5  H4  UNL     1     -11.110  17.736 -51.891  1.00  0.00     0.208 HD
ENDROOT
BRANCH   4   6
HETATM    6  N5  UNL     1     -11.411  17.097 -49.995  1.00  0.00    -0.275 NA
BRANCH   6   7
HETATM    7  C10 UNL     1     -11.689  17.254 -48.665  1.00  0.00     0.315 C 
BRANCH   7   8
HETATM    8  O3  UNL     1     -10.632  17.511 -47.837  1.00  0.00    -0.320 OA
ATOM      9  H3  UNL     1     -10.379  16.821 -47.237  1.00  0.00     0.222 HD
ENDBRANCH   7   8
BRANCH   7  10
HETATM   10  N6  UNL     1     -12.844  17.183 -47.914  1.00  0.00    -0.337 N 
ATOM     11  H6  UNL     1     -13.147  16.281 -47.545  1.00  0.00     0.164 HD
BRANCH  10  12
HETATM   12  C11 UNL     1     -13.648  18.384 -47.637  1.00  0.00     0.108 C 
HETATM   13  C12 UNL     1     -13.604  18.606 -46.195  1.00  0.00     0.046 C 
HETATM   14  C13 UNL     1     -14.915  18.938 -45.502  1.00  0.00     0.128 C 
HETATM   15  N7  UNL     1     -15.891  18.013 -46.024  1.00  0.00    -0.345 N 
HETATM   16  C14 UNL     1     -16.837  16.986 -45.902  1.00  0.00     0.222 C 
HETATM   17  C16 UNL     1     -16.153  18.070 -47.437  1.00  0.00     0.116 C 
HETATM   18  O4  UNL     1     -17.631  16.502 -45.051  1.00  0.00    -0.273 OA
HETATM   19  C15 UNL     1     -16.550  16.576 -47.336  1.00  0.00     0.130 C 
HETATM   20  C17 UNL     1     -14.997  18.305 -48.307  1.00  0.00     0.128 C 
HETATM   21 CL1  UNL     1     -15.351  19.714 -49.316  1.00  0.00    -0.121 Cl
ENDBRANCH  10  12
ENDBRANCH   7  10
ENDBRANCH   6   7
ENDBRANCH   4   6
BRANCH   1  22
HETATM   22  N2  UNL     1     -11.330  15.530 -54.530  1.00  0.00    -0.204 N 
ATOM     23  H2  UNL     1     -12.017  14.994 -55.060  1.00  0.00     0.204 HD
BRANCH  22  24
HETATM   24  C8  UNL     1     -10.295  16.335 -55.158  1.00  0.00     0.197 C 
HETATM   25  S1  UNL     1      -9.717  15.615 -56.611  1.00  0.00    -0.039 SA
BRANCH  24  26
HETATM   26  N1  UNL     1      -9.757  17.527 -54.808  1.00  0.00    -0.365 N 
ATOM     27  H1  UNL     1     -10.209  18.295 -55.304  1.00  0.00     0.161 HD
BRANCH  26  28
HETATM   28  C7  UNL     1      -8.734  18.011 -53.939  1.00  0.00     0.124 C 
BRANCH  28  29
HETATM   29  C6  UNL     1      -8.959  19.356 -53.316  1.00  0.00     0.046 C 
BRANCH  29  30
HETATM   30  C5  UNL     1      -8.985  19.047 -51.771  1.00  0.00     0.170 C 
BRANCH  30  31
HETATM   31  O1  UNL     1      -8.334  17.804 -51.735  1.00  0.00    -0.381 OA
BRANCH  31  32
HETATM   32  C2  UNL     1      -7.620  17.543 -50.609  1.00  0.00     0.050 C 
HETATM   33  C1  UNL     1      -8.037  16.277 -49.886  1.00  0.00     0.045 C 
HETATM   34  C3  UNL     1      -7.805  18.724 -49.636  1.00  0.00     0.045 C 
HETATM   35  C4  UNL     1      -6.114  17.489 -50.883  1.00  0.00     0.045 C 
ENDBRANCH  31  32
ENDBRANCH  30  31
ENDBRANCH  29  30
ENDBRANCH  28  29
ENDBRANCH  26  28
ENDBRANCH  24  26
ENDBRANCH  22  24
ENDBRANCH   1  22
TORSDOF 13
ENDMDL
MODEL 4
REMARK VINA RESULT: -8.245120822      0.781      1.182
REMARK  13 active torsions:
REMARK  status: ('A' for Active; 'I' for Inactive)
REMARK    1  A    between atoms: C2_2  and  O1_5 
REMARK    2  A    between atoms: O1_5  and  C5_6 
REMARK    3  A    between atoms: C5_6  and  C6_7 
REMARK    4  A    between atoms: C6_7  and  C7_8 
REMARK    5  A    between atoms: C7_8  and  N1_9 
REMARK    6  A    between atoms: N1_9  and  C8_11 
REMARK    7  A    between atoms: C8_11  and  N2_13 
REMARK    8  A    between atoms: N2_13  and  N3_15 
REMARK       I    between atoms: N3_15  and  C9_16 
REMARK       I    between atoms: C9_16  and  N4_18 
REMARK    9  A    between atoms: N4_18  and  N5_20 
REMARK   10  A    between atoms: N5_20  and  C10_21 
REMARK   11  A    between atoms: C10_21  and  O3_22 
REMARK   12  A    between atoms: C10_21  and  N6_24 
REMARK   13  A    between atoms: N6_24  and  C11_26 
ROOT
HETATM    1  N3  UNL     1     -15.699  16.101 -49.353  1.00  0.00    -0.261 NA
HETATM    2  C9  UNL     1     -14.665  15.744 -50.134  1.00  0.00     0.441 C 
HETATM    3  O2  UNL     1     -14.706  14.879 -51.014  1.00  0.00    -0.226 OA
HETATM    4  N4  UNL     1     -13.401  16.421 -49.809  1.00  0.00    -0.167 N 
ATOM      5  H4  UNL     1     -13.400  17.200 -49.150  1.00  0.00     0.208 HD
ENDROOT
BRANCH   4   6
HETATM    6  N5  UNL     1     -12.273  16.034 -50.360  1.00  0.00    -0.275 NA
BRANCH   6   7
HETATM    7  C10 UNL     1     -11.054  15.730 -50.901  1.00  0.00     0.315 C 
BRANCH   7   8
HETATM    8  O3  UNL     1     -11.011  15.522 -52.251  1.00  0.00    -0.320 OA
ATOM      9  H3  UNL     1     -10.415  16.067 -52.751  1.00  0.00     0.222 HD
ENDBRANCH   7   8
BRANCH   7  10
HETATM   10  N6  UNL     1      -9.793  15.546 -50.375  1.00  0.00    -0.337 N 
ATOM     11  H6  UNL     1      -9.369  14.618 -50.402  1.00  0.00     0.164 HD
BRANCH  10  12
HETATM   12  C11 UNL     1      -9.048  16.663 -49.775  1.00  0.00     0.108 C 
HETATM   13  C12 UNL     1     -10.029  17.560 -49.172  1.00  0.00     0.046 C 
HETATM   14  C13 UNL     1      -9.856  19.049 -49.419  1.00  0.00     0.128 C 
HETATM   15  N7  UNL     1      -9.570  19.192 -50.826  1.00  0.00    -0.345 N 
HETATM   16  C14 UNL     1      -9.834  19.668 -52.118  1.00  0.00     0.222 C 
HETATM   17  C16 UNL     1      -8.376  18.557 -51.316  1.00  0.00     0.116 C 
HETATM   18  O4  UNL     1     -10.416  20.627 -52.693  1.00  0.00    -0.273 OA
HETATM   19  C15 UNL     1      -9.087  18.475 -52.690  1.00  0.00     0.130 C 
HETATM   20  C17 UNL     1      -8.054  17.244 -50.750  1.00  0.00     0.128 C 
HETATM   21 CL1  UNL     1      -6.411  17.317 -50.102  1.00  0.00    -0.121 Cl
ENDBRANCH  10  12
ENDBRANCH   7  10
ENDBRANCH   6   7
ENDBRANCH   4   6
BRANCH   1  22
HETATM   22  N2  UNL     1     -16.715  16.445 -48.592  1.00  0.00    -0.204 N 
ATOM     23  H2  UNL     1     -17.080  15.849 -47.847  1.00  0.00     0.204 HD
BRANCH  22  24
HETATM   24  C8  UNL     1     -17.272  17.750 -48.908  1.00  0.00     0.197 C 
HETATM   25  S1  UNL     1     -16.649  18.979 -47.876  1.00  0.00    -0.039 SA
BRANCH  24  26
HETATM   26  N1  UNL     1     -18.148  18.137 -49.865  1.00  0.00    -0.365 N 
ATOM     27  H1  UNL     1     -19.097  18.184 -49.497  1.00  0.00     0.161 HD
BRANCH  26  28
HETATM   28  C7  UNL     1     -18.115  18.500 -51.244  1.00  0.00     0.124 C 
BRANCH  28  29
HETATM   29  C6  UNL     1     -19.253  19.334 -51.749  1.00  0.00     0.046 C 
BRANCH  29  30
HETATM   30  C5  UNL     1     -20.452  18.313 -51.831  1.00  0.00     0.170 C 
BRANCH  30  31
HETATM   31  O1  UNL     1     -21.185  18.669 -50.688  1.00  0.00    -0.381 OA
BRANCH  31  32
HETATM   32  C2  UNL     1     -22.511  18.896 -50.884  1.00  0.00     0.050 C 
HETATM   33  C1  UNL     1     -22.959  20.304 -50.544  1.00  0.00     0.045 C 
HETATM   34  C3  UNL     1     -23.304  17.921 -49.992  1.00  0.00     0.045 C 
HETATM   35  C4  UNL     1     -22.944  18.564 -52.315  1.00  0.00     0.045 C 
ENDBRANCH  31  32
ENDBRANCH  30  31
ENDBRANCH  29  30
ENDBRANCH  28  29
ENDBRANCH  26  28
ENDBRANCH  24  26
ENDBRANCH  22  24
ENDBRANCH   1  22
TORSDOF 13
ENDMDL
MODEL 5
REMARK VINA RESULT: -8.216286744      4.790     11.629
REMARK  13 active torsions:
REMARK  status: ('A' for Active; 'I' for Inactive)
REMARK    1  A    between atoms: C2_2  and  O1_5 
REMARK    2  A    between atoms: O1_5  and  C5_6 
REMARK    3  A    between atoms: C5_6  and  C6_7 
REMARK    4  A    between atoms: C6_7  and  C7_8 
REMARK    5  A    between atoms: C7_8  and  N1_9 
REMARK    6  A    between atoms: N1_9  and  C8_11 
REMARK    7  A    between atoms: C8_11  and  N2_13 
REMARK    8  A    between atoms: N2_13  and  N3_15 
REMARK       I    between atoms: N3_15  and  C9_16 
REMARK       I    between atoms: C9_16  and  N4_18 
REMARK    9  A    between atoms: N4_18  and  N5_20 
REMARK   10  A    between atoms: N5_20  and  C10_21 
REMARK   11  A    between atoms: C10_21  and  O3_22 
REMARK   12  A    between atoms: C10_21  and  N6_24 
REMARK   13  A    between atoms: N6_24  and  C11_26 
ROOT
HETATM    1  N3  UNL     1      -8.476  18.850 -51.059  1.00  0.00    -0.261 NA
HETATM    2  C9  UNL     1      -9.398  19.506 -50.334  1.00  0.00     0.441 C 
HETATM    3  O2  UNL     1      -9.151  20.324 -49.442  1.00  0.00    -0.226 OA
HETATM    4  N4  UNL     1     -10.785  19.115 -50.625  1.00  0.00    -0.167 N 
ATOM      5  H4  UNL     1     -10.983  18.514 -51.426  1.00  0.00     0.208 HD
ENDROOT
BRANCH   4   6
HETATM    6  N5  UNL     1     -11.772  19.531 -49.865  1.00  0.00    -0.275 NA
BRANCH   6   7
HETATM    7  C10 UNL     1     -12.808  19.857 -49.033  1.00  0.00     0.315 C 
BRANCH   7   8
HETATM    8  O3  UNL     1     -12.482  20.309 -47.786  1.00  0.00    -0.320 OA
ATOM      9  H3  UNL     1     -12.766  21.186 -47.558  1.00  0.00     0.222 HD
ENDBRANCH   7   8
BRANCH   7  10
HETATM   10  N6  UNL     1     -14.181  19.811 -49.153  1.00  0.00    -0.337 N 
ATOM     11  H6  UNL     1     -14.658  20.509 -49.723  1.00  0.00     0.164 HD
BRANCH  10  12
HETATM   12  C11 UNL     1     -14.971  18.773 -48.472  1.00  0.00     0.108 C 
HETATM   13  C12 UNL     1     -14.456  17.481 -48.917  1.00  0.00     0.046 C 
HETATM   14  C13 UNL     1     -15.474  16.420 -49.300  1.00  0.00     0.128 C 
HETATM   15  N7  UNL     1     -16.458  17.085 -50.119  1.00  0.00    -0.345 N 
HETATM   16  C14 UNL     1     -17.179  17.279 -51.305  1.00  0.00     0.222 C 
HETATM   17  C16 UNL     1     -17.198  18.157 -49.508  1.00  0.00     0.116 C 
HETATM   18  O4  UNL     1     -17.569  16.632 -52.315  1.00  0.00    -0.273 OA
HETATM   19  C15 UNL     1     -17.363  18.741 -50.934  1.00  0.00     0.130 C 
HETATM   20  C17 UNL     1     -16.450  19.036 -48.605  1.00  0.00     0.128 C 
HETATM   21 CL1  UNL     1     -17.290  19.061 -47.049  1.00  0.00    -0.121 Cl
ENDBRANCH  10  12
ENDBRANCH   7  10
ENDBRANCH   6   7
ENDBRANCH   4   6
BRANCH   1  22
HETATM   22  N2  UNL     1      -7.567  18.212 -51.764  1.00  0.00    -0.204 N 
ATOM     23  H2  UNL     1      -7.624  18.103 -52.777  1.00  0.00     0.204 HD
BRANCH  22  24
HETATM   24  C8  UNL     1      -6.475  17.676 -50.968  1.00  0.00     0.197 C 
HETATM   25  S1  UNL     1      -7.048  16.799 -49.602  1.00  0.00    -0.039 SA
BRANCH  24  26
HETATM   26  N1  UNL     1      -5.133  17.734 -51.141  1.00  0.00    -0.365 N 
ATOM     27  H1  UNL     1      -4.886  17.637 -52.126  1.00  0.00     0.161 HD
BRANCH  26  28
HETATM   28  C7  UNL     1      -3.969  17.892 -50.334  1.00  0.00     0.124 C 
BRANCH  28  29
HETATM   29  C6  UNL     1      -3.030  18.997 -50.714  1.00  0.00     0.046 C 
BRANCH  29  30
HETATM   30  C5  UNL     1      -2.681  18.684 -52.219  1.00  0.00     0.170 C 
BRANCH  30  31
HETATM   31  O1  UNL     1      -3.438  19.665 -52.878  1.00  0.00    -0.381 OA
BRANCH  31  32
HETATM   32  C2  UNL     1      -2.779  20.380 -53.829  1.00  0.00     0.050 C 
HETATM   33  C1  UNL     1      -3.344  21.766 -54.069  1.00  0.00     0.045 C 
HETATM   34  C3  UNL     1      -2.856  19.602 -55.157  1.00  0.00     0.045 C 
HETATM   35  C4  UNL     1      -1.282  20.496 -53.525  1.00  0.00     0.045 C 
ENDBRANCH  31  32
ENDBRANCH  30  31
ENDBRANCH  29  30
ENDBRANCH  28  29
ENDBRANCH  26  28
ENDBRANCH  24  26
ENDBRANCH  22  24
ENDBRANCH   1  22
TORSDOF 13
ENDMDL
