MODEL 1
REMARK VINA RESULT: -8.479312627      0.000      0.000
REMARK  3 active torsions:
REMARK  status: ('A' for Active; 'I' for Inactive)
REMARK    1  A    between atoms: C2_2  and  C3_3 
REMARK    2  A    between atoms: N5_20  and  C12_21 
REMARK    3  A    between atoms: C12_21  and  C13_22 
ROOT
HETATM    1  C3  UNL     1      35.022  82.096  -3.618  1.00  0.00     0.081 A 
HETATM    2  N1  UNL     1      35.514  82.505  -4.817  1.00  0.00    -0.344 N 
ATOM      3  H1  UNL     1      36.503  82.367  -5.027  1.00  0.00     0.167 HD
HETATM    4  C4  UNL     1      34.718  83.090  -5.736  1.00  0.00     0.072 A 
HETATM    5  C5  UNL     1      34.771  83.622  -6.989  1.00  0.00     0.035 A 
HETATM    6  C6  UNL     1      35.999  83.693  -7.811  1.00  0.00     0.070 C 
HETATM    7  N2  UNL     1      33.529  84.060  -7.333  1.00  0.00    -0.342 N 
ATOM      8  H2  UNL     1      33.293  84.501  -8.222  1.00  0.00     0.167 HD
HETATM    9  C7  UNL     1      32.647  83.826  -6.321  1.00  0.00     0.137 A 
HETATM   10  C8  UNL     1      33.416  83.225  -5.352  1.00  0.00     0.067 A 
HETATM   11  C9  UNL     1      32.889  82.824  -4.150  1.00  0.00     0.073 A 
HETATM   12  N3  UNL     1      33.724  82.240  -3.253  1.00  0.00    -0.343 N 
ATOM     13  H3  UNL     1      33.390  81.921  -2.343  1.00  0.00     0.167 HD
HETATM   14  C10 UNL     1      31.546  83.046  -3.943  1.00  0.00     0.050 A 
HETATM   15  C11 UNL     1      30.954  82.627  -2.664  1.00  0.00     0.072 C 
HETATM   16  N4  UNL     1      30.837  83.646  -4.944  1.00  0.00    -0.299 N 
ATOM     17  H4  UNL     1      29.843  83.807  -4.785  1.00  0.00     0.187 HD
HETATM   18  N5  UNL     1      31.338  84.030  -6.093  1.00  0.00    -0.275 N 
ENDROOT
BRANCH  18  19
HETATM   19  C12 UNL     1      30.522  84.654  -7.080  1.00  0.00     0.155 C 
BRANCH  19  20
HETATM   20  C13 UNL     1      29.432  83.823  -7.666  1.00  0.00     0.005 C 
HETATM   21  C14 UNL     1      29.594  82.339  -7.499  1.00  0.00     0.006 C 
HETATM   22  C15 UNL     1      28.437  81.662  -8.194  1.00  0.00     0.000 C 
HETATM   23  C16 UNL     1      27.301  82.610  -8.478  1.00  0.00     0.000 C 
HETATM   24  C17 UNL     1      27.733  83.744  -9.388  1.00  0.00     0.000 C 
HETATM   25  C18 UNL     1      29.184  84.115  -9.129  1.00  0.00     0.006 C 
ENDBRANCH  19  20
ENDBRANCH  18  19
BRANCH   1  26
HETATM   26  C2  UNL     1      35.937  81.460  -2.647  1.00  0.00     0.072 C 
HETATM   27  C1  UNL     1      35.499  80.047  -2.354  1.00  0.00     0.013 C 
ENDBRANCH   1  26
TORSDOF 3
ENDMDL
MODEL 2
REMARK VINA RESULT: -8.194900293      2.997      5.446
REMARK  3 active torsions:
REMARK  status: ('A' for Active; 'I' for Inactive)
REMARK    1  A    between atoms: C2_2  and  C3_3 
REMARK    2  A    between atoms: N5_20  and  C12_21 
REMARK    3  A    between atoms: C12_21  and  C13_22 
ROOT
HETATM    1  C3  UNL     1      36.874  85.214  -8.878  1.00  0.00     0.081 A 
HETATM    2  N1  UNL     1      36.194  84.389  -9.716  1.00  0.00    -0.344 N 
ATOM      3  H1  UNL     1      36.500  84.294 -10.684  1.00  0.00     0.167 HD
HETATM    4  C4  UNL     1      35.120  83.691  -9.290  1.00  0.00     0.072 A 
HETATM    5  C5  UNL     1      34.193  82.802  -9.746  1.00  0.00     0.035 A 
HETATM    6  C6  UNL     1      34.149  82.284 -11.131  1.00  0.00     0.070 C 
HETATM    7  N2  UNL     1      33.347  82.489  -8.727  1.00  0.00    -0.342 N 
ATOM      8  H2  UNL     1      32.561  81.843  -8.801  1.00  0.00     0.167 HD
HETATM    9  C7  UNL     1      33.700  83.162  -7.595  1.00  0.00     0.137 A 
HETATM   10  C8  UNL     1      34.799  83.893  -7.980  1.00  0.00     0.067 A 
HETATM   11  C9  UNL     1      35.464  84.720  -7.109  1.00  0.00     0.073 A 
HETATM   12  N3  UNL     1      36.539  85.404  -7.578  1.00  0.00    -0.343 N 
ATOM     13  H3  UNL     1      37.073  86.032  -6.977  1.00  0.00     0.167 HD
HETATM   14  C10 UNL     1      34.988  84.793  -5.819  1.00  0.00     0.050 A 
HETATM   15  C11 UNL     1      35.681  85.669  -4.864  1.00  0.00     0.072 C 
HETATM   16  N4  UNL     1      33.894  84.041  -5.499  1.00  0.00    -0.299 N 
ATOM     17  H4  UNL     1      33.547  84.099  -4.542  1.00  0.00     0.187 HD
HETATM   18  N5  UNL     1      33.256  83.251  -6.329  1.00  0.00    -0.275 N 
ENDROOT
BRANCH  18  19
HETATM   19  C12 UNL     1      32.118  82.506  -5.908  1.00  0.00     0.155 C 
BRANCH  19  20
HETATM   20  C13 UNL     1      31.951  82.316  -4.439  1.00  0.00     0.005 C 
HETATM   21  C14 UNL     1      32.502  81.029  -3.892  1.00  0.00     0.006 C 
HETATM   22  C15 UNL     1      32.198  80.985  -2.412  1.00  0.00     0.000 C 
HETATM   23  C16 UNL     1      31.827  82.336  -1.859  1.00  0.00     0.000 C 
HETATM   24  C17 UNL     1      30.584  82.892  -2.527  1.00  0.00     0.000 C 
HETATM   25  C18 UNL     1      30.517  82.455  -3.982  1.00  0.00     0.006 C 
ENDBRANCH  19  20
ENDBRANCH  18  19
BRANCH   1  26
HETATM   26  C2  UNL     1      38.044  85.955  -9.395  1.00  0.00     0.072 C 
HETATM   27  C1  UNL     1      38.130  85.830 -10.896  1.00  0.00     0.013 C 
ENDBRANCH   1  26
TORSDOF 3
ENDMDL
MODEL 3
REMARK VINA RESULT: -8.158861909      1.975      5.778
REMARK  3 active torsions:
REMARK  status: ('A' for Active; 'I' for Inactive)
REMARK    1  A    between atoms: C2_2  and  C3_3 
REMARK    2  A    between atoms: N5_20  and  C12_21 
REMARK    3  A    between atoms: C12_21  and  C13_22 
ROOT
HETATM    1  C3  UNL     1      31.655  83.125  -4.066  1.00  0.00     0.081 A 
HETATM    2  N1  UNL     1      31.161  83.647  -5.219  1.00  0.00    -0.344 N 
ATOM      3  H1  UNL     1      30.163  83.846  -5.293  1.00  0.00     0.167 HD
HETATM    4  C4  UNL     1      31.967  83.908  -6.269  1.00  0.00     0.072 A 
HETATM    5  C5  UNL     1      31.917  84.401  -7.538  1.00  0.00     0.035 A 
HETATM    6  C6  UNL     1      30.679  84.867  -8.201  1.00  0.00     0.070 C 
HETATM    7  N2  UNL     1      33.171  84.387  -8.065  1.00  0.00    -0.342 N 
ATOM      8  H2  UNL     1      33.413  84.704  -9.004  1.00  0.00     0.167 HD
HETATM    9  C7  UNL     1      34.060  83.889  -7.159  1.00  0.00     0.137 A 
HETATM   10  C8  UNL     1      33.281  83.605  -6.062  1.00  0.00     0.067 A 
HETATM   11  C9  UNL     1      33.810  83.076  -4.911  1.00  0.00     0.073 A 
HETATM   12  N3  UNL     1      32.964  82.828  -3.878  1.00  0.00    -0.343 N 
ATOM     13  H3  UNL     1      33.300  82.436  -2.998  1.00  0.00     0.167 HD
HETATM   14  C10 UNL     1      35.165  82.837  -4.890  1.00  0.00     0.050 A 
HETATM   15  C11 UNL     1      35.760  82.271  -3.671  1.00  0.00     0.072 C 
HETATM   16  N4  UNL     1      35.884  83.141  -6.011  1.00  0.00    -0.299 N 
ATOM     17  H4  UNL     1      36.888  82.962  -5.990  1.00  0.00     0.187 HD
HETATM   18  N5  UNL     1      35.381  83.645  -7.112  1.00  0.00    -0.275 N 
ENDROOT
BRANCH  18  19
HETATM   19  C12 UNL     1      36.208  83.927  -8.237  1.00  0.00     0.155 C 
BRANCH  19  20
HETATM   20  C13 UNL     1      36.428  85.366  -8.559  1.00  0.00     0.005 C 
HETATM   21  C14 UNL     1      37.458  85.636  -9.620  1.00  0.00     0.006 C 
HETATM   22  C15 UNL     1      37.585  87.134  -9.774  1.00  0.00     0.000 C 
HETATM   23  C16 UNL     1      36.426  87.877  -9.166  1.00  0.00     0.000 C 
HETATM   24  C17 UNL     1      36.313  87.616  -7.676  1.00  0.00     0.000 C 
HETATM   25  C18 UNL     1      36.762  86.202  -7.344  1.00  0.00     0.006 C 
ENDBRANCH  19  20
ENDBRANCH  18  19
BRANCH   1  26
HETATM   26  C2  UNL     1      30.728  82.858  -2.945  1.00  0.00     0.072 C 
HETATM   27  C1  UNL     1      31.400  82.015  -1.891  1.00  0.00     0.013 C 
ENDBRANCH   1  26
TORSDOF 3
ENDMDL
MODEL 4
REMARK VINA RESULT: -8.138194183      1.951      5.698
REMARK  3 active torsions:
REMARK  status: ('A' for Active; 'I' for Inactive)
REMARK    1  A    between atoms: C2_2  and  C3_3 
REMARK    2  A    between atoms: N5_20  and  C12_21 
REMARK    3  A    between atoms: C12_21  and  C13_22 
ROOT
HETATM    1  C3  UNL     1      31.527  82.714  -4.123  1.00  0.00     0.081 A 
HETATM    2  N1  UNL     1      30.943  82.602  -5.344  1.00  0.00    -0.344 N 
ATOM      3  H1  UNL     1      29.938  82.439  -5.406  1.00  0.00     0.167 HD
HETATM    4  C4  UNL     1      31.668  82.702  -6.477  1.00  0.00     0.072 A 
HETATM    5  C5  UNL     1      31.518  82.660  -7.831  1.00  0.00     0.035 A 
HETATM    6  C6  UNL     1      30.225  82.444  -8.518  1.00  0.00     0.070 C 
HETATM    7  N2  UNL     1      32.733  82.847  -8.414  1.00  0.00    -0.342 N 
ATOM      8  H2  UNL     1      32.900  82.861  -9.420  1.00  0.00     0.167 HD
HETATM    9  C7  UNL     1      33.694  83.014  -7.462  1.00  0.00     0.137 A 
HETATM   10  C8  UNL     1      33.000  82.919  -6.279  1.00  0.00     0.067 A 
HETATM   11  C9  UNL     1      33.620  83.036  -5.060  1.00  0.00     0.073 A 
HETATM   12  N3  UNL     1      32.854  82.929  -3.944  1.00  0.00    -0.343 N 
ATOM     13  H3  UNL     1      33.259  83.008  -3.011  1.00  0.00     0.167 HD
HETATM   14  C10 UNL     1      34.979  83.255  -5.061  1.00  0.00     0.050 A 
HETATM   15  C11 UNL     1      35.671  83.385  -3.771  1.00  0.00     0.072 C 
HETATM   16  N4  UNL     1      35.611  83.341  -6.269  1.00  0.00    -0.299 N 
ATOM     17  H4  UNL     1      36.618  83.504  -6.263  1.00  0.00     0.187 HD
HETATM   18  N5  UNL     1      35.021  83.229  -7.435  1.00  0.00    -0.275 N 
ENDROOT
BRANCH  18  19
HETATM   19  C12 UNL     1      35.762  83.327  -8.647  1.00  0.00     0.155 C 
BRANCH  19  20
HETATM   20  C13 UNL     1      36.342  84.662  -8.968  1.00  0.00     0.005 C 
HETATM   21  C14 UNL     1      35.410  85.827  -8.789  1.00  0.00     0.006 C 
HETATM   22  C15 UNL     1      36.145  87.079  -9.208  1.00  0.00     0.000 C 
HETATM   23  C16 UNL     1      37.635  86.876  -9.283  1.00  0.00     0.000 C 
HETATM   24  C17 UNL     1      38.005  85.812 -10.299  1.00  0.00     0.000 C 
HETATM   25  C18 UNL     1      36.935  84.733 -10.357  1.00  0.00     0.006 C 
ENDBRANCH  19  20
ENDBRANCH  18  19
BRANCH   1  26
HETATM   26  C2  UNL     1      30.687  82.597  -2.912  1.00  0.00     0.072 C 
HETATM   27  C1  UNL     1      31.457  81.941  -1.794  1.00  0.00     0.013 C 
ENDBRANCH   1  26
TORSDOF 3
ENDMDL
MODEL 5
REMARK VINA RESULT: -8.080568648      1.137      6.424
REMARK  3 active torsions:
REMARK  status: ('A' for Active; 'I' for Inactive)
REMARK    1  A    between atoms: C2_2  and  C3_3 
REMARK    2  A    between atoms: N5_20  and  C12_21 
REMARK    3  A    between atoms: C12_21  and  C13_22 
ROOT
HETATM    1  C3  UNL     1      31.014  83.982  -7.090  1.00  0.00     0.081 A 
HETATM    2  N1  UNL     1      32.187  83.876  -7.767  1.00  0.00    -0.344 N 
ATOM      3  H1  UNL     1      32.216  84.113  -8.760  1.00  0.00     0.167 HD
HETATM    4  C4  UNL     1      33.315  83.464  -7.153  1.00  0.00     0.072 A 
HETATM    5  C5  UNL     1      34.631  83.225  -7.415  1.00  0.00     0.035 A 
HETATM    6  C6  UNL     1      35.260  83.407  -8.741  1.00  0.00     0.070 C 
HETATM    7  N2  UNL     1      35.237  82.804  -6.272  1.00  0.00    -0.342 N 
ATOM      8  H2  UNL     1      36.223  82.557  -6.193  1.00  0.00     0.167 HD
HETATM    9  C7  UNL     1      34.338  82.759  -5.248  1.00  0.00     0.137 A 
HETATM   10  C8  UNL     1      33.162  83.174  -5.829  1.00  0.00     0.067 A 
HETATM   11  C9  UNL     1      31.993  83.269  -5.116  1.00  0.00     0.073 A 
HETATM   12  N3  UNL     1      30.881  83.688  -5.773  1.00  0.00    -0.343 N 
ATOM     13  H3  UNL     1      29.984  83.778  -5.296  1.00  0.00     0.167 HD
HETATM   14  C10 UNL     1      32.037  82.931  -3.782  1.00  0.00     0.050 A 
HETATM   15  C11 UNL     1      30.800  83.024  -2.994  1.00  0.00     0.072 C 
HETATM   16  N4  UNL     1      33.234  82.527  -3.265  1.00  0.00    -0.299 N 
ATOM     17  H4  UNL     1      33.260  82.279  -2.276  1.00  0.00     0.187 HD
HETATM   18  N5  UNL     1      34.353  82.435  -3.943  1.00  0.00    -0.275 N 
ENDROOT
BRANCH  18  19
HETATM   19  C12 UNL     1      35.557  81.999  -3.321  1.00  0.00     0.155 C 
BRANCH  19  20
HETATM   20  C13 UNL     1      35.503  80.695  -2.602  1.00  0.00     0.005 C 
HETATM   21  C14 UNL     1      34.256  79.887  -2.830  1.00  0.00     0.006 C 
HETATM   22  C15 UNL     1      34.352  78.636  -1.989  1.00  0.00     0.000 C 
HETATM   23  C16 UNL     1      35.756  78.365  -1.515  1.00  0.00     0.000 C 
HETATM   24  C17 UNL     1      36.283  79.494  -0.650  1.00  0.00     0.000 C 
HETATM   25  C18 UNL     1      35.720  80.829  -1.111  1.00  0.00     0.006 C 
ENDBRANCH  19  20
ENDBRANCH  18  19
BRANCH   1  26
HETATM   26  C2  UNL     1      29.808  84.439  -7.811  1.00  0.00     0.072 C 
HETATM   27  C1  UNL     1      28.744  83.371  -7.795  1.00  0.00     0.013 C 
ENDBRANCH   1  26
TORSDOF 3
ENDMDL
