MODEL 1
REMARK VINA RESULT: -7.906907366      0.000      0.000
REMARK  8 active torsions:
REMARK  status: ('A' for Active; 'I' for Inactive)
REMARK    1  A    between atoms: C2_2  and  C3_3 
REMARK    2  A    between atoms: C3_3  and  C4_4 
REMARK    3  A    between atoms: C4_4  and  C5_5 
REMARK    4  A    between atoms: C5_5  and  O1_6 
REMARK    5  A    between atoms: C5_5  and  C6_8 
REMARK    6  A    between atoms: C6_8  and  C7_9 
REMARK    7  A    between atoms: C7_9  and  C8_10 
REMARK    8  A    between atoms: C9_11  and  O2_12 
ROOT
HETATM    1  C8  UNL     1      47.090  63.009  43.299  1.00  0.00     0.051 A 
HETATM    2  C9  UNL     1      47.643  63.945  42.453  1.00  0.00     0.091 A 
HETATM    3  C10 UNL     1      48.174  65.139  42.948  1.00  0.00     0.035 A 
HETATM    4  C11 UNL     1      48.733  66.095  42.131  1.00  0.00     0.057 A 
HETATM    5  C12 UNL     1      49.259  67.275  42.615  1.00  0.00     0.114 A 
HETATM    6  O3  UNL     1      49.836  68.339  42.121  1.00  0.00    -0.276 OA
HETATM    7  C13 UNL     1      50.148  69.187  43.055  1.00  0.00     0.265 A 
HETATM    8  S1  UNL     1      50.881  70.619  42.784  1.00  0.00    -0.024 SA
HETATM    9  O4  UNL     1      49.772  68.681  44.203  1.00  0.00    -0.275 OA
HETATM   10  C14 UNL     1      49.214  67.494  43.984  1.00  0.00     0.121 A 
HETATM   11  C15 UNL     1      48.662  66.556  44.804  1.00  0.00     0.010 A 
HETATM   12  C16 UNL     1      48.616  66.795  46.270  1.00  0.00     0.054 C 
HETATM   13  C17 UNL     1      48.136  65.369  44.304  1.00  0.00     0.101 A 
HETATM   14  O5  UNL     1      47.605  64.465  45.083  1.00  0.00    -0.274 OA
HETATM   15  C18 UNL     1      47.093  63.320  44.640  1.00  0.00     0.297 A 
HETATM   16  O6  UNL     1      46.622  62.562  45.533  1.00  0.00    -0.259 OA
ENDROOT
BRANCH   1  17
HETATM   17  C7  UNL     1      46.535  61.758  42.828  1.00  0.00     0.050 C 
BRANCH  17  18
HETATM   18  C6  UNL     1      45.450  61.822  41.818  1.00  0.00     0.036 C 
BRANCH  18  19
HETATM   19  C5  UNL     1      45.574  60.898  40.653  1.00  0.00     0.118 C 
BRANCH  19  20
HETATM   20  C4  UNL     1      46.055  59.539  41.115  1.00  0.00     0.032 C 
BRANCH  20  21
HETATM   21  C3  UNL     1      44.970  58.493  41.097  1.00  0.00     0.002 C 
BRANCH  21  22
HETATM   22  C2  UNL     1      44.882  57.757  39.785  1.00  0.00    -0.004 C 
HETATM   23  C1  UNL     1      46.293  57.415  39.292  1.00  0.00     0.005 C 
ENDBRANCH  21  22
ENDBRANCH  20  21
ENDBRANCH  19  20
BRANCH  19  24
HETATM   24  O1  UNL     1      46.503  61.371  39.702  1.00  0.00    -0.396 OA
ATOM     25  H1  UNL     1      46.064  61.382  38.859  1.00  0.00     0.210 HD
ENDBRANCH  19  24
ENDBRANCH  18  19
ENDBRANCH  17  18
ENDBRANCH   1  17
BRANCH   2  26
HETATM   26  O2  UNL     1      47.663  63.681  41.115  1.00  0.00    -0.359 OA
ATOM     27  H2  UNL     1      46.887  63.878  40.603  1.00  0.00     0.217 HD
ENDBRANCH   2  26
TORSDOF 8
ENDMDL
MODEL 2
REMARK VINA RESULT: -7.827820204      1.693      3.038
REMARK  8 active torsions:
REMARK  status: ('A' for Active; 'I' for Inactive)
REMARK    1  A    between atoms: C2_2  and  C3_3 
REMARK    2  A    between atoms: C3_3  and  C4_4 
REMARK    3  A    between atoms: C4_4  and  C5_5 
REMARK    4  A    between atoms: C5_5  and  O1_6 
REMARK    5  A    between atoms: C5_5  and  C6_8 
REMARK    6  A    between atoms: C6_8  and  C7_9 
REMARK    7  A    between atoms: C7_9  and  C8_10 
REMARK    8  A    between atoms: C9_11  and  O2_12 
ROOT
HETATM    1  C8  UNL     1      46.837  62.029  42.135  1.00  0.00     0.051 A 
HETATM    2  C9  UNL     1      46.772  62.593  43.392  1.00  0.00     0.091 A 
HETATM    3  C10 UNL     1      47.290  63.867  43.636  1.00  0.00     0.035 A 
HETATM    4  C11 UNL     1      47.241  64.460  44.878  1.00  0.00     0.057 A 
HETATM    5  C12 UNL     1      47.751  65.718  45.125  1.00  0.00     0.114 A 
HETATM    6  O3  UNL     1      47.856  66.523  46.149  1.00  0.00    -0.276 OA
HETATM    7  C13 UNL     1      48.446  67.633  45.821  1.00  0.00     0.265 A 
HETATM    8  S1  UNL     1      48.737  68.856  46.860  1.00  0.00    -0.024 SA
HETATM    9  O4  UNL     1      48.746  67.572  44.548  1.00  0.00    -0.275 OA
HETATM   10  C14 UNL     1      48.335  66.401  44.068  1.00  0.00     0.121 A 
HETATM   11  C15 UNL     1      48.390  65.826  42.835  1.00  0.00     0.010 A 
HETATM   12  C16 UNL     1      49.017  66.563  41.706  1.00  0.00     0.054 C 
HETATM   13  C17 UNL     1      47.872  64.557  42.598  1.00  0.00     0.101 A 
HETATM   14  O5  UNL     1      47.921  63.998  41.418  1.00  0.00    -0.274 OA
HETATM   15  C18 UNL     1      47.436  62.788  41.156  1.00  0.00     0.297 A 
HETATM   16  O6  UNL     1      47.568  62.405  39.960  1.00  0.00    -0.259 OA
ENDROOT
BRANCH   1  17
HETATM   17  C7  UNL     1      46.308  60.715  41.839  1.00  0.00     0.050 C 
BRANCH  17  18
HETATM   18  C6  UNL     1      45.275  60.610  40.780  1.00  0.00     0.036 C 
BRANCH  18  19
HETATM   19  C5  UNL     1      45.518  59.593  39.716  1.00  0.00     0.118 C 
BRANCH  19  20
HETATM   20  C4  UNL     1      46.131  58.347  40.316  1.00  0.00     0.032 C 
BRANCH  20  21
HETATM   21  C3  UNL     1      45.751  57.089  39.578  1.00  0.00     0.002 C 
BRANCH  21  22
HETATM   22  C2  UNL     1      46.863  56.553  38.714  1.00  0.00    -0.004 C 
HETATM   23  C1  UNL     1      46.609  55.073  38.409  1.00  0.00     0.005 C 
ENDBRANCH  21  22
ENDBRANCH  20  21
ENDBRANCH  19  20
BRANCH  19  24
HETATM   24  O1  UNL     1      46.410  60.066  38.729  1.00  0.00    -0.396 OA
ATOM     25  H1  UNL     1      46.106  59.734  37.892  1.00  0.00     0.210 HD
ENDBRANCH  19  24
ENDBRANCH  18  19
ENDBRANCH  17  18
ENDBRANCH   1  17
BRANCH   2  26
HETATM   26  O2  UNL     1      46.187  61.879  44.395  1.00  0.00    -0.359 OA
ATOM     27  H2  UNL     1      46.747  61.407  45.001  1.00  0.00     0.217 HD
ENDBRANCH   2  26
TORSDOF 8
ENDMDL
MODEL 3
REMARK VINA RESULT: -7.794159934      0.908      1.118
REMARK  8 active torsions:
REMARK  status: ('A' for Active; 'I' for Inactive)
REMARK    1  A    between atoms: C2_2  and  C3_3 
REMARK    2  A    between atoms: C3_3  and  C4_4 
REMARK    3  A    between atoms: C4_4  and  C5_5 
REMARK    4  A    between atoms: C5_5  and  O1_6 
REMARK    5  A    between atoms: C5_5  and  C6_8 
REMARK    6  A    between atoms: C6_8  and  C7_9 
REMARK    7  A    between atoms: C7_9  and  C8_10 
REMARK    8  A    between atoms: C9_11  and  O2_12 
ROOT
HETATM    1  C8  UNL     1      46.950  62.574  42.815  1.00  0.00     0.051 A 
HETATM    2  C9  UNL     1      47.614  63.613  42.200  1.00  0.00     0.091 A 
HETATM    3  C10 UNL     1      47.997  64.748  42.919  1.00  0.00     0.035 A 
HETATM    4  C11 UNL     1      48.662  65.804  42.336  1.00  0.00     0.057 A 
HETATM    5  C12 UNL     1      49.043  66.926  43.042  1.00  0.00     0.114 A 
HETATM    6  O3  UNL     1      49.660  68.050  42.789  1.00  0.00    -0.276 OA
HETATM    7  C13 UNL     1      49.761  68.786  43.856  1.00  0.00     0.265 A 
HETATM    8  S1  UNL     1      50.476  70.252  43.892  1.00  0.00    -0.024 SA
HETATM    9  O4  UNL     1      49.199  68.141  44.847  1.00  0.00    -0.275 OA
HETATM   10  C14 UNL     1      48.737  66.980  44.393  1.00  0.00     0.121 A 
HETATM   11  C15 UNL     1      48.079  65.942  44.982  1.00  0.00     0.010 A 
HETATM   12  C16 UNL     1      47.754  66.004  46.431  1.00  0.00     0.054 C 
HETATM   13  C17 UNL     1      47.701  64.814  44.261  1.00  0.00     0.101 A 
HETATM   14  O5  UNL     1      47.070  63.815  44.817  1.00  0.00    -0.274 OA
HETATM   15  C18 UNL     1      46.693  62.723  44.159  1.00  0.00     0.297 A 
HETATM   16  O6  UNL     1      46.095  61.856  44.855  1.00  0.00    -0.259 OA
ENDROOT
BRANCH   1  17
HETATM   17  C7  UNL     1      46.540  61.379  42.108  1.00  0.00     0.050 C 
BRANCH  17  18
HETATM   18  C6  UNL     1      45.435  61.503  41.126  1.00  0.00     0.036 C 
BRANCH  18  19
HETATM   19  C5  UNL     1      45.801  61.317  39.691  1.00  0.00     0.118 C 
BRANCH  19  20
HETATM   20  C4  UNL     1      45.229  60.016  39.173  1.00  0.00     0.032 C 
BRANCH  20  21
HETATM   21  C3  UNL     1      46.256  58.916  39.084  1.00  0.00     0.002 C 
BRANCH  21  22
HETATM   22  C2  UNL     1      45.888  57.699  39.891  1.00  0.00    -0.004 C 
HETATM   23  C1  UNL     1      44.663  58.008  40.759  1.00  0.00     0.005 C 
ENDBRANCH  21  22
ENDBRANCH  20  21
ENDBRANCH  19  20
BRANCH  19  24
HETATM   24  O1  UNL     1      47.199  61.265  39.506  1.00  0.00    -0.396 OA
ATOM     25  H1  UNL     1      47.585  61.913  40.084  1.00  0.00     0.210 HD
ENDBRANCH  19  24
ENDBRANCH  18  19
ENDBRANCH  17  18
ENDBRANCH   1  17
BRANCH   2  26
HETATM   26  O2  UNL     1      47.891  63.511  40.869  1.00  0.00    -0.359 OA
ATOM     27  H2  UNL     1      47.192  63.252  40.279  1.00  0.00     0.217 HD
ENDBRANCH   2  26
TORSDOF 8
ENDMDL
MODEL 4
REMARK VINA RESULT: -7.592724285      1.523      1.927
REMARK  8 active torsions:
REMARK  status: ('A' for Active; 'I' for Inactive)
REMARK    1  A    between atoms: C2_2  and  C3_3 
REMARK    2  A    between atoms: C3_3  and  C4_4 
REMARK    3  A    between atoms: C4_4  and  C5_5 
REMARK    4  A    between atoms: C5_5  and  O1_6 
REMARK    5  A    between atoms: C5_5  and  C6_8 
REMARK    6  A    between atoms: C6_8  and  C7_9 
REMARK    7  A    between atoms: C7_9  and  C8_10 
REMARK    8  A    between atoms: C9_11  and  O2_12 
ROOT
HETATM    1  C8  UNL     1      46.531  62.469  42.974  1.00  0.00     0.051 A 
HETATM    2  C9  UNL     1      47.170  63.433  42.224  1.00  0.00     0.091 A 
HETATM    3  C10 UNL     1      47.763  64.542  42.833  1.00  0.00     0.035 A 
HETATM    4  C11 UNL     1      48.409  65.523  42.114  1.00  0.00     0.057 A 
HETATM    5  C12 UNL     1      48.997  66.619  42.710  1.00  0.00     0.114 A 
HETATM    6  O3  UNL     1      49.656  67.679  42.323  1.00  0.00    -0.276 OA
HETATM    7  C13 UNL     1      49.996  68.422  43.334  1.00  0.00     0.265 A 
HETATM    8  S1  UNL     1      50.829  69.818  43.204  1.00  0.00    -0.024 SA
HETATM    9  O4  UNL     1      49.554  67.849  44.424  1.00  0.00    -0.275 OA
HETATM   10  C14 UNL     1      48.925  66.725  44.091  1.00  0.00     0.121 A 
HETATM   11  C15 UNL     1      48.288  65.762  44.814  1.00  0.00     0.010 A 
HETATM   12  C16 UNL     1      48.214  65.879  46.294  1.00  0.00     0.054 C 
HETATM   13  C17 UNL     1      47.700  64.660  44.202  1.00  0.00     0.101 A 
HETATM   14  O5  UNL     1      47.088  63.732  44.887  1.00  0.00    -0.274 OA
HETATM   15  C18 UNL     1      46.515  62.665  44.336  1.00  0.00     0.297 A 
HETATM   16  O6  UNL     1      45.969  61.869  45.149  1.00  0.00    -0.259 OA
ENDROOT
BRANCH   1  17
HETATM   17  C7  UNL     1      45.909  61.303  42.383  1.00  0.00     0.050 C 
BRANCH  17  18
HETATM   18  C6  UNL     1      46.648  60.595  41.310  1.00  0.00     0.036 C 
BRANCH  18  19
HETATM   19  C5  UNL     1      46.029  59.338  40.797  1.00  0.00     0.118 C 
BRANCH  19  20
HETATM   20  C4  UNL     1      45.621  59.511  39.350  1.00  0.00     0.032 C 
BRANCH  20  21
HETATM   21  C3  UNL     1      45.926  60.886  38.813  1.00  0.00     0.002 C 
BRANCH  21  22
HETATM   22  C2  UNL     1      47.117  60.909  37.892  1.00  0.00    -0.004 C 
HETATM   23  C1  UNL     1      47.375  62.344  37.419  1.00  0.00     0.005 C 
ENDBRANCH  21  22
ENDBRANCH  20  21
ENDBRANCH  19  20
BRANCH  19  24
HETATM   24  O1  UNL     1      44.870  58.988  41.522  1.00  0.00    -0.396 OA
ATOM     25  H1  UNL     1      44.925  58.058  41.711  1.00  0.00     0.210 HD
ENDBRANCH  19  24
ENDBRANCH  18  19
ENDBRANCH  17  18
ENDBRANCH   1  17
BRANCH   2  26
HETATM   26  O2  UNL     1      47.212  63.281  40.870  1.00  0.00    -0.359 OA
ATOM     27  H2  UNL     1      47.554  63.995  40.344  1.00  0.00     0.217 HD
ENDBRANCH   2  26
TORSDOF 8
ENDMDL
MODEL 5
REMARK VINA RESULT: -7.576643079      5.120      9.988
REMARK  8 active torsions:
REMARK  status: ('A' for Active; 'I' for Inactive)
REMARK    1  A    between atoms: C2_2  and  C3_3 
REMARK    2  A    between atoms: C3_3  and  C4_4 
REMARK    3  A    between atoms: C4_4  and  C5_5 
REMARK    4  A    between atoms: C5_5  and  O1_6 
REMARK    5  A    between atoms: C5_5  and  C6_8 
REMARK    6  A    between atoms: C6_8  and  C7_9 
REMARK    7  A    between atoms: C7_9  and  C8_10 
REMARK    8  A    between atoms: C9_11  and  O2_12 
ROOT
HETATM    1  C8  UNL     1      45.990  59.303  39.752  1.00  0.00     0.051 A 
HETATM    2  C9  UNL     1      46.864  59.310  38.686  1.00  0.00     0.091 A 
HETATM    3  C10 UNL     1      47.263  58.119  38.075  1.00  0.00     0.035 A 
HETATM    4  C11 UNL     1      48.133  58.090  37.009  1.00  0.00     0.057 A 
HETATM    5  C12 UNL     1      48.530  56.916  36.401  1.00  0.00     0.114 A 
HETATM    6  O3  UNL     1      49.310  56.568  35.413  1.00  0.00    -0.276 OA
HETATM    7  C13 UNL     1      49.329  55.278  35.255  1.00  0.00     0.265 A 
HETATM    8  S1  UNL     1      50.201  54.509  34.110  1.00  0.00    -0.024 SA
HETATM    9  O4  UNL     1      48.544  54.748  36.158  1.00  0.00    -0.275 OA
HETATM   10  C14 UNL     1      48.023  55.724  36.897  1.00  0.00     0.121 A 
HETATM   11  C15 UNL     1      47.161  55.739  37.952  1.00  0.00     0.010 A 
HETATM   12  C16 UNL     1      46.621  54.458  38.479  1.00  0.00     0.054 C 
HETATM   13  C17 UNL     1      46.767  56.929  38.555  1.00  0.00     0.101 A 
HETATM   14  O5  UNL     1      45.942  56.952  39.567  1.00  0.00    -0.274 OA
HETATM   15  C18 UNL     1      45.544  58.069  40.169  1.00  0.00     0.297 A 
HETATM   16  O6  UNL     1      44.742  57.905  41.130  1.00  0.00    -0.259 OA
ENDROOT
BRANCH   1  17
HETATM   17  C7  UNL     1      45.548  60.515  40.410  1.00  0.00     0.050 C 
BRANCH  17  18
HETATM   18  C6  UNL     1      46.290  60.955  41.616  1.00  0.00     0.036 C 
BRANCH  18  19
HETATM   19  C5  UNL     1      47.405  61.920  41.392  1.00  0.00     0.118 C 
BRANCH  19  20
HETATM   20  C4  UNL     1      47.368  63.012  42.439  1.00  0.00     0.032 C 
BRANCH  20  21
HETATM   21  C3  UNL     1      46.706  62.575  43.721  1.00  0.00     0.002 C 
BRANCH  21  22
HETATM   22  C2  UNL     1      47.372  63.137  44.950  1.00  0.00    -0.004 C 
HETATM   23  C1  UNL     1      46.308  63.502  45.990  1.00  0.00     0.005 C 
ENDBRANCH  21  22
ENDBRANCH  20  21
ENDBRANCH  19  20
BRANCH  19  24
HETATM   24  O1  UNL     1      47.314  62.547  40.130  1.00  0.00    -0.396 OA
ATOM     25  H1  UNL     1      46.628  62.103  39.643  1.00  0.00     0.210 HD
ENDBRANCH  19  24
ENDBRANCH  18  19
ENDBRANCH  17  18
ENDBRANCH   1  17
BRANCH   2  26
HETATM   26  O2  UNL     1      47.332  60.509  38.238  1.00  0.00    -0.359 OA
ATOM     27  H2  UNL     1      46.822  60.982  37.591  1.00  0.00     0.217 HD
ENDBRANCH   2  26
TORSDOF 8
ENDMDL
