MODEL 1
REMARK VINA RESULT: -7.473393533      0.000      0.000
REMARK  4 active torsions:
REMARK  status: ('A' for Active; 'I' for Inactive)
REMARK    1  A    between atoms: C2_2  and  C3_4 
REMARK    2  A    between atoms: C3_4  and  S1_5 
REMARK    3  A    between atoms: S1_5  and  C4_6 
REMARK    4  A    between atoms: N3_13  and  C7_14 
ROOT
HETATM    1  C4  UNL     1      12.474  11.998  -0.741  1.00  0.00     0.167 A 
HETATM    2  N1  UNL     1      11.329  12.650  -1.075  1.00  0.00    -0.278 N 
ATOM      3  H1  UNL     1      10.387  12.364  -0.807  1.00  0.00     0.189 HD
HETATM    4  N2  UNL     1      11.623  13.696  -1.790  1.00  0.00    -0.287 N 
ATOM      5  H2  UNL     1      10.946  14.359  -2.170  1.00  0.00     0.188 HD
HETATM    6  C5  UNL     1      12.964  13.770  -1.952  1.00  0.00     0.100 A 
HETATM    7  C6  UNL     1      13.559  14.904  -2.694  1.00  0.00     0.091 C 
HETATM    8  N3  UNL     1      13.505  12.699  -1.295  1.00  0.00    -0.286 N 
ENDROOT
BRANCH   8   9
HETATM    9  C7  UNL     1      14.902  12.504  -1.305  1.00  0.00     0.006 C 
HETATM   10  C8  UNL     1      15.670  12.024  -0.173  1.00  0.00     0.033 C 
HETATM   11  C9  UNL     1      17.121  12.579  -0.452  1.00  0.00     0.015 C 
HETATM   12  C13 UNL     1      15.932  10.564  -0.005  1.00  0.00     0.015 C 
HETATM   13  C10 UNL     1      17.671  12.012  -1.713  1.00  0.00    -0.013 C 
HETATM   14  C11 UNL     1      17.831  10.504  -1.622  1.00  0.00     0.009 C 
HETATM   15  C16 UNL     1      16.767  12.279  -2.869  1.00  0.00     0.015 C 
HETATM   16  C12 UNL     1      16.477   9.951  -1.310  1.00  0.00    -0.013 C 
HETATM   17  C14 UNL     1      15.420  10.253  -2.310  1.00  0.00     0.015 C 
HETATM   18  C15 UNL     1      15.371  11.757  -2.531  1.00  0.00     0.033 C 
ENDBRANCH   8   9
BRANCH   1  19
HETATM   19  S1  UNL     1      12.626  10.547   0.240  1.00  0.00    -0.085 SA
BRANCH  19  20
HETATM   20  C3  UNL     1      11.058   9.746   0.645  1.00  0.00     0.160 C 
BRANCH  20  21
HETATM   21  C2  UNL     1      10.740   9.989   2.074  1.00  0.00     0.132 C 
HETATM   22  C1  UNL     1      10.748   8.950   3.124  1.00  0.00     0.091 C 
HETATM   23  O1  UNL     1      10.444  11.136   2.457  1.00  0.00    -0.298 OA
ENDBRANCH  20  21
ENDBRANCH  19  20
ENDBRANCH   1  19
TORSDOF 4
ENDMDL
MODEL 2
REMARK VINA RESULT: -7.304016180      1.152      1.418
REMARK  4 active torsions:
REMARK  status: ('A' for Active; 'I' for Inactive)
REMARK    1  A    between atoms: C2_2  and  C3_4 
REMARK    2  A    between atoms: C3_4  and  S1_5 
REMARK    3  A    between atoms: S1_5  and  C4_6 
REMARK    4  A    between atoms: N3_13  and  C7_14 
ROOT
HETATM    1  C4  UNL     1      12.141  13.385  -1.718  1.00  0.00     0.167 A 
HETATM    2  N1  UNL     1      11.392  14.385  -2.254  1.00  0.00    -0.278 N 
ATOM      3  H1  UNL     1      10.375  14.451  -2.207  1.00  0.00     0.189 HD
HETATM    4  N2  UNL     1      12.177  15.244  -2.837  1.00  0.00    -0.287 N 
ATOM      5  H2  UNL     1      11.869  16.090  -3.318  1.00  0.00     0.188 HD
HETATM    6  C5  UNL     1      13.462  14.844  -2.706  1.00  0.00     0.100 A 
HETATM    7  C6  UNL     1      14.557  15.680  -3.247  1.00  0.00     0.091 C 
HETATM    8  N3  UNL     1      13.444  13.669  -2.005  1.00  0.00    -0.286 N 
ENDROOT
BRANCH   8   9
HETATM    9  C7  UNL     1      14.655  13.002  -1.727  1.00  0.00     0.006 C 
HETATM   10  C8  UNL     1      14.985  12.399  -0.450  1.00  0.00     0.033 C 
HETATM   11  C9  UNL     1      16.562  12.385  -0.446  1.00  0.00     0.015 C 
HETATM   12  C13 UNL     1      14.668  10.963  -0.191  1.00  0.00     0.015 C 
HETATM   13  C10 UNL     1      17.086  11.540  -1.554  1.00  0.00    -0.013 C 
HETATM   14  C11 UNL     1      16.674  10.088  -1.389  1.00  0.00     0.009 C 
HETATM   15  C16 UNL     1      16.561  11.989  -2.876  1.00  0.00     0.015 C 
HETATM   16  C12 UNL     1      15.180  10.073  -1.341  1.00  0.00    -0.013 C 
HETATM   17  C14 UNL     1      14.498  10.623  -2.542  1.00  0.00     0.015 C 
HETATM   18  C15 UNL     1      15.034  12.020  -2.811  1.00  0.00     0.033 C 
ENDBRANCH   8   9
BRANCH   1  19
HETATM   19  S1  UNL     1      11.567  11.999  -0.802  1.00  0.00    -0.085 SA
BRANCH  19  20
HETATM   20  C3  UNL     1      11.317  12.314   0.960  1.00  0.00     0.160 C 
BRANCH  20  21
HETATM   21  C2  UNL     1      10.860  11.066   1.619  1.00  0.00     0.132 C 
HETATM   22  C1  UNL     1      11.265   9.706   1.212  1.00  0.00     0.091 C 
HETATM   23  O1  UNL     1      10.083  11.126   2.589  1.00  0.00    -0.298 OA
ENDBRANCH  20  21
ENDBRANCH  19  20
ENDBRANCH   1  19
TORSDOF 4
ENDMDL
MODEL 3
REMARK VINA RESULT: -6.941988517      0.934      2.017
REMARK  4 active torsions:
REMARK  status: ('A' for Active; 'I' for Inactive)
REMARK    1  A    between atoms: C2_2  and  C3_4 
REMARK    2  A    between atoms: C3_4  and  S1_5 
REMARK    3  A    between atoms: S1_5  and  C4_6 
REMARK    4  A    between atoms: N3_13  and  C7_14 
ROOT
HETATM    1  C4  UNL     1      11.868  12.000  -0.399  1.00  0.00     0.167 A 
HETATM    2  N1  UNL     1      11.072  13.090  -0.553  1.00  0.00    -0.278 N 
ATOM      3  H1  UNL     1      10.147  13.209  -0.141  1.00  0.00     0.189 HD
HETATM    4  N2  UNL     1      11.677  13.960  -1.310  1.00  0.00    -0.287 N 
ATOM      5  H2  UNL     1      11.298  14.867  -1.583  1.00  0.00     0.188 HD
HETATM    6  C5  UNL     1      12.885  13.476  -1.678  1.00  0.00     0.100 A 
HETATM    7  C6  UNL     1      13.792  14.300  -2.508  1.00  0.00     0.091 C 
HETATM    8  N3  UNL     1      13.009  12.237  -1.109  1.00  0.00    -0.286 N 
ENDROOT
BRANCH   8   9
HETATM    9  C7  UNL     1      14.175  11.477  -1.335  1.00  0.00     0.006 C 
HETATM   10  C8  UNL     1      14.991  11.563  -2.531  1.00  0.00     0.033 C 
HETATM   11  C9  UNL     1      15.714  10.162  -2.585  1.00  0.00     0.015 C 
HETATM   12  C13 UNL     1      16.149  12.504  -2.587  1.00  0.00     0.015 C 
HETATM   13  C10 UNL     1      16.583   9.970  -1.392  1.00  0.00    -0.013 C 
HETATM   14  C11 UNL     1      17.703  10.995  -1.349  1.00  0.00     0.009 C 
HETATM   15  C16 UNL     1      15.812  10.122  -0.126  1.00  0.00     0.015 C 
HETATM   16  C12 UNL     1      17.049  12.339  -1.346  1.00  0.00    -0.013 C 
HETATM   17  C14 UNL     1      16.129  12.597  -0.207  1.00  0.00     0.015 C 
HETATM   18  C15 UNL     1      15.103  11.477  -0.143  1.00  0.00     0.033 C 
ENDBRANCH   8   9
BRANCH   1  19
HETATM   19  S1  UNL     1      11.530  10.560   0.552  1.00  0.00    -0.085 SA
BRANCH  19  20
HETATM   20  C3  UNL     1      10.425  10.830   1.957  1.00  0.00     0.160 C 
BRANCH  20  21
HETATM   21  C2  UNL     1      10.605   9.732   2.938  1.00  0.00     0.132 C 
HETATM   22  C1  UNL     1      11.688   8.729   2.885  1.00  0.00     0.091 C 
HETATM   23  O1  UNL     1       9.810   9.614   3.888  1.00  0.00    -0.298 OA
ENDBRANCH  20  21
ENDBRANCH  19  20
ENDBRANCH   1  19
TORSDOF 4
ENDMDL
MODEL 4
REMARK VINA RESULT: -6.766560484      2.184      3.954
REMARK  4 active torsions:
REMARK  status: ('A' for Active; 'I' for Inactive)
REMARK    1  A    between atoms: C2_2  and  C3_4 
REMARK    2  A    between atoms: C3_4  and  S1_5 
REMARK    3  A    between atoms: S1_5  and  C4_6 
REMARK    4  A    between atoms: N3_13  and  C7_14 
ROOT
HETATM    1  C4  UNL     1      14.757  10.410  -0.090  1.00  0.00     0.167 A 
HETATM    2  N1  UNL     1      15.505   9.966   0.953  1.00  0.00    -0.278 N 
ATOM      3  H1  UNL     1      15.176   9.860   1.913  1.00  0.00     0.189 HD
HETATM    4  N2  UNL     1      16.708   9.696   0.535  1.00  0.00    -0.287 N 
ATOM      5  H2  UNL     1      17.469   9.346   1.118  1.00  0.00     0.188 HD
HETATM    6  C5  UNL     1      16.794   9.953  -0.791  1.00  0.00     0.100 A 
HETATM    7  C6  UNL     1      18.054   9.682  -1.517  1.00  0.00     0.091 C 
HETATM    8  N3  UNL     1      15.566  10.407  -1.189  1.00  0.00    -0.286 N 
ENDROOT
BRANCH   8   9
HETATM    9  C7  UNL     1      15.359  10.773  -2.535  1.00  0.00     0.006 C 
HETATM   10  C8  UNL     1      14.082  10.693  -3.219  1.00  0.00     0.033 C 
HETATM   11  C9  UNL     1      14.486  10.577  -4.739  1.00  0.00     0.015 C 
HETATM   12  C13 UNL     1      13.164  11.870  -3.238  1.00  0.00     0.015 C 
HETATM   13  C10 UNL     1      15.223  11.790  -5.185  1.00  0.00    -0.013 C 
HETATM   14  C11 UNL     1      14.355  13.033  -5.096  1.00  0.00     0.009 C 
HETATM   15  C16 UNL     1      16.422  12.042  -4.334  1.00  0.00     0.015 C 
HETATM   16  C12 UNL     1      13.916  13.145  -3.672  1.00  0.00    -0.013 C 
HETATM   17  C14 UNL     1      15.012  13.264  -2.675  1.00  0.00     0.015 C 
HETATM   18  C15 UNL     1      15.980  12.108  -2.872  1.00  0.00     0.033 C 
ENDBRANCH   8   9
BRANCH   1  19
HETATM   19  S1  UNL     1      13.062  10.877  -0.063  1.00  0.00    -0.085 SA
BRANCH  19  20
HETATM   20  C3  UNL     1      11.931   9.570   0.465  1.00  0.00     0.160 C 
BRANCH  20  21
HETATM   21  C2  UNL     1      10.917  10.143   1.384  1.00  0.00     0.132 C 
HETATM   22  C1  UNL     1      10.648   9.648   2.749  1.00  0.00     0.091 C 
HETATM   23  O1  UNL     1      10.226  11.111   1.018  1.00  0.00    -0.298 OA
ENDBRANCH  20  21
ENDBRANCH  19  20
ENDBRANCH   1  19
TORSDOF 4
ENDMDL
MODEL 5
REMARK VINA RESULT: -6.756641023      1.445      2.486
REMARK  4 active torsions:
REMARK  status: ('A' for Active; 'I' for Inactive)
REMARK    1  A    between atoms: C2_2  and  C3_4 
REMARK    2  A    between atoms: C3_4  and  S1_5 
REMARK    3  A    between atoms: S1_5  and  C4_6 
REMARK    4  A    between atoms: N3_13  and  C7_14 
ROOT
HETATM    1  C4  UNL     1      11.763  11.045   0.539  1.00  0.00     0.167 A 
HETATM    2  N1  UNL     1      10.786  11.956   0.792  1.00  0.00    -0.278 N 
ATOM      3  H1  UNL     1      10.032  11.840   1.469  1.00  0.00     0.189 HD
HETATM    4  N2  UNL     1      10.963  12.998   0.033  1.00  0.00    -0.287 N 
ATOM      5  H2  UNL     1      10.369  13.827   0.024  1.00  0.00     0.188 HD
HETATM    6  C5  UNL     1      12.057  12.813  -0.741  1.00  0.00     0.100 A 
HETATM    7  C6  UNL     1      12.501  13.881  -1.664  1.00  0.00     0.091 C 
HETATM    8  N3  UNL     1      12.563  11.581  -0.428  1.00  0.00    -0.286 N 
ENDROOT
BRANCH   8   9
HETATM    9  C7  UNL     1      13.710  11.105  -1.097  1.00  0.00     0.006 C 
HETATM   10  C8  UNL     1      14.079  11.470  -2.451  1.00  0.00     0.033 C 
HETATM   11  C9  UNL     1      14.975  10.262  -2.927  1.00  0.00     0.015 C 
HETATM   12  C13 UNL     1      14.983  12.633  -2.697  1.00  0.00     0.015 C 
HETATM   13  C10 UNL     1      16.196  10.145  -2.084  1.00  0.00    -0.013 C 
HETATM   14  C11 UNL     1      17.081  11.373  -2.212  1.00  0.00     0.009 C 
HETATM   15  C16 UNL     1      15.849  10.014  -0.639  1.00  0.00     0.015 C 
HETATM   16  C12 UNL     1      16.243  12.544  -1.813  1.00  0.00    -0.013 C 
HETATM   17  C14 UNL     1      15.700  12.497  -0.430  1.00  0.00     0.015 C 
HETATM   18  C15 UNL     1      14.953  11.186  -0.242  1.00  0.00     0.033 C 
ENDBRANCH   8   9
BRANCH   1  19
HETATM   19  S1  UNL     1      11.993   9.486   1.317  1.00  0.00    -0.085 SA
BRANCH  19  20
HETATM   20  C3  UNL     1      10.777   9.098   2.596  1.00  0.00     0.160 C 
BRANCH  20  21
HETATM   21  C2  UNL     1      11.483   8.642   3.819  1.00  0.00     0.132 C 
HETATM   22  C1  UNL     1      12.661   7.750   3.825  1.00  0.00     0.091 C 
HETATM   23  O1  UNL     1      11.089   9.017   4.938  1.00  0.00    -0.298 OA
ENDBRANCH  20  21
ENDBRANCH  19  20
ENDBRANCH   1  19
TORSDOF 4
ENDMDL
