MODEL 1
REMARK VINA RESULT: -5.673125445      0.000      0.000
REMARK  7 active torsions:
REMARK  status: ('A' for Active; 'I' for Inactive)
REMARK    1  A    between atoms: C2_2  and  C4_4 
REMARK    2  A    between atoms: C4_4  and  C5_5 
REMARK    3  A    between atoms: C4_4  and  C8_9 
REMARK    4  A    between atoms: C5_5  and  C6_6 
REMARK    5  A    between atoms: C12_14  and  C14_16 
REMARK    6  A    between atoms: C14_16  and  O4_18 
REMARK    7  A    between atoms: O4_18  and  C15_19 
ROOT
HETATM    1  C8  UNL     1      13.700  12.197  -2.641  1.00  0.00     0.041 C 
HETATM    2  C9  UNL     1      12.922  12.009  -3.902  1.00  0.00     0.018 C 
HETATM    3  C10 UNL     1      13.809  12.312  -5.079  1.00  0.00     0.080 C 
HETATM    4  C11 UNL     1      15.141  12.473  -4.438  1.00  0.00     0.145 C 
HETATM    5  O2  UNL     1      16.090  13.024  -4.932  1.00  0.00    -0.297 OA
HETATM    6  C12 UNL     1      15.046  11.810  -3.070  1.00  0.00     0.112 C 
HETATM    7  C13 UNL     1      15.004  10.294  -3.445  1.00  0.00     0.035 C 
ENDROOT
BRANCH   1   8
HETATM    8  C4  UNL     1      13.458  13.376  -1.801  1.00  0.00    -0.062 C 
BRANCH   8   9
HETATM    9  C2  UNL     1      13.066  14.654  -2.364  1.00  0.00    -0.068 C 
HETATM   10  C1  UNL     1      11.780  15.104  -2.263  1.00  0.00     0.018 C 
HETATM   11  C3  UNL     1      13.897  15.640  -3.110  1.00  0.00     0.047 C 
ENDBRANCH   8   9
BRANCH   8  12
HETATM   12  C5  UNL     1      12.893  13.038  -0.438  1.00  0.00     0.113 C 
BRANCH  12  13
HETATM   13  C6  UNL     1      11.951  11.974  -0.274  1.00  0.00     0.127 C 
HETATM   14  C7  UNL     1      12.476  10.655   0.262  1.00  0.00     0.091 C 
HETATM   15  O1  UNL     1      10.779  11.977  -0.504  1.00  0.00    -0.298 OA
ENDBRANCH  12  13
ENDBRANCH   8  12
ENDBRANCH   1   8
BRANCH   6  16
HETATM   16  C14 UNL     1      16.253  12.097  -2.369  1.00  0.00     0.276 C 
HETATM   17  O3  UNL     1      16.784  13.152  -1.991  1.00  0.00    -0.264 OA
BRANCH  16  18
HETATM   18  O4  UNL     1      17.028  10.946  -2.016  1.00  0.00    -0.310 OA
BRANCH  18  19
HETATM   19  C15 UNL     1      17.300  10.597  -0.707  1.00  0.00     0.060 C 
HETATM   20  C16 UNL     1      16.171  10.780   0.251  1.00  0.00     0.045 C 
HETATM   21  C17 UNL     1      18.515  11.320  -0.139  1.00  0.00     0.045 C 
HETATM   22  C18 UNL     1      17.653   9.110  -0.709  1.00  0.00     0.045 C 
ENDBRANCH  18  19
ENDBRANCH  16  18
ENDBRANCH   6  16
TORSDOF 7
ENDMDL
MODEL 2
REMARK VINA RESULT: -5.627131160      1.798      2.632
REMARK  7 active torsions:
REMARK  status: ('A' for Active; 'I' for Inactive)
REMARK    1  A    between atoms: C2_2  and  C4_4 
REMARK    2  A    between atoms: C4_4  and  C5_5 
REMARK    3  A    between atoms: C4_4  and  C8_9 
REMARK    4  A    between atoms: C5_5  and  C6_6 
REMARK    5  A    between atoms: C12_14  and  C14_16 
REMARK    6  A    between atoms: C14_16  and  O4_18 
REMARK    7  A    between atoms: O4_18  and  C15_19 
ROOT
HETATM    1  C8  UNL     1      13.322  11.175  -1.754  1.00  0.00     0.041 C 
HETATM    2  C9  UNL     1      13.208  12.114  -2.909  1.00  0.00     0.018 C 
HETATM    3  C10 UNL     1      14.435  12.982  -2.962  1.00  0.00     0.080 C 
HETATM    4  C11 UNL     1      15.309  12.358  -1.933  1.00  0.00     0.145 C 
HETATM    5  O2  UNL     1      16.253  12.888  -1.407  1.00  0.00    -0.297 OA
HETATM    6  C12 UNL     1      14.769  10.953  -1.701  1.00  0.00     0.112 C 
HETATM    7  C13 UNL     1      15.183  10.224  -3.020  1.00  0.00     0.035 C 
ENDROOT
BRANCH   1   8
HETATM    8  C4  UNL     1      12.524  11.403  -0.542  1.00  0.00    -0.062 C 
BRANCH   8   9
HETATM    9  C2  UNL     1      12.039  12.720  -0.179  1.00  0.00    -0.068 C 
HETATM   10  C1  UNL     1      12.085  13.156   1.115  1.00  0.00     0.018 C 
HETATM   11  C3  UNL     1      11.434  13.766  -1.051  1.00  0.00     0.047 C 
ENDBRANCH   8   9
BRANCH   8  12
HETATM   12  C5  UNL     1      11.637  10.233  -0.178  1.00  0.00     0.113 C 
BRANCH  12  13
HETATM   13  C6  UNL     1      11.764   9.577   1.088  1.00  0.00     0.127 C 
HETATM   14  C7  UNL     1      10.722   9.897   2.145  1.00  0.00     0.091 C 
HETATM   15  O1  UNL     1      12.594   8.794   1.439  1.00  0.00    -0.298 OA
ENDBRANCH  12  13
ENDBRANCH   8  12
ENDBRANCH   1   8
BRANCH   6  16
HETATM   16  C14 UNL     1      15.483  10.395  -0.601  1.00  0.00     0.276 C 
HETATM   17  O3  UNL     1      15.379  10.520   0.629  1.00  0.00    -0.264 OA
BRANCH  16  18
HETATM   18  O4  UNL     1      16.541   9.503  -0.965  1.00  0.00    -0.310 OA
BRANCH  18  19
HETATM   19  C15 UNL     1      17.867   9.745  -0.660  1.00  0.00     0.060 C 
HETATM   20  C16 UNL     1      18.100  10.576   0.557  1.00  0.00     0.045 C 
HETATM   21  C17 UNL     1      18.634  10.381  -1.813  1.00  0.00     0.045 C 
HETATM   22  C18 UNL     1      18.520   8.386  -0.412  1.00  0.00     0.045 C 
ENDBRANCH  18  19
ENDBRANCH  16  18
ENDBRANCH   6  16
TORSDOF 7
ENDMDL
MODEL 3
REMARK VINA RESULT: -5.599493327      2.034      4.917
REMARK  7 active torsions:
REMARK  status: ('A' for Active; 'I' for Inactive)
REMARK    1  A    between atoms: C2_2  and  C4_4 
REMARK    2  A    between atoms: C4_4  and  C5_5 
REMARK    3  A    between atoms: C4_4  and  C8_9 
REMARK    4  A    between atoms: C5_5  and  C6_6 
REMARK    5  A    between atoms: C12_14  and  C14_16 
REMARK    6  A    between atoms: C14_16  and  O4_18 
REMARK    7  A    between atoms: O4_18  and  C15_19 
ROOT
HETATM    1  C8  UNL     1      15.686  10.427  -1.740  1.00  0.00     0.041 C 
HETATM    2  C9  UNL     1      17.020   9.791  -1.524  1.00  0.00     0.018 C 
HETATM    3  C10 UNL     1      17.845  10.668  -0.622  1.00  0.00     0.080 C 
HETATM    4  C11 UNL     1      16.859  11.695  -0.190  1.00  0.00     0.145 C 
HETATM    5  O2  UNL     1      17.131  12.770   0.278  1.00  0.00    -0.297 OA
HETATM    6  C12 UNL     1      15.479  11.110  -0.461  1.00  0.00     0.112 C 
HETATM    7  C13 UNL     1      15.369  10.013   0.647  1.00  0.00     0.035 C 
ENDROOT
BRANCH   1   8
HETATM    8  C4  UNL     1      15.382  11.070  -3.024  1.00  0.00    -0.062 C 
BRANCH   8   9
HETATM    9  C2  UNL     1      16.304  11.990  -3.661  1.00  0.00    -0.068 C 
HETATM   10  C1  UNL     1      16.189  13.339  -3.485  1.00  0.00     0.018 C 
HETATM   11  C3  UNL     1      17.450  11.687  -4.564  1.00  0.00     0.047 C 
ENDBRANCH   8   9
BRANCH   8  12
HETATM   12  C5  UNL     1      14.546  10.207  -3.945  1.00  0.00     0.113 C 
BRANCH  12  13
HETATM   13  C6  UNL     1      13.681  10.794  -4.922  1.00  0.00     0.127 C 
HETATM   14  C7  UNL     1      13.653  10.157  -6.299  1.00  0.00     0.091 C 
HETATM   15  O1  UNL     1      12.959  11.739  -4.805  1.00  0.00    -0.298 OA
ENDBRANCH  12  13
ENDBRANCH   8  12
ENDBRANCH   1   8
BRANCH   6  16
HETATM   16  C14 UNL     1      14.521  12.137  -0.215  1.00  0.00     0.276 C 
HETATM   17  O3  UNL     1      14.456  13.331  -0.541  1.00  0.00    -0.264 OA
BRANCH  16  18
HETATM   18  O4  UNL     1      13.393  11.728   0.565  1.00  0.00    -0.310 OA
BRANCH  18  19
HETATM   19  C15 UNL     1      12.105  11.695   0.063  1.00  0.00     0.060 C 
HETATM   20  C16 UNL     1      11.983  11.970  -1.398  1.00  0.00     0.045 C 
HETATM   21  C17 UNL     1      11.158  12.637   0.796  1.00  0.00     0.045 C 
HETATM   22  C18 UNL     1      11.571  10.284   0.303  1.00  0.00     0.045 C 
ENDBRANCH  18  19
ENDBRANCH  16  18
ENDBRANCH   6  16
TORSDOF 7
ENDMDL
MODEL 4
REMARK VINA RESULT: -5.548186493      1.965      4.684
REMARK  7 active torsions:
REMARK  status: ('A' for Active; 'I' for Inactive)
REMARK    1  A    between atoms: C2_2  and  C4_4 
REMARK    2  A    between atoms: C4_4  and  C5_5 
REMARK    3  A    between atoms: C4_4  and  C8_9 
REMARK    4  A    between atoms: C5_5  and  C6_6 
REMARK    5  A    between atoms: C12_14  and  C14_16 
REMARK    6  A    between atoms: C14_16  and  O4_18 
REMARK    7  A    between atoms: O4_18  and  C15_19 
ROOT
HETATM    1  C8  UNL     1      13.677  12.121  -2.158  1.00  0.00     0.041 C 
HETATM    2  C9  UNL     1      14.286  13.437  -1.804  1.00  0.00     0.018 C 
HETATM    3  C10 UNL     1      15.429  13.720  -2.741  1.00  0.00     0.080 C 
HETATM    4  C11 UNL     1      15.299  12.624  -3.738  1.00  0.00     0.145 C 
HETATM    5  O2  UNL     1      16.166  12.258  -4.488  1.00  0.00    -0.297 OA
HETATM    6  C12 UNL     1      13.880  12.087  -3.608  1.00  0.00     0.112 C 
HETATM    7  C13 UNL     1      13.035  13.246  -4.230  1.00  0.00     0.035 C 
ENDROOT
BRANCH   1   8
HETATM    8  C4  UNL     1      13.923  10.948  -1.310  1.00  0.00    -0.062 C 
BRANCH   8   9
HETATM    9  C2  UNL     1      15.251  10.605  -0.839  1.00  0.00    -0.068 C 
HETATM   10  C1  UNL     1      15.633  10.868   0.446  1.00  0.00     0.018 C 
HETATM   11  C3  UNL     1      16.371   9.969  -1.587  1.00  0.00     0.047 C 
ENDBRANCH   8   9
BRANCH   8  12
HETATM   12  C5  UNL     1      12.773  10.628  -0.379  1.00  0.00     0.113 C 
BRANCH  12  13
HETATM   13  C6  UNL     1      11.760  11.598  -0.097  1.00  0.00     0.127 C 
HETATM   14  C7  UNL     1      12.091  12.675   0.921  1.00  0.00     0.091 C 
HETATM   15  O1  UNL     1      10.663  11.684  -0.562  1.00  0.00    -0.298 OA
ENDBRANCH  12  13
ENDBRANCH   8  12
ENDBRANCH   1   8
BRANCH   6  16
HETATM   16  C14 UNL     1      13.782  10.928  -4.433  1.00  0.00     0.276 C 
HETATM   17  O3  UNL     1      14.223   9.774  -4.328  1.00  0.00    -0.264 OA
BRANCH  16  18
HETATM   18  O4  UNL     1      13.023  11.109  -5.632  1.00  0.00    -0.310 OA
BRANCH  18  19
HETATM   19  C15 UNL     1      13.504  10.774  -6.884  1.00  0.00     0.060 C 
HETATM   20  C16 UNL     1      13.383   9.333  -7.249  1.00  0.00     0.045 C 
HETATM   21  C17 UNL     1      14.955  11.189  -7.093  1.00  0.00     0.045 C 
HETATM   22  C18 UNL     1      12.684  11.568  -7.900  1.00  0.00     0.045 C 
ENDBRANCH  18  19
ENDBRANCH  16  18
ENDBRANCH   6  16
TORSDOF 7
ENDMDL
MODEL 5
REMARK VINA RESULT: -5.480967285      1.492      2.864
REMARK  7 active torsions:
REMARK  status: ('A' for Active; 'I' for Inactive)
REMARK    1  A    between atoms: C2_2  and  C4_4 
REMARK    2  A    between atoms: C4_4  and  C5_5 
REMARK    3  A    between atoms: C4_4  and  C8_9 
REMARK    4  A    between atoms: C5_5  and  C6_6 
REMARK    5  A    between atoms: C12_14  and  C14_16 
REMARK    6  A    between atoms: C14_16  and  O4_18 
REMARK    7  A    between atoms: O4_18  and  C15_19 
ROOT
HETATM    1  C8  UNL     1      12.993  11.952  -2.651  1.00  0.00     0.041 C 
HETATM    2  C9  UNL     1      13.026  12.204  -4.122  1.00  0.00     0.018 C 
HETATM    3  C10 UNL     1      14.352  12.815  -4.488  1.00  0.00     0.080 C 
HETATM    4  C11 UNL     1      15.114  12.702  -3.216  1.00  0.00     0.145 C 
HETATM    5  O2  UNL     1      16.100  13.333  -2.937  1.00  0.00    -0.297 OA
HETATM    6  C12 UNL     1      14.400  11.652  -2.375  1.00  0.00     0.112 C 
HETATM    7  C13 UNL     1      14.758  10.332  -3.131  1.00  0.00     0.035 C 
ENDROOT
BRANCH   1   8
HETATM    8  C4  UNL     1      12.196  12.821  -1.777  1.00  0.00    -0.062 C 
BRANCH   8   9
HETATM    9  C2  UNL     1      11.668  12.359  -0.508  1.00  0.00    -0.068 C 
HETATM   10  C1  UNL     1      11.567  13.202   0.562  1.00  0.00     0.018 C 
HETATM   11  C3  UNL     1      11.186  10.999  -0.137  1.00  0.00     0.047 C 
ENDBRANCH   8   9
BRANCH   8  12
HETATM   12  C5  UNL     1      12.598  14.279  -1.850  1.00  0.00     0.113 C 
BRANCH  12  13
HETATM   13  C6  UNL     1      11.853  15.211  -2.639  1.00  0.00     0.127 C 
HETATM   14  C7  UNL     1      12.146  16.686  -2.436  1.00  0.00     0.091 C 
HETATM   15  O1  UNL     1      11.011  14.987  -3.456  1.00  0.00    -0.298 OA
ENDBRANCH  12  13
ENDBRANCH   8  12
ENDBRANCH   1   8
BRANCH   6  16
HETATM   16  C14 UNL     1      15.009  11.647  -1.087  1.00  0.00     0.276 C 
HETATM   17  O3  UNL     1      15.094  12.494  -0.185  1.00  0.00    -0.264 OA
BRANCH  16  18
HETATM   18  O4  UNL     1      15.662  10.422  -0.739  1.00  0.00    -0.310 OA
BRANCH  18  19
HETATM   19  C15 UNL     1      17.005  10.350  -0.421  1.00  0.00     0.060 C 
HETATM   20  C16 UNL     1      17.799  11.575  -0.726  1.00  0.00     0.045 C 
HETATM   21  C17 UNL     1      17.707   9.165  -1.072  1.00  0.00     0.045 C 
HETATM   22  C18 UNL     1      17.092  10.119   1.087  1.00  0.00     0.045 C 
ENDBRANCH  18  19
ENDBRANCH  16  18
ENDBRANCH   6  16
TORSDOF 7
ENDMDL
