MODEL 1
REMARK VINA RESULT: -8.711258646      0.000      0.000
REMARK  16 active torsions:
REMARK  status: ('A' for Active; 'I' for Inactive)
REMARK    1  A    between atoms: C2_2  and  N1_3 
REMARK    2  A    between atoms: C3_4  and  C4_5 
REMARK    3  A    between atoms: C4_5  and  N2_6 
REMARK    4  A    between atoms: C6_16  and  C7_17 
REMARK    5  A    between atoms: C7_17  and  C8_18 
REMARK    6  A    between atoms: C8_18  and  N6_19 
REMARK    7  A    between atoms: C8_18  and  C9_23 
REMARK    8  A    between atoms: C9_23  and  N9_29 
REMARK    9  A    between atoms: N7_24  and  N8_26 
REMARK   10  A    between atoms: N9_29  and  C10_31 
REMARK   11  A    between atoms: C11_35  and  N11_36 
REMARK   12  A    between atoms: C14_39  and  N12_40 
REMARK   13  A    between atoms: N12_40  and  C15_42 
REMARK   14  A    between atoms: C17_46  and  O1_47 
REMARK   15  A    between atoms: C18_49  and  O2_50 
REMARK   16  A    between atoms: C20_56  and  O4_57 
ROOT
HETATM    1  N9  UNL     1     -11.238  25.812 -17.980  1.00  0.00    -0.345 N 
ATOM      2  H9  UNL     1     -10.245  25.997 -17.834  1.00  0.00     0.163 HD
ENDROOT
BRANCH   1   3
HETATM    3  C9  UNL     1     -11.761  25.435 -19.283  1.00  0.00     0.124 C 
HETATM    4  N7  UNL     1     -12.704  26.173 -19.738  1.00  0.00    -0.294 N 
ATOM      5  H7  UNL     1     -13.048  26.905 -19.117  1.00  0.00     0.187 HD
BRANCH   3   6
HETATM    6  C8  UNL     1     -11.088  24.347 -19.979  1.00  0.00     0.255 C 
BRANCH   6   7
HETATM    7  C7  UNL     1     -10.234  23.458 -19.246  1.00  0.00     0.087 C 
BRANCH   7   8
HETATM    8  C6  UNL     1     -10.566  21.940 -19.270  1.00  0.00     0.189 C 
HETATM    9  N1  UNL     1      -9.826  21.430 -18.174  1.00  0.00    -0.348 N 
HETATM   10  C3  UNL     1     -10.274  21.175 -16.902  1.00  0.00     0.109 C 
HETATM   11  N3  UNL     1     -11.571  21.249 -16.761  1.00  0.00    -0.319 N 
HETATM   12  C5  UNL     1     -12.430  21.587 -17.843  1.00  0.00     0.191 C 
ATOM     13  H3  UNL     1     -11.979  21.059 -15.846  1.00  0.00     0.169 HD
HETATM   14  N4  UNL     1     -13.862  21.569 -17.622  1.00  0.00    -0.063 NA
HETATM   15  N5  UNL     1     -12.004  21.883 -19.007  1.00  0.00    -0.343 N 
ATOM     16  H5  UNL     1     -12.667  22.082 -19.757  1.00  0.00     0.164 HD
BRANCH   9  17
HETATM   17  C2  UNL     1      -8.384  21.121 -18.568  1.00  0.00     0.122 C 
HETATM   18  C1  UNL     1      -8.435  20.161 -19.745  1.00  0.00     0.026 C 
ENDBRANCH   9  17
BRANCH  10  19
HETATM   19  C4  UNL     1      -9.403  20.956 -15.760  1.00  0.00     0.305 C 
BRANCH  19  20
HETATM   20  N2  UNL     1      -9.559  21.923 -14.689  1.00  0.00    -0.073 N 
ATOM     21  H23 UNL     1     -10.547  22.063 -14.478  1.00  0.00     0.274 HD
ATOM     22  H22 UNL     1      -9.246  21.525 -13.803  1.00  0.00     0.274 HD
ATOM     23  H21 UNL     1      -9.102  22.819 -14.858  1.00  0.00     0.274 HD
ENDBRANCH  19  20
ENDBRANCH  10  19
ENDBRANCH   7   8
ENDBRANCH   6   7
BRANCH   6  24
HETATM   24  N6  UNL     1     -10.270  24.999 -21.031  1.00  0.00    -0.068 N 
ATOM     25  H63 UNL     1     -10.150  26.000 -20.875  1.00  0.00     0.275 HD
ATOM     26  H62 UNL     1      -9.285  24.736 -20.987  1.00  0.00     0.275 HD
ATOM     27  H61 UNL     1     -10.694  24.788 -21.934  1.00  0.00     0.275 HD
ENDBRANCH   6  24
ENDBRANCH   3   6
BRANCH   4  28
HETATM   28  N8  UNL     1     -13.304  26.085 -20.979  1.00  0.00    -0.344 N 
ATOM     29  H82 UNL     1     -14.263  25.736 -20.977  1.00  0.00     0.176 HD
ATOM     30  H81 UNL     1     -12.893  26.331 -21.879  1.00  0.00     0.176 HD
ENDBRANCH   4  28
ENDBRANCH   1   3
BRANCH   1  31
HETATM   31  C10 UNL     1     -12.210  25.913 -16.888  1.00  0.00     0.346 C 
HETATM   32  N10 UNL     1     -12.927  24.596 -16.798  1.00  0.00    -0.003 N 
HETATM   33  C11 UNL     1     -13.282  24.690 -15.401  1.00  0.00     0.454 C 
ATOM     34 2H10 UNL     1     -13.686  24.433 -17.461  1.00  0.00     0.285 HD
ATOM     35 1H10 UNL     1     -12.414  23.765 -17.093  1.00  0.00     0.285 HD
HETATM   36  O3  UNL     1     -12.050  24.941 -14.803  1.00  0.00    -0.308 OA
HETATM   37  C20 UNL     1     -11.608  26.024 -15.533  1.00  0.00     0.311 C 
BRANCH  33  38
HETATM   38  N11 UNL     1     -13.889  23.471 -14.868  1.00  0.00    -0.248 N 
HETATM   39  C12 UNL     1     -13.201  22.592 -14.064  1.00  0.00     0.119 A 
HETATM   40  C13 UNL     1     -14.143  21.658 -13.856  1.00  0.00     0.069 A 
HETATM   41  C14 UNL     1     -15.294  21.623 -14.279  1.00  0.00     0.122 A 
HETATM   42  N14 UNL     1     -15.030  23.048 -15.038  1.00  0.00    -0.280 N 
ATOM     43  H14 UNL     1     -15.736  23.533 -15.592  1.00  0.00     0.189 HD
BRANCH  41  44
HETATM   44  N12 UNL     1     -16.524  21.596 -14.753  1.00  0.00    -0.331 N 
ATOM     45  H12 UNL     1     -16.739  21.817 -15.726  1.00  0.00     0.168 HD
BRANCH  44  46
HETATM   46  C15 UNL     1     -17.559  21.228 -13.788  1.00  0.00     0.081 C 
HETATM   47  N13 UNL     1     -18.394  22.023 -13.454  1.00  0.00    -0.377 N 
HETATM   48  C16 UNL     1     -19.455  21.843 -12.539  1.00  0.00     0.155 C 
ATOM     49  H13 UNL     1     -18.330  22.944 -13.887  1.00  0.00     0.160 HD
HETATM   50  C17 UNL     1     -19.715  20.366 -12.221  1.00  0.00     0.165 C 
HETATM   51  C18 UNL     1     -18.880  19.385 -12.953  1.00  0.00     0.155 C 
HETATM   52  C19 UNL     1     -17.467  19.903 -13.109  1.00  0.00     0.110 C 
BRANCH  50  53
HETATM   53  O1  UNL     1     -21.077  20.128 -12.653  1.00  0.00    -0.391 OA
ATOM     54  H1  UNL     1     -21.068  19.249 -13.013  1.00  0.00     0.210 HD
ENDBRANCH  50  53
BRANCH  51  55
HETATM   55  O2  UNL     1     -19.337  19.122 -14.253  1.00  0.00    -0.393 OA
ATOM     56  H2  UNL     1     -18.870  18.415 -14.683  1.00  0.00     0.210 HD
ENDBRANCH  51  55
ENDBRANCH  44  46
ENDBRANCH  41  44
ENDBRANCH  33  38
BRANCH  37  57
HETATM   57  O4  UNL     1     -12.226  27.147 -14.907  1.00  0.00    -0.367 OA
ATOM     58  H4  UNL     1     -11.795  27.259 -14.067  1.00  0.00     0.212 HD
ENDBRANCH  37  57
ENDBRANCH   1  31
TORSDOF 16
ENDMDL
MODEL 2
REMARK VINA RESULT: -8.501465864      2.618      4.496
REMARK  16 active torsions:
REMARK  status: ('A' for Active; 'I' for Inactive)
REMARK    1  A    between atoms: C2_2  and  N1_3 
REMARK    2  A    between atoms: C3_4  and  C4_5 
REMARK    3  A    between atoms: C4_5  and  N2_6 
REMARK    4  A    between atoms: C6_16  and  C7_17 
REMARK    5  A    between atoms: C7_17  and  C8_18 
REMARK    6  A    between atoms: C8_18  and  N6_19 
REMARK    7  A    between atoms: C8_18  and  C9_23 
REMARK    8  A    between atoms: C9_23  and  N9_29 
REMARK    9  A    between atoms: N7_24  and  N8_26 
REMARK   10  A    between atoms: N9_29  and  C10_31 
REMARK   11  A    between atoms: C11_35  and  N11_36 
REMARK   12  A    between atoms: C14_39  and  N12_40 
REMARK   13  A    between atoms: N12_40  and  C15_42 
REMARK   14  A    between atoms: C17_46  and  O1_47 
REMARK   15  A    between atoms: C18_49  and  O2_50 
REMARK   16  A    between atoms: C20_56  and  O4_57 
ROOT
HETATM    1  N9  UNL     1     -11.224  22.885 -18.006  1.00  0.00    -0.345 N 
ATOM      2  H9  UNL     1     -10.903  22.155 -18.641  1.00  0.00     0.163 HD
ENDROOT
BRANCH   1   3
HETATM    3  C9  UNL     1     -11.859  24.099 -18.493  1.00  0.00     0.124 C 
HETATM    4  N7  UNL     1     -11.211  25.184 -18.290  1.00  0.00    -0.294 N 
ATOM      5  H7  UNL     1     -10.354  25.107 -17.743  1.00  0.00     0.187 HD
BRANCH   3   6
HETATM    6  C8  UNL     1     -13.088  23.943 -19.258  1.00  0.00     0.255 C 
BRANCH   6   7
HETATM    7  C7  UNL     1     -14.353  24.150 -18.615  1.00  0.00     0.087 C 
BRANCH   7   8
HETATM    8  C6  UNL     1     -15.595  23.412 -19.188  1.00  0.00     0.189 C 
HETATM    9  N1  UNL     1     -16.305  23.023 -18.025  1.00  0.00    -0.348 N 
HETATM   10  C3  UNL     1     -17.366  23.663 -17.434  1.00  0.00     0.109 C 
HETATM   11  N3  UNL     1     -17.872  24.638 -18.142  1.00  0.00    -0.319 N 
HETATM   12  C5  UNL     1     -17.341  25.004 -19.411  1.00  0.00     0.191 C 
ATOM     13  H3  UNL     1     -18.672  25.152 -17.774  1.00  0.00     0.169 HD
HETATM   14  N4  UNL     1     -18.010  26.042 -20.167  1.00  0.00    -0.063 NA
HETATM   15  N5  UNL     1     -16.318  24.447 -19.927  1.00  0.00    -0.343 N 
ATOM     16  H5  UNL     1     -16.002  24.723 -20.857  1.00  0.00     0.164 HD
BRANCH   9  17
HETATM   17  C2  UNL     1     -15.781  21.705 -17.463  1.00  0.00     0.122 C 
HETATM   18  C1  UNL     1     -16.068  20.628 -18.496  1.00  0.00     0.026 C 
ENDBRANCH   9  17
BRANCH  10  19
HETATM   19  C4  UNL     1     -17.837  23.387 -16.087  1.00  0.00     0.305 C 
BRANCH  19  20
HETATM   20  N2  UNL     1     -19.203  23.806 -15.830  1.00  0.00    -0.073 N 
ATOM     21  H23 UNL     1     -19.728  23.862 -16.702  1.00  0.00     0.274 HD
ATOM     22  H22 UNL     1     -19.720  23.061 -15.361  1.00  0.00     0.274 HD
ATOM     23  H21 UNL     1     -19.286  24.679 -15.308  1.00  0.00     0.274 HD
ENDBRANCH  19  20
ENDBRANCH  10  19
ENDBRANCH   7   8
ENDBRANCH   6   7
BRANCH   6  24
HETATM   24  N6  UNL     1     -13.061  22.551 -19.771  1.00  0.00    -0.068 N 
ATOM     25  H63 UNL     1     -13.019  21.856 -19.026  1.00  0.00     0.275 HD
ATOM     26  H62 UNL     1     -13.950  22.261 -20.178  1.00  0.00     0.275 HD
ATOM     27  H61 UNL     1     -12.283  22.474 -20.427  1.00  0.00     0.275 HD
ENDBRANCH   6  24
ENDBRANCH   3   6
BRANCH   4  28
HETATM   28  N8  UNL     1     -11.548  26.450 -18.731  1.00  0.00    -0.344 N 
ATOM     29  H82 UNL     1     -11.957  27.064 -18.027  1.00  0.00     0.176 HD
ATOM     30  H81 UNL     1     -11.430  26.823 -19.673  1.00  0.00     0.176 HD
ENDBRANCH   4  28
ENDBRANCH   1   3
BRANCH   1  31
HETATM   31  C10 UNL     1     -11.069  22.765 -16.553  1.00  0.00     0.346 C 
HETATM   32  N10 UNL     1     -12.444  22.635 -15.961  1.00  0.00    -0.003 N 
HETATM   33  C11 UNL     1     -12.048  21.924 -14.767  1.00  0.00     0.454 C 
ATOM     34 2H10 UNL     1     -12.979  23.494 -15.835  1.00  0.00     0.285 HD
ATOM     35 1H10 UNL     1     -13.162  22.204 -16.542  1.00  0.00     0.285 HD
HETATM   36  O3  UNL     1     -11.328  20.854 -15.290  1.00  0.00    -0.308 OA
HETATM   37  C20 UNL     1     -10.424  21.504 -16.103  1.00  0.00     0.311 C 
BRANCH  33  38
HETATM   38  N11 UNL     1     -13.177  21.458 -13.963  1.00  0.00    -0.248 N 
HETATM   39  C12 UNL     1     -13.024  20.965 -12.688  1.00  0.00     0.119 A 
HETATM   40  C13 UNL     1     -14.297  20.663 -12.385  1.00  0.00     0.069 A 
HETATM   41  C14 UNL     1     -15.302  20.800 -13.075  1.00  0.00     0.122 A 
HETATM   42  N14 UNL     1     -14.368  21.423 -14.265  1.00  0.00    -0.280 N 
ATOM     43  H14 UNL     1     -14.733  21.747 -15.160  1.00  0.00     0.189 HD
BRANCH  41  44
HETATM   44  N12 UNL     1     -16.370  20.943 -13.835  1.00  0.00    -0.331 N 
ATOM     45  H12 UNL     1     -16.307  21.181 -14.826  1.00  0.00     0.168 HD
BRANCH  44  46
HETATM   46  C15 UNL     1     -17.650  20.738 -13.161  1.00  0.00     0.081 C 
HETATM   47  N13 UNL     1     -18.417  21.650 -13.015  1.00  0.00    -0.377 N 
HETATM   48  C16 UNL     1     -19.684  21.635 -12.389  1.00  0.00     0.155 C 
ATOM     49  H13 UNL     1     -18.116  22.550 -13.389  1.00  0.00     0.160 HD
HETATM   50  C17 UNL     1     -20.225  20.215 -12.191  1.00  0.00     0.165 C 
HETATM   51  C18 UNL     1     -19.390  19.118 -12.731  1.00  0.00     0.155 C 
HETATM   52  C19 UNL     1     -17.921  19.418 -12.523  1.00  0.00     0.110 C 
BRANCH  50  53
HETATM   53  O1  UNL     1     -21.461  20.181 -12.947  1.00  0.00    -0.391 OA
ATOM     54  H1  UNL     1     -21.607  19.261 -13.133  1.00  0.00     0.210 HD
ENDBRANCH  50  53
BRANCH  51  55
HETATM   55  O2  UNL     1     -19.549  18.919 -14.110  1.00  0.00    -0.393 OA
ATOM     56  H2  UNL     1     -19.234  18.075 -14.411  1.00  0.00     0.210 HD
ENDBRANCH  51  55
ENDBRANCH  44  46
ENDBRANCH  41  44
ENDBRANCH  33  38
BRANCH  37  57
HETATM   57  O4  UNL     1      -9.367  21.883 -15.221  1.00  0.00    -0.367 OA
ATOM     58  H4  UNL     1      -9.541  21.454 -14.391  1.00  0.00     0.212 HD
ENDBRANCH  37  57
ENDBRANCH   1  31
TORSDOF 16
ENDMDL
MODEL 3
REMARK VINA RESULT: -8.416743528      4.761      8.497
REMARK  16 active torsions:
REMARK  status: ('A' for Active; 'I' for Inactive)
REMARK    1  A    between atoms: C2_2  and  N1_3 
REMARK    2  A    between atoms: C3_4  and  C4_5 
REMARK    3  A    between atoms: C4_5  and  N2_6 
REMARK    4  A    between atoms: C6_16  and  C7_17 
REMARK    5  A    between atoms: C7_17  and  C8_18 
REMARK    6  A    between atoms: C8_18  and  N6_19 
REMARK    7  A    between atoms: C8_18  and  C9_23 
REMARK    8  A    between atoms: C9_23  and  N9_29 
REMARK    9  A    between atoms: N7_24  and  N8_26 
REMARK   10  A    between atoms: N9_29  and  C10_31 
REMARK   11  A    between atoms: C11_35  and  N11_36 
REMARK   12  A    between atoms: C14_39  and  N12_40 
REMARK   13  A    between atoms: N12_40  and  C15_42 
REMARK   14  A    between atoms: C17_46  and  O1_47 
REMARK   15  A    between atoms: C18_49  and  O2_50 
REMARK   16  A    between atoms: C20_56  and  O4_57 
ROOT
HETATM    1  N9  UNL     1     -17.749  23.354 -16.197  1.00  0.00    -0.345 N 
ATOM      2  H9  UNL     1     -17.477  24.303 -15.939  1.00  0.00     0.163 HD
ENDROOT
BRANCH   1   3
HETATM    3  C9  UNL     1     -18.636  23.093 -17.319  1.00  0.00     0.124 C 
HETATM    4  N7  UNL     1     -18.418  22.004 -17.957  1.00  0.00    -0.294 N 
ATOM      5  H7  UNL     1     -17.602  21.464 -17.669  1.00  0.00     0.187 HD
BRANCH   3   6
HETATM    6  C8  UNL     1     -19.740  24.020 -17.523  1.00  0.00     0.255 C 
BRANCH   6   7
HETATM    7  C7  UNL     1     -20.106  24.404 -18.855  1.00  0.00     0.087 C 
BRANCH   7   8
HETATM    8  C6  UNL     1     -19.394  25.633 -19.484  1.00  0.00     0.189 C 
HETATM    9  N1  UNL     1     -18.943  25.141 -20.734  1.00  0.00    -0.348 N 
HETATM   10  C3  UNL     1     -19.548  25.277 -21.959  1.00  0.00     0.109 C 
HETATM   11  N3  UNL     1     -20.556  26.108 -21.975  1.00  0.00    -0.319 N 
HETATM   12  C5  UNL     1     -20.989  26.793 -20.805  1.00  0.00     0.191 C 
ATOM     13  H3  UNL     1     -21.047  26.271 -22.853  1.00  0.00     0.169 HD
HETATM   14  N4  UNL     1     -22.062  27.758 -20.925  1.00  0.00    -0.063 NA
HETATM   15  N5  UNL     1     -20.462  26.616 -19.658  1.00  0.00    -0.343 N 
ATOM     16  H5  UNL     1     -20.787  27.162 -18.859  1.00  0.00     0.164 HD
BRANCH   9  17
HETATM   17  C2  UNL     1     -17.599  24.429 -20.605  1.00  0.00     0.122 C 
HETATM   18  C1  UNL     1     -16.707  25.304 -19.740  1.00  0.00     0.026 C 
ENDBRANCH   9  17
BRANCH  10  19
HETATM   19  C4  UNL     1     -19.201  24.491 -23.130  1.00  0.00     0.305 C 
BRANCH  19  20
HETATM   20  N2  UNL     1     -20.194  23.501 -23.507  1.00  0.00    -0.073 N 
ATOM     21  H23 UNL     1     -20.101  22.666 -22.928  1.00  0.00     0.274 HD
ATOM     22  H22 UNL     1     -21.126  23.807 -23.224  1.00  0.00     0.274 HD
ATOM     23  H21 UNL     1     -20.188  23.249 -24.496  1.00  0.00     0.274 HD
ENDBRANCH  19  20
ENDBRANCH  10  19
ENDBRANCH   7   8
ENDBRANCH   6   7
BRANCH   6  24
HETATM   24  N6  UNL     1     -19.365  25.249 -16.782  1.00  0.00    -0.068 N 
ATOM     25  H63 UNL     1     -18.356  25.352 -16.672  1.00  0.00     0.275 HD
ATOM     26  H62 UNL     1     -19.531  26.101 -17.318  1.00  0.00     0.275 HD
ATOM     27  H61 UNL     1     -19.860  25.242 -15.890  1.00  0.00     0.275 HD
ENDBRANCH   6  24
ENDBRANCH   3   6
BRANCH   4  28
HETATM   28  N8  UNL     1     -19.168  21.482 -18.994  1.00  0.00    -0.344 N 
ATOM     29  H82 UNL     1     -19.017  21.916 -19.904  1.00  0.00     0.176 HD
ATOM     30  H81 UNL     1     -19.845  20.720 -18.939  1.00  0.00     0.176 HD
ENDBRANCH   4  28
ENDBRANCH   1   3
BRANCH   1  31
HETATM   31  C10 UNL     1     -17.267  22.185 -15.458  1.00  0.00     0.346 C 
HETATM   32  N10 UNL     1     -15.771  22.153 -15.587  1.00  0.00    -0.003 N 
HETATM   33  C11 UNL     1     -15.510  21.425 -14.367  1.00  0.00     0.454 C 
ATOM     34 2H10 UNL     1     -15.386  21.768 -16.450  1.00  0.00     0.285 HD
ATOM     35 1H10 UNL     1     -15.295  23.047 -15.706  1.00  0.00     0.285 HD
HETATM   36  O3  UNL     1     -16.188  22.188 -13.421  1.00  0.00    -0.308 OA
HETATM   37  C20 UNL     1     -17.443  22.270 -13.984  1.00  0.00     0.311 C 
BRANCH  33  38
HETATM   38  N11 UNL     1     -14.088  21.320 -14.041  1.00  0.00    -0.248 N 
HETATM   39  C12 UNL     1     -13.639  21.017 -12.776  1.00  0.00     0.119 A 
HETATM   40  C13 UNL     1     -12.311  21.054 -12.971  1.00  0.00     0.069 A 
HETATM   41  C14 UNL     1     -11.693  21.294 -14.003  1.00  0.00     0.122 A 
HETATM   42  N14 UNL     1     -13.120  21.478 -14.782  1.00  0.00    -0.280 N 
ATOM     43  H14 UNL     1     -13.199  21.700 -15.774  1.00  0.00     0.189 HD
BRANCH  41  44
HETATM   44  N12 UNL     1     -11.046  21.565 -15.120  1.00  0.00    -0.331 N 
ATOM     45  H12 UNL     1     -10.459  20.876 -15.591  1.00  0.00     0.168 HD
BRANCH  44  46
HETATM   46  C15 UNL     1     -11.229  22.920 -15.636  1.00  0.00     0.081 C 
HETATM   47  N13 UNL     1     -11.269  23.124 -16.818  1.00  0.00    -0.377 N 
HETATM   48  C16 UNL     1     -11.432  24.358 -17.487  1.00  0.00     0.155 C 
ATOM     49  H13 UNL     1     -11.172  22.303 -17.415  1.00  0.00     0.160 HD
HETATM   50  C17 UNL     1     -11.937  25.468 -16.559  1.00  0.00     0.165 C 
HETATM   51  C18 UNL     1     -12.229  25.069 -15.163  1.00  0.00     0.155 C 
HETATM   52  C19 UNL     1     -11.210  24.062 -14.676  1.00  0.00     0.110 C 
BRANCH  50  53
HETATM   53  O1  UNL     1     -13.206  25.877 -17.128  1.00  0.00    -0.391 OA
ATOM     54  H1  UNL     1     -13.662  26.310 -16.416  1.00  0.00     0.210 HD
ENDBRANCH  50  53
BRANCH  51  55
HETATM   55  O2  UNL     1     -13.480  24.454 -15.007  1.00  0.00    -0.393 OA
ATOM     56  H2  UNL     1     -13.431  23.587 -14.620  1.00  0.00     0.210 HD
ENDBRANCH  51  55
ENDBRANCH  44  46
ENDBRANCH  41  44
ENDBRANCH  33  38
BRANCH  37  57
HETATM   57  O4  UNL     1     -18.089  21.062 -13.583  1.00  0.00    -0.367 OA
ATOM     58  H4  UNL     1     -17.863  20.926 -12.670  1.00  0.00     0.212 HD
ENDBRANCH  37  57
ENDBRANCH   1  31
TORSDOF 16
ENDMDL
MODEL 4
REMARK VINA RESULT: -8.331811751      2.563      4.174
REMARK  16 active torsions:
REMARK  status: ('A' for Active; 'I' for Inactive)
REMARK    1  A    between atoms: C2_2  and  N1_3 
REMARK    2  A    between atoms: C3_4  and  C4_5 
REMARK    3  A    between atoms: C4_5  and  N2_6 
REMARK    4  A    between atoms: C6_16  and  C7_17 
REMARK    5  A    between atoms: C7_17  and  C8_18 
REMARK    6  A    between atoms: C8_18  and  N6_19 
REMARK    7  A    between atoms: C8_18  and  C9_23 
REMARK    8  A    between atoms: C9_23  and  N9_29 
REMARK    9  A    between atoms: N7_24  and  N8_26 
REMARK   10  A    between atoms: N9_29  and  C10_31 
REMARK   11  A    between atoms: C11_35  and  N11_36 
REMARK   12  A    between atoms: C14_39  and  N12_40 
REMARK   13  A    between atoms: N12_40  and  C15_42 
REMARK   14  A    between atoms: C17_46  and  O1_47 
REMARK   15  A    between atoms: C18_49  and  O2_50 
REMARK   16  A    between atoms: C20_56  and  O4_57 
ROOT
HETATM    1  N9  UNL     1     -15.365  21.853 -19.332  1.00  0.00    -0.345 N 
ATOM      2  H9  UNL     1     -15.626  22.705 -19.828  1.00  0.00     0.163 HD
ENDROOT
BRANCH   1   3
HETATM    3  C9  UNL     1     -14.114  21.164 -19.601  1.00  0.00     0.124 C 
HETATM    4  N7  UNL     1     -14.219  20.034 -20.195  1.00  0.00    -0.294 N 
ATOM      5  H7  UNL     1     -15.166  19.690 -20.353  1.00  0.00     0.187 HD
BRANCH   3   6
HETATM    6  C8  UNL     1     -12.883  21.874 -19.285  1.00  0.00     0.255 C 
BRANCH   6   7
HETATM    7  C7  UNL     1     -12.128  21.499 -18.123  1.00  0.00     0.087 C 
BRANCH   7   8
HETATM    8  C6  UNL     1     -11.099  22.518 -17.560  1.00  0.00     0.189 C 
HETATM    9  N1  UNL     1     -10.959  22.121 -16.206  1.00  0.00    -0.348 N 
HETATM   10  C3  UNL     1      -9.982  21.328 -15.659  1.00  0.00     0.109 C 
HETATM   11  N3  UNL     1      -8.983  21.071 -16.461  1.00  0.00    -0.319 N 
HETATM   12  C5  UNL     1      -8.938  21.565 -17.795  1.00  0.00     0.191 C 
ATOM     13  H3  UNL     1      -8.211  20.498 -16.121  1.00  0.00     0.169 HD
HETATM   14  N4  UNL     1      -7.758  21.301 -18.592  1.00  0.00    -0.063 NA
HETATM   15  N5  UNL     1      -9.877  22.250 -18.318  1.00  0.00    -0.343 N 
ATOM     16  H5  UNL     1      -9.777  22.611 -19.266  1.00  0.00     0.164 HD
BRANCH   9  17
HETATM   17  C2  UNL     1     -12.046  22.734 -15.328  1.00  0.00     0.122 C 
HETATM   18  C1  UNL     1     -11.525  24.073 -14.834  1.00  0.00     0.026 C 
ENDBRANCH   9  17
BRANCH  10  19
HETATM   19  C4  UNL     1     -10.073  20.710 -14.348  1.00  0.00     0.305 C 
BRANCH  19  20
HETATM   20  N2  UNL     1      -8.892  19.968 -13.948  1.00  0.00    -0.073 N 
ATOM     21  H23 UNL     1      -8.283  19.811 -14.751  1.00  0.00     0.274 HD
ATOM     22  H22 UNL     1      -8.281  20.552 -13.377  1.00  0.00     0.274 HD
ATOM     23  H21 UNL     1      -9.087  19.086 -13.473  1.00  0.00     0.274 HD
ENDBRANCH  19  20
ENDBRANCH  10  19
ENDBRANCH   7   8
ENDBRANCH   6   7
BRANCH   6  24
HETATM   24  N6  UNL     1     -13.276  23.296 -19.133  1.00  0.00    -0.068 N 
ATOM     25  H63 UNL     1     -14.123  23.530 -19.650  1.00  0.00     0.275 HD
ATOM     26  H62 UNL     1     -13.622  23.514 -18.198  1.00  0.00     0.275 HD
ATOM     27  H61 UNL     1     -12.478  23.873 -19.402  1.00  0.00     0.275 HD
ENDBRANCH   6  24
ENDBRANCH   3   6
BRANCH   4  28
HETATM   28  N8  UNL     1     -13.189  19.229 -20.643  1.00  0.00    -0.344 N 
ATOM     29  H82 UNL     1     -12.468  19.018 -19.954  1.00  0.00     0.176 HD
ATOM     30  H81 UNL     1     -13.080  18.834 -21.577  1.00  0.00     0.176 HD
ENDBRANCH   4  28
ENDBRANCH   1   3
BRANCH   1  31
HETATM   31  C10 UNL     1     -16.231  21.262 -18.308  1.00  0.00     0.346 C 
HETATM   32  N10 UNL     1     -15.502  21.341 -16.997  1.00  0.00    -0.003 N 
HETATM   33  C11 UNL     1     -16.673  21.341 -16.151  1.00  0.00     0.454 C 
ATOM     34 2H10 UNL     1     -14.795  20.628 -16.814  1.00  0.00     0.285 HD
ATOM     35 1H10 UNL     1     -14.842  22.109 -16.877  1.00  0.00     0.285 HD
HETATM   36  O3  UNL     1     -17.419  22.387 -16.685  1.00  0.00    -0.308 OA
HETATM   37  C20 UNL     1     -17.464  22.039 -18.018  1.00  0.00     0.311 C 
BRANCH  33  38
HETATM   38  N11 UNL     1     -16.374  21.572 -14.738  1.00  0.00    -0.248 N 
HETATM   39  C12 UNL     1     -15.241  21.081 -14.132  1.00  0.00     0.119 A 
HETATM   40  C13 UNL     1     -15.419  21.526 -12.878  1.00  0.00     0.069 A 
HETATM   41  C14 UNL     1     -16.348  22.187 -12.424  1.00  0.00     0.122 A 
HETATM   42  N14 UNL     1     -17.035  22.192 -13.909  1.00  0.00    -0.280 N 
ATOM     43  H14 UNL     1     -17.916  22.660 -14.123  1.00  0.00     0.189 HD
BRANCH  41  44
HETATM   44  N12 UNL     1     -17.360  22.889 -11.951  1.00  0.00    -0.331 N 
ATOM     45  H12 UNL     1     -17.274  23.877 -11.713  1.00  0.00     0.168 HD
BRANCH  44  46
HETATM   46  C15 UNL     1     -18.612  22.152 -11.791  1.00  0.00     0.081 C 
HETATM   47  N13 UNL     1     -19.668  22.698 -11.955  1.00  0.00    -0.377 N 
HETATM   48  C16 UNL     1     -20.964  22.148 -11.839  1.00  0.00     0.155 C 
ATOM     49  H13 UNL     1     -19.624  23.684 -12.211  1.00  0.00     0.160 HD
HETATM   50  C17 UNL     1     -20.954  20.616 -11.826  1.00  0.00     0.165 C 
HETATM   51  C18 UNL     1     -19.631  19.971 -11.998  1.00  0.00     0.155 C 
HETATM   52  C19 UNL     1     -18.560  20.755 -11.271  1.00  0.00     0.110 C 
BRANCH  50  53
HETATM   53  O1  UNL     1     -21.736  20.230 -12.983  1.00  0.00    -0.391 OA
ATOM     54  H1  UNL     1     -22.334  19.565 -12.661  1.00  0.00     0.210 HD
ENDBRANCH  50  53
BRANCH  51  55
HETATM   55  O2  UNL     1     -19.213  19.900 -13.335  1.00  0.00    -0.393 OA
ATOM     56  H2  UNL     1     -18.269  19.935 -13.439  1.00  0.00     0.210 HD
ENDBRANCH  51  55
ENDBRANCH  44  46
ENDBRANCH  41  44
ENDBRANCH  33  38
BRANCH  37  57
HETATM   57  O4  UNL     1     -18.552  21.119 -18.104  1.00  0.00    -0.367 OA
ATOM     58  H4  UNL     1     -19.347  21.640 -18.110  1.00  0.00     0.212 HD
ENDBRANCH  37  57
ENDBRANCH   1  31
TORSDOF 16
ENDMDL
MODEL 5
REMARK VINA RESULT: -8.250920645      3.528      5.542
REMARK  16 active torsions:
REMARK  status: ('A' for Active; 'I' for Inactive)
REMARK    1  A    between atoms: C2_2  and  N1_3 
REMARK    2  A    between atoms: C3_4  and  C4_5 
REMARK    3  A    between atoms: C4_5  and  N2_6 
REMARK    4  A    between atoms: C6_16  and  C7_17 
REMARK    5  A    between atoms: C7_17  and  C8_18 
REMARK    6  A    between atoms: C8_18  and  N6_19 
REMARK    7  A    between atoms: C8_18  and  C9_23 
REMARK    8  A    between atoms: C9_23  and  N9_29 
REMARK    9  A    between atoms: N7_24  and  N8_26 
REMARK   10  A    between atoms: N9_29  and  C10_31 
REMARK   11  A    between atoms: C11_35  and  N11_36 
REMARK   12  A    between atoms: C14_39  and  N12_40 
REMARK   13  A    between atoms: N12_40  and  C15_42 
REMARK   14  A    between atoms: C17_46  and  O1_47 
REMARK   15  A    between atoms: C18_49  and  O2_50 
REMARK   16  A    between atoms: C20_56  and  O4_57 
ROOT
HETATM    1  N9  UNL     1     -13.651  23.734 -19.023  1.00  0.00    -0.345 N 
ATOM      2  H9  UNL     1     -13.219  22.865 -19.338  1.00  0.00     0.163 HD
ENDROOT
BRANCH   1   3
HETATM    3  C9  UNL     1     -14.416  24.579 -19.926  1.00  0.00     0.124 C 
HETATM    4  N7  UNL     1     -13.808  25.618 -20.362  1.00  0.00    -0.294 N 
ATOM      5  H7  UNL     1     -12.879  25.795 -19.981  1.00  0.00     0.187 HD
BRANCH   3   6
HETATM    6  C8  UNL     1     -15.731  24.101 -20.329  1.00  0.00     0.255 C 
BRANCH   6   7
HETATM    7  C7  UNL     1     -16.899  24.584 -19.652  1.00  0.00     0.087 C 
BRANCH   7   8
HETATM    8  C6  UNL     1     -18.090  23.605 -19.460  1.00  0.00     0.189 C 
HETATM    9  N1  UNL     1     -18.506  23.860 -18.129  1.00  0.00    -0.348 N 
HETATM   10  C3  UNL     1     -19.530  24.672 -17.709  1.00  0.00     0.109 C 
HETATM   11  N3  UNL     1     -20.305  25.106 -18.668  1.00  0.00    -0.319 N 
HETATM   12  C5  UNL     1     -20.079  24.769 -20.032  1.00  0.00     0.191 C 
ATOM     13  H3  UNL     1     -21.096  25.704 -18.431  1.00  0.00     0.169 HD
HETATM   14  N4  UNL     1     -21.030  25.225 -21.024  1.00  0.00    -0.063 NA
HETATM   15  N5  UNL     1     -19.091  24.065 -20.423  1.00  0.00    -0.343 N 
ATOM     16  H5  UNL     1     -18.997  23.822 -21.409  1.00  0.00     0.164 HD
BRANCH   9  17
HETATM   17  C2  UNL     1     -17.686  23.058 -17.122  1.00  0.00     0.122 C 
HETATM   18  C1  UNL     1     -17.810  21.593 -17.505  1.00  0.00     0.026 C 
ENDBRANCH   9  17
BRANCH  10  19
HETATM   19  C4  UNL     1     -19.698  25.129 -16.340  1.00  0.00     0.305 C 
BRANCH  19  20
HETATM   20  N2  UNL     1     -20.641  24.351 -15.557  1.00  0.00    -0.073 N 
ATOM     21  H23 UNL     1     -21.540  24.831 -15.504  1.00  0.00     0.274 HD
ATOM     22  H22 UNL     1     -20.920  23.513 -16.068  1.00  0.00     0.274 HD
ATOM     23  H21 UNL     1     -20.314  24.105 -14.622  1.00  0.00     0.274 HD
ENDBRANCH  19  20
ENDBRANCH  10  19
ENDBRANCH   7   8
ENDBRANCH   6   7
BRANCH   6  24
HETATM   24  N6  UNL     1     -15.683  22.627 -20.160  1.00  0.00    -0.068 N 
ATOM     25  H63 UNL     1     -14.760  22.237 -20.350  1.00  0.00     0.275 HD
ATOM     26  H62 UNL     1     -15.755  22.338 -19.184  1.00  0.00     0.275 HD
ATOM     27  H61 UNL     1     -16.412  22.220 -20.747  1.00  0.00     0.275 HD
ENDBRANCH   6  24
ENDBRANCH   3   6
BRANCH   4  28
HETATM   28  N8  UNL     1     -14.274  26.525 -21.295  1.00  0.00    -0.344 N 
ATOM     29  H82 UNL     1     -15.274  26.476 -21.491  1.00  0.00     0.176 HD
ATOM     30  H81 UNL     1     -13.728  27.226 -21.797  1.00  0.00     0.176 HD
ENDBRANCH   4  28
ENDBRANCH   1   3
BRANCH   1  31
HETATM   31  C10 UNL     1     -13.533  24.195 -17.637  1.00  0.00     0.346 C 
HETATM   32  N10 UNL     1     -14.553  23.449 -16.824  1.00  0.00    -0.003 N 
HETATM   33  C11 UNL     1     -13.864  23.544 -15.558  1.00  0.00     0.454 C 
ATOM     34 2H10 UNL     1     -15.514  23.790 -16.857  1.00  0.00     0.285 HD
ATOM     35 1H10 UNL     1     -14.812  22.516 -17.144  1.00  0.00     0.285 HD
HETATM   36  O3  UNL     1     -12.606  23.038 -15.872  1.00  0.00    -0.308 OA
HETATM   37  C20 UNL     1     -12.266  23.809 -16.963  1.00  0.00     0.311 C 
BRANCH  33  38
HETATM   38  N11 UNL     1     -14.494  22.769 -14.490  1.00  0.00    -0.248 N 
HETATM   39  C12 UNL     1     -14.050  21.520 -14.121  1.00  0.00     0.119 A 
HETATM   40  C13 UNL     1     -14.927  21.224 -13.149  1.00  0.00     0.069 A 
HETATM   41  C14 UNL     1     -15.860  21.899 -12.725  1.00  0.00     0.122 A 
HETATM   42  N14 UNL     1     -15.460  23.072 -13.793  1.00  0.00    -0.280 N 
ATOM     43  H14 UNL     1     -15.957  23.959 -13.872  1.00  0.00     0.189 HD
BRANCH  41  44
HETATM   44  N12 UNL     1     -16.865  22.634 -12.291  1.00  0.00    -0.331 N 
ATOM     45  H12 UNL     1     -16.779  23.639 -12.138  1.00  0.00     0.168 HD
BRANCH  44  46
HETATM   46  C15 UNL     1     -18.110  21.909 -12.043  1.00  0.00     0.081 C 
HETATM   47  N13 UNL     1     -19.166  22.478 -12.081  1.00  0.00    -0.377 N 
HETATM   48  C16 UNL     1     -20.455  21.942 -11.864  1.00  0.00     0.155 C 
ATOM     49  H13 UNL     1     -19.128  23.474 -12.298  1.00  0.00     0.160 HD
HETATM   50  C17 UNL     1     -20.473  20.410 -11.917  1.00  0.00     0.165 C 
HETATM   51  C18 UNL     1     -19.185  19.755 -12.242  1.00  0.00     0.155 C 
HETATM   52  C19 UNL     1     -18.035  20.490 -11.589  1.00  0.00     0.110 C 
BRANCH  50  53
HETATM   53  O1  UNL     1     -21.369  20.087 -13.008  1.00  0.00    -0.391 OA
ATOM     54  H1  UNL     1     -21.747  19.249 -12.772  1.00  0.00     0.210 HD
ENDBRANCH  50  53
BRANCH  51  55
HETATM   55  O2  UNL     1     -18.898  19.737 -13.615  1.00  0.00    -0.393 OA
ATOM     56  H2  UNL     1     -18.008  20.002 -13.820  1.00  0.00     0.210 HD
ENDBRANCH  51  55
ENDBRANCH  44  46
ENDBRANCH  41  44
ENDBRANCH  33  38
BRANCH  37  57
HETATM   57  O4  UNL     1     -11.728  25.003 -16.397  1.00  0.00    -0.367 OA
ATOM     58  H4  UNL     1     -11.149  24.732 -15.694  1.00  0.00     0.212 HD
ENDBRANCH  37  57
ENDBRANCH   1  31
TORSDOF 16
ENDMDL
