MODEL 1
REMARK VINA RESULT: -8.104578877      0.000      0.000
REMARK  14 active torsions:
REMARK  status: ('A' for Active; 'I' for Inactive)
REMARK    1  A    between atoms: O1_2  and  C2_3 
REMARK    2  A    between atoms: C2_3  and  C3_5 
REMARK    3  A    between atoms: C4_7  and  N1_8 
REMARK    4  A    between atoms: C6_12  and  C7_13 
REMARK       I    between atoms: C7_13  and  N3_15 
REMARK    5  A    between atoms: C10_21  and  O5_22 
REMARK    6  A    between atoms: C11_24  and  O6_25 
REMARK    7  A    between atoms: C12_27  and  O7_28 
REMARK    8  A    between atoms: C12_27  and  C13_30 
REMARK    9  A    between atoms: C13_30  and  O8_31 
REMARK   10  A    between atoms: C13_30  and  C14_33 
REMARK   11  A    between atoms: C14_33  and  N6_34 
REMARK   12  A    between atoms: C15_37  and  C16_38 
REMARK   13  A    between atoms: C16_38  and  N9_40 
REMARK   14  A    between atoms: N9_40  and  N10_42 
ROOT
HETATM    1  C3  UNL     1      33.457  11.591 -23.833  1.00  0.00     0.263 C 
HETATM    2  O3  UNL     1      32.844  10.876 -22.854  1.00  0.00    -0.345 OA
HETATM    3  C4  UNL     1      33.558  10.688 -21.697  1.00  0.00     0.260 C 
HETATM    4  C10 UNL     1      33.723  12.059 -21.059  1.00  0.00     0.199 C 
HETATM    5  C11 UNL     1      34.604  12.861 -21.982  1.00  0.00     0.191 C 
HETATM    6  C12 UNL     1      34.179  12.817 -23.419  1.00  0.00     0.148 C 
ENDROOT
BRANCH   6   7
HETATM    7  O7  UNL     1      33.301  13.910 -23.607  1.00  0.00    -0.381 OA
ATOM      8  H7  UNL     1      33.832  14.667 -23.826  1.00  0.00     0.211 HD
ENDBRANCH   6   7
BRANCH   6   9
HETATM    9  C13 UNL     1      35.363  13.034 -24.337  1.00  0.00     0.178 C 
BRANCH   9  10
HETATM   10  O8  UNL     1      36.219  11.958 -24.214  1.00  0.00    -0.391 OA
ATOM     11  H8  UNL     1      37.111  12.264 -24.336  1.00  0.00     0.210 HD
ENDBRANCH   9  10
BRANCH   9  12
HETATM   12  C14 UNL     1      36.055  14.351 -24.063  1.00  0.00     0.186 C 
BRANCH  12  13
HETATM   13  N6  UNL     1      35.604  15.343 -25.028  1.00  0.00    -0.263 N 
HETATM   14  N7  UNL     1      34.995  15.120 -26.180  1.00  0.00    -0.278 N 
HETATM   15  C15 UNL     1      34.738  16.289 -26.791  1.00  0.00     0.165 A 
ATOM     16  H7  UNL     1      34.756  14.199 -26.549  1.00  0.00     0.189 HD
HETATM   17  N11 UNL     1      35.196  17.279 -26.009  1.00  0.00    -0.314 N 
HETATM   18  C17 UNL     1      35.723  16.681 -24.934  1.00  0.00     0.194 A 
ATOM     19  H11 UNL     1      35.152  18.280 -26.195  1.00  0.00     0.170 HD
HETATM   20  S1  UNL     1      36.414  17.525 -23.692  1.00  0.00    -0.039 SA
BRANCH  15  21
HETATM   21  C16 UNL     1      34.079  16.484 -28.078  1.00  0.00     0.176 C 
HETATM   22  N8  UNL     1      32.684  16.264 -28.219  1.00  0.00    -0.077 NA
BRANCH  21  23
HETATM   23  N9  UNL     1      34.722  16.859 -29.134  1.00  0.00    -0.291 N 
ATOM     24  H9  UNL     1      35.296  17.700 -29.067  1.00  0.00     0.187 HD
BRANCH  23  25
HETATM   25  N10 UNL     1      34.685  16.199 -30.351  1.00  0.00    -0.344 N 
ATOM     26 2H10 UNL     1      33.947  15.505 -30.473  1.00  0.00     0.176 HD
ATOM     27 1H10 UNL     1      35.338  16.362 -31.117  1.00  0.00     0.176 HD
ENDBRANCH  23  25
ENDBRANCH  21  23
ENDBRANCH  15  21
ENDBRANCH  12  13
ENDBRANCH   9  12
ENDBRANCH   6   9
BRANCH   1  28
HETATM   28  C2  UNL     1      32.419  11.894 -24.880  1.00  0.00     0.291 C 
HETATM   29  O2  UNL     1      31.301  12.387 -24.600  1.00  0.00    -0.262 OA
BRANCH  28  30
HETATM   30  O1  UNL     1      32.650  11.639 -26.237  1.00  0.00    -0.324 OA
HETATM   31  C1  UNL     1      31.565  11.368 -27.114  1.00  0.00     0.213 C 
ENDBRANCH  28  30
ENDBRANCH   1  28
BRANCH   5  32
HETATM   32  O6  UNL     1      35.911  12.416 -21.794  1.00  0.00    -0.390 OA
ATOM     33  H6  UNL     1      36.489  13.131 -22.033  1.00  0.00     0.210 HD
ENDBRANCH   5  32
BRANCH   4  34
HETATM   34  O5  UNL     1      32.481  12.653 -21.028  1.00  0.00    -0.388 OA
ATOM     35  H5  UNL     1      32.519  13.361 -20.395  1.00  0.00     0.210 HD
ENDBRANCH   4  34
BRANCH   3  36
HETATM   36  N1  UNL     1      32.791   9.841 -20.822  1.00  0.00    -0.321 N 
HETATM   37  C5  UNL     1      32.174   8.697 -21.135  1.00  0.00     0.185 A 
HETATM   38  N2  UNL     1      31.565   8.216 -20.025  1.00  0.00    -0.347 N 
HETATM   39  C6  UNL     1      31.789   9.049 -18.998  1.00  0.00     0.117 A 
ATOM     40  H2  UNL     1      31.021   7.354 -19.978  1.00  0.00     0.167 HD
HETATM   41  C9  UNL     1      32.569  10.073 -19.524  1.00  0.00     0.129 A 
BRANCH  39  42
HETATM   42  C7  UNL     1      31.340   8.952 -17.617  1.00  0.00     0.275 C 
HETATM   43  O4  UNL     1      30.120   8.927 -17.328  1.00  0.00    -0.266 OA
HETATM   44  N3  UNL     1      32.272   8.885 -16.549  1.00  0.00    -0.298 N 
HETATM   45  C8  UNL     1      32.862   7.794 -16.215  1.00  0.00     0.203 C 
ATOM     46  H3  UNL     1      32.481   9.736 -16.027  1.00  0.00     0.171 HD
HETATM   47  N4  UNL     1      32.639   6.562 -16.880  1.00  0.00    -0.066 NA
HETATM   48  N5  UNL     1      33.780   7.819 -15.134  1.00  0.00    -0.066 NA
ENDBRANCH  39  42
ENDBRANCH   3  36
TORSDOF 14
ENDMDL
MODEL 2
REMARK VINA RESULT: -7.778900570      2.848      9.728
REMARK  14 active torsions:
REMARK  status: ('A' for Active; 'I' for Inactive)
REMARK    1  A    between atoms: O1_2  and  C2_3 
REMARK    2  A    between atoms: C2_3  and  C3_5 
REMARK    3  A    between atoms: C4_7  and  N1_8 
REMARK    4  A    between atoms: C6_12  and  C7_13 
REMARK       I    between atoms: C7_13  and  N3_15 
REMARK    5  A    between atoms: C10_21  and  O5_22 
REMARK    6  A    between atoms: C11_24  and  O6_25 
REMARK    7  A    between atoms: C12_27  and  O7_28 
REMARK    8  A    between atoms: C12_27  and  C13_30 
REMARK    9  A    between atoms: C13_30  and  O8_31 
REMARK   10  A    between atoms: C13_30  and  C14_33 
REMARK   11  A    between atoms: C14_33  and  N6_34 
REMARK   12  A    between atoms: C15_37  and  C16_38 
REMARK   13  A    between atoms: C16_38  and  N9_40 
REMARK   14  A    between atoms: N9_40  and  N10_42 
ROOT
HETATM    1  C3  UNL     1      34.338  11.471 -23.412  1.00  0.00     0.263 C 
HETATM    2  O3  UNL     1      34.338  12.223 -24.543  1.00  0.00    -0.345 OA
HETATM    3  C4  UNL     1      34.229  11.543 -25.730  1.00  0.00     0.260 C 
HETATM    4  C10 UNL     1      32.845  10.912 -25.745  1.00  0.00     0.199 C 
HETATM    5  C11 UNL     1      32.831   9.875 -24.652  1.00  0.00     0.191 C 
HETATM    6  C12 UNL     1      33.346  10.373 -23.336  1.00  0.00     0.148 C 
ENDROOT
BRANCH   6   7
HETATM    7  O7  UNL     1      32.223  10.865 -22.630  1.00  0.00    -0.381 OA
ATOM      8  H7  UNL     1      31.462  10.383 -22.933  1.00  0.00     0.211 HD
ENDBRANCH   6   7
BRANCH   6   9
HETATM    9  C13 UNL     1      33.922   9.235 -22.519  1.00  0.00     0.178 C 
BRANCH   9  10
HETATM   10  O8  UNL     1      35.099   8.821 -23.109  1.00  0.00    -0.391 OA
ATOM     11  H8  UNL     1      35.399   8.034 -22.668  1.00  0.00     0.210 HD
ENDBRANCH   9  10
BRANCH   9  12
HETATM   12  C14 UNL     1      32.933   8.101 -22.355  1.00  0.00     0.186 C 
BRANCH  12  13
HETATM   13  N6  UNL     1      32.808   7.771 -20.943  1.00  0.00    -0.263 N 
HETATM   14  N7  UNL     1      31.911   8.234 -20.089  1.00  0.00    -0.278 N 
HETATM   15  C15 UNL     1      32.120   7.695 -18.876  1.00  0.00     0.165 A 
ATOM     16  H7  UNL     1      31.173   8.900 -20.317  1.00  0.00     0.189 HD
HETATM   17  N11 UNL     1      33.175   6.870 -18.961  1.00  0.00    -0.314 N 
HETATM   18  C17 UNL     1      33.583   6.929 -20.234  1.00  0.00     0.194 A 
ATOM     19  H11 UNL     1      33.582   6.314 -18.210  1.00  0.00     0.170 HD
HETATM   20  S1  UNL     1      34.873   6.063 -20.799  1.00  0.00    -0.039 SA
BRANCH  15  21
HETATM   21  C16 UNL     1      31.353   7.942 -17.658  1.00  0.00     0.176 C 
HETATM   22  N8  UNL     1      31.533   7.125 -16.512  1.00  0.00    -0.077 NA
BRANCH  21  23
HETATM   23  N9  UNL     1      30.490   8.898 -17.568  1.00  0.00    -0.291 N 
ATOM     24  H9  UNL     1      29.501   8.647 -17.570  1.00  0.00     0.187 HD
BRANCH  23  25
HETATM   25  N10 UNL     1      30.813  10.241 -17.468  1.00  0.00    -0.344 N 
ATOM     26 2H10 UNL     1      31.445  10.504 -16.712  1.00  0.00     0.176 HD
ATOM     27 1H10 UNL     1      30.464  10.967 -18.093  1.00  0.00     0.176 HD
ENDBRANCH  23  25
ENDBRANCH  21  23
ENDBRANCH  15  21
ENDBRANCH  12  13
ENDBRANCH   9  12
ENDBRANCH   6   9
BRANCH   1  28
HETATM   28  C2  UNL     1      34.201  12.415 -22.248  1.00  0.00     0.291 C 
HETATM   29  O2  UNL     1      33.533  13.474 -22.313  1.00  0.00    -0.262 OA
BRANCH  28  30
HETATM   30  O1  UNL     1      34.819  12.157 -21.019  1.00  0.00    -0.324 OA
HETATM   31  C1  UNL     1      34.037  11.951 -19.850  1.00  0.00     0.213 C 
ENDBRANCH  28  30
ENDBRANCH   1  28
BRANCH   5  32
HETATM   32  O6  UNL     1      33.537   8.770 -25.123  1.00  0.00    -0.390 OA
ATOM     33  H6  UNL     1      32.898   8.137 -25.429  1.00  0.00     0.210 HD
ENDBRANCH   5  32
BRANCH   4  34
HETATM   34  O5  UNL     1      31.939  11.895 -25.416  1.00  0.00    -0.388 OA
ATOM     35  H5  UNL     1      31.080  11.597 -25.693  1.00  0.00     0.210 HD
ENDBRANCH   4  34
BRANCH   3  36
HETATM   36  N1  UNL     1      34.337  12.489 -26.809  1.00  0.00    -0.321 N 
HETATM   37  C5  UNL     1      34.199  12.249 -28.116  1.00  0.00     0.185 A 
HETATM   38  N2  UNL     1      34.377  13.410 -28.791  1.00  0.00    -0.347 N 
HETATM   39  C6  UNL     1      34.630  14.398 -27.919  1.00  0.00     0.117 A 
ATOM     40  H2  UNL     1      34.326  13.517 -29.804  1.00  0.00     0.167 HD
HETATM   41  C9  UNL     1      34.600  13.793 -26.667  1.00  0.00     0.129 A 
BRANCH  39  42
HETATM   42  C7  UNL     1      34.886  15.808 -28.171  1.00  0.00     0.275 C 
HETATM   43  O4  UNL     1      34.781  16.294 -29.323  1.00  0.00    -0.266 OA
HETATM   44  N3  UNL     1      35.265  16.681 -27.119  1.00  0.00    -0.298 N 
HETATM   45  C8  UNL     1      34.413  17.195 -26.307  1.00  0.00     0.203 C 
ATOM     46  H3  UNL     1      36.252  16.909 -27.003  1.00  0.00     0.171 HD
HETATM   47  N4  UNL     1      33.020  16.938 -26.386  1.00  0.00    -0.066 NA
HETATM   48  N5  UNL     1      34.881  18.058 -25.284  1.00  0.00    -0.066 NA
ENDBRANCH  39  42
ENDBRANCH   3  36
TORSDOF 14
ENDMDL
MODEL 3
REMARK VINA RESULT: -7.747121549      2.572      3.582
REMARK  14 active torsions:
REMARK  status: ('A' for Active; 'I' for Inactive)
REMARK    1  A    between atoms: O1_2  and  C2_3 
REMARK    2  A    between atoms: C2_3  and  C3_5 
REMARK    3  A    between atoms: C4_7  and  N1_8 
REMARK    4  A    between atoms: C6_12  and  C7_13 
REMARK       I    between atoms: C7_13  and  N3_15 
REMARK    5  A    between atoms: C10_21  and  O5_22 
REMARK    6  A    between atoms: C11_24  and  O6_25 
REMARK    7  A    between atoms: C12_27  and  O7_28 
REMARK    8  A    between atoms: C12_27  and  C13_30 
REMARK    9  A    between atoms: C13_30  and  O8_31 
REMARK   10  A    between atoms: C13_30  and  C14_33 
REMARK   11  A    between atoms: C14_33  and  N6_34 
REMARK   12  A    between atoms: C15_37  and  C16_38 
REMARK   13  A    between atoms: C16_38  and  N9_40 
REMARK   14  A    between atoms: N9_40  and  N10_42 
ROOT
HETATM    1  C3  UNL     1      33.223  12.157 -23.628  1.00  0.00     0.263 C 
HETATM    2  O3  UNL     1      32.818  11.939 -22.349  1.00  0.00    -0.345 OA
HETATM    3  C4  UNL     1      32.704  10.628 -21.960  1.00  0.00     0.260 C 
HETATM    4  C10 UNL     1      34.109  10.046 -21.972  1.00  0.00     0.199 C 
HETATM    5  C11 UNL     1      34.558  10.030 -23.411  1.00  0.00     0.191 C 
HETATM    6  C12 UNL     1      34.344  11.328 -24.129  1.00  0.00     0.148 C 
ENDROOT
BRANCH   6   7
HETATM    7  O7  UNL     1      35.533  12.076 -23.959  1.00  0.00    -0.381 OA
ATOM      8  H7  UNL     1      35.976  12.100 -24.800  1.00  0.00     0.211 HD
ENDBRANCH   6   7
BRANCH   6   9
HETATM    9  C13 UNL     1      34.170  11.099 -25.615  1.00  0.00     0.178 C 
BRANCH   9  10
HETATM   10  O8  UNL     1      35.159  11.791 -26.286  1.00  0.00    -0.391 OA
ATOM     11  H8  UNL     1      35.859  11.185 -26.502  1.00  0.00     0.210 HD
ENDBRANCH   9  10
BRANCH   9  12
HETATM   12  C14 UNL     1      32.784  11.480 -26.086  1.00  0.00     0.186 C 
BRANCH  12  13
HETATM   13  N6  UNL     1      32.848  11.908 -27.477  1.00  0.00    -0.263 N 
HETATM   14  N7  UNL     1      33.323  13.051 -27.941  1.00  0.00    -0.278 N 
HETATM   15  C15 UNL     1      33.210  13.079 -29.280  1.00  0.00     0.165 A 
ATOM     16  H7  UNL     1      33.717  13.799 -27.370  1.00  0.00     0.189 HD
HETATM   17  N11 UNL     1      32.647  11.926 -29.675  1.00  0.00    -0.314 N 
HETATM   18  C17 UNL     1      32.433  11.221 -28.557  1.00  0.00     0.194 A 
ATOM     19  H11 UNL     1      32.428  11.644 -30.630  1.00  0.00     0.170 HD
HETATM   20  S1  UNL     1      31.747   9.717 -28.568  1.00  0.00    -0.039 SA
BRANCH  15  21
HETATM   21  C16 UNL     1      33.615  14.156 -30.176  1.00  0.00     0.176 C 
HETATM   22  N8  UNL     1      34.127  13.870 -31.468  1.00  0.00    -0.077 NA
BRANCH  21  23
HETATM   23  N9  UNL     1      33.530  15.401 -29.843  1.00  0.00    -0.291 N 
ATOM     24  H9  UNL     1      32.637  15.736 -29.480  1.00  0.00     0.187 HD
BRANCH  23  25
HETATM   25  N10 UNL     1      34.567  16.314 -29.945  1.00  0.00    -0.344 N 
ATOM     26 2H10 UNL     1      35.418  16.099 -29.426  1.00  0.00     0.176 HD
ATOM     27 1H10 UNL     1      34.531  17.170 -30.498  1.00  0.00     0.176 HD
ENDBRANCH  23  25
ENDBRANCH  21  23
ENDBRANCH  15  21
ENDBRANCH  12  13
ENDBRANCH   9  12
ENDBRANCH   6   9
BRANCH   1  28
HETATM   28  C2  UNL     1      33.529  13.626 -23.754  1.00  0.00     0.291 C 
HETATM   29  O2  UNL     1      33.746  14.358 -22.760  1.00  0.00    -0.262 OA
BRANCH  28  30
HETATM   30  O1  UNL     1      33.587  14.258 -25.002  1.00  0.00    -0.324 OA
HETATM   31  C1  UNL     1      34.633  15.174 -25.296  1.00  0.00     0.213 C 
ENDBRANCH  28  30
ENDBRANCH   1  28
BRANCH   5  32
HETATM   32  O6  UNL     1      33.914   8.960 -24.031  1.00  0.00    -0.390 OA
ATOM     33  H6  UNL     1      34.584   8.334 -24.279  1.00  0.00     0.210 HD
ENDBRANCH   5  32
BRANCH   4  34
HETATM   34  O5  UNL     1      34.923  10.914 -21.279  1.00  0.00    -0.388 OA
ATOM     35  H5  UNL     1      34.800  10.742 -20.353  1.00  0.00     0.210 HD
ENDBRANCH   4  34
BRANCH   3  36
HETATM   36  N1  UNL     1      32.183  10.596 -20.619  1.00  0.00    -0.321 N 
HETATM   37  C5  UNL     1      31.666  11.614 -19.924  1.00  0.00     0.185 A 
HETATM   38  N2  UNL     1      31.293  11.161 -18.703  1.00  0.00    -0.347 N 
HETATM   39  C6  UNL     1      31.570   9.851 -18.611  1.00  0.00     0.117 A 
ATOM     40  H2  UNL     1      30.868  11.727 -17.969  1.00  0.00     0.167 HD
HETATM   41  C9  UNL     1      32.133   9.512 -19.837  1.00  0.00     0.129 A 
BRANCH  39  42
HETATM   42  C7  UNL     1      31.351   8.938 -17.500  1.00  0.00     0.275 C 
HETATM   43  O4  UNL     1      30.479   8.038 -17.558  1.00  0.00    -0.266 OA
HETATM   44  N3  UNL     1      32.117   9.037 -16.310  1.00  0.00    -0.298 N 
HETATM   45  C8  UNL     1      33.300   8.547 -16.207  1.00  0.00     0.203 C 
ATOM     46  H3  UNL     1      31.713   9.516 -15.506  1.00  0.00     0.171 HD
HETATM   47  N4  UNL     1      33.947   7.865 -17.269  1.00  0.00    -0.066 NA
HETATM   48  N5  UNL     1      33.994   8.694 -14.979  1.00  0.00    -0.066 NA
ENDBRANCH  39  42
ENDBRANCH   3  36
TORSDOF 14
ENDMDL
MODEL 4
REMARK VINA RESULT: -7.656133949      3.039      9.378
REMARK  14 active torsions:
REMARK  status: ('A' for Active; 'I' for Inactive)
REMARK    1  A    between atoms: O1_2  and  C2_3 
REMARK    2  A    between atoms: C2_3  and  C3_5 
REMARK    3  A    between atoms: C4_7  and  N1_8 
REMARK    4  A    between atoms: C6_12  and  C7_13 
REMARK       I    between atoms: C7_13  and  N3_15 
REMARK    5  A    between atoms: C10_21  and  O5_22 
REMARK    6  A    between atoms: C11_24  and  O6_25 
REMARK    7  A    between atoms: C12_27  and  O7_28 
REMARK    8  A    between atoms: C12_27  and  C13_30 
REMARK    9  A    between atoms: C13_30  and  O8_31 
REMARK   10  A    between atoms: C13_30  and  C14_33 
REMARK   11  A    between atoms: C14_33  and  N6_34 
REMARK   12  A    between atoms: C15_37  and  C16_38 
REMARK   13  A    between atoms: C16_38  and  N9_40 
REMARK   14  A    between atoms: N9_40  and  N10_42 
ROOT
HETATM    1  C3  UNL     1      33.732  10.901 -24.752  1.00  0.00     0.263 C 
HETATM    2  O3  UNL     1      33.804  11.832 -25.739  1.00  0.00    -0.345 OA
HETATM    3  C4  UNL     1      34.228  11.388 -26.967  1.00  0.00     0.260 C 
HETATM    4  C10 UNL     1      33.157  10.436 -27.479  1.00  0.00     0.199 C 
HETATM    5  C11 UNL     1      33.169   9.240 -26.562  1.00  0.00     0.191 C 
HETATM    6  C12 UNL     1      33.139   9.591 -25.105  1.00  0.00     0.148 C 
ENDROOT
BRANCH   6   7
HETATM    7  O7  UNL     1      31.774   9.630 -24.734  1.00  0.00    -0.381 OA
ATOM      8  H7  UNL     1      31.528   8.754 -24.460  1.00  0.00     0.211 HD
ENDBRANCH   6   7
BRANCH   6   9
HETATM    9  C13 UNL     1      33.794   8.506 -24.277  1.00  0.00     0.178 C 
BRANCH   9  10
HETATM   10  O8  UNL     1      34.657   7.795 -25.086  1.00  0.00    -0.391 OA
ATOM     11  H8  UNL     1      34.188   7.527 -25.868  1.00  0.00     0.210 HD
ENDBRANCH   9  10
BRANCH   9  12
HETATM   12  C14 UNL     1      32.772   7.614 -23.606  1.00  0.00     0.186 C 
BRANCH  12  13
HETATM   13  N6  UNL     1      32.673   7.968 -22.197  1.00  0.00    -0.263 N 
HETATM   14  N7  UNL     1      31.840   8.835 -21.646  1.00  0.00    -0.278 N 
HETATM   15  C15 UNL     1      32.054   8.889 -20.321  1.00  0.00     0.165 A 
ATOM     16  H7  UNL     1      31.141   9.380 -22.151  1.00  0.00     0.189 HD
HETATM   17  N11 UNL     1      33.047   8.037 -20.023  1.00  0.00    -0.314 N 
HETATM   18  C17 UNL     1      33.414   7.482 -21.184  1.00  0.00     0.194 A 
ATOM     19  H11 UNL     1      33.441   7.851 -19.101  1.00  0.00     0.170 HD
HETATM   20  S1  UNL     1      34.621   6.358 -21.294  1.00  0.00    -0.039 SA
BRANCH  15  21
HETATM   21  C16 UNL     1      31.348   9.717 -19.348  1.00  0.00     0.176 C 
HETATM   22  N8  UNL     1      31.102   9.240 -18.034  1.00  0.00    -0.077 NA
BRANCH  21  23
HETATM   23  N9  UNL     1      30.922  10.903 -19.630  1.00  0.00    -0.291 N 
ATOM     24  H9  UNL     1      29.914  11.039 -19.706  1.00  0.00     0.187 HD
BRANCH  23  25
HETATM   25  N10 UNL     1      31.738  12.002 -19.839  1.00  0.00    -0.344 N 
ATOM     26 2H10 UNL     1      32.682  11.813 -20.176  1.00  0.00     0.176 HD
ATOM     27 1H10 UNL     1      31.458  12.969 -19.678  1.00  0.00     0.176 HD
ENDBRANCH  23  25
ENDBRANCH  21  23
ENDBRANCH  15  21
ENDBRANCH  12  13
ENDBRANCH   9  12
ENDBRANCH   6   9
BRANCH   1  28
HETATM   28  C2  UNL     1      33.010  11.536 -23.593  1.00  0.00     0.291 C 
HETATM   29  O2  UNL     1      32.055  12.332 -23.748  1.00  0.00    -0.262 OA
BRANCH  28  30
HETATM   30  O1  UNL     1      33.372  11.266 -22.268  1.00  0.00    -0.324 OA
HETATM   31  C1  UNL     1      34.742  11.170 -21.901  1.00  0.00     0.213 C 
ENDBRANCH  28  30
ENDBRANCH   1  28
BRANCH   5  32
HETATM   32  O6  UNL     1      34.276   8.468 -26.906  1.00  0.00    -0.390 OA
ATOM     33  H6  UNL     1      34.040   7.559 -26.767  1.00  0.00     0.210 HD
ENDBRANCH   5  32
BRANCH   4  34
HETATM   34  O5  UNL     1      31.942  11.069 -27.343  1.00  0.00    -0.388 OA
ATOM     35  H5  UNL     1      31.620  10.884 -26.467  1.00  0.00     0.210 HD
ENDBRANCH   4  34
BRANCH   3  36
HETATM   36  N1  UNL     1      34.325  12.520 -27.851  1.00  0.00    -0.321 N 
HETATM   37  C5  UNL     1      34.176  12.528 -29.179  1.00  0.00     0.185 A 
HETATM   38  N2  UNL     1      34.347  13.795 -29.626  1.00  0.00    -0.347 N 
HETATM   39  C6  UNL     1      34.607  14.603 -28.587  1.00  0.00     0.117 A 
ATOM     40  H2  UNL     1      34.287  14.089 -30.601  1.00  0.00     0.167 HD
HETATM   41  C9  UNL     1      34.588  13.775 -27.470  1.00  0.00     0.129 A 
BRANCH  39  42
HETATM   42  C7  UNL     1      34.859  16.036 -28.573  1.00  0.00     0.275 C 
HETATM   43  O4  UNL     1      34.729  16.730 -29.610  1.00  0.00    -0.266 OA
HETATM   44  N3  UNL     1      35.264  16.695 -27.384  1.00  0.00    -0.298 N 
HETATM   45  C8  UNL     1      34.432  17.044 -26.470  1.00  0.00     0.203 C 
ATOM     46  H3  UNL     1      36.254  16.900 -27.251  1.00  0.00     0.171 HD
HETATM   47  N4  UNL     1      33.037  16.803 -26.564  1.00  0.00    -0.066 NA
HETATM   48  N5  UNL     1      34.925  17.699 -25.313  1.00  0.00    -0.066 NA
ENDBRANCH  39  42
ENDBRANCH   3  36
TORSDOF 14
ENDMDL
MODEL 5
REMARK VINA RESULT: -7.648178292      2.369      3.735
REMARK  14 active torsions:
REMARK  status: ('A' for Active; 'I' for Inactive)
REMARK    1  A    between atoms: O1_2  and  C2_3 
REMARK    2  A    between atoms: C2_3  and  C3_5 
REMARK    3  A    between atoms: C4_7  and  N1_8 
REMARK    4  A    between atoms: C6_12  and  C7_13 
REMARK       I    between atoms: C7_13  and  N3_15 
REMARK    5  A    between atoms: C10_21  and  O5_22 
REMARK    6  A    between atoms: C11_24  and  O6_25 
REMARK    7  A    between atoms: C12_27  and  O7_28 
REMARK    8  A    between atoms: C12_27  and  C13_30 
REMARK    9  A    between atoms: C13_30  and  O8_31 
REMARK   10  A    between atoms: C13_30  and  C14_33 
REMARK   11  A    between atoms: C14_33  and  N6_34 
REMARK   12  A    between atoms: C15_37  and  C16_38 
REMARK   13  A    between atoms: C16_38  and  N9_40 
REMARK   14  A    between atoms: N9_40  and  N10_42 
ROOT
HETATM    1  C3  UNL     1      32.921  12.612 -24.072  1.00  0.00     0.263 C 
HETATM    2  O3  UNL     1      33.000  12.380 -22.736  1.00  0.00    -0.345 OA
HETATM    3  C4  UNL     1      32.443  11.209 -22.286  1.00  0.00     0.260 C 
HETATM    4  C10 UNL     1      33.273  10.077 -22.874  1.00  0.00     0.199 C 
HETATM    5  C11 UNL     1      33.054  10.112 -24.365  1.00  0.00     0.191 C 
HETATM    6  C12 UNL     1      33.217  11.473 -24.971  1.00  0.00     0.148 C 
ENDROOT
BRANCH   6   7
HETATM    7  O7  UNL     1      34.576  11.578 -25.354  1.00  0.00    -0.381 OA
ATOM      8  H7  UNL     1      34.678  11.103 -26.171  1.00  0.00     0.211 HD
ENDBRANCH   6   7
BRANCH   6   9
HETATM    9  C13 UNL     1      32.389  11.603 -26.232  1.00  0.00     0.178 C 
BRANCH   9  10
HETATM   10  O8  UNL     1      31.237  10.857 -26.081  1.00  0.00    -0.391 OA
ATOM     11  H8  UNL     1      30.934  10.589 -26.941  1.00  0.00     0.210 HD
ENDBRANCH   9  10
BRANCH   9  12
HETATM   12  C14 UNL     1      33.172  11.205 -27.465  1.00  0.00     0.186 C 
BRANCH  12  13
HETATM   13  N6  UNL     1      33.484  12.395 -28.243  1.00  0.00    -0.263 N 
HETATM   14  N7  UNL     1      34.046  13.510 -27.809  1.00  0.00    -0.278 N 
HETATM   15  C15 UNL     1      34.170  14.381 -28.826  1.00  0.00     0.165 A 
ATOM     16  H7  UNL     1      34.342  13.684 -26.848  1.00  0.00     0.189 HD
HETATM   17  N11 UNL     1      33.672  13.805 -29.931  1.00  0.00    -0.314 N 
HETATM   18  C17 UNL     1      33.257  12.590 -29.555  1.00  0.00     0.194 A 
ATOM     19  H11 UNL     1      33.621  14.210 -30.865  1.00  0.00     0.170 HD
HETATM   20  S1  UNL     1      32.566  11.518 -30.607  1.00  0.00    -0.039 SA
BRANCH  15  21
HETATM   21  C16 UNL     1      34.739  15.723 -28.771  1.00  0.00     0.176 C 
HETATM   22  N8  UNL     1      34.968  16.462 -29.961  1.00  0.00    -0.077 NA
BRANCH  21  23
HETATM   23  N9  UNL     1      35.057  16.295 -27.657  1.00  0.00    -0.291 N 
ATOM     24  H9  UNL     1      35.991  16.124 -27.286  1.00  0.00     0.187 HD
BRANCH  23  25
HETATM   25  N10 UNL     1      34.216  17.123 -26.932  1.00  0.00    -0.344 N 
ATOM     26 2H10 UNL     1      33.375  17.451 -27.407  1.00  0.00     0.176 HD
ATOM     27 1H10 UNL     1      34.384  17.418 -25.971  1.00  0.00     0.176 HD
ENDBRANCH  23  25
ENDBRANCH  21  23
ENDBRANCH  15  21
ENDBRANCH  12  13
ENDBRANCH   9  12
ENDBRANCH   6   9
BRANCH   1  28
HETATM   28  C2  UNL     1      33.806  13.792 -24.372  1.00  0.00     0.291 C 
HETATM   29  O2  UNL     1      33.532  14.634 -25.259  1.00  0.00    -0.262 OA
BRANCH  28  30
HETATM   30  O1  UNL     1      34.996  14.014 -23.667  1.00  0.00    -0.324 OA
HETATM   31  C1  UNL     1      35.868  15.072 -24.042  1.00  0.00     0.213 C 
ENDBRANCH  28  30
ENDBRANCH   1  28
BRANCH   5  32
HETATM   32  O6  UNL     1      31.798   9.561 -24.610  1.00  0.00    -0.390 OA
ATOM     33  H6  UNL     1      31.463   9.966 -25.401  1.00  0.00     0.210 HD
ENDBRANCH   5  32
BRANCH   4  34
HETATM   34  O5  UNL     1      34.597  10.364 -22.628  1.00  0.00    -0.388 OA
ATOM     35  H5  UNL     1      35.120   9.727 -23.100  1.00  0.00     0.210 HD
ENDBRANCH   4  34
BRANCH   3  36
HETATM   36  N1  UNL     1      32.543  11.180 -20.850  1.00  0.00    -0.321 N 
HETATM   37  C5  UNL     1      33.356  11.908 -20.079  1.00  0.00     0.185 A 
HETATM   38  N2  UNL     1      33.135  11.578 -18.784  1.00  0.00    -0.347 N 
HETATM   39  C6  UNL     1      32.180  10.637 -18.721  1.00  0.00     0.117 A 
ATOM     40  H2  UNL     1      33.619  11.981 -17.981  1.00  0.00     0.167 HD
HETATM   41  C9  UNL     1      31.817  10.400 -20.042  1.00  0.00     0.129 A 
BRANCH  39  42
HETATM   42  C7  UNL     1      31.611   9.977 -17.556  1.00  0.00     0.275 C 
HETATM   43  O4  UNL     1      30.451   9.499 -17.580  1.00  0.00    -0.266 OA
HETATM   44  N3  UNL     1      32.350   9.855 -16.351  1.00  0.00    -0.298 N 
HETATM   45  C8  UNL     1      33.237   8.942 -16.175  1.00  0.00     0.203 C 
ATOM     46  H3  UNL     1      32.170  10.516 -15.597  1.00  0.00     0.171 HD
HETATM   47  N4  UNL     1      33.558   7.978 -17.164  1.00  0.00    -0.066 NA
HETATM   48  N5  UNL     1      33.928   8.894 -14.938  1.00  0.00    -0.066 NA
ENDBRANCH  39  42
ENDBRANCH   3  36
TORSDOF 14
ENDMDL
