MODEL 1
REMARK VINA RESULT: -7.044984623      0.000      0.000
REMARK  13 active torsions:
REMARK  status: ('A' for Active; 'I' for Inactive)
REMARK    1  A    between atoms: N1_1  and  C1_4 
REMARK    2  A    between atoms: N4_13  and  C5_14 
REMARK    3  A    between atoms: C6_15  and  O2_16 
REMARK    4  A    between atoms: C8_19  and  O3_20 
REMARK    5  A    between atoms: C8_19  and  C9_22 
REMARK    6  A    between atoms: C9_22  and  O4_23 
REMARK    7  A    between atoms: C9_22  and  C10_25 
REMARK    8  A    between atoms: C10_25  and  O5_26 
REMARK    9  A    between atoms: O5_26  and  N5_27 
REMARK   10  A    between atoms: C12_30  and  C13_31 
REMARK   11  A    between atoms: C14_34  and  O9_35 
REMARK   12  A    between atoms: C15_37  and  O10_38 
REMARK   13  A    between atoms: C16_40  and  O11_41 
ROOT
HETATM    1  C5  UNL     1       6.197   8.487  23.069  1.00  0.00     0.152 C 
HETATM    2  C6  UNL     1       6.290   8.256  21.550  1.00  0.00     0.147 C 
HETATM    3  C7  UNL     1       7.505   7.441  21.346  1.00  0.00     0.077 C 
HETATM    4  C8  UNL     1       7.207   6.062  21.865  1.00  0.00     0.116 C 
HETATM    5  C15 UNL     1       6.649   6.008  23.262  1.00  0.00     0.186 C 
HETATM    6  C16 UNL     1       6.312   7.282  23.902  1.00  0.00     0.175 C 
ENDROOT
BRANCH   4   7
HETATM    7  O3  UNL     1       6.162   5.505  21.069  1.00  0.00    -0.384 OA
ATOM      8  H3  UNL     1       5.404   5.375  21.626  1.00  0.00     0.210 HD
ENDBRANCH   4   7
BRANCH   4   9
HETATM    9  C9  UNL     1       8.379   5.259  21.596  1.00  0.00     0.180 C 
BRANCH   9  10
HETATM   10  O4  UNL     1       8.897   4.649  22.828  1.00  0.00    -0.390 OA
ATOM     11  H4  UNL     1       9.241   3.780  22.661  1.00  0.00     0.210 HD
ENDBRANCH   9  10
BRANCH   9  12
HETATM   12  C10 UNL     1       8.163   3.918  20.825  1.00  0.00     0.229 C 
BRANCH  12  13
HETATM   13  O5  UNL     1       7.883   3.082  21.912  1.00  0.00    -0.296 OA
BRANCH  13  14
HETATM   14  N5  UNL     1       6.721   2.743  22.209  1.00  0.00    -0.141 NA
HETATM   15  C11 UNL     1       6.964   1.978  23.511  1.00  0.00     0.292 C 
HETATM   16  O6  UNL     1       5.681   1.744  23.841  1.00  0.00    -0.355 OA
HETATM   17  C12 UNL     1       5.052   1.254  22.662  1.00  0.00     0.268 C 
HETATM   18  C14 UNL     1       5.872   1.907  21.533  1.00  0.00     0.260 C 
BRANCH  17  19
HETATM   19  C13 UNL     1       3.647   1.722  22.698  1.00  0.00     0.207 C 
HETATM   20  O7  UNL     1       2.706   0.942  22.624  1.00  0.00    -0.646 OA
HETATM   21  O8  UNL     1       3.411   3.114  22.810  1.00  0.00    -0.646 OA
ENDBRANCH  17  19
BRANCH  18  22
HETATM   22  O9  UNL     1       6.555   0.897  20.849  1.00  0.00    -0.376 OA
ATOM     23  H9  UNL     1       7.344   1.217  20.429  1.00  0.00     0.211 HD
ENDBRANCH  18  22
ENDBRANCH  13  14
ENDBRANCH  12  13
ENDBRANCH   9  12
ENDBRANCH   4   9
BRANCH   5  24
HETATM   24  O10 UNL     1       5.471   5.206  23.254  1.00  0.00    -0.390 OA
ATOM     25  H10 UNL     1       4.962   5.419  22.480  1.00  0.00     0.210 HD
ENDBRANCH   5  24
BRANCH   2  26
HETATM   26  O2  UNL     1       5.124   7.625  21.129  1.00  0.00    -0.393 OA
ATOM     27  H2  UNL     1       5.173   7.500  20.188  1.00  0.00     0.210 HD
ENDBRANCH   2  26
BRANCH   6  28
HETATM   28  O11 UNL     1       7.219   7.543  24.969  1.00  0.00    -0.391 OA
ATOM     29  H11 UNL     1       7.928   6.913  24.931  1.00  0.00     0.210 HD
ENDBRANCH   6  28
BRANCH   1  30
HETATM   30  N4  UNL     1       4.950   9.234  23.193  1.00  0.00    -0.317 N 
HETATM   31  C4  UNL     1       4.820  10.559  23.259  1.00  0.00     0.185 A 
HETATM   32  N3  UNL     1       3.494  10.858  23.419  1.00  0.00    -0.345 N 
HETATM   33  C3  UNL     1       2.807   9.713  23.450  1.00  0.00     0.147 A 
ATOM     34  H3  UNL     1       3.098  11.795  23.501  1.00  0.00     0.167 HD
HETATM   35  C2  UNL     1       1.490   9.346  23.562  1.00  0.00     0.290 A 
HETATM   36  C17 UNL     1       3.740   8.694  23.311  1.00  0.00     0.157 A 
HETATM   37  N2  UNL     1       1.163   8.055  23.529  1.00  0.00    -0.154 N 
HETATM   38  O1  UNL     1       0.634  10.249  23.702  1.00  0.00    -0.265 OA
HETATM   39  C1  UNL     1       2.065   7.058  23.395  1.00  0.00     0.680 A 
ATOM     40  H2  UNL     1       0.177   7.805  23.609  1.00  0.00     0.187 HD
HETATM   41  N6  UNL     1       3.350   7.439  23.295  1.00  0.00    -0.174 N 
ATOM     42  H6  UNL     1       4.062   6.714  23.201  1.00  0.00     0.186 HD
BRANCH  39  43
HETATM   43  N1  UNL     1       1.759   5.848  23.290  1.00  0.00    -0.234 N 
ATOM     44  H12 UNL     1       0.827   5.531  23.557  1.00  0.00     0.174 HD
ATOM     45  H11 UNL     1       2.412   5.118  23.004  1.00  0.00     0.174 HD
ENDBRANCH  39  43
ENDBRANCH   1  30
TORSDOF 13
ENDMDL
MODEL 2
REMARK VINA RESULT: -6.836487121      3.144      4.873
REMARK  13 active torsions:
REMARK  status: ('A' for Active; 'I' for Inactive)
REMARK    1  A    between atoms: N1_1  and  C1_4 
REMARK    2  A    between atoms: N4_13  and  C5_14 
REMARK    3  A    between atoms: C6_15  and  O2_16 
REMARK    4  A    between atoms: C8_19  and  O3_20 
REMARK    5  A    between atoms: C8_19  and  C9_22 
REMARK    6  A    between atoms: C9_22  and  O4_23 
REMARK    7  A    between atoms: C9_22  and  C10_25 
REMARK    8  A    between atoms: C10_25  and  O5_26 
REMARK    9  A    between atoms: O5_26  and  N5_27 
REMARK   10  A    between atoms: C12_30  and  C13_31 
REMARK   11  A    between atoms: C14_34  and  O9_35 
REMARK   12  A    between atoms: C15_37  and  O10_38 
REMARK   13  A    between atoms: C16_40  and  O11_41 
ROOT
HETATM    1  C5  UNL     1       6.882   4.876  24.016  1.00  0.00     0.152 C 
HETATM    2  C6  UNL     1       8.102   4.045  23.581  1.00  0.00     0.147 C 
HETATM    3  C7  UNL     1       7.568   2.991  22.695  1.00  0.00     0.077 C 
HETATM    4  C8  UNL     1       7.156   3.657  21.411  1.00  0.00     0.116 C 
HETATM    5  C15 UNL     1       6.256   4.851  21.568  1.00  0.00     0.186 C 
HETATM    6  C16 UNL     1       6.004   5.332  22.929  1.00  0.00     0.175 C 
ENDROOT
BRANCH   4   7
HETATM    7  O3  UNL     1       8.326   4.200  20.799  1.00  0.00    -0.384 OA
ATOM      8  H3  UNL     1       8.328   3.938  19.886  1.00  0.00     0.210 HD
ENDBRANCH   4   7
BRANCH   4   9
HETATM    9  C9  UNL     1       6.702   2.605  20.530  1.00  0.00     0.180 C 
BRANCH   9  10
HETATM   10  O4  UNL     1       6.540   1.339  21.255  1.00  0.00    -0.390 OA
ATOM     11  H4  UNL     1       5.784   0.857  20.940  1.00  0.00     0.210 HD
ENDBRANCH   9  10
BRANCH   9  12
HETATM   12  C10 UNL     1       5.230   2.692  20.015  1.00  0.00     0.229 C 
BRANCH  12  13
HETATM   13  O5  UNL     1       4.567   2.270  21.173  1.00  0.00    -0.296 OA
BRANCH  13  14
HETATM   14  N5  UNL     1       3.367   1.934  21.167  1.00  0.00    -0.141 NA
HETATM   15  C11 UNL     1       2.846   2.732  19.971  1.00  0.00     0.292 C 
HETATM   16  O6  UNL     1       1.593   2.244  19.942  1.00  0.00    -0.355 OA
HETATM   17  C12 UNL     1       1.117   2.298  21.282  1.00  0.00     0.268 C 
HETATM   18  C14 UNL     1       2.406   2.169  22.115  1.00  0.00     0.260 C 
BRANCH  17  19
HETATM   19  C13 UNL     1       0.200   1.147  21.459  1.00  0.00     0.207 C 
HETATM   20  O7  UNL     1      -0.911   1.122  20.945  1.00  0.00    -0.646 OA
HETATM   21  O8  UNL     1       0.638   0.064  22.261  1.00  0.00    -0.646 OA
ENDBRANCH  17  19
BRANCH  18  22
HETATM   22  O9  UNL     1       2.611   3.377  22.790  1.00  0.00    -0.376 OA
ATOM     23  H9  UNL     1       1.877   3.609  23.344  1.00  0.00     0.211 HD
ENDBRANCH  18  22
ENDBRANCH  13  14
ENDBRANCH  12  13
ENDBRANCH   9  12
ENDBRANCH   4   9
BRANCH   5  24
HETATM   24  O10 UNL     1       6.802   5.938  20.824  1.00  0.00    -0.390 OA
ATOM     25  H10 UNL     1       6.092   6.505  20.545  1.00  0.00     0.210 HD
ENDBRANCH   5  24
BRANCH   2  26
HETATM   26  O2  UNL     1       9.008   4.891  22.952  1.00  0.00    -0.393 OA
ATOM     27  H2  UNL     1       9.747   4.373  22.655  1.00  0.00     0.210 HD
ENDBRANCH   2  26
BRANCH   6  28
HETATM   28  O11 UNL     1       4.650   5.076  23.291  1.00  0.00    -0.391 OA
ATOM     29  H11 UNL     1       4.124   5.032  22.501  1.00  0.00     0.210 HD
ENDBRANCH   6  28
BRANCH   1  30
HETATM   30  N4  UNL     1       7.493   5.924  24.827  1.00  0.00    -0.317 N 
HETATM   31  C4  UNL     1       7.949   5.801  26.073  1.00  0.00     0.185 A 
HETATM   32  N3  UNL     1       8.401   7.024  26.493  1.00  0.00    -0.345 N 
HETATM   33  C3  UNL     1       8.222   7.900  25.500  1.00  0.00     0.147 A 
ATOM     34  H3  UNL     1       8.805   7.230  27.407  1.00  0.00     0.167 HD
HETATM   35  C2  UNL     1       8.477   9.231  25.291  1.00  0.00     0.290 A 
HETATM   36  C17 UNL     1       7.643   7.193  24.455  1.00  0.00     0.157 A 
HETATM   37  N2  UNL     1       8.171   9.782  24.117  1.00  0.00    -0.154 N 
HETATM   38  O1  UNL     1       8.987   9.890  26.226  1.00  0.00    -0.265 OA
HETATM   39  C1  UNL     1       7.606   9.101  23.096  1.00  0.00     0.680 A 
ATOM     40  H2  UNL     1       8.374  10.773  23.982  1.00  0.00     0.187 HD
HETATM   41  N6  UNL     1       7.357   7.800  23.325  1.00  0.00    -0.174 N 
ATOM     42  H6  UNL     1       6.923   7.254  22.581  1.00  0.00     0.186 HD
BRANCH  39  43
HETATM   43  N1  UNL     1       7.381   9.594  21.967  1.00  0.00    -0.234 N 
ATOM     44  H12 UNL     1       7.131  10.579  21.879  1.00  0.00     0.174 HD
ATOM     45  H11 UNL     1       7.373   9.054  21.101  1.00  0.00     0.174 HD
ENDBRANCH  39  43
ENDBRANCH   1  30
TORSDOF 13
ENDMDL
MODEL 3
REMARK VINA RESULT: -6.790854757      2.614      7.819
REMARK  13 active torsions:
REMARK  status: ('A' for Active; 'I' for Inactive)
REMARK    1  A    between atoms: N1_1  and  C1_4 
REMARK    2  A    between atoms: N4_13  and  C5_14 
REMARK    3  A    between atoms: C6_15  and  O2_16 
REMARK    4  A    between atoms: C8_19  and  O3_20 
REMARK    5  A    between atoms: C8_19  and  C9_22 
REMARK    6  A    between atoms: C9_22  and  O4_23 
REMARK    7  A    between atoms: C9_22  and  C10_25 
REMARK    8  A    between atoms: C10_25  and  O5_26 
REMARK    9  A    between atoms: O5_26  and  N5_27 
REMARK   10  A    between atoms: C12_30  and  C13_31 
REMARK   11  A    between atoms: C14_34  and  O9_35 
REMARK   12  A    between atoms: C15_37  and  O10_38 
REMARK   13  A    between atoms: C16_40  and  O11_41 
ROOT
HETATM    1  C5  UNL     1       5.836   2.347  23.117  1.00  0.00     0.152 C 
HETATM    2  C6  UNL     1       5.931   2.373  21.581  1.00  0.00     0.147 C 
HETATM    3  C7  UNL     1       6.367   3.741  21.234  1.00  0.00     0.077 C 
HETATM    4  C8  UNL     1       7.806   3.868  21.649  1.00  0.00     0.116 C 
HETATM    5  C15 UNL     1       8.104   3.462  23.066  1.00  0.00     0.186 C 
HETATM    6  C16 UNL     1       7.017   2.849  23.834  1.00  0.00     0.175 C 
ENDROOT
BRANCH   4   7
HETATM    7  O3  UNL     1       8.573   2.949  20.872  1.00  0.00    -0.384 OA
ATOM      8  H3  UNL     1       9.321   2.676  21.391  1.00  0.00     0.210 HD
ENDBRANCH   4   7
BRANCH   4   9
HETATM    9  C9  UNL     1       8.238   5.186  21.240  1.00  0.00     0.180 C 
BRANCH   9  10
HETATM   10  O4  UNL     1       7.215   5.848  20.422  1.00  0.00    -0.390 OA
ATOM     11  H4  UNL     1       6.947   5.297  19.696  1.00  0.00     0.210 HD
ENDBRANCH   9  10
BRANCH   9  12
HETATM   12  C10 UNL     1       8.307   6.288  22.345  1.00  0.00     0.229 C 
BRANCH  12  13
HETATM   13  O5  UNL     1       7.684   7.332  21.653  1.00  0.00    -0.296 OA
BRANCH  13  14
HETATM   14  N5  UNL     1       6.953   8.165  22.223  1.00  0.00    -0.141 NA
HETATM   15  C11 UNL     1       6.820   7.535  23.611  1.00  0.00     0.292 C 
HETATM   16  O6  UNL     1       6.130   8.524  24.207  1.00  0.00    -0.355 OA
HETATM   17  C12 UNL     1       5.075   8.865  23.315  1.00  0.00     0.268 C 
HETATM   18  C14 UNL     1       5.659   8.511  21.934  1.00  0.00     0.260 C 
BRANCH  17  19
HETATM   19  C13 UNL     1       4.824  10.316  23.479  1.00  0.00     0.207 C 
HETATM   20  O7  UNL     1       3.693  10.782  23.445  1.00  0.00    -0.646 OA
HETATM   21  O8  UNL     1       5.941  11.168  23.668  1.00  0.00    -0.646 OA
ENDBRANCH  17  19
BRANCH  18  22
HETATM   22  O9  UNL     1       4.928   7.439  21.413  1.00  0.00    -0.376 OA
ATOM     23  H9  UNL     1       3.992   7.558  21.514  1.00  0.00     0.211 HD
ENDBRANCH  18  22
ENDBRANCH  13  14
ENDBRANCH  12  13
ENDBRANCH   9  12
ENDBRANCH   4   9
BRANCH   5  24
HETATM   24  O10 UNL     1       9.195   2.545  23.061  1.00  0.00    -0.390 OA
ATOM     25  H10 UNL     1       9.358   2.259  23.953  1.00  0.00     0.210 HD
ENDBRANCH   5  24
BRANCH   2  26
HETATM   26  O2  UNL     1       6.827   1.389  21.178  1.00  0.00    -0.393 OA
ATOM     27  H2  UNL     1       6.554   1.063  20.329  1.00  0.00     0.210 HD
ENDBRANCH   2  26
BRANCH   6  28
HETATM   28  O11 UNL     1       6.589   3.737  24.863  1.00  0.00    -0.391 OA
ATOM     29  H11 UNL     1       7.323   4.279  25.126  1.00  0.00     0.210 HD
ENDBRANCH   6  28
BRANCH   1  30
HETATM   30  N4  UNL     1       5.469   0.960  23.381  1.00  0.00    -0.317 N 
HETATM   31  C4  UNL     1       4.236   0.455  23.409  1.00  0.00     0.185 A 
HETATM   32  N3  UNL     1       4.316  -0.871  23.739  1.00  0.00    -0.345 N 
HETATM   33  C3  UNL     1       5.604  -1.182  23.912  1.00  0.00     0.147 A 
ATOM     34  H3  UNL     1       3.528  -1.512  23.836  1.00  0.00     0.167 HD
HETATM   35  C2  UNL     1       6.321  -2.310  24.221  1.00  0.00     0.290 A 
HETATM   36  C17 UNL     1       6.321  -0.015  23.688  1.00  0.00     0.157 A 
HETATM   37  N2  UNL     1       7.650  -2.245  24.287  1.00  0.00    -0.154 N 
HETATM   38  O1  UNL     1       5.692  -3.370  24.440  1.00  0.00    -0.265 OA
HETATM   39  C1  UNL     1       8.356  -1.112  24.071  1.00  0.00     0.680 A 
ATOM     40  H2  UNL     1       8.164  -3.096  24.514  1.00  0.00     0.187 HD
HETATM   41  N6  UNL     1       7.633  -0.017  23.779  1.00  0.00    -0.174 N 
ATOM     42  H6  UNL     1       8.128   0.859  23.617  1.00  0.00     0.186 HD
BRANCH  39  43
HETATM   43  N1  UNL     1       9.607  -1.059  24.061  1.00  0.00    -0.234 N 
ATOM     44  H12 UNL     1      10.116  -1.159  23.183  1.00  0.00     0.174 HD
ATOM     45  H11 UNL     1      10.180  -0.978  24.901  1.00  0.00     0.174 HD
ENDBRANCH  39  43
ENDBRANCH   1  30
TORSDOF 13
ENDMDL
MODEL 4
REMARK VINA RESULT: -6.768440348      2.828      4.676
REMARK  13 active torsions:
REMARK  status: ('A' for Active; 'I' for Inactive)
REMARK    1  A    between atoms: N1_1  and  C1_4 
REMARK    2  A    between atoms: N4_13  and  C5_14 
REMARK    3  A    between atoms: C6_15  and  O2_16 
REMARK    4  A    between atoms: C8_19  and  O3_20 
REMARK    5  A    between atoms: C8_19  and  C9_22 
REMARK    6  A    between atoms: C9_22  and  O4_23 
REMARK    7  A    between atoms: C9_22  and  C10_25 
REMARK    8  A    between atoms: C10_25  and  O5_26 
REMARK    9  A    between atoms: O5_26  and  N5_27 
REMARK   10  A    between atoms: C12_30  and  C13_31 
REMARK   11  A    between atoms: C14_34  and  O9_35 
REMARK   12  A    between atoms: C15_37  and  O10_38 
REMARK   13  A    between atoms: C16_40  and  O11_41 
ROOT
HETATM    1  C5  UNL     1       6.647   5.032  23.748  1.00  0.00     0.152 C 
HETATM    2  C6  UNL     1       7.833   4.057  23.645  1.00  0.00     0.147 C 
HETATM    3  C7  UNL     1       7.372   2.962  22.766  1.00  0.00     0.077 C 
HETATM    4  C8  UNL     1       7.288   3.518  21.372  1.00  0.00     0.116 C 
HETATM    5  C15 UNL     1       6.506   4.795  21.235  1.00  0.00     0.186 C 
HETATM    6  C16 UNL     1       6.048   5.441  22.469  1.00  0.00     0.175 C 
ENDROOT
BRANCH   4   7
HETATM    7  O3  UNL     1       8.604   3.888  20.963  1.00  0.00    -0.384 OA
ATOM      8  H3  UNL     1       8.592   4.031  20.024  1.00  0.00     0.210 HD
ENDBRANCH   4   7
BRANCH   4   9
HETATM    9  C9  UNL     1       6.903   2.419  20.514  1.00  0.00     0.180 C 
BRANCH   9  10
HETATM   10  O4  UNL     1       6.480   1.255  21.302  1.00  0.00    -0.390 OA
ATOM     11  H4  UNL     1       6.612   0.448  20.819  1.00  0.00     0.210 HD
ENDBRANCH   9  10
BRANCH   9  12
HETATM   12  C10 UNL     1       5.571   2.572  19.713  1.00  0.00     0.229 C 
BRANCH  12  13
HETATM   13  O5  UNL     1       4.669   2.187  20.711  1.00  0.00    -0.296 OA
BRANCH  13  14
HETATM   14  N5  UNL     1       3.737   2.925  21.087  1.00  0.00    -0.141 NA
HETATM   15  C11 UNL     1       3.264   2.183  22.338  1.00  0.00     0.292 C 
HETATM   16  O6  UNL     1       2.351   3.076  22.759  1.00  0.00    -0.355 OA
HETATM   17  C12 UNL     1       1.573   3.416  21.617  1.00  0.00     0.268 C 
HETATM   18  C14 UNL     1       2.558   3.207  20.451  1.00  0.00     0.260 C 
BRANCH  17  19
HETATM   19  C13 UNL     1       1.164   4.831  21.779  1.00  0.00     0.207 C 
HETATM   20  O7  UNL     1       0.431   5.387  20.972  1.00  0.00    -0.646 OA
HETATM   21  O8  UNL     1       1.658   5.542  22.901  1.00  0.00    -0.646 OA
ENDBRANCH  17  19
BRANCH  18  22
HETATM   22  O9  UNL     1       2.100   2.133  19.680  1.00  0.00    -0.376 OA
ATOM     23  H9  UNL     1       1.179   2.210  19.467  1.00  0.00     0.211 HD
ENDBRANCH  18  22
ENDBRANCH  13  14
ENDBRANCH  12  13
ENDBRANCH   9  12
ENDBRANCH   4   9
BRANCH   5  24
HETATM   24  O10 UNL     1       7.297   5.744  20.524  1.00  0.00    -0.390 OA
ATOM     25  H10 UNL     1       6.911   6.605  20.631  1.00  0.00     0.210 HD
ENDBRANCH   5  24
BRANCH   2  26
HETATM   26  O2  UNL     1       8.928   4.748  23.139  1.00  0.00    -0.393 OA
ATOM     27  H2  UNL     1       9.463   4.141  22.641  1.00  0.00     0.210 HD
ENDBRANCH   2  26
BRANCH   6  28
HETATM   28  O11 UNL     1       4.631   5.343  22.571  1.00  0.00    -0.391 OA
ATOM     29  H11 UNL     1       4.397   5.195  23.480  1.00  0.00     0.210 HD
ENDBRANCH   6  28
BRANCH   1  30
HETATM   30  N4  UNL     1       7.197   6.105  24.568  1.00  0.00    -0.317 N 
HETATM   31  C4  UNL     1       7.555   6.023  25.849  1.00  0.00     0.185 A 
HETATM   32  N3  UNL     1       7.978   7.258  26.262  1.00  0.00    -0.345 N 
HETATM   33  C3  UNL     1       7.881   8.101  25.230  1.00  0.00     0.147 A 
ATOM     34  H3  UNL     1       8.310   7.494  27.198  1.00  0.00     0.167 HD
HETATM   35  C2  UNL     1       8.158   9.424  24.998  1.00  0.00     0.290 A 
HETATM   36  C17 UNL     1       7.382   7.360  24.167  1.00  0.00     0.157 A 
HETATM   37  N2  UNL     1       7.946   9.936  23.786  1.00  0.00    -0.154 N 
HETATM   38  O1  UNL     1       8.596  10.112  25.947  1.00  0.00    -0.265 OA
HETATM   39  C1  UNL     1       7.460   9.222  22.747  1.00  0.00     0.680 A 
ATOM     40  H2  UNL     1       8.163  10.921  23.635  1.00  0.00     0.187 HD
HETATM   41  N6  UNL     1       7.188   7.930  22.999  1.00  0.00    -0.174 N 
ATOM     42  H6  UNL     1       6.811   7.361  22.241  1.00  0.00     0.186 HD
BRANCH  39  43
HETATM   43  N1  UNL     1       7.326   9.678  21.588  1.00  0.00    -0.234 N 
ATOM     44  H12 UNL     1       8.047   9.510  20.886  1.00  0.00     0.174 HD
ATOM     45  H11 UNL     1       6.551  10.273  21.296  1.00  0.00     0.174 HD
ENDBRANCH  39  43
ENDBRANCH   1  30
TORSDOF 13
ENDMDL
MODEL 5
REMARK VINA RESULT: -6.583079375      1.016      1.659
REMARK  13 active torsions:
REMARK  status: ('A' for Active; 'I' for Inactive)
REMARK    1  A    between atoms: N1_1  and  C1_4 
REMARK    2  A    between atoms: N4_13  and  C5_14 
REMARK    3  A    between atoms: C6_15  and  O2_16 
REMARK    4  A    between atoms: C8_19  and  O3_20 
REMARK    5  A    between atoms: C8_19  and  C9_22 
REMARK    6  A    between atoms: C9_22  and  O4_23 
REMARK    7  A    between atoms: C9_22  and  C10_25 
REMARK    8  A    between atoms: C10_25  and  O5_26 
REMARK    9  A    between atoms: O5_26  and  N5_27 
REMARK   10  A    between atoms: C12_30  and  C13_31 
REMARK   11  A    between atoms: C14_34  and  O9_35 
REMARK   12  A    between atoms: C15_37  and  O10_38 
REMARK   13  A    between atoms: C16_40  and  O11_41 
ROOT
HETATM    1  C5  UNL     1       6.053   8.660  23.178  1.00  0.00     0.152 C 
HETATM    2  C6  UNL     1       6.213   8.452  21.662  1.00  0.00     0.147 C 
HETATM    3  C7  UNL     1       7.447   7.656  21.499  1.00  0.00     0.077 C 
HETATM    4  C8  UNL     1       7.145   6.266  21.985  1.00  0.00     0.116 C 
HETATM    5  C15 UNL     1       6.530   6.184  23.355  1.00  0.00     0.186 C 
HETATM    6  C16 UNL     1       6.148   7.444  23.999  1.00  0.00     0.175 C 
ENDROOT
BRANCH   4   7
HETATM    7  O3  UNL     1       6.143   5.707  21.136  1.00  0.00    -0.384 OA
ATOM      8  H3  UNL     1       6.516   5.602  20.269  1.00  0.00     0.210 HD
ENDBRANCH   4   7
BRANCH   4   9
HETATM    9  C9  UNL     1       8.338   5.481  21.755  1.00  0.00     0.180 C 
BRANCH   9  10
HETATM   10  O4  UNL     1       8.840   4.901  23.007  1.00  0.00    -0.390 OA
ATOM     11  H4  UNL     1       8.131   4.741  23.619  1.00  0.00     0.210 HD
ENDBRANCH   9  10
BRANCH   9  12
HETATM   12  C10 UNL     1       8.165   4.125  21.000  1.00  0.00     0.229 C 
BRANCH  12  13
HETATM   13  O5  UNL     1       8.479   3.250  22.046  1.00  0.00    -0.296 OA
BRANCH  13  14
HETATM   14  N5  UNL     1       7.866   2.179  22.224  1.00  0.00    -0.141 NA
HETATM   15  C11 UNL     1       6.841   2.238  21.089  1.00  0.00     0.292 C 
HETATM   16  O6  UNL     1       6.297   1.019  21.257  1.00  0.00    -0.355 OA
HETATM   17  C12 UNL     1       6.029   0.893  22.649  1.00  0.00     0.268 C 
HETATM   18  C14 UNL     1       7.098   1.798  23.292  1.00  0.00     0.260 C 
BRANCH  17  19
HETATM   19  C13 UNL     1       6.204  -0.538  22.993  1.00  0.00     0.207 C 
HETATM   20  O7  UNL     1       5.250  -1.259  23.254  1.00  0.00    -0.646 OA
HETATM   21  O8  UNL     1       7.521  -1.059  23.025  1.00  0.00    -0.646 OA
ENDBRANCH  17  19
BRANCH  18  22
HETATM   22  O9  UNL     1       6.448   2.881  23.891  1.00  0.00    -0.376 OA
ATOM     23  H9  UNL     1       5.545   2.960  23.611  1.00  0.00     0.211 HD
ENDBRANCH  18  22
ENDBRANCH  13  14
ENDBRANCH  12  13
ENDBRANCH   9  12
ENDBRANCH   4   9
BRANCH   5  24
HETATM   24  O10 UNL     1       5.363   5.368  23.286  1.00  0.00    -0.390 OA
ATOM     25  H10 UNL     1       4.597   5.930  23.266  1.00  0.00     0.210 HD
ENDBRANCH   5  24
BRANCH   2  26
HETATM   26  O2  UNL     1       5.075   7.813  21.182  1.00  0.00    -0.393 OA
ATOM     27  H2  UNL     1       4.683   8.360  20.511  1.00  0.00     0.210 HD
ENDBRANCH   2  26
BRANCH   6  28
HETATM   28  O11 UNL     1       7.005   7.701  25.107  1.00  0.00    -0.391 OA
ATOM     29  H11 UNL     1       7.226   6.876  25.523  1.00  0.00     0.210 HD
ENDBRANCH   6  28
BRANCH   1  30
HETATM   30  N4  UNL     1       4.792   9.389  23.260  1.00  0.00    -0.317 N 
HETATM   31  C4  UNL     1       4.640  10.712  23.301  1.00  0.00     0.185 A 
HETATM   32  N3  UNL     1       3.306  10.993  23.424  1.00  0.00    -0.345 N 
HETATM   33  C3  UNL     1       2.636   9.838  23.457  1.00  0.00     0.147 A 
ATOM     34  H3  UNL     1       2.894  11.925  23.481  1.00  0.00     0.167 HD
HETATM   35  C2  UNL     1       1.322   9.452  23.542  1.00  0.00     0.290 A 
HETATM   36  C17 UNL     1       3.588   8.832  23.357  1.00  0.00     0.157 A 
HETATM   37  N2  UNL     1       1.016   8.156  23.522  1.00  0.00    -0.154 N 
HETATM   38  O1  UNL     1       0.450  10.344  23.646  1.00  0.00    -0.265 OA
HETATM   39  C1  UNL     1       1.937   7.171  23.427  1.00  0.00     0.680 A 
ATOM     40  H2  UNL     1       0.032   7.892  23.583  1.00  0.00     0.187 HD
HETATM   41  N6  UNL     1       3.218   7.570  23.352  1.00  0.00    -0.174 N 
ATOM     42  H6  UNL     1       3.942   6.856  23.287  1.00  0.00     0.186 HD
BRANCH  39  43
HETATM   43  N1  UNL     1       1.652   5.955  23.335  1.00  0.00    -0.234 N 
ATOM     44  H12 UNL     1       1.499   5.532  22.419  1.00  0.00     0.174 HD
ATOM     45  H11 UNL     1       1.499   5.344  24.138  1.00  0.00     0.174 HD
ENDBRANCH  39  43
ENDBRANCH   1  30
TORSDOF 13
ENDMDL
