MODEL 1
REMARK VINA RESULT: -7.154042307      0.000      0.000
REMARK  5 active torsions:
REMARK  status: ('A' for Active; 'I' for Inactive)
REMARK    1  A    between atoms: O1_2  and  C2_3 
REMARK    2  A    between atoms: C4_5  and  C5_6 
REMARK       I    between atoms: C5_6  and  N1_8 
REMARK    3  A    between atoms: N1_8  and  C6_10 
REMARK    4  A    between atoms: C22_29  and  O3_30 
REMARK    5  A    between atoms: C24_32  and  O4_33 
ROOT
HETATM    1  C6  UNL     1      17.640  27.874 -18.355  1.00  0.00     0.112 C 
HETATM    2  C7  UNL     1      16.215  27.803 -18.652  1.00  0.00     0.055 C 
HETATM    3  C8  UNL     1      15.691  29.028 -19.242  1.00  0.00     0.003 C 
HETATM    4  C9  UNL     1      14.443  29.264 -19.583  1.00  0.00     0.046 C 
HETATM    5  C10 UNL     1      14.223  30.567 -20.143  1.00  0.00     0.097 C 
HETATM    6  N2  UNL     1      14.027  31.614 -20.602  1.00  0.00    -0.192 NA
HETATM    7  C11 UNL     1      13.236  28.384 -19.469  1.00  0.00     0.092 C 
HETATM    8  C12 UNL     1      13.672  26.932 -19.493  1.00  0.00     0.017 C 
HETATM    9  C13 UNL     1      14.194  26.460 -18.168  1.00  0.00     0.007 C 
HETATM   10  C14 UNL     1      15.290  27.319 -17.582  1.00  0.00     0.000 C 
HETATM   11  C15 UNL     1      14.681  28.370 -16.730  1.00  0.00     0.035 C 
HETATM   12  C16 UNL     1      13.221  28.556 -16.950  1.00  0.00     0.012 C 
HETATM   13  C17 UNL     1      12.601  28.563 -18.116  1.00  0.00     0.099 C 
HETATM   14  F1  UNL     1      11.256  28.749 -18.105  1.00  0.00    -0.210 F 
HETATM   15  S1  UNL     1      17.092  30.152 -19.398  1.00  0.00    -0.121 SA
HETATM   16  C18 UNL     1      18.178  29.257 -18.231  1.00  0.00     0.026 C 
HETATM   17  C19 UNL     1      18.216  29.841 -16.879  1.00  0.00     0.029 C 
HETATM   18  C20 UNL     1      19.593  29.386 -18.819  1.00  0.00     0.029 C 
ENDROOT
BRANCH   1  19
HETATM   19  N1  UNL     1      18.025  27.022 -17.245  1.00  0.00    -0.350 N 
HETATM   20  C5  UNL     1      18.341  25.646 -17.416  1.00  0.00     0.252 C 
HETATM   21  O2  UNL     1      18.272  25.186 -18.601  1.00  0.00    -0.268 OA
ATOM     22  H1  UNL     1      18.070  27.424 -16.309  1.00  0.00     0.163 HD
BRANCH  20  23
HETATM   23  C4  UNL     1      18.728  24.751 -16.358  1.00  0.00     0.037 A 
HETATM   24  C3  UNL     1      18.025  23.604 -16.043  1.00  0.00     0.057 A 
HETATM   25  C2  UNL     1      18.421  22.758 -15.015  1.00  0.00     0.105 A 
HETATM   26  C24 UNL     1      19.550  23.071 -14.285  1.00  0.00     0.135 A 
HETATM   27  C22 UNL     1      20.271  24.210 -14.577  1.00  0.00     0.105 A 
HETATM   28  C21 UNL     1      19.847  25.021 -15.601  1.00  0.00     0.057 A 
BRANCH  25  29
HETATM   29  O1  UNL     1      17.741  21.600 -14.672  1.00  0.00    -0.353 OA
HETATM   30  C1  UNL     1      17.565  20.540 -15.624  1.00  0.00     0.210 C 
ENDBRANCH  25  29
BRANCH  26  31
HETATM   31  O4  UNL     1      19.963  22.239 -13.253  1.00  0.00    -0.351 OA
HETATM   32  C25 UNL     1      19.882  22.614 -11.892  1.00  0.00     0.210 C 
ENDBRANCH  26  31
BRANCH  27  33
HETATM   33  O3  UNL     1      21.422  24.526 -13.830  1.00  0.00    -0.353 OA
HETATM   34  C23 UNL     1      22.660  23.901 -14.099  1.00  0.00     0.210 C 
ENDBRANCH  27  33
ENDBRANCH  20  23
ENDBRANCH   1  19
TORSDOF 5
ENDMDL
MODEL 2
REMARK VINA RESULT: -7.048879756      0.088      2.100
REMARK  5 active torsions:
REMARK  status: ('A' for Active; 'I' for Inactive)
REMARK    1  A    between atoms: O1_2  and  C2_3 
REMARK    2  A    between atoms: C4_5  and  C5_6 
REMARK       I    between atoms: C5_6  and  N1_8 
REMARK    3  A    between atoms: N1_8  and  C6_10 
REMARK    4  A    between atoms: C22_29  and  O3_30 
REMARK    5  A    between atoms: C24_32  and  O4_33 
ROOT
HETATM    1  C6  UNL     1      17.636  27.919 -18.377  1.00  0.00     0.112 C 
HETATM    2  C7  UNL     1      16.209  27.832 -18.655  1.00  0.00     0.055 C 
HETATM    3  C8  UNL     1      15.665  29.046 -19.253  1.00  0.00     0.003 C 
HETATM    4  C9  UNL     1      14.410  29.265 -19.580  1.00  0.00     0.046 C 
HETATM    5  C10 UNL     1      14.171  30.560 -20.152  1.00  0.00     0.097 C 
HETATM    6  N2  UNL     1      13.959  31.599 -20.621  1.00  0.00    -0.192 NA
HETATM    7  C11 UNL     1      13.214  28.375 -19.441  1.00  0.00     0.092 C 
HETATM    8  C12 UNL     1      13.663  26.927 -19.454  1.00  0.00     0.017 C 
HETATM    9  C13 UNL     1      14.206  26.475 -18.129  1.00  0.00     0.007 C 
HETATM   10  C14 UNL     1      15.302  27.352 -17.568  1.00  0.00     0.000 C 
HETATM   11  C15 UNL     1      14.693  28.407 -16.720  1.00  0.00     0.035 C 
HETATM   12  C16 UNL     1      13.229  28.577 -16.924  1.00  0.00     0.012 C 
HETATM   13  C17 UNL     1      12.594  28.565 -18.082  1.00  0.00     0.099 C 
HETATM   14  F1  UNL     1      11.248  28.738 -18.056  1.00  0.00    -0.210 F 
HETATM   15  S1  UNL     1      17.053  30.180 -19.439  1.00  0.00    -0.121 SA
HETATM   16  C18 UNL     1      18.163  29.309 -18.276  1.00  0.00     0.026 C 
HETATM   17  C19 UNL     1      18.212  29.909 -16.931  1.00  0.00     0.029 C 
HETATM   18  C20 UNL     1      19.568  29.444 -18.884  1.00  0.00     0.029 C 
ENDROOT
BRANCH   1  19
HETATM   19  N1  UNL     1      18.043  27.084 -17.262  1.00  0.00    -0.350 N 
HETATM   20  C5  UNL     1      18.352  25.705 -17.419  1.00  0.00     0.252 C 
HETATM   21  O2  UNL     1      18.255  25.227 -18.594  1.00  0.00    -0.268 OA
ATOM     22  H1  UNL     1      18.110  27.502 -16.334  1.00  0.00     0.163 HD
BRANCH  20  23
HETATM   23  C4  UNL     1      18.759  24.826 -16.355  1.00  0.00     0.037 A 
HETATM   24  C3  UNL     1      19.867  25.059 -15.563  1.00  0.00     0.057 A 
HETATM   25  C2  UNL     1      20.237  24.193 -14.542  1.00  0.00     0.105 A 
HETATM   26  C24 UNL     1      19.477  23.064 -14.311  1.00  0.00     0.135 A 
HETATM   27  C22 UNL     1      18.366  22.805 -15.087  1.00  0.00     0.105 A 
HETATM   28  C21 UNL     1      18.032  23.687 -16.086  1.00  0.00     0.057 A 
BRANCH  25  29
HETATM   29  O1  UNL     1      21.341  24.395 -13.729  1.00  0.00    -0.353 OA
HETATM   30  C1  UNL     1      22.611  23.812 -14.055  1.00  0.00     0.210 C 
ENDBRANCH  25  29
BRANCH  26  31
HETATM   31  O4  UNL     1      19.829  22.184 -13.297  1.00  0.00    -0.351 OA
HETATM   32  C25 UNL     1      19.809  22.549 -11.930  1.00  0.00     0.210 C 
ENDBRANCH  26  31
BRANCH  27  33
HETATM   33  O3  UNL     1      17.593  21.653 -14.848  1.00  0.00    -0.353 OA
HETATM   34  C23 UNL     1      17.689  20.522 -15.690  1.00  0.00     0.210 C 
ENDBRANCH  27  33
ENDBRANCH  20  23
ENDBRANCH   1  19
TORSDOF 5
ENDMDL
MODEL 3
REMARK VINA RESULT: -7.015599735      2.231      3.247
REMARK  5 active torsions:
REMARK  status: ('A' for Active; 'I' for Inactive)
REMARK    1  A    between atoms: O1_2  and  C2_3 
REMARK    2  A    between atoms: C4_5  and  C5_6 
REMARK       I    between atoms: C5_6  and  N1_8 
REMARK    3  A    between atoms: N1_8  and  C6_10 
REMARK    4  A    between atoms: C22_29  and  O3_30 
REMARK    5  A    between atoms: C24_32  and  O4_33 
ROOT
HETATM    1  C6  UNL     1      15.557  28.243 -17.704  1.00  0.00     0.112 C 
HETATM    2  C7  UNL     1      15.384  28.544 -19.119  1.00  0.00     0.055 C 
HETATM    3  C8  UNL     1      14.306  29.491 -19.376  1.00  0.00     0.003 C 
HETATM    4  C9  UNL     1      13.903  29.922 -20.552  1.00  0.00     0.046 C 
HETATM    5  C10 UNL     1      12.814  30.854 -20.494  1.00  0.00     0.097 C 
HETATM    6  N2  UNL     1      11.937  31.614 -20.466  1.00  0.00    -0.192 NA
HETATM    7  C11 UNL     1      14.406  29.581 -21.920  1.00  0.00     0.092 C 
HETATM    8  C12 UNL     1      15.858  29.153 -21.828  1.00  0.00     0.017 C 
HETATM    9  C13 UNL     1      16.017  27.733 -21.370  1.00  0.00     0.007 C 
HETATM   10  C14 UNL     1      15.298  27.404 -20.082  1.00  0.00     0.000 C 
HETATM   11  C15 UNL     1      13.929  26.926 -20.399  1.00  0.00     0.035 C 
HETATM   12  C16 UNL     1      13.488  27.233 -21.786  1.00  0.00     0.012 C 
HETATM   13  C17 UNL     1      13.688  28.364 -22.439  1.00  0.00     0.099 C 
HETATM   14  F1  UNL     1      13.204  28.446 -23.704  1.00  0.00    -0.210 F 
HETATM   15  S1  UNL     1      13.634  29.940 -17.765  1.00  0.00    -0.121 SA
HETATM   16  C18 UNL     1      14.363  28.527 -16.860  1.00  0.00     0.026 C 
HETATM   17  C19 UNL     1      13.424  27.414 -16.632  1.00  0.00     0.029 C 
HETATM   18  C20 UNL     1      14.745  29.087 -15.481  1.00  0.00     0.029 C 
ENDROOT
BRANCH   1  19
HETATM   19  N1  UNL     1      16.101  26.917 -17.475  1.00  0.00    -0.350 N 
HETATM   20  C5  UNL     1      17.490  26.690 -17.274  1.00  0.00     0.252 C 
HETATM   21  O2  UNL     1      18.247  27.712 -17.304  1.00  0.00    -0.268 OA
ATOM     22  H1  UNL     1      15.464  26.120 -17.457  1.00  0.00     0.163 HD
BRANCH  20  23
HETATM   23  C4  UNL     1      18.089  25.402 -17.044  1.00  0.00     0.037 A 
HETATM   24  C3  UNL     1      17.706  24.257 -17.717  1.00  0.00     0.057 A 
HETATM   25  C2  UNL     1      18.302  23.027 -17.474  1.00  0.00     0.105 A 
HETATM   26  C24 UNL     1      19.308  22.942 -16.532  1.00  0.00     0.135 A 
HETATM   27  C22 UNL     1      19.711  24.068 -15.845  1.00  0.00     0.105 A 
HETATM   28  C21 UNL     1      19.097  25.267 -16.114  1.00  0.00     0.057 A 
BRANCH  25  29
HETATM   29  O1  UNL     1      17.944  21.860 -18.129  1.00  0.00    -0.353 OA
HETATM   30  C1  UNL     1      16.808  21.094 -17.701  1.00  0.00     0.210 C 
ENDBRANCH  25  29
BRANCH  26  31
HETATM   31  O4  UNL     1      19.918  21.722 -16.274  1.00  0.00    -0.351 OA
HETATM   32  C25 UNL     1      21.101  21.307 -16.930  1.00  0.00     0.210 C 
ENDBRANCH  26  31
BRANCH  27  33
HETATM   33  O3  UNL     1      20.737  23.978 -14.886  1.00  0.00    -0.353 OA
HETATM   34  C23 UNL     1      20.823  24.902 -13.819  1.00  0.00     0.210 C 
ENDBRANCH  27  33
ENDBRANCH  20  23
ENDBRANCH   1  19
TORSDOF 5
ENDMDL
MODEL 4
REMARK VINA RESULT: -7.002479832      2.237      3.875
REMARK  5 active torsions:
REMARK  status: ('A' for Active; 'I' for Inactive)
REMARK    1  A    between atoms: O1_2  and  C2_3 
REMARK    2  A    between atoms: C4_5  and  C5_6 
REMARK       I    between atoms: C5_6  and  N1_8 
REMARK    3  A    between atoms: N1_8  and  C6_10 
REMARK    4  A    between atoms: C22_29  and  O3_30 
REMARK    5  A    between atoms: C24_32  and  O4_33 
ROOT
HETATM    1  C6  UNL     1      15.384  28.403 -17.695  1.00  0.00     0.112 C 
HETATM    2  C7  UNL     1      15.221  28.651 -19.122  1.00  0.00     0.055 C 
HETATM    3  C8  UNL     1      14.131  29.570 -19.424  1.00  0.00     0.003 C 
HETATM    4  C9  UNL     1      13.734  29.951 -20.618  1.00  0.00     0.046 C 
HETATM    5  C10 UNL     1      12.630  30.868 -20.605  1.00  0.00     0.097 C 
HETATM    6  N2  UNL     1      11.741  31.614 -20.613  1.00  0.00    -0.192 NA
HETATM    7  C11 UNL     1      14.256  29.570 -21.969  1.00  0.00     0.092 C 
HETATM    8  C12 UNL     1      15.714  29.169 -21.847  1.00  0.00     0.017 C 
HETATM    9  C13 UNL     1      15.891  27.769 -21.336  1.00  0.00     0.007 C 
HETATM   10  C14 UNL     1      15.163  27.475 -20.044  1.00  0.00     0.000 C 
HETATM   11  C15 UNL     1      13.806  26.965 -20.357  1.00  0.00     0.035 C 
HETATM   12  C16 UNL     1      13.374  27.214 -21.758  1.00  0.00     0.012 C 
HETATM   13  C17 UNL     1      13.563  28.323 -22.450  1.00  0.00     0.099 C 
HETATM   14  F1  UNL     1      13.090  28.352 -23.722  1.00  0.00    -0.210 F 
HETATM   15  S1  UNL     1      13.436  30.066 -17.836  1.00  0.00    -0.121 SA
HETATM   16  C18 UNL     1      14.177  28.699 -16.874  1.00  0.00     0.026 C 
HETATM   17  C19 UNL     1      13.254  27.580 -16.615  1.00  0.00     0.029 C 
HETATM   18  C20 UNL     1      14.536  29.315 -15.512  1.00  0.00     0.029 C 
ENDROOT
BRANCH   1  19
HETATM   19  N1  UNL     1      15.947  27.096 -17.413  1.00  0.00    -0.350 N 
HETATM   20  C5  UNL     1      17.343  26.889 -17.248  1.00  0.00     0.252 C 
HETATM   21  O2  UNL     1      18.091  27.913 -17.359  1.00  0.00    -0.268 OA
ATOM     22  H1  UNL     1      15.317  26.298 -17.330  1.00  0.00     0.163 HD
BRANCH  20  23
HETATM   23  C4  UNL     1      17.961  25.620 -16.968  1.00  0.00     0.037 A 
HETATM   24  C3  UNL     1      19.039  25.474 -16.115  1.00  0.00     0.057 A 
HETATM   25  C2  UNL     1      19.616  24.236 -15.863  1.00  0.00     0.105 A 
HETATM   26  C24 UNL     1      19.099  23.116 -16.484  1.00  0.00     0.135 A 
HETATM   27  C22 UNL     1      18.025  23.231 -17.341  1.00  0.00     0.105 A 
HETATM   28  C21 UNL     1      17.482  24.473 -17.563  1.00  0.00     0.057 A 
BRANCH  25  29
HETATM   29  O1  UNL     1      20.695  24.052 -15.015  1.00  0.00    -0.353 OA
HETATM   30  C1  UNL     1      20.872  24.885 -13.859  1.00  0.00     0.210 C 
ENDBRANCH  25  29
BRANCH  26  31
HETATM   31  O4  UNL     1      19.661  21.869 -16.247  1.00  0.00    -0.351 OA
HETATM   32  C25 UNL     1      20.710  21.342 -17.036  1.00  0.00     0.210 C 
ENDBRANCH  26  31
BRANCH  27  33
HETATM   33  O3  UNL     1      17.501  22.087 -17.972  1.00  0.00    -0.353 OA
HETATM   34  C23 UNL     1      16.470  21.330 -17.371  1.00  0.00     0.210 C 
ENDBRANCH  27  33
ENDBRANCH  20  23
ENDBRANCH   1  19
TORSDOF 5
ENDMDL
MODEL 5
REMARK VINA RESULT: -6.790115618      5.569      8.967
REMARK  5 active torsions:
REMARK  status: ('A' for Active; 'I' for Inactive)
REMARK    1  A    between atoms: O1_2  and  C2_3 
REMARK    2  A    between atoms: C4_5  and  C5_6 
REMARK       I    between atoms: C5_6  and  N1_8 
REMARK    3  A    between atoms: N1_8  and  C6_10 
REMARK    4  A    between atoms: C22_29  and  O3_30 
REMARK    5  A    between atoms: C24_32  and  O4_33 
ROOT
HETATM    1  C6  UNL     1      17.295  21.367 -15.975  1.00  0.00     0.112 C 
HETATM    2  C7  UNL     1      18.392  21.968 -15.227  1.00  0.00     0.055 C 
HETATM    3  C8  UNL     1      18.605  23.373 -15.551  1.00  0.00     0.003 C 
HETATM    4  C9  UNL     1      19.538  24.158 -15.058  1.00  0.00     0.046 C 
HETATM    5  C10 UNL     1      19.504  25.500 -15.566  1.00  0.00     0.097 C 
HETATM    6  N2  UNL     1      19.487  26.591 -15.961  1.00  0.00    -0.192 NA
HETATM    7  C11 UNL     1      20.616  23.859 -14.062  1.00  0.00     0.092 C 
HETATM    8  C12 UNL     1      20.173  22.712 -13.175  1.00  0.00     0.017 C 
HETATM    9  C13 UNL     1      20.345  21.372 -13.829  1.00  0.00     0.007 C 
HETATM   10  C14 UNL     1      19.703  21.250 -15.191  1.00  0.00     0.000 C 
HETATM   11  C15 UNL     1      20.686  21.648 -16.229  1.00  0.00     0.035 C 
HETATM   12  C16 UNL     1      21.860  22.391 -15.697  1.00  0.00     0.012 C 
HETATM   13  C17 UNL     1      21.835  23.335 -14.774  1.00  0.00     0.099 C 
HETATM   14  F1  UNL     1      23.021  23.894 -14.423  1.00  0.00    -0.210 F 
HETATM   15  S1  UNL     1      17.346  23.807 -16.764  1.00  0.00    -0.121 SA
HETATM   16  C18 UNL     1      16.933  22.087 -17.227  1.00  0.00     0.026 C 
HETATM   17  C19 UNL     1      17.579  21.630 -18.471  1.00  0.00     0.029 C 
HETATM   18  C20 UNL     1      15.417  22.091 -17.479  1.00  0.00     0.029 C 
ENDROOT
BRANCH   1  19
HETATM   19  N1  UNL     1      17.469  19.941 -16.179  1.00  0.00    -0.350 N 
HETATM   20  C5  UNL     1      16.372  19.037 -16.205  1.00  0.00     0.252 C 
HETATM   21  O2  UNL     1      15.213  19.538 -16.040  1.00  0.00    -0.268 OA
ATOM     22  H1  UNL     1      18.412  19.574 -16.308  1.00  0.00     0.163 HD
BRANCH  20  23
HETATM   23  C4  UNL     1      16.479  17.616 -16.402  1.00  0.00     0.037 A 
HETATM   24  C3  UNL     1      16.658  16.720 -15.365  1.00  0.00     0.057 A 
HETATM   25  C2  UNL     1      16.758  15.352 -15.584  1.00  0.00     0.105 A 
HETATM   26  C24 UNL     1      16.679  14.871 -16.876  1.00  0.00     0.135 A 
HETATM   27  C22 UNL     1      16.501  15.742 -17.930  1.00  0.00     0.105 A 
HETATM   28  C21 UNL     1      16.405  17.088 -17.672  1.00  0.00     0.057 A 
BRANCH  25  29
HETATM   29  O1  UNL     1      16.938  14.425 -14.570  1.00  0.00    -0.353 OA
HETATM   30  C1  UNL     1      16.298  14.596 -13.296  1.00  0.00     0.210 C 
ENDBRANCH  25  29
BRANCH  26  31
HETATM   31  O4  UNL     1      16.777  13.508 -17.117  1.00  0.00    -0.351 OA
HETATM   32  C25 UNL     1      15.647  12.658 -17.164  1.00  0.00     0.210 C 
ENDBRANCH  26  31
BRANCH  27  33
HETATM   33  O3  UNL     1      16.420  15.248 -19.246  1.00  0.00    -0.353 OA
HETATM   34  C23 UNL     1      16.498  16.116 -20.358  1.00  0.00     0.210 C 
ENDBRANCH  27  33
ENDBRANCH  20  23
ENDBRANCH   1  19
TORSDOF 5
ENDMDL
