MODEL 1
REMARK VINA RESULT: -7.975978070      0.000      0.000
REMARK  7 active torsions:
REMARK  status: ('A' for Active; 'I' for Inactive)
REMARK    1  A    between atoms: N3_8  and  C4_9 
REMARK    2  A    between atoms: C4_9  and  C5_10 
REMARK    3  A    between atoms: C4_9  and  C7_12 
REMARK       I    between atoms: C7_12  and  N4_14 
REMARK    4  A    between atoms: N4_14  and  C8_16 
REMARK    5  A    between atoms: C8_16  and  C9_17 
REMARK    6  A    between atoms: C9_17  and  N5_18 
REMARK    7  A    between atoms: C14_24  and  C15_26 
ROOT
HETATM    1  C15 UNL     1     -26.802 -39.374   8.963  1.00  0.00    -0.053 C 
HETATM    2  C16 UNL     1     -27.997 -39.501   9.003  1.00  0.00    -0.105 C 
HETATM    3  C17 UNL     1     -29.448 -39.645   9.074  1.00  0.00     0.112 C 
ENDROOT
BRANCH   1   4
HETATM    4  C14 UNL     1     -25.339 -39.216   8.883  1.00  0.00     0.111 C 
HETATM    5  C13 UNL     1     -24.739 -38.859   9.981  1.00  0.00     0.062 C 
HETATM    6  N5  UNL     1     -23.367 -38.652  10.071  1.00  0.00    -0.377 N 
HETATM    7  C12 UNL     1     -25.612 -38.646  11.235  1.00  0.00     0.226 C 
HETATM    8  C10 UNL     1     -22.681 -38.942  11.336  1.00  0.00     0.149 C 
HETATM    9  C11 UNL     1     -23.755 -39.356  12.326  1.00  0.00     0.187 C 
HETATM   10  O2  UNL     1     -24.769 -38.413  12.290  1.00  0.00    -0.384 OA
HETATM   11 CL1  UNL     1     -24.699 -39.528   7.309  1.00  0.00    -0.072 Cl
BRANCH   6  12
HETATM   12  C9  UNL     1     -22.587 -38.100   9.013  1.00  0.00     0.142 C 
BRANCH  12  13
HETATM   13  C8  UNL     1     -21.127 -37.998   9.180  1.00  0.00     0.142 C 
BRANCH  13  14
HETATM   14  N4  UNL     1     -20.299 -38.804   8.285  1.00  0.00    -0.358 N 
HETATM   15  C7  UNL     1     -19.030 -38.453   7.810  1.00  0.00     0.242 C 
HETATM   16  O1  UNL     1     -18.625 -37.301   8.242  1.00  0.00    -0.271 OA
ATOM     17  H4  UNL     1     -20.679 -39.701   7.981  1.00  0.00     0.162 HD
BRANCH  15  18
HETATM   18  C4  UNL     1     -18.114 -39.147   6.931  1.00  0.00     0.201 C 
BRANCH  18  19
HETATM   19  N3  UNL     1     -17.450 -38.185   6.021  1.00  0.00    -0.263 N 
HETATM   20  C2  UNL     1     -17.893 -37.997   4.665  1.00  0.00     0.114 A 
HETATM   21  C1  UNL     1     -18.902 -38.578   4.085  1.00  0.00     0.065 C 
HETATM   22  N1  UNL     1     -17.015 -37.057   4.093  1.00  0.00    -0.337 N 
HETATM   23  C3  UNL     1     -16.133 -36.679   4.925  1.00  0.00     0.199 A 
ATOM     24  H1  UNL     1     -17.079 -36.721   3.132  1.00  0.00     0.168 HD
HETATM   25  N2  UNL     1     -16.360 -37.366   6.171  1.00  0.00    -0.292 N 
ATOM     26  H2  UNL     1     -15.805 -37.261   7.020  1.00  0.00     0.188 HD
ENDBRANCH  18  19
BRANCH  18  27
HETATM   27  C5  UNL     1     -17.039 -39.914   7.600  1.00  0.00     0.032 C 
HETATM   28  C6  UNL     1     -16.497 -41.091   6.893  1.00  0.00     0.007 C 
ENDBRANCH  18  27
ENDBRANCH  15  18
ENDBRANCH  13  14
ENDBRANCH  12  13
ENDBRANCH   6  12
ENDBRANCH   1   4
TORSDOF 7
ENDMDL
MODEL 2
REMARK VINA RESULT: -7.830062763      1.502      2.618
REMARK  7 active torsions:
REMARK  status: ('A' for Active; 'I' for Inactive)
REMARK    1  A    between atoms: N3_8  and  C4_9 
REMARK    2  A    between atoms: C4_9  and  C5_10 
REMARK    3  A    between atoms: C4_9  and  C7_12 
REMARK       I    between atoms: C7_12  and  N4_14 
REMARK    4  A    between atoms: N4_14  and  C8_16 
REMARK    5  A    between atoms: C8_16  and  C9_17 
REMARK    6  A    between atoms: C9_17  and  N5_18 
REMARK    7  A    between atoms: C14_24  and  C15_26 
ROOT
HETATM    1  C15 UNL     1     -27.539 -39.317   9.156  1.00  0.00    -0.053 C 
HETATM    2  C16 UNL     1     -28.712 -39.309   9.417  1.00  0.00    -0.105 C 
HETATM    3  C17 UNL     1     -30.137 -39.322   9.736  1.00  0.00     0.112 C 
ENDROOT
BRANCH   1   4
HETATM    4  C14 UNL     1     -26.098 -39.299   8.849  1.00  0.00     0.111 C 
HETATM    5  C13 UNL     1     -25.296 -39.124   9.858  1.00  0.00     0.062 C 
HETATM    6  N5  UNL     1     -23.912 -39.066   9.736  1.00  0.00    -0.377 N 
HETATM    7  C12 UNL     1     -25.933 -38.958  11.254  1.00  0.00     0.226 C 
HETATM    8  C10 UNL     1     -23.076 -39.556  10.839  1.00  0.00     0.149 C 
HETATM    9  C11 UNL     1     -24.023 -39.963  11.953  1.00  0.00     0.187 C 
HETATM   10  O2  UNL     1     -24.915 -38.924  12.170  1.00  0.00    -0.384 OA
HETATM   11 CL1  UNL     1     -25.751 -39.505   7.168  1.00  0.00    -0.072 Cl
BRANCH   6  12
HETATM   12  C9  UNL     1     -23.248 -38.486   8.616  1.00  0.00     0.142 C 
BRANCH  12  13
HETATM   13  C8  UNL     1     -22.292 -39.305   7.850  1.00  0.00     0.142 C 
BRANCH  13  14
HETATM   14  N4  UNL     1     -20.894 -38.880   7.867  1.00  0.00    -0.358 N 
HETATM   15  C7  UNL     1     -20.096 -38.655   6.739  1.00  0.00     0.242 C 
HETATM   16  O1  UNL     1     -20.721 -38.865   5.623  1.00  0.00    -0.271 OA
ATOM     17  H4  UNL     1     -20.462 -38.735   8.780  1.00  0.00     0.162 HD
BRANCH  15  18
HETATM   18  C4  UNL     1     -18.717 -38.239   6.613  1.00  0.00     0.201 C 
BRANCH  18  19
HETATM   19  N3  UNL     1     -17.810 -39.375   6.900  1.00  0.00    -0.263 N 
HETATM   20  C2  UNL     1     -16.874 -39.338   7.992  1.00  0.00     0.114 A 
HETATM   21  C1  UNL     1     -16.721 -38.380   8.858  1.00  0.00     0.065 C 
HETATM   22  N1  UNL     1     -16.159 -40.549   7.935  1.00  0.00    -0.337 N 
HETATM   23  C3  UNL     1     -16.549 -41.275   6.968  1.00  0.00     0.199 A 
ATOM     24  H1  UNL     1     -15.420 -40.811   8.588  1.00  0.00     0.168 HD
HETATM   25  N2  UNL     1     -17.600 -40.576   6.272  1.00  0.00    -0.292 N 
ATOM     26  H2  UNL     1     -18.102 -40.918   5.453  1.00  0.00     0.188 HD
ENDBRANCH  18  19
BRANCH  18  27
HETATM   27  C5  UNL     1     -18.325 -37.705   5.289  1.00  0.00     0.032 C 
HETATM   28  C6  UNL     1     -17.060 -36.949   5.203  1.00  0.00     0.007 C 
ENDBRANCH  18  27
ENDBRANCH  15  18
ENDBRANCH  13  14
ENDBRANCH  12  13
ENDBRANCH   6  12
ENDBRANCH   1   4
TORSDOF 7
ENDMDL
MODEL 3
REMARK VINA RESULT: -7.764799830      2.531      3.307
REMARK  7 active torsions:
REMARK  status: ('A' for Active; 'I' for Inactive)
REMARK    1  A    between atoms: N3_8  and  C4_9 
REMARK    2  A    between atoms: C4_9  and  C5_10 
REMARK    3  A    between atoms: C4_9  and  C7_12 
REMARK       I    between atoms: C7_12  and  N4_14 
REMARK    4  A    between atoms: N4_14  and  C8_16 
REMARK    5  A    between atoms: C8_16  and  C9_17 
REMARK    6  A    between atoms: C9_17  and  N5_18 
REMARK    7  A    between atoms: C14_24  and  C15_26 
ROOT
HETATM    1  C15 UNL     1     -26.807 -39.256  10.253  1.00  0.00    -0.053 C 
HETATM    2  C16 UNL     1     -27.712 -39.385  11.033  1.00  0.00    -0.105 C 
HETATM    3  C17 UNL     1     -28.823 -39.522  11.972  1.00  0.00     0.112 C 
ENDROOT
BRANCH   1   4
HETATM    4  C14 UNL     1     -25.692 -39.129   9.298  1.00  0.00     0.111 C 
HETATM    5  C13 UNL     1     -25.961 -39.417   8.059  1.00  0.00     0.062 C 
HETATM    6  N5  UNL     1     -25.018 -39.363   7.038  1.00  0.00    -0.377 N 
HETATM    7  C12 UNL     1     -27.403 -39.854   7.724  1.00  0.00     0.226 C 
HETATM    8  C10 UNL     1     -25.453 -39.010   5.681  1.00  0.00     0.149 C 
HETATM    9  C11 UNL     1     -26.963 -38.857   5.735  1.00  0.00     0.187 C 
HETATM   10  O2  UNL     1     -27.492 -39.973   6.363  1.00  0.00    -0.384 OA
HETATM   11 CL1  UNL     1     -24.211 -38.624  10.033  1.00  0.00    -0.072 Cl
BRANCH   6  12
HETATM   12  C9  UNL     1     -23.646 -39.705   7.220  1.00  0.00     0.142 C 
BRANCH  12  13
HETATM   13  C8  UNL     1     -22.614 -38.892   6.553  1.00  0.00     0.142 C 
BRANCH  13  14
HETATM   14  N4  UNL     1     -21.277 -38.905   7.143  1.00  0.00    -0.358 N 
HETATM   15  C7  UNL     1     -20.072 -38.800   6.438  1.00  0.00     0.242 C 
HETATM   16  O1  UNL     1     -20.240 -38.689   5.157  1.00  0.00    -0.271 OA
ATOM     17  H4  UNL     1     -21.217 -38.997   8.157  1.00  0.00     0.162 HD
BRANCH  15  18
HETATM   18  C4  UNL     1     -18.699 -38.799   6.889  1.00  0.00     0.201 C 
BRANCH  18  19
HETATM   19  N3  UNL     1     -17.805 -38.311   5.812  1.00  0.00    -0.263 N 
HETATM   20  C2  UNL     1     -16.736 -39.121   5.292  1.00  0.00     0.114 A 
HETATM   21  C1  UNL     1     -16.436 -40.338   5.642  1.00  0.00     0.065 C 
HETATM   22  N1  UNL     1     -16.080 -38.331   4.329  1.00  0.00    -0.337 N 
HETATM   23  C3  UNL     1     -16.618 -37.186   4.222  1.00  0.00     0.199 A 
ATOM     24  H1  UNL     1     -15.273 -38.640   3.786  1.00  0.00     0.168 HD
HETATM   25  N2  UNL     1     -17.723 -37.116   5.144  1.00  0.00    -0.292 N 
ATOM     26  H2  UNL     1     -18.340 -36.315   5.277  1.00  0.00     0.188 HD
ENDBRANCH  18  19
BRANCH  18  27
HETATM   27  C5  UNL     1     -18.416 -37.972   8.085  1.00  0.00     0.032 C 
HETATM   28  C6  UNL     1     -17.098 -38.132   8.731  1.00  0.00     0.007 C 
ENDBRANCH  18  27
ENDBRANCH  15  18
ENDBRANCH  13  14
ENDBRANCH  12  13
ENDBRANCH   6  12
ENDBRANCH   1   4
TORSDOF 7
ENDMDL
MODEL 4
REMARK VINA RESULT: -7.753710404      1.288      1.678
REMARK  7 active torsions:
REMARK  status: ('A' for Active; 'I' for Inactive)
REMARK    1  A    between atoms: N3_8  and  C4_9 
REMARK    2  A    between atoms: C4_9  and  C5_10 
REMARK    3  A    between atoms: C4_9  and  C7_12 
REMARK       I    between atoms: C7_12  and  N4_14 
REMARK    4  A    between atoms: N4_14  and  C8_16 
REMARK    5  A    between atoms: C8_16  and  C9_17 
REMARK    6  A    between atoms: C9_17  and  N5_18 
REMARK    7  A    between atoms: C14_24  and  C15_26 
ROOT
HETATM    1  C15 UNL     1     -27.447 -39.363   9.221  1.00  0.00    -0.053 C 
HETATM    2  C16 UNL     1     -28.614 -39.476   9.486  1.00  0.00    -0.105 C 
HETATM    3  C17 UNL     1     -30.027 -39.607   9.831  1.00  0.00     0.112 C 
ENDROOT
BRANCH   1   4
HETATM    4  C14 UNL     1     -26.024 -39.218   8.866  1.00  0.00     0.111 C 
HETATM    5  C13 UNL     1     -25.204 -39.006   9.854  1.00  0.00     0.062 C 
HETATM    6  N5  UNL     1     -23.834 -38.831   9.688  1.00  0.00    -0.377 N 
HETATM    7  C12 UNL     1     -25.802 -38.932  11.275  1.00  0.00     0.226 C 
HETATM    8  C10 UNL     1     -22.923 -39.282  10.747  1.00  0.00     0.149 C 
HETATM    9  C11 UNL     1     -23.794 -39.796  11.879  1.00  0.00     0.187 C 
HETATM   10  O2  UNL     1     -24.758 -38.841  12.157  1.00  0.00    -0.384 OA
HETATM   11 CL1  UNL     1     -25.721 -39.348   7.170  1.00  0.00    -0.072 Cl
BRANCH   6  12
HETATM   12  C9  UNL     1     -23.259 -38.168   8.565  1.00  0.00     0.142 C 
BRANCH  12  13
HETATM   13  C8  UNL     1     -22.353 -38.918   7.679  1.00  0.00     0.142 C 
BRANCH  13  14
HETATM   14  N4  UNL     1     -20.930 -38.890   8.009  1.00  0.00    -0.358 N 
HETATM   15  C7  UNL     1     -19.878 -38.874   7.085  1.00  0.00     0.242 C 
HETATM   16  O1  UNL     1     -20.282 -38.891   5.854  1.00  0.00    -0.271 OA
ATOM     17  H4  UNL     1     -20.681 -38.879   8.999  1.00  0.00     0.162 HD
BRANCH  15  18
HETATM   18  C4  UNL     1     -18.444 -38.846   7.271  1.00  0.00     0.201 C 
BRANCH  18  19
HETATM   19  N3  UNL     1     -17.764 -38.596   5.979  1.00  0.00    -0.263 N 
HETATM   20  C2  UNL     1     -16.826 -39.535   5.423  1.00  0.00     0.114 A 
HETATM   21  C1  UNL     1     -16.486 -40.686   5.922  1.00  0.00     0.065 C 
HETATM   22  N1  UNL     1     -16.353 -38.955   4.231  1.00  0.00    -0.337 N 
HETATM   23  C3  UNL     1     -16.883 -37.820   4.023  1.00  0.00     0.199 A 
ATOM     24  H1  UNL     1     -15.670 -39.391   3.612  1.00  0.00     0.168 HD
HETATM   25  N2  UNL     1     -17.791 -37.538   5.106  1.00  0.00    -0.292 N 
ATOM     26  H2  UNL     1     -18.358 -36.696   5.205  1.00  0.00     0.188 HD
ENDBRANCH  18  19
BRANCH  18  27
HETATM   27  C5  UNL     1     -17.939 -37.831   8.223  1.00  0.00     0.032 C 
HETATM   28  C6  UNL     1     -16.646 -38.096   8.884  1.00  0.00     0.007 C 
ENDBRANCH  18  27
ENDBRANCH  15  18
ENDBRANCH  13  14
ENDBRANCH  12  13
ENDBRANCH   6  12
ENDBRANCH   1   4
TORSDOF 7
ENDMDL
MODEL 5
REMARK VINA RESULT: -7.737783290      4.969      7.777
REMARK  7 active torsions:
REMARK  status: ('A' for Active; 'I' for Inactive)
REMARK    1  A    between atoms: N3_8  and  C4_9 
REMARK    2  A    between atoms: C4_9  and  C5_10 
REMARK    3  A    between atoms: C4_9  and  C7_12 
REMARK       I    between atoms: C7_12  and  N4_14 
REMARK    4  A    between atoms: N4_14  and  C8_16 
REMARK    5  A    between atoms: C8_16  and  C9_17 
REMARK    6  A    between atoms: C9_17  and  N5_18 
REMARK    7  A    between atoms: C14_24  and  C15_26 
ROOT
HETATM    1  C15 UNL     1     -28.192 -40.420  17.394  1.00  0.00    -0.053 C 
HETATM    2  C16 UNL     1     -28.486 -40.076  18.507  1.00  0.00    -0.105 C 
HETATM    3  C17 UNL     1     -28.831 -39.676  19.869  1.00  0.00     0.112 C 
ENDROOT
BRANCH   1   4
HETATM    4  C14 UNL     1     -27.833 -40.813  16.020  1.00  0.00     0.111 C 
HETATM    5  C13 UNL     1     -27.059 -39.994  15.371  1.00  0.00     0.062 C 
HETATM    6  N5  UNL     1     -26.641 -40.208  14.063  1.00  0.00    -0.377 N 
HETATM    7  C12 UNL     1     -26.601 -38.714  16.103  1.00  0.00     0.226 C 
HETATM    8  C10 UNL     1     -25.323 -39.715  13.643  1.00  0.00     0.149 C 
HETATM    9  C11 UNL     1     -24.742 -38.967  14.829  1.00  0.00     0.187 C 
HETATM   10  O2  UNL     1     -25.697 -38.078  15.295  1.00  0.00    -0.384 OA
HETATM   11 CL1  UNL     1     -28.541 -42.311  15.526  1.00  0.00    -0.072 Cl
BRANCH   6  12
HETATM   12  C9  UNL     1     -27.457 -40.827  13.071  1.00  0.00     0.142 C 
BRANCH  12  13
HETATM   13  C8  UNL     1     -28.183 -39.977  12.111  1.00  0.00     0.142 C 
BRANCH  13  14
HETATM   14  N4  UNL     1     -27.751 -40.035  10.717  1.00  0.00    -0.358 N 
HETATM   15  C7  UNL     1     -26.890 -39.125  10.091  1.00  0.00     0.242 C 
HETATM   16  O1  UNL     1     -26.486 -38.180  10.880  1.00  0.00    -0.271 OA
ATOM     17  H4  UNL     1     -28.107 -40.805  10.150  1.00  0.00     0.162 HD
BRANCH  15  18
HETATM   18  C4  UNL     1     -26.386 -39.064   8.736  1.00  0.00     0.201 C 
BRANCH  18  19
HETATM   19  N3  UNL     1     -24.912 -39.208   8.730  1.00  0.00    -0.263 N 
HETATM   20  C2  UNL     1     -24.099 -38.616   7.701  1.00  0.00     0.114 A 
HETATM   21  C1  UNL     1     -24.507 -37.882   6.708  1.00  0.00     0.065 C 
HETATM   22  N1  UNL     1     -22.772 -38.991   7.987  1.00  0.00    -0.337 N 
HETATM   23  C3  UNL     1     -22.707 -39.712   9.030  1.00  0.00     0.199 A 
ATOM     24  H1  UNL     1     -21.965 -38.718   7.427  1.00  0.00     0.168 HD
HETATM   25  N2  UNL     1     -24.042 -39.884   9.546  1.00  0.00    -0.292 N 
ATOM     26  H2  UNL     1     -24.296 -40.418  10.378  1.00  0.00     0.188 HD
ENDBRANCH  18  19
BRANCH  18  27
HETATM   27  C5  UNL     1     -26.919 -40.085   7.806  1.00  0.00     0.032 C 
HETATM   28  C6  UNL     1     -27.907 -39.646   6.801  1.00  0.00     0.007 C 
ENDBRANCH  18  27
ENDBRANCH  15  18
ENDBRANCH  13  14
ENDBRANCH  12  13
ENDBRANCH   6  12
ENDBRANCH   1   4
TORSDOF 7
ENDMDL
