MODEL 1
REMARK VINA RESULT: -7.440982602      0.000      0.000
REMARK  7 active torsions:
REMARK  status: ('A' for Active; 'I' for Inactive)
REMARK    1  A    between atoms: C2_2  and  O2_4 
REMARK    2  A    between atoms: O2_4  and  C3_5 
REMARK    3  A    between atoms: C5_7  and  C6_8 
REMARK    4  A    between atoms: C6_8  and  C7_9 
REMARK    5  A    between atoms: C7_9  and  C8_10 
REMARK    6  A    between atoms: C8_10  and  N1_11 
REMARK    7  A    between atoms: C16_20  and  O4_21 
ROOT
HETATM    1  C3  UNL     1      -1.302  -5.916  20.952  1.00  0.00     0.177 C 
HETATM    2  C4  UNL     1      -1.925  -7.258  20.986  1.00  0.00    -0.040 C 
HETATM    3  C5  UNL     1      -2.493  -7.961  20.008  1.00  0.00    -0.072 C 
HETATM    4  C15 UNL     1      -2.976  -9.296  20.556  1.00  0.00     0.067 C 
HETATM    5  C16 UNL     1      -3.262  -8.857  22.012  1.00  0.00     0.131 C 
HETATM    6  C17 UNL     1      -2.022  -8.097  22.204  1.00  0.00     0.057 C 
HETATM    7  C18 UNL     1      -1.746  -7.468  23.496  1.00  0.00     0.067 C 
HETATM    8  C19 UNL     1      -2.824  -6.692  24.160  1.00  0.00     0.013 C 
HETATM    9  C20 UNL     1      -2.442  -5.223  24.352  1.00  0.00     0.006 C 
HETATM   10  C21 UNL     1      -2.053  -4.635  22.998  1.00  0.00    -0.000 C 
HETATM   11  C22 UNL     1      -3.293  -4.479  22.180  1.00  0.00     0.011 C 
HETATM   12  C23 UNL     1      -0.957  -5.417  22.346  1.00  0.00     0.051 C 
HETATM   13  C24 UNL     1       0.273  -4.502  22.264  1.00  0.00     0.027 C 
HETATM   14  C25 UNL     1      -0.620  -6.534  23.253  1.00  0.00     0.143 C 
HETATM   15  O5  UNL     1       0.457  -6.663  23.738  1.00  0.00    -0.297 OA
ENDROOT
BRANCH   3  16
HETATM   16  C6  UNL     1      -2.688  -7.625  18.566  1.00  0.00     0.036 C 
BRANCH  16  17
HETATM   17  C7  UNL     1      -1.454  -8.066  17.783  1.00  0.00     0.034 C 
BRANCH  17  18
HETATM   18  C8  UNL     1      -1.838  -8.934  16.613  1.00  0.00     0.273 C 
BRANCH  18  19
HETATM   19  N1  UNL     1      -2.353 -10.210  17.005  1.00  0.00     0.093 N 
HETATM   20  C9  UNL     1      -1.500 -10.903  17.943  1.00  0.00     0.303 C 
HETATM   21  C10 UNL     1      -2.139 -12.189  18.351  1.00  0.00     0.146 C 
HETATM   22  C11 UNL     1      -1.152 -13.355  18.285  1.00  0.00     0.041 C 
HETATM   23  O3  UNL     1      -3.313 -12.483  17.693  1.00  0.00    -0.378 OA
HETATM   24  C12 UNL     1      -3.255 -12.357  16.328  1.00  0.00     0.146 C 
HETATM   25  C13 UNL     1      -4.681 -12.492  15.790  1.00  0.00     0.041 C 
HETATM   26  C14 UNL     1      -2.746 -11.016  15.889  1.00  0.00     0.303 C 
ENDBRANCH  18  19
ENDBRANCH  17  18
ENDBRANCH  16  17
ENDBRANCH   3  16
BRANCH   1  27
HETATM   27  O2  UNL     1      -0.047  -6.039  20.291  1.00  0.00    -0.310 OA
BRANCH  27  28
HETATM   28  C2  UNL     1       0.280  -5.454  19.096  1.00  0.00     0.255 C 
HETATM   29  C1  UNL     1      -0.511  -4.407  18.412  1.00  0.00     0.126 C 
HETATM   30  O1  UNL     1       1.343  -5.822  18.509  1.00  0.00    -0.266 OA
ENDBRANCH  27  28
ENDBRANCH   1  27
BRANCH   5  31
HETATM   31  O4  UNL     1      -4.444  -8.171  21.908  1.00  0.00    -0.395 OA
ATOM     32  H4  UNL     1      -4.274  -7.369  22.388  1.00  0.00     0.210 HD
ENDBRANCH   5  31
TORSDOF 7
ENDMDL
MODEL 2
REMARK VINA RESULT: -7.362843526      1.677      2.860
REMARK  7 active torsions:
REMARK  status: ('A' for Active; 'I' for Inactive)
REMARK    1  A    between atoms: C2_2  and  O2_4 
REMARK    2  A    between atoms: O2_4  and  C3_5 
REMARK    3  A    between atoms: C5_7  and  C6_8 
REMARK    4  A    between atoms: C6_8  and  C7_9 
REMARK    5  A    between atoms: C7_9  and  C8_10 
REMARK    6  A    between atoms: C8_10  and  N1_11 
REMARK    7  A    between atoms: C16_20  and  O4_21 
ROOT
HETATM    1  C3  UNL     1      -2.145  -5.671  20.814  1.00  0.00     0.177 C 
HETATM    2  C4  UNL     1      -0.890  -6.275  21.316  1.00  0.00    -0.040 C 
HETATM    3  C5  UNL     1      -0.138  -7.241  20.791  1.00  0.00    -0.072 C 
HETATM    4  C15 UNL     1       1.063  -7.494  21.690  1.00  0.00     0.067 C 
HETATM    5  C16 UNL     1       0.424  -7.100  23.044  1.00  0.00     0.131 C 
HETATM    6  C17 UNL     1      -0.218  -5.868  22.573  1.00  0.00     0.057 C 
HETATM    7  C18 UNL     1      -0.966  -5.031  23.512  1.00  0.00     0.067 C 
HETATM    8  C19 UNL     1      -1.925  -5.679  24.443  1.00  0.00     0.013 C 
HETATM    9  C20 UNL     1      -3.358  -5.189  24.225  1.00  0.00     0.006 C 
HETATM   10  C21 UNL     1      -3.734  -5.403  22.761  1.00  0.00    -0.000 C 
HETATM   11  C22 UNL     1      -3.921  -6.867  22.533  1.00  0.00     0.011 C 
HETATM   12  C23 UNL     1      -2.768  -4.734  21.835  1.00  0.00     0.051 C 
HETATM   13  C24 UNL     1      -3.533  -3.624  21.100  1.00  0.00     0.027 C 
HETATM   14  C25 UNL     1      -1.740  -4.085  22.674  1.00  0.00     0.143 C 
HETATM   15  O5  UNL     1      -1.558  -2.911  22.670  1.00  0.00    -0.297 OA
ENDROOT
BRANCH   3  16
HETATM   16  C6  UNL     1      -0.317  -8.029  19.535  1.00  0.00     0.036 C 
BRANCH  16  17
HETATM   17  C7  UNL     1      -1.583  -8.872  19.655  1.00  0.00     0.034 C 
BRANCH  17  18
HETATM   18  C8  UNL     1      -2.340  -8.897  18.352  1.00  0.00     0.273 C 
BRANCH  18  19
HETATM   19  N1  UNL     1      -2.278 -10.164  17.691  1.00  0.00     0.093 N 
HETATM   20  C9  UNL     1      -3.258 -10.303  16.638  1.00  0.00     0.303 C 
HETATM   21  C10 UNL     1      -3.083 -11.621  15.956  1.00  0.00     0.146 C 
HETATM   22  C11 UNL     1      -4.417 -12.348  15.786  1.00  0.00     0.041 C 
HETATM   23  O3  UNL     1      -2.130 -12.439  16.522  1.00  0.00    -0.378 OA
HETATM   24  C12 UNL     1      -2.227 -12.582  17.883  1.00  0.00     0.146 C 
HETATM   25  C13 UNL     1      -0.975 -13.320  18.362  1.00  0.00     0.041 C 
HETATM   26  C14 UNL     1      -2.263 -11.266  18.604  1.00  0.00     0.303 C 
ENDBRANCH  18  19
ENDBRANCH  17  18
ENDBRANCH  16  17
ENDBRANCH   3  16
BRANCH   1  27
HETATM   27  O2  UNL     1      -1.812  -4.835  19.711  1.00  0.00    -0.310 OA
BRANCH  27  28
HETATM   28  C2  UNL     1      -1.968  -5.165  18.391  1.00  0.00     0.255 C 
HETATM   29  C1  UNL     1      -0.926  -5.036  17.348  1.00  0.00     0.126 C 
HETATM   30  O1  UNL     1      -3.087  -5.622  18.006  1.00  0.00    -0.266 OA
ENDBRANCH  27  28
ENDBRANCH   1  27
BRANCH   5  31
HETATM   31  O4  UNL     1      -0.365  -8.179  23.347  1.00  0.00    -0.395 OA
ATOM     32  H4  UNL     1      -1.215  -7.930  23.005  1.00  0.00     0.210 HD
ENDBRANCH   5  31
TORSDOF 7
ENDMDL
MODEL 3
REMARK VINA RESULT: -7.348544461      1.318      3.623
REMARK  7 active torsions:
REMARK  status: ('A' for Active; 'I' for Inactive)
REMARK    1  A    between atoms: C2_2  and  O2_4 
REMARK    2  A    between atoms: O2_4  and  C3_5 
REMARK    3  A    between atoms: C5_7  and  C6_8 
REMARK    4  A    between atoms: C6_8  and  C7_9 
REMARK    5  A    between atoms: C7_9  and  C8_10 
REMARK    6  A    between atoms: C8_10  and  N1_11 
REMARK    7  A    between atoms: C16_20  and  O4_21 
ROOT
HETATM    1  C3  UNL     1      -2.691  -7.914  22.060  1.00  0.00     0.177 C 
HETATM    2  C4  UNL     1      -2.635  -6.757  21.139  1.00  0.00    -0.040 C 
HETATM    3  C5  UNL     1      -2.705  -6.720  19.809  1.00  0.00    -0.072 C 
HETATM    4  C15 UNL     1      -2.609  -5.277  19.336  1.00  0.00     0.067 C 
HETATM    5  C16 UNL     1      -1.741  -4.714  20.488  1.00  0.00     0.131 C 
HETATM    6  C17 UNL     1      -2.483  -5.351  21.582  1.00  0.00     0.057 C 
HETATM    7  C18 UNL     1      -2.087  -5.106  22.969  1.00  0.00     0.067 C 
HETATM    8  C19 UNL     1      -0.648  -5.189  23.329  1.00  0.00     0.013 C 
HETATM    9  C20 UNL     1      -0.376  -6.282  24.365  1.00  0.00     0.006 C 
HETATM   10  C21 UNL     1      -0.920  -7.607  23.837  1.00  0.00    -0.000 C 
HETATM   11  C22 UNL     1      -0.033  -8.070  22.728  1.00  0.00     0.011 C 
HETATM   12  C23 UNL     1      -2.373  -7.514  23.491  1.00  0.00     0.051 C 
HETATM   13  C24 UNL     1      -3.133  -8.436  24.454  1.00  0.00     0.027 C 
HETATM   14  C25 UNL     1      -2.800  -6.128  23.773  1.00  0.00     0.143 C 
HETATM   15  O5  UNL     1      -3.638  -5.866  24.574  1.00  0.00    -0.297 OA
ENDROOT
BRANCH   3  16
HETATM   16  C6  UNL     1      -2.860  -7.827  18.819  1.00  0.00     0.036 C 
BRANCH  16  17
HETATM   17  C7  UNL     1      -1.537  -8.021  18.083  1.00  0.00     0.034 C 
BRANCH  17  18
HETATM   18  C8  UNL     1      -1.719  -8.892  16.867  1.00  0.00     0.273 C 
BRANCH  18  19
HETATM   19  N1  UNL     1      -2.247 -10.186  17.177  1.00  0.00     0.093 N 
HETATM   20  C9  UNL     1      -1.414 -10.935  18.090  1.00  0.00     0.303 C 
HETATM   21  C10 UNL     1      -2.067 -12.239  18.412  1.00  0.00     0.146 C 
HETATM   22  C11 UNL     1      -1.083 -13.405  18.299  1.00  0.00     0.041 C 
HETATM   23  O3  UNL     1      -3.229 -12.489  17.717  1.00  0.00    -0.378 OA
HETATM   24  C12 UNL     1      -3.144 -12.287  16.362  1.00  0.00     0.146 C 
HETATM   25  C13 UNL     1      -4.561 -12.384  15.791  1.00  0.00     0.041 C 
HETATM   26  C14 UNL     1      -2.622 -10.926  16.009  1.00  0.00     0.303 C 
ENDBRANCH  18  19
ENDBRANCH  17  18
ENDBRANCH  16  17
ENDBRANCH   3  16
BRANCH   1  27
HETATM   27  O2  UNL     1      -4.041  -8.367  22.103  1.00  0.00    -0.310 OA
BRANCH  27  28
HETATM   28  C2  UNL     1      -4.461  -9.636  21.806  1.00  0.00     0.255 C 
HETATM   29  C1  UNL     1      -4.078 -10.404  20.600  1.00  0.00     0.126 C 
HETATM   30  O1  UNL     1      -5.240 -10.225  22.616  1.00  0.00    -0.266 OA
ENDBRANCH  27  28
ENDBRANCH   1  27
BRANCH   5  31
HETATM   31  O4  UNL     1      -0.485  -5.174  20.190  1.00  0.00    -0.395 OA
ATOM     32  H4  UNL     1       0.008  -4.378  20.033  1.00  0.00     0.210 HD
ENDBRANCH   5  31
TORSDOF 7
ENDMDL
MODEL 4
REMARK VINA RESULT: -7.331546194      1.319      2.222
REMARK  7 active torsions:
REMARK  status: ('A' for Active; 'I' for Inactive)
REMARK    1  A    between atoms: C2_2  and  O2_4 
REMARK    2  A    between atoms: O2_4  and  C3_5 
REMARK    3  A    between atoms: C5_7  and  C6_8 
REMARK    4  A    between atoms: C6_8  and  C7_9 
REMARK    5  A    between atoms: C7_9  and  C8_10 
REMARK    6  A    between atoms: C8_10  and  N1_11 
REMARK    7  A    between atoms: C16_20  and  O4_21 
ROOT
HETATM    1  C3  UNL     1      -1.311  -7.111  22.339  1.00  0.00     0.177 C 
HETATM    2  C4  UNL     1      -2.225  -8.140  21.795  1.00  0.00    -0.040 C 
HETATM    3  C5  UNL     1      -2.764  -8.248  20.582  1.00  0.00    -0.072 C 
HETATM    4  C15 UNL     1      -3.631  -9.497  20.521  1.00  0.00     0.067 C 
HETATM    5  C16 UNL     1      -4.054  -9.558  22.009  1.00  0.00     0.131 C 
HETATM    6  C17 UNL     1      -2.723  -9.302  22.570  1.00  0.00     0.057 C 
HETATM    7  C18 UNL     1      -2.534  -9.291  24.022  1.00  0.00     0.067 C 
HETATM    8  C19 UNL     1      -3.500  -8.540  24.864  1.00  0.00     0.013 C 
HETATM    9  C20 UNL     1      -2.825  -7.413  25.649  1.00  0.00     0.006 C 
HETATM   10  C21 UNL     1      -2.083  -6.508  24.668  1.00  0.00    -0.000 C 
HETATM   11  C22 UNL     1      -3.094  -5.723  23.898  1.00  0.00     0.011 C 
HETATM   12  C23 UNL     1      -1.104  -7.273  23.835  1.00  0.00     0.051 C 
HETATM   13  C24 UNL     1       0.300  -6.776  24.207  1.00  0.00     0.027 C 
HETATM   14  C25 UNL     1      -1.197  -8.689  24.246  1.00  0.00     0.143 C 
HETATM   15  O5  UNL     1      -0.280  -9.283  24.712  1.00  0.00    -0.297 OA
ENDROOT
BRANCH   3  16
HETATM   16  C6  UNL     1      -2.625  -7.370  19.382  1.00  0.00     0.036 C 
BRANCH  16  17
HETATM   17  C7  UNL     1      -2.901  -8.197  18.129  1.00  0.00     0.034 C 
BRANCH  17  18
HETATM   18  C8  UNL     1      -1.638  -8.841  17.619  1.00  0.00     0.273 C 
BRANCH  18  19
HETATM   19  N1  UNL     1      -1.830 -10.192  17.186  1.00  0.00     0.093 N 
HETATM   20  C9  UNL     1      -2.925 -10.338  16.255  1.00  0.00     0.303 C 
HETATM   21  C10 UNL     1      -3.016 -11.759  15.802  1.00  0.00     0.146 C 
HETATM   22  C11 UNL     1      -4.452 -12.280  15.868  1.00  0.00     0.041 C 
HETATM   23  O3  UNL     1      -2.137 -12.618  16.425  1.00  0.00    -0.378 OA
HETATM   24  C12 UNL     1      -2.111 -12.523  17.793  1.00  0.00     0.146 C 
HETATM   25  C13 UNL     1      -0.936 -13.367  18.293  1.00  0.00     0.041 C 
HETATM   26  C14 UNL     1      -1.879 -11.121  18.274  1.00  0.00     0.303 C 
ENDBRANCH  18  19
ENDBRANCH  17  18
ENDBRANCH  16  17
ENDBRANCH   3  16
BRANCH   1  27
HETATM   27  O2  UNL     1      -0.025  -7.333  21.769  1.00  0.00    -0.310 OA
BRANCH  27  28
HETATM   28  C2  UNL     1       0.546  -6.575  20.782  1.00  0.00     0.255 C 
HETATM   29  C1  UNL     1       0.808  -5.121  20.863  1.00  0.00     0.126 C 
HETATM   30  O1  UNL     1       0.888  -7.142  19.699  1.00  0.00    -0.266 OA
ENDBRANCH  27  28
ENDBRANCH   1  27
BRANCH   5  31
HETATM   31  O4  UNL     1      -5.008  -8.578  22.106  1.00  0.00    -0.395 OA
ATOM     32  H4  UNL     1      -5.668  -8.855  21.481  1.00  0.00     0.210 HD
ENDBRANCH   5  31
TORSDOF 7
ENDMDL
MODEL 5
REMARK VINA RESULT: -7.312772391      1.661      3.756
REMARK  7 active torsions:
REMARK  status: ('A' for Active; 'I' for Inactive)
REMARK    1  A    between atoms: C2_2  and  O2_4 
REMARK    2  A    between atoms: O2_4  and  C3_5 
REMARK    3  A    between atoms: C5_7  and  C6_8 
REMARK    4  A    between atoms: C6_8  and  C7_9 
REMARK    5  A    between atoms: C7_9  and  C8_10 
REMARK    6  A    between atoms: C8_10  and  N1_11 
REMARK    7  A    between atoms: C16_20  and  O4_21 
ROOT
HETATM    1  C3  UNL     1      -2.235  -5.858  21.425  1.00  0.00     0.177 C 
HETATM    2  C4  UNL     1      -2.084  -5.452  20.010  1.00  0.00    -0.040 C 
HETATM    3  C5  UNL     1      -1.522  -6.100  18.991  1.00  0.00    -0.072 C 
HETATM    4  C15 UNL     1      -1.634  -5.257  17.729  1.00  0.00     0.067 C 
HETATM    5  C16 UNL     1      -1.622  -3.856  18.387  1.00  0.00     0.131 C 
HETATM    6  C17 UNL     1      -2.574  -4.166  19.458  1.00  0.00     0.057 C 
HETATM    7  C18 UNL     1      -2.975  -3.122  20.401  1.00  0.00     0.067 C 
HETATM    8  C19 UNL     1      -1.926  -2.260  21.005  1.00  0.00     0.013 C 
HETATM    9  C20 UNL     1      -1.876  -2.394  22.528  1.00  0.00     0.006 C 
HETATM   10  C21 UNL     1      -1.695  -3.867  22.886  1.00  0.00    -0.000 C 
HETATM   11  C22 UNL     1      -0.297  -4.266  22.543  1.00  0.00     0.011 C 
HETATM   12  C23 UNL     1      -2.765  -4.723  22.285  1.00  0.00     0.051 C 
HETATM   13  C24 UNL     1      -3.588  -5.308  23.441  1.00  0.00     0.027 C 
HETATM   14  C25 UNL     1      -3.654  -3.829  21.514  1.00  0.00     0.143 C 
HETATM   15  O5  UNL     1      -4.807  -3.695  21.770  1.00  0.00    -0.297 OA
ENDROOT
BRANCH   3  16
HETATM   16  C6  UNL     1      -0.860  -7.438  18.945  1.00  0.00     0.036 C 
BRANCH  16  17
HETATM   17  C7  UNL     1      -1.461  -8.248  17.800  1.00  0.00     0.034 C 
BRANCH  17  18
HETATM   18  C8  UNL     1      -2.856  -8.708  18.136  1.00  0.00     0.273 C 
BRANCH  18  19
HETATM   19  N1  UNL     1      -3.036 -10.119  17.981  1.00  0.00     0.093 N 
HETATM   20  C9  UNL     1      -2.092 -10.899  18.748  1.00  0.00     0.303 C 
HETATM   21  C10 UNL     1      -2.390 -12.354  18.584  1.00  0.00     0.146 C 
HETATM   22  C11 UNL     1      -1.125 -13.157  18.281  1.00  0.00     0.041 C 
HETATM   23  O3  UNL     1      -3.397 -12.638  17.688  1.00  0.00    -0.378 OA
HETATM   24  C12 UNL     1      -3.284 -12.005  16.476  1.00  0.00     0.146 C 
HETATM   25  C13 UNL     1      -4.583 -12.247  15.705  1.00  0.00     0.041 C 
HETATM   26  C14 UNL     1      -3.124 -10.519  16.609  1.00  0.00     0.303 C 
ENDBRANCH  18  19
ENDBRANCH  17  18
ENDBRANCH  16  17
ENDBRANCH   3  16
BRANCH   1  27
HETATM   27  O2  UNL     1      -3.246  -6.859  21.482  1.00  0.00    -0.310 OA
BRANCH  27  28
HETATM   28  C2  UNL     1      -3.035  -8.183  21.762  1.00  0.00     0.255 C 
HETATM   29  C1  UNL     1      -4.043  -9.258  21.620  1.00  0.00     0.126 C 
HETATM   30  O1  UNL     1      -1.892  -8.543  22.177  1.00  0.00    -0.266 OA
ENDBRANCH  27  28
ENDBRANCH   1  27
BRANCH   5  31
HETATM   31  O4  UNL     1      -0.303  -3.671  18.712  1.00  0.00    -0.395 OA
ATOM     32  H4  UNL     1      -0.231  -4.076  19.568  1.00  0.00     0.210 HD
ENDBRANCH   5  31
TORSDOF 7
ENDMDL
