MODEL 1
REMARK VINA RESULT: -8.396669410      0.000      0.000
REMARK  12 active torsions:
REMARK  status: ('A' for Active; 'I' for Inactive)
REMARK    1  A    between atoms: O1_1  and  N1_3 
REMARK    2  A    between atoms: C1_5  and  O2_6 
REMARK    3  A    between atoms: C1_5  and  C2_8 
REMARK    4  A    between atoms: C2_8  and  C3_9 
REMARK    5  A    between atoms: C3_9  and  C4_10 
REMARK    6  A    between atoms: C4_10  and  C5_11 
REMARK    7  A    between atoms: C5_11  and  C6_12 
REMARK    8  A    between atoms: C6_12  and  C7_13 
REMARK    9  A    between atoms: C7_13  and  C8_14 
REMARK   10  A    between atoms: C8_14  and  C9_15 
REMARK   11  A    between atoms: C9_15  and  C10_16 
REMARK   12  A    between atoms: C10_16  and  N2_17 
ROOT
HETATM    1  C5  UNL     1     -48.703 112.978 -39.516  1.00  0.00     0.000 C 
ENDROOT
BRANCH   1   2
HETATM    2  C4  UNL     1     -49.451 113.669 -40.604  1.00  0.00     0.000 C 
BRANCH   2   3
HETATM    3  C3  UNL     1     -49.770 112.761 -41.763  1.00  0.00     0.008 C 
BRANCH   3   4
HETATM    4  C2  UNL     1     -51.257 112.942 -42.112  1.00  0.00     0.086 C 
BRANCH   4   5
HETATM    5  C1  UNL     1     -51.452 112.941 -43.573  1.00  0.00     0.135 C 
HETATM    6  N1  UNL     1     -50.594 112.342 -44.321  1.00  0.00    -0.251 N 
ATOM      7  H1  UNL     1     -49.806 111.887 -43.860  1.00  0.00     0.196 HD
BRANCH   6   8
HETATM    8  O1  UNL     1     -50.652 112.266 -45.672  1.00  0.00    -0.288 OA
ATOM      9  H1  UNL     1     -49.931 112.017 -46.239  1.00  0.00     0.244 HD
ENDBRANCH   6   8
BRANCH   5  10
HETATM   10  O2  UNL     1     -52.528 113.563 -44.181  1.00  0.00    -0.348 OA
ATOM     11  H2  UNL     1     -53.374 113.515 -43.752  1.00  0.00     0.219 HD
ENDBRANCH   5  10
ENDBRANCH   4   5
ENDBRANCH   3   4
ENDBRANCH   2   3
ENDBRANCH   1   2
BRANCH   1  12
HETATM   12  C6  UNL     1     -47.969 111.783 -40.061  1.00  0.00     0.000 C 
BRANCH  12  13
HETATM   13  C7  UNL     1     -47.086 111.104 -39.059  1.00  0.00     0.000 C 
BRANCH  13  14
HETATM   14  C8  UNL     1     -45.875 110.494 -39.721  1.00  0.00     0.002 C 
BRANCH  14  15
HETATM   15  C9  UNL     1     -44.731 110.250 -38.769  1.00  0.00     0.030 C 
BRANCH  15  16
HETATM   16  C10 UNL     1     -45.099 110.774 -37.422  1.00  0.00     0.272 C 
BRANCH  16  17
HETATM   17  N2  UNL     1     -43.926 111.358 -36.751  1.00  0.00     0.088 N 
HETATM   18  C11 UNL     1     -44.437 112.306 -35.818  1.00  0.00     0.272 C 
HETATM   19  C12 UNL     1     -43.482 113.371 -35.390  1.00  0.00     0.030 C 
HETATM   20  C13 UNL     1     -42.946 114.022 -36.667  1.00  0.00     0.003 C 
HETATM   21  C14 UNL     1     -42.114 112.934 -37.314  1.00  0.00     0.030 C 
HETATM   22  C15 UNL     1     -43.056 111.854 -37.752  1.00  0.00     0.272 C 
ENDBRANCH  16  17
ENDBRANCH  15  16
ENDBRANCH  14  15
ENDBRANCH  13  14
ENDBRANCH  12  13
ENDBRANCH   1  12
TORSDOF 12
ENDMDL
MODEL 2
REMARK VINA RESULT: -8.365774905      1.004      1.430
REMARK  12 active torsions:
REMARK  status: ('A' for Active; 'I' for Inactive)
REMARK    1  A    between atoms: O1_1  and  N1_3 
REMARK    2  A    between atoms: C1_5  and  O2_6 
REMARK    3  A    between atoms: C1_5  and  C2_8 
REMARK    4  A    between atoms: C2_8  and  C3_9 
REMARK    5  A    between atoms: C3_9  and  C4_10 
REMARK    6  A    between atoms: C4_10  and  C5_11 
REMARK    7  A    between atoms: C5_11  and  C6_12 
REMARK    8  A    between atoms: C6_12  and  C7_13 
REMARK    9  A    between atoms: C7_13  and  C8_14 
REMARK   10  A    between atoms: C8_14  and  C9_15 
REMARK   11  A    between atoms: C9_15  and  C10_16 
REMARK   12  A    between atoms: C10_16  and  N2_17 
ROOT
HETATM    1  C5  UNL     1     -47.993 111.756 -40.050  1.00  0.00     0.000 C 
ENDROOT
BRANCH   1   2
HETATM    2  C4  UNL     1     -48.701 112.963 -39.539  1.00  0.00     0.000 C 
BRANCH   2   3
HETATM    3  C3  UNL     1     -49.918 113.317 -40.354  1.00  0.00     0.008 C 
BRANCH   3   4
HETATM    4  C2  UNL     1     -49.516 113.300 -41.839  1.00  0.00     0.086 C 
BRANCH   4   5
HETATM    5  C1  UNL     1     -50.615 112.775 -42.668  1.00  0.00     0.135 C 
HETATM    6  N1  UNL     1     -50.389 112.489 -43.903  1.00  0.00    -0.251 N 
ATOM      7  H1  UNL     1     -49.444 112.641 -44.254  1.00  0.00     0.196 HD
BRANCH   6   8
HETATM    8  O1  UNL     1     -51.305 112.002 -44.774  1.00  0.00    -0.288 OA
ATOM      9  H1  UNL     1     -51.180 111.246 -45.336  1.00  0.00     0.244 HD
ENDBRANCH   6   8
BRANCH   5  10
HETATM   10  O2  UNL     1     -51.891 112.573 -42.175  1.00  0.00    -0.348 OA
ATOM     11  H2  UNL     1     -51.983 112.284 -41.275  1.00  0.00     0.219 HD
ENDBRANCH   5  10
ENDBRANCH   4   5
ENDBRANCH   3   4
ENDBRANCH   2   3
ENDBRANCH   1   2
BRANCH   1  12
HETATM   12  C6  UNL     1     -47.040 111.228 -39.012  1.00  0.00     0.000 C 
BRANCH  12  13
HETATM   13  C7  UNL     1     -45.872 110.484 -39.581  1.00  0.00     0.000 C 
BRANCH  13  14
HETATM   14  C8  UNL     1     -45.003 109.909 -38.490  1.00  0.00     0.002 C 
BRANCH  14  15
HETATM   15  C9  UNL     1     -43.867 110.816 -38.089  1.00  0.00     0.030 C 
BRANCH  15  16
HETATM   16  C10 UNL     1     -44.117 111.331 -36.712  1.00  0.00     0.272 C 
BRANCH  16  17
HETATM   17  N2  UNL     1     -42.954 112.086 -36.217  1.00  0.00     0.088 N 
HETATM   18  C11 UNL     1     -43.407 112.801 -35.071  1.00  0.00     0.272 C 
HETATM   19  C12 UNL     1     -42.600 114.000 -34.696  1.00  0.00     0.030 C 
HETATM   20  C13 UNL     1     -42.508 114.878 -35.947  1.00  0.00     0.003 C 
HETATM   21  C14 UNL     1     -41.657 114.069 -36.903  1.00  0.00     0.030 C 
HETATM   22  C15 UNL     1     -42.450 112.859 -37.292  1.00  0.00     0.272 C 
ENDBRANCH  16  17
ENDBRANCH  15  16
ENDBRANCH  14  15
ENDBRANCH  13  14
ENDBRANCH  12  13
ENDBRANCH   1  12
TORSDOF 12
ENDMDL
MODEL 3
REMARK VINA RESULT: -8.154539595      1.873      2.580
REMARK  12 active torsions:
REMARK  status: ('A' for Active; 'I' for Inactive)
REMARK    1  A    between atoms: O1_1  and  N1_3 
REMARK    2  A    between atoms: C1_5  and  O2_6 
REMARK    3  A    between atoms: C1_5  and  C2_8 
REMARK    4  A    between atoms: C2_8  and  C3_9 
REMARK    5  A    between atoms: C3_9  and  C4_10 
REMARK    6  A    between atoms: C4_10  and  C5_11 
REMARK    7  A    between atoms: C5_11  and  C6_12 
REMARK    8  A    between atoms: C6_12  and  C7_13 
REMARK    9  A    between atoms: C7_13  and  C8_14 
REMARK   10  A    between atoms: C8_14  and  C9_15 
REMARK   11  A    between atoms: C9_15  and  C10_16 
REMARK   12  A    between atoms: C10_16  and  N2_17 
ROOT
HETATM    1  C5  UNL     1     -47.995 112.201 -39.600  1.00  0.00     0.000 C 
ENDROOT
BRANCH   1   2
HETATM    2  C4  UNL     1     -49.079 112.035 -40.610  1.00  0.00     0.000 C 
BRANCH   2   3
HETATM    3  C3  UNL     1     -49.698 113.344 -41.025  1.00  0.00     0.008 C 
BRANCH   3   4
HETATM    4  C2  UNL     1     -50.789 113.043 -42.067  1.00  0.00     0.086 C 
BRANCH   4   5
HETATM    5  C1  UNL     1     -52.104 112.903 -41.418  1.00  0.00     0.135 C 
HETATM    6  N1  UNL     1     -52.385 113.639 -40.401  1.00  0.00    -0.251 N 
ATOM      7  H1  UNL     1     -51.672 114.298 -40.088  1.00  0.00     0.196 HD
BRANCH   6   8
HETATM    8  O1  UNL     1     -53.551 113.612 -39.713  1.00  0.00    -0.288 OA
ATOM      9  H1  UNL     1     -54.045 112.828 -39.500  1.00  0.00     0.244 HD
ENDBRANCH   6   8
BRANCH   5  10
HETATM   10  O2  UNL     1     -53.060 112.006 -41.858  1.00  0.00    -0.348 OA
ATOM     11  H2  UNL     1     -53.045 111.746 -42.772  1.00  0.00     0.219 HD
ENDBRANCH   5  10
ENDBRANCH   4   5
ENDBRANCH   3   4
ENDBRANCH   2   3
ENDBRANCH   1   2
BRANCH   1  12
HETATM   12  C6  UNL     1     -47.049 111.032 -39.649  1.00  0.00     0.000 C 
BRANCH  12  13
HETATM   13  C7  UNL     1     -46.154 110.924 -38.453  1.00  0.00     0.000 C 
BRANCH  13  14
HETATM   14  C8  UNL     1     -44.875 110.199 -38.789  1.00  0.00     0.002 C 
BRANCH  14  15
HETATM   15  C9  UNL     1     -43.704 110.621 -37.936  1.00  0.00     0.030 C 
BRANCH  15  16
HETATM   16  C10 UNL     1     -44.212 111.367 -36.749  1.00  0.00     0.272 C 
BRANCH  16  17
HETATM   17  N2  UNL     1     -43.742 112.762 -36.769  1.00  0.00     0.088 N 
HETATM   18  C11 UNL     1     -42.475 112.743 -37.419  1.00  0.00     0.272 C 
HETATM   19  C12 UNL     1     -41.579 113.900 -37.124  1.00  0.00     0.030 C 
HETATM   20  C13 UNL     1     -41.464 113.992 -35.600  1.00  0.00     0.003 C 
HETATM   21  C14 UNL     1     -42.852 114.398 -35.151  1.00  0.00     0.030 C 
HETATM   22  C15 UNL     1     -43.769 113.247 -35.438  1.00  0.00     0.272 C 
ENDBRANCH  16  17
ENDBRANCH  15  16
ENDBRANCH  14  15
ENDBRANCH  13  14
ENDBRANCH  12  13
ENDBRANCH   1  12
TORSDOF 12
ENDMDL
MODEL 4
REMARK VINA RESULT: -8.126796695      1.197      1.304
REMARK  12 active torsions:
REMARK  status: ('A' for Active; 'I' for Inactive)
REMARK    1  A    between atoms: O1_1  and  N1_3 
REMARK    2  A    between atoms: C1_5  and  O2_6 
REMARK    3  A    between atoms: C1_5  and  C2_8 
REMARK    4  A    between atoms: C2_8  and  C3_9 
REMARK    5  A    between atoms: C3_9  and  C4_10 
REMARK    6  A    between atoms: C4_10  and  C5_11 
REMARK    7  A    between atoms: C5_11  and  C6_12 
REMARK    8  A    between atoms: C6_12  and  C7_13 
REMARK    9  A    between atoms: C7_13  and  C8_14 
REMARK   10  A    between atoms: C8_14  and  C9_15 
REMARK   11  A    between atoms: C9_15  and  C10_16 
REMARK   12  A    between atoms: C10_16  and  N2_17 
ROOT
HETATM    1  C5  UNL     1     -48.700 112.997 -39.622  1.00  0.00     0.000 C 
ENDROOT
BRANCH   1   2
HETATM    2  C4  UNL     1     -49.515 113.443 -40.787  1.00  0.00     0.000 C 
BRANCH   2   3
HETATM    3  C3  UNL     1     -49.808 112.328 -41.758  1.00  0.00     0.008 C 
BRANCH   3   4
HETATM    4  C2  UNL     1     -50.451 112.947 -43.011  1.00  0.00     0.086 C 
BRANCH   4   5
HETATM    5  C1  UNL     1     -51.919 112.969 -42.886  1.00  0.00     0.135 C 
HETATM    6  N1  UNL     1     -52.614 113.612 -43.757  1.00  0.00    -0.251 N 
ATOM      7  H1  UNL     1     -52.108 114.083 -44.506  1.00  0.00     0.196 HD
BRANCH   6   8
HETATM    8  O1  UNL     1     -53.965 113.714 -43.760  1.00  0.00    -0.288 OA
ATOM      9  H1  UNL     1     -54.489 114.086 -43.060  1.00  0.00     0.244 HD
ENDBRANCH   6   8
BRANCH   5  10
HETATM   10  O2  UNL     1     -52.590 112.322 -41.863  1.00  0.00    -0.348 OA
ATOM     11  H2  UNL     1     -52.894 112.842 -41.128  1.00  0.00     0.219 HD
ENDBRANCH   5  10
ENDBRANCH   4   5
ENDBRANCH   3   4
ENDBRANCH   2   3
ENDBRANCH   1   2
BRANCH   1  12
HETATM   12  C6  UNL     1     -47.994 111.706 -39.940  1.00  0.00     0.000 C 
BRANCH  12  13
HETATM   13  C7  UNL     1     -46.917 111.346 -38.963  1.00  0.00     0.000 C 
BRANCH  13  14
HETATM   14  C8  UNL     1     -45.880 110.452 -39.596  1.00  0.00     0.002 C 
BRANCH  14  15
HETATM   15  C9  UNL     1     -44.670 110.227 -38.723  1.00  0.00     0.030 C 
BRANCH  15  16
HETATM   16  C10 UNL     1     -44.997 110.630 -37.325  1.00  0.00     0.272 C 
BRANCH  16  17
HETATM   17  N2  UNL     1     -43.849 111.302 -36.694  1.00  0.00     0.088 N 
HETATM   18  C11 UNL     1     -44.398 112.234 -35.768  1.00  0.00     0.272 C 
HETATM   19  C12 UNL     1     -43.503 113.366 -35.384  1.00  0.00     0.030 C 
HETATM   20  C13 UNL     1     -43.040 114.024 -36.686  1.00  0.00     0.003 C 
HETATM   21  C14 UNL     1     -42.155 112.978 -37.332  1.00  0.00     0.030 C 
HETATM   22  C15 UNL     1     -43.035 111.831 -37.726  1.00  0.00     0.272 C 
ENDBRANCH  16  17
ENDBRANCH  15  16
ENDBRANCH  14  15
ENDBRANCH  13  14
ENDBRANCH  12  13
ENDBRANCH   1  12
TORSDOF 12
ENDMDL
MODEL 5
REMARK VINA RESULT: -7.987051887      4.817      9.423
REMARK  12 active torsions:
REMARK  status: ('A' for Active; 'I' for Inactive)
REMARK    1  A    between atoms: O1_1  and  N1_3 
REMARK    2  A    between atoms: C1_5  and  O2_6 
REMARK    3  A    between atoms: C1_5  and  C2_8 
REMARK    4  A    between atoms: C2_8  and  C3_9 
REMARK    5  A    between atoms: C3_9  and  C4_10 
REMARK    6  A    between atoms: C4_10  and  C5_11 
REMARK    7  A    between atoms: C5_11  and  C6_12 
REMARK    8  A    between atoms: C6_12  and  C7_13 
REMARK    9  A    between atoms: C7_13  and  C8_14 
REMARK   10  A    between atoms: C8_14  and  C9_15 
REMARK   11  A    between atoms: C9_15  and  C10_16 
REMARK   12  A    between atoms: C10_16  and  N2_17 
ROOT
HETATM    1  C5  UNL     1     -51.110 112.873 -44.134  1.00  0.00     0.000 C 
ENDROOT
BRANCH   1   2
HETATM    2  C4  UNL     1     -49.999 112.847 -43.141  1.00  0.00     0.000 C 
BRANCH   2   3
HETATM    3  C3  UNL     1     -50.481 112.652 -41.727  1.00  0.00     0.008 C 
BRANCH   3   4
HETATM    4  C2  UNL     1     -49.635 113.549 -40.808  1.00  0.00     0.086 C 
BRANCH   4   5
HETATM    5  C1  UNL     1     -48.803 112.733 -39.907  1.00  0.00     0.135 C 
HETATM    6  N1  UNL     1     -48.054 111.813 -40.404  1.00  0.00    -0.251 N 
ATOM      7  H1  UNL     1     -48.071 111.690 -41.416  1.00  0.00     0.196 HD
BRANCH   6   8
HETATM    8  O1  UNL     1     -47.245 110.993 -39.692  1.00  0.00    -0.288 OA
ATOM      9  H1  UNL     1     -46.616 110.384 -40.063  1.00  0.00     0.244 HD
ENDBRANCH   6   8
BRANCH   5  10
HETATM   10  O2  UNL     1     -48.792 112.914 -38.535  1.00  0.00    -0.348 OA
ATOM     11  H2  UNL     1     -49.608 113.146 -38.107  1.00  0.00     0.219 HD
ENDBRANCH   5  10
ENDBRANCH   4   5
ENDBRANCH   3   4
ENDBRANCH   2   3
ENDBRANCH   1   2
BRANCH   1  12
HETATM   12  C6  UNL     1     -52.441 112.834 -43.432  1.00  0.00     0.000 C 
BRANCH  12  13
HETATM   13  C7  UNL     1     -53.338 113.987 -43.767  1.00  0.00     0.000 C 
BRANCH  13  14
HETATM   14  C8  UNL     1     -54.492 114.081 -42.799  1.00  0.00     0.002 C 
BRANCH  14  15
HETATM   15  C9  UNL     1     -54.068 114.009 -41.353  1.00  0.00     0.030 C 
BRANCH  15  16
HETATM   16  C10 UNL     1     -55.065 113.203 -40.593  1.00  0.00     0.272 C 
BRANCH  16  17
HETATM   17  N2  UNL     1     -55.711 114.018 -39.551  1.00  0.00     0.088 N 
HETATM   18  C11 UNL     1     -56.936 114.479 -40.114  1.00  0.00     0.272 C 
HETATM   19  C12 UNL     1     -57.519 115.700 -39.483  1.00  0.00     0.030 C 
HETATM   20  C13 UNL     1     -56.421 116.768 -39.492  1.00  0.00     0.003 C 
HETATM   21  C14 UNL     1     -55.384 116.237 -38.525  1.00  0.00     0.030 C 
HETATM   22  C15 UNL     1     -54.786 115.008 -39.140  1.00  0.00     0.272 C 
ENDBRANCH  16  17
ENDBRANCH  15  16
ENDBRANCH  14  15
ENDBRANCH  13  14
ENDBRANCH  12  13
ENDBRANCH   1  12
TORSDOF 12
ENDMDL
