MODEL 1
REMARK VINA RESULT: -6.434617113      0.000      0.000
REMARK  7 active torsions:
REMARK  status: ('A' for Active; 'I' for Inactive)
REMARK    1  A    between atoms: O1_2  and  C2_3 
REMARK    2  A    between atoms: C2_3  and  C3_4 
REMARK    3  A    between atoms: C3_4  and  C4_5 
REMARK    4  A    between atoms: C4_5  and  N1_6 
REMARK    5  A    between atoms: C5_8  and  C6_9 
REMARK    6  A    between atoms: C11_15  and  O2_16 
REMARK    7  A    between atoms: C12_18  and  O3_19 
ROOT
HETATM    1  N1  UNL     1      10.175  -7.691  -4.487  1.00  0.00    -0.398 N 
ATOM      2  H1  UNL     1      10.898  -7.028  -4.766  1.00  0.00     0.158 HD
HETATM    3  C5  UNL     1      10.028  -7.928  -3.240  1.00  0.00     0.097 C 
ENDROOT
BRANCH   3   4
HETATM    4  C6  UNL     1      10.842  -7.288  -2.232  1.00  0.00     0.022 A 
HETATM    5  C7  UNL     1      10.331  -6.372  -1.341  1.00  0.00    -0.030 A 
HETATM    6  C8  UNL     1       8.875  -6.013  -1.306  1.00  0.00     0.050 C 
HETATM    7  C9  UNL     1      11.168  -5.765  -0.411  1.00  0.00     0.020 A 
HETATM    8 BR1  UNL     1      10.427  -4.499   0.804  1.00  0.00    -0.050 Br
HETATM    9  C10 UNL     1      12.507  -6.077  -0.378  1.00  0.00     0.059 A 
HETATM   10  C11 UNL     1      13.011  -6.973  -1.247  1.00  0.00     0.101 A 
HETATM   11  C12 UNL     1      12.203  -7.588  -2.177  1.00  0.00     0.111 A 
BRANCH  10  12
HETATM   12  O2  UNL     1      14.372  -7.284  -1.204  1.00  0.00    -0.358 OA
ATOM     13  H2  UNL     1      14.713  -7.973  -1.762  1.00  0.00     0.217 HD
ENDBRANCH  10  12
BRANCH  11  14
HETATM   14  O3  UNL     1      12.799  -8.502  -3.038  1.00  0.00    -0.357 OA
ATOM     15  H3  UNL     1      12.865  -9.428  -2.833  1.00  0.00     0.217 HD
ENDBRANCH  11  14
ENDBRANCH   3   4
BRANCH   1  16
HETATM   16  C4  UNL     1       9.388  -8.299  -5.518  1.00  0.00     0.122 C 
BRANCH  16  17
HETATM   17  C3  UNL     1       8.035  -8.694  -5.110  1.00  0.00     0.057 C 
BRANCH  17  18
HETATM   18  C2  UNL     1       7.623 -10.105  -5.157  1.00  0.00     0.062 C 
HETATM   19  C13 UNL     1       8.522 -10.989  -5.968  1.00  0.00     0.038 C 
HETATM   20  C14 UNL     1       8.017 -12.366  -6.118  1.00  0.00     0.003 C 
HETATM   21  C15 UNL     1       7.194 -12.923  -5.039  1.00  0.00     0.000 C 
HETATM   22  C16 UNL     1       6.768 -12.032  -3.949  1.00  0.00     0.003 C 
HETATM   23  C17 UNL     1       7.590 -10.768  -3.766  1.00  0.00     0.038 C 
BRANCH  18  24
HETATM   24  O1  UNL     1       6.298 -10.208  -5.582  1.00  0.00    -0.385 OA
HETATM   25  C1  UNL     1       5.569  -9.072  -5.634  1.00  0.00     0.202 C 
ENDBRANCH  18  24
ENDBRANCH  17  18
ENDBRANCH  16  17
ENDBRANCH   1  16
TORSDOF 7
ENDMDL
MODEL 2
REMARK VINA RESULT: -6.235939331      2.399      3.336
REMARK  7 active torsions:
REMARK  status: ('A' for Active; 'I' for Inactive)
REMARK    1  A    between atoms: O1_2  and  C2_3 
REMARK    2  A    between atoms: C2_3  and  C3_4 
REMARK    3  A    between atoms: C3_4  and  C4_5 
REMARK    4  A    between atoms: C4_5  and  N1_6 
REMARK    5  A    between atoms: C5_8  and  C6_9 
REMARK    6  A    between atoms: C11_15  and  O2_16 
REMARK    7  A    between atoms: C12_18  and  O3_19 
ROOT
HETATM    1  N1  UNL     1       9.152  -8.527  -2.712  1.00  0.00    -0.398 N 
ATOM      2  H1  UNL     1       9.481  -8.911  -1.826  1.00  0.00     0.158 HD
HETATM    3  C5  UNL     1       9.985  -7.875  -3.428  1.00  0.00     0.097 C 
ENDROOT
BRANCH   3   4
HETATM    4  C6  UNL     1      11.357  -7.675  -3.026  1.00  0.00     0.022 A 
HETATM    5  C7  UNL     1      12.421  -8.130  -3.772  1.00  0.00    -0.030 A 
HETATM    6  C8  UNL     1      12.239  -8.814  -5.094  1.00  0.00     0.050 C 
HETATM    7  C9  UNL     1      13.721  -7.935  -3.320  1.00  0.00     0.020 A 
HETATM    8 BR1  UNL     1      15.169  -8.581  -4.377  1.00  0.00    -0.050 Br
HETATM    9  C10 UNL     1      13.950  -7.288  -2.128  1.00  0.00     0.059 A 
HETATM   10  C11 UNL     1      12.913  -6.841  -1.395  1.00  0.00     0.101 A 
HETATM   11  C12 UNL     1      11.616  -7.022  -1.821  1.00  0.00     0.111 A 
BRANCH  10  12
HETATM   12  O2  UNL     1      13.156  -6.184  -0.186  1.00  0.00    -0.358 OA
ATOM     13  H2  UNL     1      12.572  -6.326   0.549  1.00  0.00     0.217 HD
ENDBRANCH  10  12
BRANCH  11  14
HETATM   14  O3  UNL     1      10.601  -6.530  -1.008  1.00  0.00    -0.357 OA
ATOM     15  H3  UNL     1      10.651  -6.555  -0.059  1.00  0.00     0.217 HD
ENDBRANCH  11  14
ENDBRANCH   3   4
BRANCH   1  16
HETATM   16  C4  UNL     1       7.784  -8.753  -3.075  1.00  0.00     0.122 C 
BRANCH  16  17
HETATM   17  C3  UNL     1       7.511 -10.070  -3.663  1.00  0.00     0.057 C 
BRANCH  17  18
HETATM   18  C2  UNL     1       7.336 -10.217  -5.116  1.00  0.00     0.062 C 
HETATM   19  C13 UNL     1       6.589  -9.093  -5.770  1.00  0.00     0.038 C 
HETATM   20  C14 UNL     1       6.302  -9.326  -7.197  1.00  0.00     0.003 C 
HETATM   21  C15 UNL     1       7.243 -10.148  -7.966  1.00  0.00     0.000 C 
HETATM   22  C16 UNL     1       8.323 -10.840  -7.247  1.00  0.00     0.003 C 
HETATM   23  C17 UNL     1       8.673 -10.280  -5.879  1.00  0.00     0.038 C 
BRANCH  18  24
HETATM   24  O1  UNL     1       6.751 -11.449  -5.410  1.00  0.00    -0.385 OA
HETATM   25  C1  UNL     1       5.897 -11.967  -4.500  1.00  0.00     0.202 C 
ENDBRANCH  18  24
ENDBRANCH  17  18
ENDBRANCH  16  17
ENDBRANCH   1  16
TORSDOF 7
ENDMDL
MODEL 3
REMARK VINA RESULT: -6.183987285      2.254      2.792
REMARK  7 active torsions:
REMARK  status: ('A' for Active; 'I' for Inactive)
REMARK    1  A    between atoms: O1_2  and  C2_3 
REMARK    2  A    between atoms: C2_3  and  C3_4 
REMARK    3  A    between atoms: C3_4  and  C4_5 
REMARK    4  A    between atoms: C4_5  and  N1_6 
REMARK    5  A    between atoms: C5_8  and  C6_9 
REMARK    6  A    between atoms: C11_15  and  O2_16 
REMARK    7  A    between atoms: C12_18  and  O3_19 
ROOT
HETATM    1  N1  UNL     1       9.243  -8.487  -2.784  1.00  0.00    -0.398 N 
ATOM      2  H1  UNL     1       9.499  -8.830  -1.858  1.00  0.00     0.158 HD
HETATM    3  C5  UNL     1      10.134  -7.872  -3.462  1.00  0.00     0.097 C 
ENDROOT
BRANCH   3   4
HETATM    4  C6  UNL     1      11.473  -7.657  -2.963  1.00  0.00     0.022 A 
HETATM    5  C7  UNL     1      12.589  -8.134  -3.611  1.00  0.00    -0.030 A 
HETATM    6  C8  UNL     1      12.507  -8.860  -4.921  1.00  0.00     0.050 C 
HETATM    7  C9  UNL     1      13.852  -7.924  -3.068  1.00  0.00     0.020 A 
HETATM    8 BR1  UNL     1      15.375  -8.601  -3.992  1.00  0.00    -0.050 Br
HETATM    9  C10 UNL     1      13.990  -7.240  -1.883  1.00  0.00     0.059 A 
HETATM   10  C11 UNL     1      12.901  -6.771  -1.246  1.00  0.00     0.101 A 
HETATM   11  C12 UNL     1      11.640  -6.966  -1.763  1.00  0.00     0.111 A 
BRANCH  10  12
HETATM   12  O2  UNL     1      13.052  -6.076  -0.043  1.00  0.00    -0.358 OA
ATOM     13  H2  UNL     1      13.129  -6.560   0.771  1.00  0.00     0.217 HD
ENDBRANCH  10  12
BRANCH  11  14
HETATM   14  O3  UNL     1      10.566  -6.450  -1.045  1.00  0.00    -0.357 OA
ATOM     15  H3  UNL     1      10.160  -5.620  -1.263  1.00  0.00     0.217 HD
ENDBRANCH  11  14
ENDBRANCH   3   4
BRANCH   1  16
HETATM   16  C4  UNL     1       7.907  -8.725  -3.242  1.00  0.00     0.122 C 
BRANCH  16  17
HETATM   17  C3  UNL     1       7.796  -9.084  -4.661  1.00  0.00     0.057 C 
BRANCH  17  18
HETATM   18  C2  UNL     1       7.412 -10.446  -5.059  1.00  0.00     0.062 C 
HETATM   19  C13 UNL     1       8.408 -11.141  -5.938  1.00  0.00     0.038 C 
HETATM   20  C14 UNL     1       7.942 -12.447  -6.440  1.00  0.00     0.003 C 
HETATM   21  C15 UNL     1       7.014 -13.217  -5.606  1.00  0.00     0.000 C 
HETATM   22  C16 UNL     1       6.457 -12.582  -4.402  1.00  0.00     0.003 C 
HETATM   23  C17 UNL     1       7.235 -11.396  -3.859  1.00  0.00     0.038 C 
BRANCH  18  24
HETATM   24  O1  UNL     1       6.144 -10.441  -5.641  1.00  0.00    -0.385 OA
HETATM   25  C1  UNL     1       5.777  -9.336  -6.327  1.00  0.00     0.202 C 
ENDBRANCH  18  24
ENDBRANCH  17  18
ENDBRANCH  16  17
ENDBRANCH   1  16
TORSDOF 7
ENDMDL
MODEL 4
REMARK VINA RESULT: -6.182611126      2.196      2.743
REMARK  7 active torsions:
REMARK  status: ('A' for Active; 'I' for Inactive)
REMARK    1  A    between atoms: O1_2  and  C2_3 
REMARK    2  A    between atoms: C2_3  and  C3_4 
REMARK    3  A    between atoms: C3_4  and  C4_5 
REMARK    4  A    between atoms: C4_5  and  N1_6 
REMARK    5  A    between atoms: C5_8  and  C6_9 
REMARK    6  A    between atoms: C11_15  and  O2_16 
REMARK    7  A    between atoms: C12_18  and  O3_19 
ROOT
HETATM    1  N1  UNL     1       8.760  -8.484  -3.713  1.00  0.00    -0.398 N 
ATOM      2  H1  UNL     1       8.527  -8.608  -2.727  1.00  0.00     0.158 HD
HETATM    3  C5  UNL     1       9.868  -7.918  -4.000  1.00  0.00     0.097 C 
ENDROOT
BRANCH   3   4
HETATM    4  C6  UNL     1      10.787  -7.460  -2.983  1.00  0.00     0.022 A 
HETATM    5  C7  UNL     1      12.138  -7.721  -3.036  1.00  0.00    -0.030 A 
HETATM    6  C8  UNL     1      12.771  -8.447  -4.185  1.00  0.00     0.050 C 
HETATM    7  C9  UNL     1      12.971  -7.282  -2.013  1.00  0.00     0.020 A 
HETATM    8 BR1  UNL     1      14.835  -7.664  -2.117  1.00  0.00    -0.050 Br
HETATM    9  C10 UNL     1      12.451  -6.586  -0.947  1.00  0.00     0.059 A 
HETATM   10  C11 UNL     1      11.130  -6.328  -0.892  1.00  0.00     0.101 A 
HETATM   11  C12 UNL     1      10.285  -6.752  -1.893  1.00  0.00     0.111 A 
BRANCH  10  12
HETATM   12  O2  UNL     1      10.612  -5.620   0.194  1.00  0.00    -0.358 OA
ATOM     13  H2  UNL     1      10.075  -4.852   0.039  1.00  0.00     0.217 HD
ENDBRANCH  10  12
BRANCH  11  14
HETATM   14  O3  UNL     1       8.934  -6.445  -1.762  1.00  0.00    -0.357 OA
ATOM     15  H3  UNL     1       8.559  -6.135  -0.947  1.00  0.00     0.217 HD
ENDBRANCH  11  14
ENDBRANCH   3   4
BRANCH   1  16
HETATM   16  C4  UNL     1       7.823  -8.956  -4.688  1.00  0.00     0.122 C 
BRANCH  16  17
HETATM   17  C3  UNL     1       8.245 -10.157  -5.419  1.00  0.00     0.057 C 
BRANCH  17  18
HETATM   18  C2  UNL     1       7.430 -11.380  -5.382  1.00  0.00     0.062 C 
HETATM   19  C13 UNL     1       8.205 -12.650  -5.568  1.00  0.00     0.038 C 
HETATM   20  C14 UNL     1       7.355 -13.851  -5.668  1.00  0.00     0.003 C 
HETATM   21  C15 UNL     1       6.074 -13.853  -4.953  1.00  0.00     0.000 C 
HETATM   22  C16 UNL     1       5.620 -12.605  -4.321  1.00  0.00     0.003 C 
HETATM   23  C17 UNL     1       6.698 -11.573  -4.040  1.00  0.00     0.038 C 
BRANCH  18  24
HETATM   24  O1  UNL     1       6.382 -11.291  -6.298  1.00  0.00    -0.385 OA
HETATM   25  C1  UNL     1       6.683 -10.893  -7.554  1.00  0.00     0.202 C 
ENDBRANCH  18  24
ENDBRANCH  17  18
ENDBRANCH  16  17
ENDBRANCH   1  16
TORSDOF 7
ENDMDL
MODEL 5
REMARK VINA RESULT: -6.182569152      4.481      7.554
REMARK  7 active torsions:
REMARK  status: ('A' for Active; 'I' for Inactive)
REMARK    1  A    between atoms: O1_2  and  C2_3 
REMARK    2  A    between atoms: C2_3  and  C3_4 
REMARK    3  A    between atoms: C3_4  and  C4_5 
REMARK    4  A    between atoms: C4_5  and  N1_6 
REMARK    5  A    between atoms: C5_8  and  C6_9 
REMARK    6  A    between atoms: C11_15  and  O2_16 
REMARK    7  A    between atoms: C12_18  and  O3_19 
ROOT
HETATM    1  N1  UNL     1      11.633  -8.147  -4.457  1.00  0.00    -0.398 N 
ATOM      2  H1  UNL     1      11.508  -8.675  -3.593  1.00  0.00     0.158 HD
HETATM    3  C5  UNL     1      10.669  -8.135  -5.296  1.00  0.00     0.097 C 
ENDROOT
BRANCH   3   4
HETATM    4  C6  UNL     1       9.427  -8.832  -5.055  1.00  0.00     0.022 A 
HETATM    5  C7  UNL     1       8.944  -9.799  -5.908  1.00  0.00    -0.030 A 
HETATM    6  C8  UNL     1       9.702 -10.248  -7.121  1.00  0.00     0.050 C 
HETATM    7  C9  UNL     1       7.727 -10.415  -5.642  1.00  0.00     0.020 A 
HETATM    8 BR1  UNL     1       7.088 -11.746  -6.846  1.00  0.00    -0.050 Br
HETATM    9  C10 UNL     1       7.002 -10.064  -4.527  1.00  0.00     0.059 A 
HETATM   10  C11 UNL     1       7.471  -9.119  -3.690  1.00  0.00     0.101 A 
HETATM   11  C12 UNL     1       8.673  -8.494  -3.932  1.00  0.00     0.111 A 
BRANCH  10  12
HETATM   12  O2  UNL     1       6.727  -8.770  -2.560  1.00  0.00    -0.358 OA
ATOM     13  H2  UNL     1       5.806  -9.000  -2.516  1.00  0.00     0.217 HD
ENDBRANCH  10  12
BRANCH  11  14
HETATM   14  O3  UNL     1       9.088  -7.530  -3.019  1.00  0.00    -0.357 OA
ATOM     15  H3  UNL     1       8.867  -7.574  -2.096  1.00  0.00     0.217 HD
ENDBRANCH  11  14
ENDBRANCH   3   4
BRANCH   1  16
HETATM   16  C4  UNL     1      12.878  -7.467  -4.653  1.00  0.00     0.122 C 
BRANCH  16  17
HETATM   17  C3  UNL     1      13.368  -7.465  -6.037  1.00  0.00     0.057 C 
BRANCH  17  18
HETATM   18  C2  UNL     1      13.629  -6.196  -6.735  1.00  0.00     0.062 C 
HETATM   19  C13 UNL     1      12.421  -5.324  -6.912  1.00  0.00     0.038 C 
HETATM   20  C14 UNL     1      12.673  -4.127  -7.734  1.00  0.00     0.003 C 
HETATM   21  C15 UNL     1      14.021  -3.547  -7.716  1.00  0.00     0.000 C 
HETATM   22  C16 UNL     1      15.093  -4.280  -7.025  1.00  0.00     0.003 C 
HETATM   23  C17 UNL     1      14.641  -5.301  -5.996  1.00  0.00     0.038 C 
BRANCH  18  24
HETATM   24  O1  UNL     1      14.259  -6.437  -7.956  1.00  0.00    -0.385 OA
HETATM   25  C1  UNL     1      13.924  -7.565  -8.619  1.00  0.00     0.202 C 
ENDBRANCH  18  24
ENDBRANCH  17  18
ENDBRANCH  16  17
ENDBRANCH   1  16
TORSDOF 7
ENDMDL
