MODEL 1
REMARK VINA RESULT: -7.434366491      0.000      0.000
REMARK  15 active torsions:
REMARK  status: ('A' for Active; 'I' for Inactive)
REMARK    1  A    between atoms: C2_2  and  C3_3 
REMARK    2  A    between atoms: C3_3  and  C4_4 
REMARK    3  A    between atoms: C4_4  and  N1_5 
REMARK    4  A    between atoms: C4_4  and  C28_36 
REMARK       I    between atoms: N1_5  and  C5_7 
REMARK    5  A    between atoms: C5_7  and  C6_9 
REMARK    6  A    between atoms: C6_9  and  C7_10 
REMARK    7  A    between atoms: C6_9  and  N2_14 
REMARK    8  A    between atoms: C7_10  and  C8_11 
REMARK       I    between atoms: N2_14  and  C11_15 
REMARK    9  A    between atoms: N2_14  and  C14_20 
REMARK   10  A    between atoms: C11_15  and  O3_17 
REMARK   11  A    between atoms: O3_17  and  C12_18 
REMARK   12  A    between atoms: C14_20  and  C15_21 
REMARK   13  A    between atoms: C15_21  and  O5_23 
REMARK   14  A    between atoms: O5_23  and  C16_24 
REMARK       I    between atoms: C28_36  and  N3_38 
REMARK   15  A    between atoms: N3_38  and  C29_40 
ROOT
HETATM    1  C6  UNL     1      22.774  26.665  19.565  1.00  0.00     0.183 C 
ENDROOT
BRANCH   1   2
HETATM    2  C5  UNL     1      21.999  26.880  18.324  1.00  0.00     0.241 C 
HETATM    3  N1  UNL     1      21.725  25.910  17.351  1.00  0.00    -0.346 N 
ATOM      4  H1  UNL     1      22.087  24.967  17.497  1.00  0.00     0.163 HD
HETATM    5  O1  UNL     1      21.517  28.019  18.085  1.00  0.00    -0.271 OA
BRANCH   3   6
HETATM    6  C4  UNL     1      20.955  26.170  16.145  1.00  0.00     0.177 C 
BRANCH   6   7
HETATM    7  C3  UNL     1      21.881  26.388  14.979  1.00  0.00     0.034 C 
BRANCH   7   8
HETATM    8  C2  UNL     1      21.290  27.283  13.918  1.00  0.00    -0.002 C 
HETATM    9  C1  UNL     1      20.600  28.433  14.620  1.00  0.00     0.005 C 
ENDBRANCH   7   8
ENDBRANCH   6   7
BRANCH   6  10
HETATM   10  C28 UNL     1      20.040  25.053  15.813  1.00  0.00     0.258 C 
HETATM   11  O6  UNL     1      20.476  23.926  15.433  1.00  0.00    -0.270 OA
HETATM   12  N3  UNL     1      18.630  25.178  15.899  1.00  0.00    -0.155 N 
ATOM     13  H3  UNL     1      18.103  25.244  15.028  1.00  0.00     0.187 HD
BRANCH  12  14
HETATM   14  C29 UNL     1      17.970  25.215  17.003  1.00  0.00     0.716 A 
HETATM   15  N4  UNL     1      16.675  25.555  17.052  1.00  0.00    -0.115 N 
HETATM   16  N5  UNL     1      16.279  25.502  18.310  1.00  0.00    -0.213 N 
ATOM     17  H4  UNL     1      16.095  25.812  16.253  1.00  0.00     0.207 HD
HETATM   18  N6  UNL     1      17.311  25.133  19.043  1.00  0.00    -0.213 N 
ATOM     19  H5  UNL     1      15.342  25.710  18.653  1.00  0.00     0.210 HD
HETATM   20  N7  UNL     1      18.356  24.953  18.253  1.00  0.00    -0.115 N 
ATOM     21  H6  UNL     1      17.304  25.005  20.055  1.00  0.00     0.210 HD
ATOM     22  H7  UNL     1      19.290  24.667  18.548  1.00  0.00     0.207 HD
ENDBRANCH  12  14
ENDBRANCH   6  10
ENDBRANCH   3   6
ENDBRANCH   1   2
BRANCH   1  23
HETATM   23  C7  UNL     1      21.917  26.550  20.730  1.00  0.00     0.039 C 
BRANCH  23  24
HETATM   24  C8  UNL     1      21.993  27.690  21.726  1.00  0.00    -0.020 C 
HETATM   25  C9  UNL     1      20.742  28.584  21.426  1.00  0.00     0.009 C 
HETATM   26  C10 UNL     1      21.756  27.131  23.099  1.00  0.00     0.009 C 
ENDBRANCH  23  24
ENDBRANCH   1  23
BRANCH   1  27
HETATM   27  N2  UNL     1      23.827  25.638  19.372  1.00  0.00    -0.295 N 
HETATM   28  C11 UNL     1      23.278  24.348  19.305  1.00  0.00     0.364 C 
HETATM   29  O2  UNL     1      23.854  23.252  19.149  1.00  0.00    -0.238 OA
BRANCH  28  30
HETATM   30  O3  UNL     1      21.888  24.058  19.410  1.00  0.00    -0.304 OA
BRANCH  30  31
HETATM   31  C12 UNL     1      21.325  23.135  20.275  1.00  0.00     0.176 C 
HETATM   32  C13 UNL     1      20.290  22.350  19.488  1.00  0.00     0.034 C 
ENDBRANCH  30  31
ENDBRANCH  28  30
BRANCH  27  33
HETATM   33  C14 UNL     1      25.193  25.924  19.093  1.00  0.00     0.135 C 
HETATM   34  C18 UNL     1      25.879  26.963  19.907  1.00  0.00     0.049 C 
HETATM   35  C19 UNL     1      27.104  26.164  20.423  1.00  0.00     0.006 C 
HETATM   36  C20 UNL     1      27.629  25.648  19.152  1.00  0.00    -0.032 C 
HETATM   37  C25 UNL     1      26.489  24.820  20.678  1.00  0.00    -0.032 C 
HETATM   38  C21 UNL     1      28.879  24.914  19.480  1.00  0.00     0.016 C 
HETATM   39  C22 UNL     1      27.906  26.488  17.971  1.00  0.00     0.016 C 
HETATM   40  C23 UNL     1      26.252  24.914  19.241  1.00  0.00     0.006 C 
HETATM   41  C24 UNL     1      26.395  23.735  18.356  1.00  0.00     0.020 C 
HETATM   42  C26 UNL     1      25.717  25.069  21.883  1.00  0.00     0.016 C 
HETATM   43  C27 UNL     1      27.185  23.540  20.972  1.00  0.00     0.016 C 
BRANCH  33  44
HETATM   44  C15 UNL     1      25.047  26.500  17.699  1.00  0.00     0.288 C 
HETATM   45  O4  UNL     1      24.878  25.840  16.659  1.00  0.00    -0.262 OA
BRANCH  44  46
HETATM   46  O5  UNL     1      25.088  27.885  17.469  1.00  0.00    -0.320 OA
BRANCH  46  47
HETATM   47  C16 UNL     1      25.266  28.451  16.187  1.00  0.00     0.174 C 
HETATM   48  C17 UNL     1      24.022  29.239  15.866  1.00  0.00     0.034 C 
ENDBRANCH  46  47
ENDBRANCH  44  46
ENDBRANCH  33  44
ENDBRANCH  27  33
ENDBRANCH   1  27
TORSDOF 15
ENDMDL
MODEL 2
REMARK VINA RESULT: -7.238784695      9.898     15.159
REMARK  15 active torsions:
REMARK  status: ('A' for Active; 'I' for Inactive)
REMARK    1  A    between atoms: C2_2  and  C3_3 
REMARK    2  A    between atoms: C3_3  and  C4_4 
REMARK    3  A    between atoms: C4_4  and  N1_5 
REMARK    4  A    between atoms: C4_4  and  C28_36 
REMARK       I    between atoms: N1_5  and  C5_7 
REMARK    5  A    between atoms: C5_7  and  C6_9 
REMARK    6  A    between atoms: C6_9  and  C7_10 
REMARK    7  A    between atoms: C6_9  and  N2_14 
REMARK    8  A    between atoms: C7_10  and  C8_11 
REMARK       I    between atoms: N2_14  and  C11_15 
REMARK    9  A    between atoms: N2_14  and  C14_20 
REMARK   10  A    between atoms: C11_15  and  O3_17 
REMARK   11  A    between atoms: O3_17  and  C12_18 
REMARK   12  A    between atoms: C14_20  and  C15_21 
REMARK   13  A    between atoms: C15_21  and  O5_23 
REMARK   14  A    between atoms: O5_23  and  C16_24 
REMARK       I    between atoms: C28_36  and  N3_38 
REMARK   15  A    between atoms: N3_38  and  C29_40 
ROOT
HETATM    1  C6  UNL     1      10.731  19.714  14.873  1.00  0.00     0.183 C 
ENDROOT
BRANCH   1   2
HETATM    2  C5  UNL     1      11.374  19.648  16.204  1.00  0.00     0.241 C 
HETATM    3  N1  UNL     1      12.698  19.269  16.456  1.00  0.00    -0.346 N 
ATOM      4  H1  UNL     1      13.284  19.011  15.662  1.00  0.00     0.163 HD
HETATM    5  O1  UNL     1      10.709  19.961  17.227  1.00  0.00    -0.271 OA
BRANCH   3   6
HETATM    6  C4  UNL     1      13.286  19.222  17.786  1.00  0.00     0.177 C 
BRANCH   6   7
HETATM    7  C3  UNL     1      13.340  17.800  18.275  1.00  0.00     0.034 C 
BRANCH   7   8
HETATM    8  C2  UNL     1      13.154  17.684  19.768  1.00  0.00    -0.002 C 
HETATM    9  C1  UNL     1      11.822  18.316  20.114  1.00  0.00     0.005 C 
ENDBRANCH   7   8
ENDBRANCH   6   7
BRANCH   6  10
HETATM   10  C28 UNL     1      14.658  19.779  17.812  1.00  0.00     0.258 C 
HETATM   11  O6  UNL     1      15.634  19.169  17.282  1.00  0.00    -0.270 OA
HETATM   12  N3  UNL     1      14.960  21.021  18.428  1.00  0.00    -0.155 N 
ATOM     13  H3  UNL     1      15.459  21.002  19.317  1.00  0.00     0.187 HD
BRANCH  12  14
HETATM   14  C29 UNL     1      14.647  22.169  17.940  1.00  0.00     0.716 A 
HETATM   15  N4  UNL     1      14.698  23.294  18.666  1.00  0.00    -0.115 N 
HETATM   16  N5  UNL     1      14.322  24.300  17.900  1.00  0.00    -0.213 N 
ATOM     17  H4  UNL     1      14.980  23.360  19.644  1.00  0.00     0.207 HD
HETATM   18  N6  UNL     1      14.038  23.816  16.707  1.00  0.00    -0.213 N 
ATOM     19  H5  UNL     1      14.262  25.278  18.180  1.00  0.00     0.210 HD
HETATM   20  N7  UNL     1      14.233  22.508  16.717  1.00  0.00    -0.115 N 
ATOM     21  H6  UNL     1      13.720  24.361  15.905  1.00  0.00     0.210 HD
ATOM     22  H7  UNL     1      14.091  21.872  15.932  1.00  0.00     0.207 HD
ENDBRANCH  12  14
ENDBRANCH   6  10
ENDBRANCH   3   6
ENDBRANCH   1   2
BRANCH   1  23
HETATM   23  C7  UNL     1      10.579  21.079  14.407  1.00  0.00     0.039 C 
BRANCH  23  24
HETATM   24  C8  UNL     1       9.155  21.577  14.263  1.00  0.00    -0.020 C 
HETATM   25  C9  UNL     1       8.977  22.649  15.392  1.00  0.00     0.009 C 
HETATM   26  C10 UNL     1       9.053  22.343  12.976  1.00  0.00     0.009 C 
ENDBRANCH  23  24
ENDBRANCH   1  23
BRANCH   1  27
HETATM   27  N2  UNL     1      11.322  18.722  13.940  1.00  0.00    -0.295 N 
HETATM   28  C11 UNL     1      12.603  19.115  13.520  1.00  0.00     0.364 C 
HETATM   29  O2  UNL     1      13.391  18.535  12.746  1.00  0.00    -0.238 OA
BRANCH  28  30
HETATM   30  O3  UNL     1      13.255  20.311  13.933  1.00  0.00    -0.304 OA
BRANCH  30  31
HETATM   31  C12 UNL     1      14.287  20.937  13.255  1.00  0.00     0.176 C 
HETATM   32  C13 UNL     1      13.914  22.402  13.116  1.00  0.00     0.034 C 
ENDBRANCH  30  31
ENDBRANCH  28  30
BRANCH  27  33
HETATM   33  C14 UNL     1      10.760  17.446  13.655  1.00  0.00     0.135 C 
HETATM   34  C18 UNL     1       9.308  17.366  13.347  1.00  0.00     0.049 C 
HETATM   35  C19 UNL     1       9.342  16.637  11.978  1.00  0.00     0.006 C 
HETATM   36  C20 UNL     1      10.166  15.472  12.329  1.00  0.00    -0.032 C 
HETATM   37  C25 UNL     1      10.551  17.261  11.346  1.00  0.00    -0.032 C 
HETATM   38  C21 UNL     1      10.222  14.616  11.114  1.00  0.00     0.016 C 
HETATM   39  C22 UNL     1       9.900  14.589  13.480  1.00  0.00     0.016 C 
HETATM   40  C23 UNL     1      11.190  16.640  12.502  1.00  0.00     0.006 C 
HETATM   41  C24 UNL     1      12.518  15.995  12.397  1.00  0.00     0.020 C 
HETATM   42  C26 UNL     1      10.060  18.586  11.010  1.00  0.00     0.016 C 
HETATM   43  C27 UNL     1      11.258  16.831  10.112  1.00  0.00     0.016 C 
BRANCH  33  44
HETATM   44  C15 UNL     1      10.948  16.784  15.006  1.00  0.00     0.288 C 
HETATM   45  O4  UNL     1      12.017  16.322  15.441  1.00  0.00    -0.262 OA
BRANCH  44  46
HETATM   46  O5  UNL     1       9.882  16.643  15.909  1.00  0.00    -0.320 OA
BRANCH  46  47
HETATM   47  C16 UNL     1      10.065  16.420  17.292  1.00  0.00     0.174 C 
HETATM   48  C17 UNL     1       9.520  15.050  17.602  1.00  0.00     0.034 C 
ENDBRANCH  46  47
ENDBRANCH  44  46
ENDBRANCH  33  44
ENDBRANCH  27  33
ENDBRANCH   1  27
TORSDOF 15
ENDMDL
MODEL 3
REMARK VINA RESULT: -7.071363363      1.565      2.902
REMARK  15 active torsions:
REMARK  status: ('A' for Active; 'I' for Inactive)
REMARK    1  A    between atoms: C2_2  and  C3_3 
REMARK    2  A    between atoms: C3_3  and  C4_4 
REMARK    3  A    between atoms: C4_4  and  N1_5 
REMARK    4  A    between atoms: C4_4  and  C28_36 
REMARK       I    between atoms: N1_5  and  C5_7 
REMARK    5  A    between atoms: C5_7  and  C6_9 
REMARK    6  A    between atoms: C6_9  and  C7_10 
REMARK    7  A    between atoms: C6_9  and  N2_14 
REMARK    8  A    between atoms: C7_10  and  C8_11 
REMARK       I    between atoms: N2_14  and  C11_15 
REMARK    9  A    between atoms: N2_14  and  C14_20 
REMARK   10  A    between atoms: C11_15  and  O3_17 
REMARK   11  A    between atoms: O3_17  and  C12_18 
REMARK   12  A    between atoms: C14_20  and  C15_21 
REMARK   13  A    between atoms: C15_21  and  O5_23 
REMARK   14  A    between atoms: O5_23  and  C16_24 
REMARK       I    between atoms: C28_36  and  N3_38 
REMARK   15  A    between atoms: N3_38  and  C29_40 
ROOT
HETATM    1  C6  UNL     1      23.146  27.324  18.554  1.00  0.00     0.183 C 
ENDROOT
BRANCH   1   2
HETATM    2  C5  UNL     1      21.939  26.840  17.850  1.00  0.00     0.241 C 
HETATM    3  N1  UNL     1      21.605  25.500  17.622  1.00  0.00    -0.346 N 
ATOM      4  H1  UNL     1      22.243  24.781  17.965  1.00  0.00     0.163 HD
HETATM    5  O1  UNL     1      21.106  27.675  17.406  1.00  0.00    -0.271 OA
BRANCH   3   6
HETATM    6  C4  UNL     1      20.402  25.073  16.923  1.00  0.00     0.177 C 
BRANCH   6   7
HETATM    7  C3  UNL     1      20.738  24.693  15.506  1.00  0.00     0.034 C 
BRANCH   7   8
HETATM    8  C2  UNL     1      20.407  25.779  14.512  1.00  0.00    -0.002 C 
HETATM    9  C1  UNL     1      19.037  26.319  14.863  1.00  0.00     0.005 C 
ENDBRANCH   7   8
ENDBRANCH   6   7
BRANCH   6  10
HETATM   10  C28 UNL     1      19.756  23.913  17.578  1.00  0.00     0.258 C 
HETATM   11  O6  UNL     1      20.354  23.227  18.459  1.00  0.00    -0.270 OA
HETATM   12  N3  UNL     1      18.435  23.503  17.260  1.00  0.00    -0.155 N 
ATOM     13  H3  UNL     1      18.321  22.653  16.707  1.00  0.00     0.187 HD
BRANCH  12  14
HETATM   14  C29 UNL     1      17.372  24.130  17.622  1.00  0.00     0.716 A 
HETATM   15  N4  UNL     1      16.147  23.613  17.465  1.00  0.00    -0.115 N 
HETATM   16  N5  UNL     1      15.266  24.481  17.925  1.00  0.00    -0.213 N 
ATOM     17  H4  UNL     1      15.931  22.702  17.059  1.00  0.00     0.207 HD
HETATM   18  N6  UNL     1      15.929  25.532  18.366  1.00  0.00    -0.213 N 
ATOM     19  H5  UNL     1      14.254  24.361  17.937  1.00  0.00     0.210 HD
HETATM   20  N7  UNL     1      17.223  25.331  18.186  1.00  0.00    -0.115 N 
ATOM     21  H6  UNL     1      15.511  26.366  18.781  1.00  0.00     0.210 HD
ATOM     22  H7  UNL     1      17.973  25.977  18.433  1.00  0.00     0.207 HD
ENDBRANCH  12  14
ENDBRANCH   6  10
ENDBRANCH   3   6
ENDBRANCH   1   2
BRANCH   1  23
HETATM   23  C7  UNL     1      22.942  27.412  19.988  1.00  0.00     0.039 C 
BRANCH  23  24
HETATM   24  C8  UNL     1      21.513  27.256  20.467  1.00  0.00    -0.020 C 
HETATM   25  C9  UNL     1      21.525  25.991  21.392  1.00  0.00     0.009 C 
HETATM   26  C10 UNL     1      21.194  28.405  21.377  1.00  0.00     0.009 C 
ENDBRANCH  23  24
ENDBRANCH   1  23
BRANCH   1  27
HETATM   27  N2  UNL     1      24.367  26.635  18.066  1.00  0.00    -0.295 N 
HETATM   28  C11 UNL     1      24.436  26.648  16.664  1.00  0.00     0.364 C 
HETATM   29  O2  UNL     1      25.311  26.172  15.912  1.00  0.00    -0.238 OA
BRANCH  28  30
HETATM   30  O3  UNL     1      23.460  27.244  15.815  1.00  0.00    -0.304 OA
BRANCH  30  31
HETATM   31  C12 UNL     1      23.680  28.320  14.973  1.00  0.00     0.176 C 
HETATM   32  C13 UNL     1      22.528  28.363  13.984  1.00  0.00     0.034 C 
ENDBRANCH  30  31
ENDBRANCH  28  30
BRANCH  27  33
HETATM   33  C14 UNL     1      25.431  26.191  18.900  1.00  0.00     0.135 C 
HETATM   34  C18 UNL     1      25.177  26.050  20.358  1.00  0.00     0.049 C 
HETATM   35  C19 UNL     1      25.605  24.577  20.586  1.00  0.00     0.006 C 
HETATM   36  C20 UNL     1      26.949  24.606  19.993  1.00  0.00    -0.032 C 
HETATM   37  C25 UNL     1      25.099  23.929  19.331  1.00  0.00    -0.032 C 
HETATM   38  C21 UNL     1      27.534  23.257  20.213  1.00  0.00     0.016 C 
HETATM   39  C22 UNL     1      27.983  25.599  20.339  1.00  0.00     0.016 C 
HETATM   40  C23 UNL     1      26.051  24.866  18.740  1.00  0.00     0.006 C 
HETATM   41  C24 UNL     1      26.895  24.485  17.585  1.00  0.00     0.020 C 
HETATM   42  C26 UNL     1      23.667  23.904  19.565  1.00  0.00     0.016 C 
HETATM   43  C27 UNL     1      25.393  22.561  18.830  1.00  0.00     0.016 C 
BRANCH  33  44
HETATM   44  C15 UNL     1      26.378  27.364  18.742  1.00  0.00     0.288 C 
HETATM   45  O4  UNL     1      26.399  28.376  19.464  1.00  0.00    -0.262 OA
BRANCH  44  46
HETATM   46  O5  UNL     1      27.348  27.393  17.727  1.00  0.00    -0.320 OA
BRANCH  46  47
HETATM   47  C16 UNL     1      27.990  28.579  17.305  1.00  0.00     0.174 C 
HETATM   48  C17 UNL     1      27.253  29.080  16.090  1.00  0.00     0.034 C 
ENDBRANCH  46  47
ENDBRANCH  44  46
ENDBRANCH  33  44
ENDBRANCH  27  33
ENDBRANCH   1  27
TORSDOF 15
ENDMDL
MODEL 4
REMARK VINA RESULT: -6.857878080      1.511      3.437
REMARK  15 active torsions:
REMARK  status: ('A' for Active; 'I' for Inactive)
REMARK    1  A    between atoms: C2_2  and  C3_3 
REMARK    2  A    between atoms: C3_3  and  C4_4 
REMARK    3  A    between atoms: C4_4  and  N1_5 
REMARK    4  A    between atoms: C4_4  and  C28_36 
REMARK       I    between atoms: N1_5  and  C5_7 
REMARK    5  A    between atoms: C5_7  and  C6_9 
REMARK    6  A    between atoms: C6_9  and  C7_10 
REMARK    7  A    between atoms: C6_9  and  N2_14 
REMARK    8  A    between atoms: C7_10  and  C8_11 
REMARK       I    between atoms: N2_14  and  C11_15 
REMARK    9  A    between atoms: N2_14  and  C14_20 
REMARK   10  A    between atoms: C11_15  and  O3_17 
REMARK   11  A    between atoms: O3_17  and  C12_18 
REMARK   12  A    between atoms: C14_20  and  C15_21 
REMARK   13  A    between atoms: C15_21  and  O5_23 
REMARK   14  A    between atoms: O5_23  and  C16_24 
REMARK       I    between atoms: C28_36  and  N3_38 
REMARK   15  A    between atoms: N3_38  and  C29_40 
ROOT
HETATM    1  C6  UNL     1      23.097  25.843  17.891  1.00  0.00     0.183 C 
ENDROOT
BRANCH   1   2
HETATM    2  C5  UNL     1      21.710  26.149  17.479  1.00  0.00     0.241 C 
HETATM    3  N1  UNL     1      21.064  25.647  16.343  1.00  0.00    -0.346 N 
ATOM      4  H1  UNL     1      21.583  25.013  15.735  1.00  0.00     0.163 HD
HETATM    5  O1  UNL     1      21.010  26.919  18.189  1.00  0.00    -0.271 OA
BRANCH   3   6
HETATM    6  C4  UNL     1      19.694  25.977  15.979  1.00  0.00     0.177 C 
BRANCH   6   7
HETATM    7  C3  UNL     1      19.685  26.902  14.792  1.00  0.00     0.034 C 
BRANCH   7   8
HETATM    8  C2  UNL     1      20.979  26.873  14.016  1.00  0.00    -0.002 C 
HETATM    9  C1  UNL     1      21.360  28.305  13.705  1.00  0.00     0.005 C 
ENDBRANCH   7   8
ENDBRANCH   6   7
BRANCH   6  10
HETATM   10  C28 UNL     1      18.899  24.775  15.642  1.00  0.00     0.258 C 
HETATM   11  O6  UNL     1      19.446  23.654  15.423  1.00  0.00    -0.270 OA
HETATM   12  N3  UNL     1      17.483  24.806  15.543  1.00  0.00    -0.155 N 
ATOM     13  H3  UNL     1      17.070  24.761  14.612  1.00  0.00     0.187 HD
BRANCH  12  14
HETATM   14  C29 UNL     1      16.687  24.886  16.550  1.00  0.00     0.716 A 
HETATM   15  N4  UNL     1      16.864  25.779  17.534  1.00  0.00    -0.115 N 
HETATM   16  N5  UNL     1      15.897  25.620  18.418  1.00  0.00    -0.213 N 
ATOM     17  H4  UNL     1      17.618  26.464  17.589  1.00  0.00     0.207 HD
HETATM   18  N6  UNL     1      15.122  24.641  17.996  1.00  0.00    -0.213 N 
ATOM     19  H5  UNL     1      15.773  26.159  19.274  1.00  0.00     0.210 HD
HETATM   20  N7  UNL     1      15.595  24.181  16.851  1.00  0.00    -0.115 N 
ATOM     21  H6  UNL     1      14.290  24.295  18.476  1.00  0.00     0.210 HD
ATOM     22  H7  UNL     1      15.197  23.422  16.297  1.00  0.00     0.207 HD
ENDBRANCH  12  14
ENDBRANCH   6  10
ENDBRANCH   3   6
ENDBRANCH   1   2
BRANCH   1  23
HETATM   23  C7  UNL     1      24.019  26.904  17.533  1.00  0.00     0.039 C 
BRANCH  23  24
HETATM   24  C8  UNL     1      24.100  27.245  16.059  1.00  0.00    -0.020 C 
HETATM   25  C9  UNL     1      23.994  28.807  15.991  1.00  0.00     0.009 C 
HETATM   26  C10 UNL     1      25.484  26.925  15.577  1.00  0.00     0.009 C 
ENDBRANCH  23  24
ENDBRANCH   1  23
BRANCH   1  27
HETATM   27  N2  UNL     1      23.143  25.320  19.279  1.00  0.00    -0.295 N 
HETATM   28  C11 UNL     1      22.178  24.321  19.482  1.00  0.00     0.364 C 
HETATM   29  O2  UNL     1      21.929  23.661  20.512  1.00  0.00    -0.238 OA
BRANCH  28  30
HETATM   30  O3  UNL     1      21.267  23.865  18.486  1.00  0.00    -0.304 OA
BRANCH  30  31
HETATM   31  C12 UNL     1      20.193  23.021  18.707  1.00  0.00     0.176 C 
HETATM   32  C13 UNL     1      19.058  23.869  19.253  1.00  0.00     0.034 C 
ENDBRANCH  30  31
ENDBRANCH  28  30
BRANCH  27  33
HETATM   33  C14 UNL     1      24.153  25.638  20.230  1.00  0.00     0.135 C 
HETATM   34  C18 UNL     1      24.491  24.629  21.268  1.00  0.00     0.049 C 
HETATM   35  C19 UNL     1      26.021  24.494  21.055  1.00  0.00     0.006 C 
HETATM   36  C20 UNL     1      26.416  25.907  21.134  1.00  0.00    -0.032 C 
HETATM   37  C25 UNL     1      26.116  24.584  19.560  1.00  0.00    -0.032 C 
HETATM   38  C21 UNL     1      27.899  25.936  21.028  1.00  0.00     0.016 C 
HETATM   39  C22 UNL     1      26.034  26.811  22.235  1.00  0.00     0.016 C 
HETATM   40  C23 UNL     1      25.546  25.900  19.835  1.00  0.00     0.006 C 
HETATM   41  C24 UNL     1      25.978  27.101  19.085  1.00  0.00     0.020 C 
HETATM   42  C26 UNL     1      25.604  23.289  19.150  1.00  0.00     0.016 C 
HETATM   43  C27 UNL     1      27.340  24.750  18.733  1.00  0.00     0.016 C 
BRANCH  33  44
HETATM   44  C15 UNL     1      23.466  26.780  20.951  1.00  0.00     0.288 C 
HETATM   45  O4  UNL     1      23.205  27.892  20.458  1.00  0.00    -0.262 OA
BRANCH  44  46
HETATM   46  O5  UNL     1      23.049  26.660  22.286  1.00  0.00    -0.320 OA
BRANCH  46  47
HETATM   47  C16 UNL     1      21.912  27.321  22.803  1.00  0.00     0.174 C 
HETATM   48  C17 UNL     1      22.087  27.413  24.297  1.00  0.00     0.034 C 
ENDBRANCH  46  47
ENDBRANCH  44  46
ENDBRANCH  33  44
ENDBRANCH  27  33
ENDBRANCH   1  27
TORSDOF 15
ENDMDL
MODEL 5
REMARK VINA RESULT: -6.728760603      1.567      3.441
REMARK  15 active torsions:
REMARK  status: ('A' for Active; 'I' for Inactive)
REMARK    1  A    between atoms: C2_2  and  C3_3 
REMARK    2  A    between atoms: C3_3  and  C4_4 
REMARK    3  A    between atoms: C4_4  and  N1_5 
REMARK    4  A    between atoms: C4_4  and  C28_36 
REMARK       I    between atoms: N1_5  and  C5_7 
REMARK    5  A    between atoms: C5_7  and  C6_9 
REMARK    6  A    between atoms: C6_9  and  C7_10 
REMARK    7  A    between atoms: C6_9  and  N2_14 
REMARK    8  A    between atoms: C7_10  and  C8_11 
REMARK       I    between atoms: N2_14  and  C11_15 
REMARK    9  A    between atoms: N2_14  and  C14_20 
REMARK   10  A    between atoms: C11_15  and  O3_17 
REMARK   11  A    between atoms: O3_17  and  C12_18 
REMARK   12  A    between atoms: C14_20  and  C15_21 
REMARK   13  A    between atoms: C15_21  and  O5_23 
REMARK   14  A    between atoms: O5_23  and  C16_24 
REMARK       I    between atoms: C28_36  and  N3_38 
REMARK   15  A    between atoms: N3_38  and  C29_40 
ROOT
HETATM    1  C6  UNL     1      23.110  26.247  19.693  1.00  0.00     0.183 C 
ENDROOT
BRANCH   1   2
HETATM    2  C5  UNL     1      22.108  25.293  19.170  1.00  0.00     0.241 C 
HETATM    3  N1  UNL     1      20.927  25.632  18.499  1.00  0.00    -0.346 N 
ATOM      4  H1  UNL     1      20.725  26.620  18.351  1.00  0.00     0.163 HD
HETATM    5  O1  UNL     1      22.299  24.056  19.313  1.00  0.00    -0.271 OA
BRANCH   3   6
HETATM    6  C4  UNL     1      19.971  24.654  18.001  1.00  0.00     0.177 C 
BRANCH   6   7
HETATM    7  C3  UNL     1      18.983  24.304  19.081  1.00  0.00     0.034 C 
BRANCH   7   8
HETATM    8  C2  UNL     1      19.078  22.864  19.521  1.00  0.00    -0.002 C 
HETATM    9  C1  UNL     1      18.024  22.083  18.766  1.00  0.00     0.005 C 
ENDBRANCH   7   8
ENDBRANCH   6   7
BRANCH   6  10
HETATM   10  C28 UNL     1      19.223  25.152  16.824  1.00  0.00     0.258 C 
HETATM   11  O6  UNL     1      19.635  24.959  15.642  1.00  0.00    -0.270 OA
HETATM   12  N3  UNL     1      18.006  25.871  16.950  1.00  0.00    -0.155 N 
ATOM     13  H3  UNL     1      18.026  26.875  16.770  1.00  0.00     0.187 HD
BRANCH  12  14
HETATM   14  C29 UNL     1      16.880  25.342  17.275  1.00  0.00     0.716 A 
HETATM   15  N4  UNL     1      16.290  24.398  16.529  1.00  0.00    -0.115 N 
HETATM   16  N5  UNL     1      15.158  24.054  17.113  1.00  0.00    -0.213 N 
ATOM     17  H4  UNL     1      16.655  24.011  15.659  1.00  0.00     0.207 HD
HETATM   18  N6  UNL     1      15.036  24.772  18.212  1.00  0.00    -0.213 N 
ATOM     19  H5  UNL     1      14.495  23.358  16.774  1.00  0.00     0.210 HD
HETATM   20  N7  UNL     1      16.086  25.568  18.324  1.00  0.00    -0.115 N 
ATOM     21  H6  UNL     1      14.258  24.722  18.870  1.00  0.00     0.210 HD
ATOM     22  H7  UNL     1      16.258  26.235  19.076  1.00  0.00     0.207 HD
ENDBRANCH  12  14
ENDBRANCH   6  10
ENDBRANCH   3   6
ENDBRANCH   1   2
BRANCH   1  23
HETATM   23  C7  UNL     1      23.022  26.395  21.134  1.00  0.00     0.039 C 
BRANCH  23  24
HETATM   24  C8  UNL     1      21.707  26.923  21.669  1.00  0.00    -0.020 C 
HETATM   25  C9  UNL     1      21.999  27.328  23.154  1.00  0.00     0.009 C 
HETATM   26  C10 UNL     1      21.396  28.211  20.966  1.00  0.00     0.009 C 
ENDBRANCH  23  24
ENDBRANCH   1  23
BRANCH   1  27
HETATM   27  N2  UNL     1      24.447  26.004  19.099  1.00  0.00    -0.295 N 
HETATM   28  C11 UNL     1      24.493  26.413  17.757  1.00  0.00     0.364 C 
HETATM   29  O2  UNL     1      25.443  26.364  16.949  1.00  0.00    -0.238 OA
BRANCH  28  30
HETATM   30  O3  UNL     1      23.398  26.989  17.052  1.00  0.00    -0.304 OA
BRANCH  30  31
HETATM   31  C12 UNL     1      23.476  27.608  15.817  1.00  0.00     0.176 C 
HETATM   32  C13 UNL     1      22.641  26.792  14.848  1.00  0.00     0.034 C 
ENDBRANCH  30  31
ENDBRANCH  28  30
BRANCH  27  33
HETATM   33  C14 UNL     1      25.596  25.594  19.833  1.00  0.00     0.135 C 
HETATM   34  C18 UNL     1      25.399  24.736  21.032  1.00  0.00     0.049 C 
HETATM   35  C19 UNL     1      26.326  23.540  20.688  1.00  0.00     0.006 C 
HETATM   36  C20 UNL     1      27.574  24.259  20.396  1.00  0.00    -0.032 C 
HETATM   37  C25 UNL     1      26.094  23.408  19.211  1.00  0.00    -0.032 C 
HETATM   38  C21 UNL     1      28.602  23.220  20.123  1.00  0.00     0.016 C 
HETATM   39  C22 UNL     1      28.181  25.258  21.296  1.00  0.00     0.016 C 
HETATM   40  C23 UNL     1      26.650  24.758  19.238  1.00  0.00     0.006 C 
HETATM   41  C24 UNL     1      27.582  25.231  18.189  1.00  0.00     0.020 C 
HETATM   42  C26 UNL     1      24.764  22.827  19.169  1.00  0.00     0.016 C 
HETATM   43  C27 UNL     1      26.861  22.588  18.238  1.00  0.00     0.016 C 
BRANCH  33  44
HETATM   44  C15 UNL     1      26.059  26.943  20.344  1.00  0.00     0.288 C 
HETATM   45  O4  UNL     1      26.121  27.279  21.540  1.00  0.00    -0.262 OA
BRANCH  44  46
HETATM   46  O5  UNL     1      26.478  27.956  19.467  1.00  0.00    -0.320 OA
BRANCH  46  47
HETATM   47  C16 UNL     1      27.768  28.531  19.510  1.00  0.00     0.174 C 
HETATM   48  C17 UNL     1      28.149  28.888  18.096  1.00  0.00     0.034 C 
ENDBRANCH  46  47
ENDBRANCH  44  46
ENDBRANCH  33  44
ENDBRANCH  27  33
ENDBRANCH   1  27
TORSDOF 15
ENDMDL
