MODEL 1
REMARK VINA RESULT: -7.755601298      0.000      0.000
REMARK  3 active torsions:
REMARK  status: ('A' for Active; 'I' for Inactive)
REMARK    1  A    between atoms: C3_6  and  N2_7 
REMARK    2  A    between atoms: N2_7  and  C4_9 
REMARK    3  A    between atoms: C5_12  and  N4_13 
ROOT
HETATM    1  C4  UNL     1     118.465  -3.953 -56.157  1.00  0.00     0.699 A 
HETATM    2  N3  UNL     1     118.345  -4.876 -55.185  1.00  0.00    -0.022 N 
ATOM      3  H3  UNL     1     119.183  -5.346 -54.843  1.00  0.00     0.203 HD
HETATM    4  C5  UNL     1     117.140  -5.203 -54.642  1.00  0.00     0.697 A 
HETATM    5  N6  UNL     1     116.076  -4.548 -55.135  1.00  0.00    -0.187 N 
ATOM      6  H6  UNL     1     115.156  -4.766 -54.751  1.00  0.00     0.185 HD
HETATM    7  C9  UNL     1     116.155  -3.620 -56.106  1.00  0.00     0.215 A 
HETATM    8  N7  UNL     1     117.378  -3.318 -56.626  1.00  0.00    -0.186 N 
ATOM      9  H7  UNL     1     117.467  -2.617 -57.362  1.00  0.00     0.185 HD
ENDROOT
BRANCH   1  10
HETATM   10  N2  UNL     1     119.643  -3.705 -56.614  1.00  0.00    -0.176 N 
ATOM     11  H2  UNL     1     120.269  -3.064 -56.127  1.00  0.00     0.186 HD
BRANCH  10  12
HETATM   12  C3  UNL     1     120.045  -4.340 -57.805  1.00  0.00     0.125 A 
HETATM   13  C2  UNL     1     120.266  -3.582 -58.924  1.00  0.00     0.097 A 
HETATM   14  C1  UNL     1     120.656  -4.165 -60.095  1.00  0.00     0.103 A 
HETATM   15  N1  UNL     1     120.869  -3.451 -61.168  1.00  0.00    -0.385 N 
HETATM   16  N9  UNL     1     120.818  -5.495 -60.129  1.00  0.00    -0.339 N 
ATOM     17  H12 UNL     1     120.746  -2.439 -61.141  1.00  0.00     0.157 HD
ATOM     18  H11 UNL     1     121.160  -3.887 -62.042  1.00  0.00     0.157 HD
HETATM   19  C10 UNL     1     120.598  -6.243 -59.019  1.00  0.00     0.183 A 
ATOM     20  H9  UNL     1     121.107  -5.948 -60.996  1.00  0.00     0.168 HD
HETATM   21  N8  UNL     1     120.211  -5.662 -57.854  1.00  0.00    -0.338 N 
ATOM     22  H8  UNL     1     120.048  -6.233 -57.024  1.00  0.00     0.168 HD
ENDBRANCH  10  12
ENDBRANCH   1  10
BRANCH   4  23
HETATM   23  N4  UNL     1     117.036  -6.187 -53.609  1.00  0.00    -0.191 N 
HETATM   24  C6  UNL     1     116.371  -7.469 -53.679  1.00  0.00     0.170 C 
HETATM   25  C7  UNL     1     116.836  -8.182 -52.451  1.00  0.00     0.254 C 
HETATM   26  N5  UNL     1     117.477  -7.229 -51.594  1.00  0.00    -0.057 N 
HETATM   27  C8  UNL     1     117.621  -5.996 -52.300  1.00  0.00     0.374 C 
ATOM     28  H52 UNL     1     116.989  -7.114 -50.706  1.00  0.00     0.279 HD
ATOM     29  H51 UNL     1     118.364  -7.572 -51.225  1.00  0.00     0.279 HD
ENDBRANCH   4  23
TORSDOF 3
ENDMDL
MODEL 2
REMARK VINA RESULT: -7.706976072      1.648      1.963
REMARK  3 active torsions:
REMARK  status: ('A' for Active; 'I' for Inactive)
REMARK    1  A    between atoms: C3_6  and  N2_7 
REMARK    2  A    between atoms: N2_7  and  C4_9 
REMARK    3  A    between atoms: C5_12  and  N4_13 
ROOT
HETATM    1  C4  UNL     1     117.744  -4.470 -56.439  1.00  0.00     0.699 A 
HETATM    2  N3  UNL     1     117.718  -5.421 -55.487  1.00  0.00    -0.022 N 
ATOM      3  H3  UNL     1     118.316  -6.240 -55.590  1.00  0.00     0.203 HD
HETATM    4  C5  UNL     1     116.917  -5.324 -54.389  1.00  0.00     0.697 A 
HETATM    5  N6  UNL     1     116.155  -4.222 -54.313  1.00  0.00    -0.187 N 
ATOM      6  H6  UNL     1     115.542  -4.115 -53.504  1.00  0.00     0.185 HD
HETATM    7  C9  UNL     1     116.152  -3.250 -55.244  1.00  0.00     0.215 A 
HETATM    8  N7  UNL     1     116.966  -3.380 -56.329  1.00  0.00    -0.186 N 
ATOM      9  H7  UNL     1     116.986  -2.658 -57.049  1.00  0.00     0.185 HD
ENDROOT
BRANCH   1  10
HETATM   10  N2  UNL     1     118.531  -4.641 -57.444  1.00  0.00    -0.176 N 
ATOM     11  H2  UNL     1     118.211  -5.128 -58.281  1.00  0.00     0.186 HD
BRANCH  10  12
HETATM   12  C3  UNL     1     119.843  -4.137 -57.359  1.00  0.00     0.125 A 
HETATM   13  C2  UNL     1     120.032  -2.785 -57.247  1.00  0.00     0.097 A 
HETATM   14  C1  UNL     1     121.290  -2.263 -57.163  1.00  0.00     0.103 A 
HETATM   15  N1  UNL     1     121.483  -0.975 -57.057  1.00  0.00    -0.385 N 
HETATM   16  N9  UNL     1     122.338  -3.098 -57.193  1.00  0.00    -0.339 N 
ATOM     17  H12 UNL     1     120.685  -0.340 -57.033  1.00  0.00     0.157 HD
ATOM     18  H11 UNL     1     122.423  -0.585 -56.994  1.00  0.00     0.157 HD
HETATM   19  C10 UNL     1     122.147  -4.437 -57.304  1.00  0.00     0.183 A 
ATOM     20  H9  UNL     1     123.286  -2.725 -57.133  1.00  0.00     0.168 HD
HETATM   21  N8  UNL     1     120.895  -4.956 -57.387  1.00  0.00    -0.338 N 
ATOM     22  H8  UNL     1     120.760  -5.964 -57.470  1.00  0.00     0.168 HD
ENDBRANCH  10  12
ENDBRANCH   1  10
BRANCH   4  23
HETATM   23  N4  UNL     1     116.906  -6.347 -53.390  1.00  0.00    -0.191 N 
HETATM   24  C6  UNL     1     116.223  -7.621 -53.442  1.00  0.00     0.170 C 
HETATM   25  C7  UNL     1     116.800  -8.386 -52.296  1.00  0.00     0.254 C 
HETATM   26  N5  UNL     1     117.535  -7.471 -51.471  1.00  0.00    -0.057 N 
HETATM   27  C8  UNL     1     117.622  -6.213 -52.140  1.00  0.00     0.374 C 
ATOM     28  H52 UNL     1     117.139  -7.388 -50.534  1.00  0.00     0.279 HD
ATOM     29  H51 UNL     1     118.450  -7.836 -51.207  1.00  0.00     0.279 HD
ENDBRANCH   4  23
TORSDOF 3
ENDMDL
MODEL 3
REMARK VINA RESULT: -7.703628197      1.921      2.483
REMARK  3 active torsions:
REMARK  status: ('A' for Active; 'I' for Inactive)
REMARK    1  A    between atoms: C3_6  and  N2_7 
REMARK    2  A    between atoms: N2_7  and  C4_9 
REMARK    3  A    between atoms: C5_12  and  N4_13 
ROOT
HETATM    1  C4  UNL     1     117.687  -4.791 -56.268  1.00  0.00     0.699 A 
HETATM    2  N3  UNL     1     117.534  -5.756 -55.343  1.00  0.00    -0.022 N 
ATOM      3  H3  UNL     1     117.881  -6.694 -55.545  1.00  0.00     0.203 HD
HETATM    4  C5  UNL     1     116.930  -5.521 -54.145  1.00  0.00     0.697 A 
HETATM    5  N6  UNL     1     116.496  -4.267 -53.942  1.00  0.00    -0.187 N 
ATOM      6  H6  UNL     1     116.039  -4.053 -53.055  1.00  0.00     0.185 HD
HETATM    7  C9  UNL     1     116.630  -3.276 -54.842  1.00  0.00     0.215 A 
HETATM    8  N7  UNL     1     117.240  -3.546 -56.030  1.00  0.00    -0.186 N 
ATOM      9  H7  UNL     1     117.356  -2.813 -56.729  1.00  0.00     0.185 HD
ENDROOT
BRANCH   1  10
HETATM   10  N2  UNL     1     118.271  -5.099 -57.375  1.00  0.00    -0.176 N 
ATOM     11  H2  UNL     1     117.861  -4.838 -58.271  1.00  0.00     0.186 HD
BRANCH  10  12
HETATM   12  C3  UNL     1     119.487  -5.805 -57.315  1.00  0.00     0.125 A 
HETATM   13  C2  UNL     1     119.482  -7.161 -57.505  1.00  0.00     0.097 A 
HETATM   14  C1  UNL     1     120.642  -7.877 -57.453  1.00  0.00     0.103 A 
HETATM   15  N1  UNL     1     120.649  -9.171 -57.633  1.00  0.00    -0.385 N 
HETATM   16  N9  UNL     1     121.790  -7.227 -57.210  1.00  0.00    -0.339 N 
ATOM     17  H12 UNL     1     119.775  -9.665 -57.818  1.00  0.00     0.157 HD
ATOM     18  H11 UNL     1     121.516  -9.705 -57.594  1.00  0.00     0.157 HD
HETATM   19  C10 UNL     1     121.792  -5.883 -57.022  1.00  0.00     0.183 A 
ATOM     20  H9  UNL     1     122.667  -7.746 -57.167  1.00  0.00     0.168 HD
HETATM   21  N8  UNL     1     120.636  -5.171 -57.074  1.00  0.00    -0.338 N 
ATOM     22  H8  UNL     1     120.647  -4.161 -56.932  1.00  0.00     0.168 HD
ENDBRANCH  10  12
ENDBRANCH   1  10
BRANCH   4  23
HETATM   23  N4  UNL     1     116.778  -6.562 -53.177  1.00  0.00    -0.191 N 
HETATM   24  C6  UNL     1     115.882  -7.696 -53.236  1.00  0.00     0.170 C 
HETATM   25  C7  UNL     1     116.360  -8.590 -52.139  1.00  0.00     0.254 C 
HETATM   26  N5  UNL     1     117.273  -7.847 -51.320  1.00  0.00    -0.057 N 
HETATM   27  C8  UNL     1     117.552  -6.599 -51.955  1.00  0.00     0.374 C 
ATOM     28  H52 UNL     1     116.933  -7.730 -50.365  1.00  0.00     0.279 HD
ATOM     29  H51 UNL     1     118.120  -8.373 -51.106  1.00  0.00     0.279 HD
ENDBRANCH   4  23
TORSDOF 3
ENDMDL
MODEL 4
REMARK VINA RESULT: -7.640370760      1.420      6.629
REMARK  3 active torsions:
REMARK  status: ('A' for Active; 'I' for Inactive)
REMARK    1  A    between atoms: C3_6  and  N2_7 
REMARK    2  A    between atoms: N2_7  and  C4_9 
REMARK    3  A    between atoms: C5_12  and  N4_13 
ROOT
HETATM    1  C4  UNL     1     118.271  -4.452 -56.559  1.00  0.00     0.699 A 
HETATM    2  N3  UNL     1     118.819  -5.126 -57.587  1.00  0.00    -0.022 N 
ATOM      3  H3  UNL     1     118.391  -6.001 -57.888  1.00  0.00     0.203 HD
HETATM    4  C5  UNL     1     119.929  -4.677 -58.237  1.00  0.00     0.697 A 
HETATM    5  N6  UNL     1     120.444  -3.520 -57.792  1.00  0.00    -0.187 N 
ATOM      6  H6  UNL     1     121.275  -3.152 -58.255  1.00  0.00     0.185 HD
HETATM    7  C9  UNL     1     119.926  -2.818 -56.768  1.00  0.00     0.215 A 
HETATM    8  N7  UNL     1     118.815  -3.296 -56.140  1.00  0.00    -0.186 N 
ATOM      9  H7  UNL     1     118.400  -2.783 -55.362  1.00  0.00     0.185 HD
ENDROOT
BRANCH   1  10
HETATM   10  N2  UNL     1     117.222  -4.947 -56.000  1.00  0.00    -0.176 N 
ATOM     11  H2  UNL     1     116.340  -5.010 -56.507  1.00  0.00     0.186 HD
BRANCH  10  12
HETATM   12  C3  UNL     1     117.324  -5.399 -54.670  1.00  0.00     0.125 A 
HETATM   13  C2  UNL     1     117.932  -6.600 -54.418  1.00  0.00     0.097 A 
HETATM   14  C1  UNL     1     118.048  -7.068 -53.142  1.00  0.00     0.103 A 
HETATM   15  N1  UNL     1     118.626  -8.213 -52.891  1.00  0.00    -0.385 N 
HETATM   16  N9  UNL     1     117.553  -6.331 -52.137  1.00  0.00    -0.339 N 
ATOM     17  H12 UNL     1     119.002  -8.774 -53.656  1.00  0.00     0.157 HD
ATOM     18  H11 UNL     1     118.712  -8.562 -51.937  1.00  0.00     0.157 HD
HETATM   19  C10 UNL     1     116.952  -5.141 -52.391  1.00  0.00     0.183 A 
ATOM     20  H9  UNL     1     117.630  -6.666 -51.177  1.00  0.00     0.168 HD
HETATM   21  N8  UNL     1     116.837  -4.675 -53.661  1.00  0.00    -0.338 N 
ATOM     22  H8  UNL     1     116.383  -3.780 -53.842  1.00  0.00     0.168 HD
ENDBRANCH  10  12
ENDBRANCH   1  10
BRANCH   4  23
HETATM   23  N4  UNL     1     120.493  -5.410 -59.327  1.00  0.00    -0.191 N 
HETATM   24  C6  UNL     1     120.978  -4.885 -60.585  1.00  0.00     0.170 C 
HETATM   25  C7  UNL     1     121.718  -6.031 -61.192  1.00  0.00     0.254 C 
HETATM   26  N5  UNL     1     121.395  -7.217 -60.452  1.00  0.00    -0.057 N 
HETATM   27  C8  UNL     1     120.652  -6.848 -59.291  1.00  0.00     0.374 C 
ATOM     28  H52 UNL     1     120.910  -7.910 -61.022  1.00  0.00     0.279 HD
ATOM     29  H51 UNL     1     122.221  -7.771 -60.226  1.00  0.00     0.279 HD
ENDBRANCH   4  23
TORSDOF 3
ENDMDL
MODEL 5
REMARK VINA RESULT: -7.544894103      1.051      1.518
REMARK  3 active torsions:
REMARK  status: ('A' for Active; 'I' for Inactive)
REMARK    1  A    between atoms: C3_6  and  N2_7 
REMARK    2  A    between atoms: N2_7  and  C4_9 
REMARK    3  A    between atoms: C5_12  and  N4_13 
ROOT
HETATM    1  C4  UNL     1     118.298  -3.623 -56.051  1.00  0.00     0.699 A 
HETATM    2  N3  UNL     1     118.258  -4.570 -55.096  1.00  0.00    -0.022 N 
ATOM      3  H3  UNL     1     119.134  -4.906 -54.696  1.00  0.00     0.203 HD
HETATM    4  C5  UNL     1     117.085  -5.095 -54.646  1.00  0.00     0.697 A 
HETATM    5  N6  UNL     1     115.968  -4.611 -55.212  1.00  0.00    -0.187 N 
ATOM      6  H6  UNL     1     115.070  -4.980 -54.899  1.00  0.00     0.185 HD
HETATM    7  C9  UNL     1     115.967  -3.666 -56.170  1.00  0.00     0.215 A 
HETATM    8  N7  UNL     1     117.159  -3.162 -56.596  1.00  0.00    -0.186 N 
ATOM      9  H7  UNL     1     117.187  -2.444 -57.319  1.00  0.00     0.185 HD
ENDROOT
BRANCH   1  10
HETATM   10  N2  UNL     1     119.451  -3.181 -56.419  1.00  0.00    -0.176 N 
ATOM     11  H2  UNL     1     119.859  -2.356 -55.979  1.00  0.00     0.186 HD
BRANCH  10  12
HETATM   12  C3  UNL     1     120.132  -3.865 -57.443  1.00  0.00     0.125 A 
HETATM   13  C2  UNL     1     121.281  -4.547 -57.140  1.00  0.00     0.097 A 
HETATM   14  C1  UNL     1     121.968  -5.220 -58.108  1.00  0.00     0.103 A 
HETATM   15  N1  UNL     1     123.065  -5.873 -57.831  1.00  0.00    -0.385 N 
HETATM   16  N9  UNL     1     121.497  -5.201 -59.364  1.00  0.00    -0.339 N 
ATOM     17  H12 UNL     1     123.422  -5.887 -56.875  1.00  0.00     0.157 HD
ATOM     18  H11 UNL     1     123.578  -6.376 -58.554  1.00  0.00     0.157 HD
HETATM   19  C10 UNL     1     120.359  -4.524 -59.660  1.00  0.00     0.183 A 
ATOM     20  H9  UNL     1     121.998  -5.697 -60.100  1.00  0.00     0.168 HD
HETATM   21  N8  UNL     1     119.676  -3.855 -58.696  1.00  0.00    -0.338 N 
ATOM     22  H8  UNL     1     118.820  -3.349 -58.928  1.00  0.00     0.168 HD
ENDBRANCH  10  12
ENDBRANCH   1  10
BRANCH   4  23
HETATM   23  N4  UNL     1     117.067  -6.101 -53.629  1.00  0.00    -0.191 N 
HETATM   24  C6  UNL     1     116.490  -7.425 -53.711  1.00  0.00     0.170 C 
HETATM   25  C7  UNL     1     117.024  -8.125 -52.504  1.00  0.00     0.254 C 
HETATM   26  N5  UNL     1     117.614  -7.144 -51.640  1.00  0.00    -0.057 N 
HETATM   27  C8  UNL     1     117.661  -5.893 -52.326  1.00  0.00     0.374 C 
ATOM     28  H52 UNL     1     117.135  -7.077 -50.742  1.00  0.00     0.279 HD
ATOM     29  H51 UNL     1     118.529  -7.431 -51.293  1.00  0.00     0.279 HD
ENDBRANCH   4  23
TORSDOF 3
ENDMDL
