MODEL 1
REMARK VINA RESULT: -7.784711657      0.000      0.000
REMARK  7 active torsions:
REMARK  status: ('A' for Active; 'I' for Inactive)
REMARK    1  A    between atoms: C2_2  and  C4_4 
REMARK    2  A    between atoms: C4_4  and  O1_5 
REMARK    3  A    between atoms: O1_5  and  C5_6 
REMARK    4  A    between atoms: C6_7  and  O2_8 
REMARK    5  A    between atoms: C7_10  and  O3_11 
REMARK    6  A    between atoms: C11_15  and  O4_16 
REMARK    7  A    between atoms: N1_23  and  O7_25 
ROOT
HETATM    1  C5  UNL     1     -26.356  12.773  78.125  1.00  0.00     0.141 A 
HETATM    2  C6  UNL     1     -27.423  12.315  78.880  1.00  0.00     0.137 A 
HETATM    3  C7  UNL     1     -28.689  12.809  78.628  1.00  0.00     0.119 A 
HETATM    4  C9  UNL     1     -28.878  13.748  77.631  1.00  0.00     0.064 A 
HETATM    5  C10 UNL     1     -27.822  14.231  76.851  1.00  0.00     0.123 A 
HETATM    6  C11 UNL     1     -26.552  13.712  77.131  1.00  0.00     0.137 A 
HETATM    7  O5  UNL     1     -28.047  15.180  75.854  1.00  0.00    -0.313 OA
HETATM    8  C12 UNL     1     -29.177  15.965  76.026  1.00  0.00     0.302 A 
HETATM    9  O6  UNL     1     -30.342  16.071  75.452  1.00  0.00    -0.341 OA
HETATM   10  C13 UNL     1     -30.282  14.871  75.955  1.00  0.00     0.232 A 
HETATM   11  C14 UNL     1     -30.200  14.327  77.305  1.00  0.00     0.081 C 
HETATM   12  N1  UNL     1     -31.101  14.298  78.202  1.00  0.00    -0.270 N 
ATOM     13  H1  UNL     1     -30.855  13.874  79.097  1.00  0.00     0.194 HD
ENDROOT
BRANCH   1  14
HETATM   14  O1  UNL     1     -25.072  12.299  78.353  1.00  0.00    -0.341 OA
BRANCH  14  15
HETATM   15  C4  UNL     1     -24.610  11.080  77.751  1.00  0.00     0.209 C 
BRANCH  15  16
HETATM   16  C2  UNL     1     -23.800  10.363  78.772  1.00  0.00    -0.069 C 
HETATM   17  C1  UNL     1     -23.196  11.007  79.762  1.00  0.00     0.016 C 
HETATM   18  C3  UNL     1     -23.666   8.884  78.679  1.00  0.00     0.044 C 
ENDBRANCH  15  16
ENDBRANCH  14  15
ENDBRANCH   1  14
BRANCH   2  19
HETATM   19  O2  UNL     1     -27.284  11.386  79.878  1.00  0.00    -0.356 OA
ATOM     20  H2  UNL     1     -28.017  11.064  80.390  1.00  0.00     0.218 HD
ENDBRANCH   2  19
BRANCH   6  21
HETATM   21  O4  UNL     1     -25.514  14.183  76.369  1.00  0.00    -0.356 OA
ATOM     22  H4  UNL     1     -25.008  14.943  76.629  1.00  0.00     0.218 HD
ENDBRANCH   6  21
BRANCH   3  23
HETATM   23  O3  UNL     1     -29.794  12.392  79.345  1.00  0.00    -0.352 OA
HETATM   24  C8  UNL     1     -30.369  11.115  79.031  1.00  0.00     0.210 C 
ENDBRANCH   3  23
BRANCH  12  25
HETATM   25  O7  UNL     1     -32.359  14.781  78.071  1.00  0.00    -0.290 OA
ATOM     26  H7  UNL     1     -32.767  15.423  78.639  1.00  0.00     0.244 HD
ENDBRANCH  12  25
TORSDOF 7
ENDMDL
MODEL 2
REMARK VINA RESULT: -7.386653829      2.326      6.014
REMARK  7 active torsions:
REMARK  status: ('A' for Active; 'I' for Inactive)
REMARK    1  A    between atoms: C2_2  and  C4_4 
REMARK    2  A    between atoms: C4_4  and  O1_5 
REMARK    3  A    between atoms: O1_5  and  C5_6 
REMARK    4  A    between atoms: C6_7  and  O2_8 
REMARK    5  A    between atoms: C7_10  and  O3_11 
REMARK    6  A    between atoms: C11_15  and  O4_16 
REMARK    7  A    between atoms: N1_23  and  O7_25 
ROOT
HETATM    1  C5  UNL     1     -29.347  13.591  78.315  1.00  0.00     0.141 A 
HETATM    2  C6  UNL     1     -29.187  12.422  79.042  1.00  0.00     0.137 A 
HETATM    3  C7  UNL     1     -28.072  11.636  78.818  1.00  0.00     0.119 A 
HETATM    4  C9  UNL     1     -27.134  12.021  77.877  1.00  0.00     0.064 A 
HETATM    5  C10 UNL     1     -27.266  13.193  77.127  1.00  0.00     0.123 A 
HETATM    6  C11 UNL     1     -28.406  13.969  77.378  1.00  0.00     0.137 A 
HETATM    7  O5  UNL     1     -26.302  13.551  76.186  1.00  0.00    -0.313 OA
HETATM    8  C12 UNL     1     -25.553  12.502  75.676  1.00  0.00     0.302 A 
HETATM    9  O6  UNL     1     -24.321  12.088  75.786  1.00  0.00    -0.341 OA
HETATM   10  C13 UNL     1     -24.847  12.014  76.976  1.00  0.00     0.232 A 
HETATM   11  C14 UNL     1     -25.920  11.230  77.577  1.00  0.00     0.081 C 
HETATM   12  N1  UNL     1     -25.930   9.991  77.858  1.00  0.00    -0.270 N 
ATOM     13  H1  UNL     1     -26.781   9.615  78.277  1.00  0.00     0.194 HD
ENDROOT
BRANCH   1  14
HETATM   14  O1  UNL     1     -30.454  14.402  78.516  1.00  0.00    -0.341 OA
BRANCH  14  15
HETATM   15  C4  UNL     1     -31.712  14.118  77.884  1.00  0.00     0.209 C 
BRANCH  15  16
HETATM   16  C2  UNL     1     -32.326  15.422  77.520  1.00  0.00    -0.069 C 
HETATM   17  C1  UNL     1     -31.614  16.405  76.986  1.00  0.00     0.016 C 
HETATM   18  C3  UNL     1     -33.780  15.628  77.762  1.00  0.00     0.044 C 
ENDBRANCH  15  16
ENDBRANCH  14  15
ENDBRANCH   1  14
BRANCH   2  19
HETATM   19  O2  UNL     1     -30.090  12.002  79.983  1.00  0.00    -0.356 OA
ATOM     20  H2  UNL     1     -30.753  12.573  80.354  1.00  0.00     0.218 HD
ENDBRANCH   2  19
BRANCH   6  21
HETATM   21  O4  UNL     1     -28.539  15.119  76.645  1.00  0.00    -0.356 OA
ATOM     22  H4  UNL     1     -28.010  15.888  76.821  1.00  0.00     0.218 HD
ENDBRANCH   6  21
BRANCH   3  23
HETATM   23  O3  UNL     1     -27.854  10.460  79.509  1.00  0.00    -0.352 OA
HETATM   24  C8  UNL     1     -27.544  10.539  80.908  1.00  0.00     0.210 C 
ENDBRANCH   3  23
BRANCH  12  25
HETATM   25  O7  UNL     1     -24.908   9.127  77.651  1.00  0.00    -0.290 OA
ATOM     26  H7  UNL     1     -24.766   8.315  78.124  1.00  0.00     0.244 HD
ENDBRANCH  12  25
TORSDOF 7
ENDMDL
MODEL 3
REMARK VINA RESULT: -7.359788281      1.211      1.442
REMARK  7 active torsions:
REMARK  status: ('A' for Active; 'I' for Inactive)
REMARK    1  A    between atoms: C2_2  and  C4_4 
REMARK    2  A    between atoms: C4_4  and  O1_5 
REMARK    3  A    between atoms: O1_5  and  C5_6 
REMARK    4  A    between atoms: C6_7  and  O2_8 
REMARK    5  A    between atoms: C7_10  and  O3_11 
REMARK    6  A    between atoms: C11_15  and  O4_16 
REMARK    7  A    between atoms: N1_23  and  O7_25 
ROOT
HETATM    1  C5  UNL     1     -27.828  12.626  78.707  1.00  0.00     0.141 A 
HETATM    2  C6  UNL     1     -29.135  12.523  79.154  1.00  0.00     0.137 A 
HETATM    3  C7  UNL     1     -30.112  13.306  78.568  1.00  0.00     0.119 A 
HETATM    4  C9  UNL     1     -29.778  14.178  77.549  1.00  0.00     0.064 A 
HETATM    5  C10 UNL     1     -28.469  14.306  77.075  1.00  0.00     0.123 A 
HETATM    6  C11 UNL     1     -27.502  13.499  77.688  1.00  0.00     0.137 A 
HETATM    7  O5  UNL     1     -28.166  15.197  76.046  1.00  0.00    -0.313 OA
HETATM    8  C12 UNL     1     -29.045  16.260  75.903  1.00  0.00     0.302 A 
HETATM    9  O6  UNL     1     -29.952  16.617  75.037  1.00  0.00    -0.341 OA
HETATM   10  C13 UNL     1     -30.351  15.488  75.549  1.00  0.00     0.232 A 
HETATM   11  C14 UNL     1     -30.765  15.052  76.878  1.00  0.00     0.081 C 
HETATM   12  N1  UNL     1     -31.837  15.331  77.501  1.00  0.00    -0.270 N 
ATOM     13  H1  UNL     1     -31.952  14.931  78.433  1.00  0.00     0.194 HD
ENDROOT
BRANCH   1  14
HETATM   14  O1  UNL     1     -26.824  11.854  79.273  1.00  0.00    -0.341 OA
BRANCH  14  15
HETATM   15  C4  UNL     1     -26.486  10.563  78.743  1.00  0.00     0.209 C 
BRANCH  15  16
HETATM   16  C2  UNL     1     -25.004  10.444  78.784  1.00  0.00    -0.069 C 
HETATM   17  C1  UNL     1     -24.235  11.437  79.210  1.00  0.00     0.016 C 
HETATM   18  C3  UNL     1     -24.370   9.175  78.335  1.00  0.00     0.044 C 
ENDBRANCH  15  16
ENDBRANCH  14  15
ENDBRANCH   1  14
BRANCH   2  19
HETATM   19  O2  UNL     1     -29.512  11.673  80.161  1.00  0.00    -0.356 OA
ATOM     20  H2  UNL     1     -30.130  11.919  80.840  1.00  0.00     0.218 HD
ENDBRANCH   2  19
BRANCH   6  21
HETATM   21  O4  UNL     1     -26.217  13.622  77.226  1.00  0.00    -0.356 OA
ATOM     22  H4  UNL     1     -25.759  12.893  76.823  1.00  0.00     0.218 HD
ENDBRANCH   6  21
BRANCH   3  23
HETATM   23  O3  UNL     1     -31.433  13.250  78.969  1.00  0.00    -0.352 OA
HETATM   24  C8  UNL     1     -32.232  12.139  78.534  1.00  0.00     0.210 C 
ENDBRANCH   3  23
BRANCH  12  25
HETATM   25  O7  UNL     1     -32.841  16.111  77.035  1.00  0.00    -0.290 OA
ATOM     26  H7  UNL     1     -33.327  16.750  77.543  1.00  0.00     0.244 HD
ENDBRANCH  12  25
TORSDOF 7
ENDMDL
MODEL 4
REMARK VINA RESULT: -7.291057663      1.388      1.538
REMARK  7 active torsions:
REMARK  status: ('A' for Active; 'I' for Inactive)
REMARK    1  A    between atoms: C2_2  and  C4_4 
REMARK    2  A    between atoms: C4_4  and  O1_5 
REMARK    3  A    between atoms: O1_5  and  C5_6 
REMARK    4  A    between atoms: C6_7  and  O2_8 
REMARK    5  A    between atoms: C7_10  and  O3_11 
REMARK    6  A    between atoms: C11_15  and  O4_16 
REMARK    7  A    between atoms: N1_23  and  O7_25 
ROOT
HETATM    1  C5  UNL     1     -26.002  12.167  78.565  1.00  0.00     0.141 A 
HETATM    2  C6  UNL     1     -26.835  11.412  79.374  1.00  0.00     0.137 A 
HETATM    3  C7  UNL     1     -28.201  11.611  79.309  1.00  0.00     0.119 A 
HETATM    4  C9  UNL     1     -28.720  12.556  78.443  1.00  0.00     0.064 A 
HETATM    5  C10 UNL     1     -27.907  13.335  77.614  1.00  0.00     0.123 A 
HETATM    6  C11 UNL     1     -26.527  13.109  77.703  1.00  0.00     0.137 A 
HETATM    7  O5  UNL     1     -28.463  14.280  76.752  1.00  0.00    -0.313 OA
HETATM    8  C12 UNL     1     -29.709  14.761  77.124  1.00  0.00     0.302 A 
HETATM    9  O6  UNL     1     -30.931  14.634  76.688  1.00  0.00    -0.341 OA
HETATM   10  C13 UNL     1     -30.541  13.446  77.052  1.00  0.00     0.232 A 
HETATM   11  C14 UNL     1     -30.168  12.831  78.321  1.00  0.00     0.081 C 
HETATM   12  N1  UNL     1     -30.920  12.520  79.298  1.00  0.00    -0.270 N 
ATOM     13  H1  UNL     1     -30.474  12.096  80.112  1.00  0.00     0.194 HD
ENDROOT
BRANCH   1  14
HETATM   14  O1  UNL     1     -24.626  11.991  78.607  1.00  0.00    -0.341 OA
BRANCH  14  15
HETATM   15  C4  UNL     1     -23.993  10.900  77.920  1.00  0.00     0.209 C 
BRANCH  15  16
HETATM   16  C2  UNL     1     -22.705  10.632  78.615  1.00  0.00    -0.069 C 
HETATM   17  C1  UNL     1     -22.517  10.955  79.887  1.00  0.00     0.016 C 
HETATM   18  C3  UNL     1     -21.600   9.983  77.859  1.00  0.00     0.044 C 
ENDBRANCH  15  16
ENDBRANCH  14  15
ENDBRANCH   1  14
BRANCH   2  19
HETATM   19  O2  UNL     1     -26.365  10.465  80.248  1.00  0.00    -0.356 OA
ATOM     20  H2  UNL     1     -25.545  10.559  80.718  1.00  0.00     0.218 HD
ENDBRANCH   2  19
BRANCH   6  21
HETATM   21  O4  UNL     1     -25.727  13.870  76.891  1.00  0.00    -0.356 OA
ATOM     22  H4  UNL     1     -25.607  14.801  77.038  1.00  0.00     0.218 HD
ENDBRANCH   6  21
BRANCH   3  23
HETATM   23  O3  UNL     1     -29.085  10.891  80.089  1.00  0.00    -0.352 OA
HETATM   24  C8  UNL     1     -29.428   9.558  79.678  1.00  0.00     0.210 C 
ENDBRANCH   3  23
BRANCH  12  25
HETATM   25  O7  UNL     1     -32.260  12.701  79.351  1.00  0.00    -0.290 OA
ATOM     26  H7  UNL     1     -32.797  12.634  80.132  1.00  0.00     0.244 HD
ENDBRANCH  12  25
TORSDOF 7
ENDMDL
MODEL 5
REMARK VINA RESULT: -7.279419241      2.629      6.455
REMARK  7 active torsions:
REMARK  status: ('A' for Active; 'I' for Inactive)
REMARK    1  A    between atoms: C2_2  and  C4_4 
REMARK    2  A    between atoms: C4_4  and  O1_5 
REMARK    3  A    between atoms: O1_5  and  C5_6 
REMARK    4  A    between atoms: C6_7  and  O2_8 
REMARK    5  A    between atoms: C7_10  and  O3_11 
REMARK    6  A    between atoms: C11_15  and  O4_16 
REMARK    7  A    between atoms: N1_23  and  O7_25 
ROOT
HETATM    1  C5  UNL     1     -30.261  13.319  78.124  1.00  0.00     0.141 A 
HETATM    2  C6  UNL     1     -29.077  13.015  78.775  1.00  0.00     0.137 A 
HETATM    3  C7  UNL     1     -28.961  11.806  79.435  1.00  0.00     0.119 A 
HETATM    4  C9  UNL     1     -30.021  10.918  79.440  1.00  0.00     0.064 A 
HETATM    5  C10 UNL     1     -31.229  11.194  78.794  1.00  0.00     0.123 A 
HETATM    6  C11 UNL     1     -31.316  12.427  78.133  1.00  0.00     0.137 A 
HETATM    7  O5  UNL     1     -32.279  10.277  78.819  1.00  0.00    -0.313 OA
HETATM    8  C12 UNL     1     -32.270   9.394  79.888  1.00  0.00     0.302 A 
HETATM    9  O6  UNL     1     -32.043   8.120  80.050  1.00  0.00    -0.341 OA
HETATM   10  C13 UNL     1     -30.935   8.642  79.608  1.00  0.00     0.232 A 
HETATM   11  C14 UNL     1     -29.976   9.609  80.129  1.00  0.00     0.081 C 
HETATM   12  N1  UNL     1     -29.139   9.461  81.074  1.00  0.00    -0.270 N 
ATOM     13  H1  UNL     1     -28.546  10.260  81.302  1.00  0.00     0.194 HD
ENDROOT
BRANCH   1  14
HETATM   14  O1  UNL     1     -30.409  14.524  77.452  1.00  0.00    -0.341 OA
BRANCH  14  15
HETATM   15  C4  UNL     1     -29.855  14.720  76.142  1.00  0.00     0.209 C 
BRANCH  15  16
HETATM   16  C2  UNL     1     -29.778  16.187  75.912  1.00  0.00    -0.069 C 
HETATM   17  C1  UNL     1     -28.794  16.734  75.211  1.00  0.00     0.016 C 
HETATM   18  C3  UNL     1     -30.835  17.063  76.486  1.00  0.00     0.044 C 
ENDBRANCH  15  16
ENDBRANCH  14  15
ENDBRANCH   1  14
BRANCH   2  19
HETATM   19  O2  UNL     1     -28.001  13.864  78.798  1.00  0.00    -0.356 OA
ATOM     20  H2  UNL     1     -27.355  13.860  79.495  1.00  0.00     0.218 HD
ENDBRANCH   2  19
BRANCH   6  21
HETATM   21  O4  UNL     1     -32.499  12.702  77.498  1.00  0.00    -0.356 OA
ATOM     22  H4  UNL     1     -33.335  12.442  77.865  1.00  0.00     0.218 HD
ENDBRANCH   6  21
BRANCH   3  23
HETATM   23  O3  UNL     1     -27.807  11.443  80.103  1.00  0.00    -0.352 OA
HETATM   24  C8  UNL     1     -26.669  11.039  79.328  1.00  0.00     0.210 C 
ENDBRANCH   3  23
BRANCH  12  25
HETATM   25  O7  UNL     1     -28.967   8.334  81.805  1.00  0.00    -0.290 OA
ATOM     26  H7  UNL     1     -28.818   8.301  82.743  1.00  0.00     0.244 HD
ENDBRANCH  12  25
TORSDOF 7
ENDMDL
