MODEL 1
REMARK VINA RESULT: -6.818557506      0.000      0.000
REMARK  6 active torsions:
REMARK  status: ('A' for Active; 'I' for Inactive)
REMARK    1  A    between atoms: N1_2  and  C2_4 
REMARK    2  A    between atoms: C3_7  and  S1_8 
REMARK    3  A    between atoms: S1_8  and  C4_9 
REMARK    4  A    between atoms: C4_9  and  C5_10 
REMARK    5  A    between atoms: C6_11  and  C7_12 
REMARK    6  A    between atoms: C11_25  and  N7_26 
ROOT
HETATM    1  C2  UNL     1      11.103  -5.147  51.543  1.00  0.00     0.694 A 
HETATM    2  N2  UNL     1      10.285  -5.656  50.614  1.00  0.00    -0.169 N 
ATOM      3  H2  UNL     1      10.647  -6.329  49.939  1.00  0.00     0.186 HD
HETATM    4  C3  UNL     1       8.992  -5.292  50.560  1.00  0.00     0.175 A 
HETATM    5  N6  UNL     1       8.506  -4.393  51.462  1.00  0.00    -0.169 N 
ATOM      6  H6  UNL     1       7.526  -4.113  51.424  1.00  0.00     0.186 HD
HETATM    7  C11 UNL     1       9.314  -3.875  52.399  1.00  0.00     0.697 A 
HETATM    8  N9  UNL     1      10.586  -4.258  52.421  1.00  0.00    -0.022 N 
ATOM      9  H9  UNL     1      11.200  -3.864  53.134  1.00  0.00     0.203 HD
ENDROOT
BRANCH   4  10
HETATM   10  S1  UNL     1       7.965  -6.015  49.290  1.00  0.00    -0.081 SA
BRANCH  10  11
HETATM   11  C4  UNL     1       7.001  -7.352  50.069  1.00  0.00     0.176 C 
BRANCH  11  12
HETATM   12  C5  UNL     1       7.614  -7.684  51.356  1.00  0.00    -0.088 C 
HETATM   13  C6  UNL     1       8.134  -7.941  52.414  1.00  0.00    -0.029 C 
BRANCH  13  14
HETATM   14  C7  UNL     1       8.767  -8.227  53.676  1.00  0.00     0.162 A 
HETATM   15  N3  UNL     1       8.155  -8.865  54.680  1.00  0.00    -0.322 N 
HETATM   16  C8  UNL     1       8.751  -9.134  55.865  1.00  0.00     0.101 A 
ATOM     17  H3  UNL     1       7.189  -9.164  54.545  1.00  0.00     0.169 HD
HETATM   18  N4  UNL     1       8.125  -9.752  56.811  1.00  0.00    -0.385 N 
HETATM   19  C9  UNL     1      10.056  -8.737  56.067  1.00  0.00     0.065 A 
ATOM     20  H42 UNL     1       7.160 -10.045  56.661  1.00  0.00     0.157 HD
ATOM     21  H41 UNL     1       8.575  -9.954  57.704  1.00  0.00     0.157 HD
HETATM   22  C10 UNL     1      10.680  -8.081  55.026  1.00  0.00     0.094 A 
HETATM   23  N5  UNL     1      10.047  -7.832  53.857  1.00  0.00    -0.345 N 
ATOM     24  H5  UNL     1      10.538  -7.343  53.108  1.00  0.00     0.167 HD
ENDBRANCH  13  14
ENDBRANCH  11  12
ENDBRANCH  10  11
ENDBRANCH   4  10
BRANCH   1  25
HETATM   25  N1  UNL     1      12.326  -5.507  51.575  1.00  0.00    -0.230 N 
HETATM   26  C1  UNL     1      13.149  -5.131  52.701  1.00  0.00     0.165 C 
ATOM     27  H1  UNL     1      12.720  -6.056  50.811  1.00  0.00     0.177 HD
ENDBRANCH   1  25
BRANCH   7  28
HETATM   28  N7  UNL     1       8.816  -2.948  53.331  1.00  0.00    -0.214 N 
HETATM   29  C12 UNL     1       8.544  -1.559  53.058  1.00  0.00     0.168 C 
HETATM   30  C13 UNL     1       7.303  -1.189  53.864  1.00  0.00     0.252 C 
HETATM   31  N8  UNL     1       6.433  -2.339  54.032  1.00  0.00    -0.072 N 
HETATM   32  C14 UNL     1       7.024  -3.376  54.841  1.00  0.00     0.252 C 
ATOM     33  H82 UNL     1       5.526  -2.058  54.404  1.00  0.00     0.277 HD
ATOM     34  H81 UNL     1       6.136  -2.707  53.129  1.00  0.00     0.277 HD
HETATM   35  C15 UNL     1       8.540  -3.403  54.700  1.00  0.00     0.168 C 
ENDBRANCH   7  28
TORSDOF 6
ENDMDL
MODEL 2
REMARK VINA RESULT: -6.773278145      1.486      3.405
REMARK  6 active torsions:
REMARK  status: ('A' for Active; 'I' for Inactive)
REMARK    1  A    between atoms: N1_2  and  C2_4 
REMARK    2  A    between atoms: C3_7  and  S1_8 
REMARK    3  A    between atoms: S1_8  and  C4_9 
REMARK    4  A    between atoms: C4_9  and  C5_10 
REMARK    5  A    between atoms: C6_11  and  C7_12 
REMARK    6  A    between atoms: C11_25  and  N7_26 
ROOT
HETATM    1  C2  UNL     1       8.728  -2.847  52.089  1.00  0.00     0.694 A 
HETATM    2  N2  UNL     1       8.389  -3.755  51.167  1.00  0.00    -0.169 N 
ATOM      3  H2  UNL     1       7.522  -3.640  50.643  1.00  0.00     0.186 HD
HETATM    4  C3  UNL     1       9.176  -4.817  50.922  1.00  0.00     0.175 A 
HETATM    5  N6  UNL     1      10.335  -4.971  51.622  1.00  0.00    -0.169 N 
ATOM      6  H6  UNL     1      10.935  -5.776  51.440  1.00  0.00     0.186 HD
HETATM    7  C11 UNL     1      10.689  -4.068  52.548  1.00  0.00     0.697 A 
HETATM    8  N9  UNL     1       9.886  -3.032  52.762  1.00  0.00    -0.022 N 
ATOM      9  H9  UNL     1      10.155  -2.346  53.467  1.00  0.00     0.203 HD
ENDROOT
BRANCH   4  10
HETATM   10  S1  UNL     1       8.652  -5.986  49.678  1.00  0.00    -0.081 SA
BRANCH  10  11
HETATM   11  C4  UNL     1       7.426  -7.089  50.454  1.00  0.00     0.176 C 
BRANCH  11  12
HETATM   12  C5  UNL     1       7.943  -7.527  51.752  1.00  0.00    -0.088 C 
HETATM   13  C6  UNL     1       8.386  -7.875  52.819  1.00  0.00    -0.029 C 
BRANCH  13  14
HETATM   14  C7  UNL     1       8.934  -8.273  54.090  1.00  0.00     0.162 A 
HETATM   15  N3  UNL     1       8.232  -8.928  55.022  1.00  0.00    -0.322 N 
HETATM   16  C8  UNL     1       8.748  -9.302  56.217  1.00  0.00     0.101 A 
ATOM     17  H3  UNL     1       7.258  -9.156  54.823  1.00  0.00     0.169 HD
HETATM   18  N4  UNL     1       8.037  -9.932  57.091  1.00  0.00    -0.385 N 
HETATM   19  C9  UNL     1      10.062  -9.002  56.506  1.00  0.00     0.065 A 
ATOM     20  H42 UNL     1       7.065 -10.154  56.877  1.00  0.00     0.157 HD
ATOM     21  H41 UNL     1       8.425 -10.214  57.991  1.00  0.00     0.157 HD
HETATM   22  C10 UNL     1      10.779  -8.328  55.538  1.00  0.00     0.094 A 
HETATM   23  N5  UNL     1      10.224  -7.972  54.357  1.00  0.00    -0.345 N 
ATOM     24  H5  UNL     1      10.783  -7.474  53.664  1.00  0.00     0.167 HD
ENDBRANCH  13  14
ENDBRANCH  11  12
ENDBRANCH  10  11
ENDBRANCH   4  10
BRANCH   1  25
HETATM   25  N1  UNL     1       7.966  -1.847  52.303  1.00  0.00    -0.230 N 
HETATM   26  C1  UNL     1       8.514  -0.511  52.258  1.00  0.00     0.165 C 
ATOM     27  H1  UNL     1       6.977  -1.990  52.505  1.00  0.00     0.177 HD
ENDBRANCH   1  25
BRANCH   7  28
HETATM   28  N7  UNL     1      11.886  -4.225  53.270  1.00  0.00    -0.214 N 
HETATM   29  C12 UNL     1      13.202  -4.311  52.689  1.00  0.00     0.168 C 
HETATM   30  C13 UNL     1      14.150  -3.596  53.647  1.00  0.00     0.252 C 
HETATM   31  N8  UNL     1      13.464  -2.531  54.356  1.00  0.00    -0.072 N 
HETATM   32  C14 UNL     1      12.442  -3.019  55.248  1.00  0.00     0.252 C 
ATOM     33  H82 UNL     1      14.128  -1.937  54.852  1.00  0.00     0.277 HD
ATOM     34  H81 UNL     1      13.082  -1.846  53.704  1.00  0.00     0.277 HD
HETATM   35  C15 UNL     1      11.819  -4.311  54.735  1.00  0.00     0.168 C 
ENDBRANCH   7  28
TORSDOF 6
ENDMDL
MODEL 3
REMARK VINA RESULT: -6.606084197      1.503      3.590
REMARK  6 active torsions:
REMARK  status: ('A' for Active; 'I' for Inactive)
REMARK    1  A    between atoms: N1_2  and  C2_4 
REMARK    2  A    between atoms: C3_7  and  S1_8 
REMARK    3  A    between atoms: S1_8  and  C4_9 
REMARK    4  A    between atoms: C4_9  and  C5_10 
REMARK    5  A    between atoms: C6_11  and  C7_12 
REMARK    6  A    between atoms: C11_25  and  N7_26 
ROOT
HETATM    1  C2  UNL     1       8.694  -2.712  52.377  1.00  0.00     0.694 A 
HETATM    2  N2  UNL     1       8.448  -3.644  51.450  1.00  0.00    -0.169 N 
ATOM      3  H2  UNL     1       7.552  -3.647  50.963  1.00  0.00     0.186 HD
HETATM    4  C3  UNL     1       9.368  -4.579  51.150  1.00  0.00     0.175 A 
HETATM    5  N6  UNL     1      10.566  -4.576  51.800  1.00  0.00    -0.169 N 
ATOM      6  H6  UNL     1      11.267  -5.283  51.577  1.00  0.00     0.186 HD
HETATM    7  C11 UNL     1      10.826  -3.646  52.731  1.00  0.00     0.697 A 
HETATM    8  N9  UNL     1       9.894  -2.740  53.000  1.00  0.00    -0.022 N 
ATOM      9  H9  UNL     1      10.091  -2.033  53.708  1.00  0.00     0.203 HD
ENDROOT
BRANCH   4  10
HETATM   10  S1  UNL     1       8.964  -5.791  49.903  1.00  0.00    -0.081 SA
BRANCH  10  11
HETATM   11  C4  UNL     1       7.719  -6.912  50.620  1.00  0.00     0.176 C 
BRANCH  11  12
HETATM   12  C5  UNL     1       8.198  -7.371  51.925  1.00  0.00    -0.088 C 
HETATM   13  C6  UNL     1       8.598  -7.767  52.993  1.00  0.00    -0.029 C 
BRANCH  13  14
HETATM   14  C7  UNL     1       9.087  -8.260  54.255  1.00  0.00     0.162 A 
HETATM   15  N3  UNL     1       8.320  -8.907  55.140  1.00  0.00    -0.322 N 
HETATM   16  C8  UNL     1       8.781  -9.371  56.326  1.00  0.00     0.101 A 
ATOM     17  H3  UNL     1       7.338  -9.059  54.909  1.00  0.00     0.169 HD
HETATM   18  N4  UNL     1       8.008  -9.990  57.154  1.00  0.00    -0.385 N 
HETATM   19  C9  UNL     1      10.105  -9.175  56.656  1.00  0.00     0.065 A 
ATOM     20  H42 UNL     1       7.029 -10.135  56.909  1.00  0.00     0.157 HD
ATOM     21  H41 UNL     1       8.355 -10.339  58.048  1.00  0.00     0.157 HD
HETATM   22  C10 UNL     1      10.888  -8.508  55.737  1.00  0.00     0.094 A 
HETATM   23  N5  UNL     1      10.388  -8.060  54.563  1.00  0.00    -0.345 N 
ATOM     24  H5  UNL     1      10.995  -7.570  53.906  1.00  0.00     0.167 HD
ENDBRANCH  13  14
ENDBRANCH  11  12
ENDBRANCH  10  11
ENDBRANCH   4  10
BRANCH   1  25
HETATM   25  N1  UNL     1       7.806  -1.835  52.644  1.00  0.00    -0.230 N 
HETATM   26  C1  UNL     1       8.052  -0.450  52.317  1.00  0.00     0.165 C 
ATOM     27  H1  UNL     1       6.928  -2.111  53.084  1.00  0.00     0.177 HD
ENDBRANCH   1  25
BRANCH   7  28
HETATM   28  N7  UNL     1      12.063  -3.641  53.401  1.00  0.00    -0.214 N 
HETATM   29  C12 UNL     1      12.344  -2.924  54.619  1.00  0.00     0.168 C 
HETATM   30  C13 UNL     1      13.293  -3.799  55.433  1.00  0.00     0.252 C 
HETATM   31  N8  UNL     1      13.062  -5.205  55.159  1.00  0.00    -0.072 N 
HETATM   32  C14 UNL     1      13.392  -5.576  53.806  1.00  0.00     0.252 C 
ATOM     33  H82 UNL     1      13.558  -5.793  55.829  1.00  0.00     0.277 HD
ATOM     34  H81 UNL     1      12.103  -5.468  55.385  1.00  0.00     0.277 HD
HETATM   35  C15 UNL     1      13.174  -4.419  52.838  1.00  0.00     0.168 C 
ENDBRANCH   7  28
TORSDOF 6
ENDMDL
MODEL 4
REMARK VINA RESULT: -6.561960132      1.134      1.597
REMARK  6 active torsions:
REMARK  status: ('A' for Active; 'I' for Inactive)
REMARK    1  A    between atoms: N1_2  and  C2_4 
REMARK    2  A    between atoms: C3_7  and  S1_8 
REMARK    3  A    between atoms: S1_8  and  C4_9 
REMARK    4  A    between atoms: C4_9  and  C5_10 
REMARK    5  A    between atoms: C6_11  and  C7_12 
REMARK    6  A    between atoms: C11_25  and  N7_26 
ROOT
HETATM    1  C2  UNL     1      10.888  -4.069  52.492  1.00  0.00     0.694 A 
HETATM    2  N2  UNL     1      10.448  -4.874  51.519  1.00  0.00    -0.169 N 
ATOM      3  H2  UNL     1      11.058  -5.608  51.159  1.00  0.00     0.186 HD
HETATM    4  C3  UNL     1       9.212  -4.729  51.008  1.00  0.00     0.175 A 
HETATM    5  N6  UNL     1       8.397  -3.749  51.489  1.00  0.00    -0.169 N 
ATOM      6  H6  UNL     1       7.459  -3.634  51.105  1.00  0.00     0.186 HD
HETATM    7  C11 UNL     1       8.823  -2.935  52.466  1.00  0.00     0.697 A 
HETATM    8  N9  UNL     1      10.050  -3.109  52.945  1.00  0.00    -0.022 N 
ATOM      9  H9  UNL     1      10.375  -2.490  53.687  1.00  0.00     0.203 HD
ENDROOT
BRANCH   4  10
HETATM   10  S1  UNL     1       8.700  -5.842  49.709  1.00  0.00    -0.081 SA
BRANCH  10  11
HETATM   11  C4  UNL     1       7.500  -7.006  50.436  1.00  0.00     0.176 C 
BRANCH  11  12
HETATM   12  C5  UNL     1       8.001  -7.442  51.740  1.00  0.00    -0.088 C 
HETATM   13  C6  UNL     1       8.433  -7.805  52.808  1.00  0.00    -0.029 C 
BRANCH  13  14
HETATM   14  C7  UNL     1       8.972  -8.238  54.071  1.00  0.00     0.162 A 
HETATM   15  N3  UNL     1       8.253  -8.886  54.995  1.00  0.00    -0.322 N 
HETATM   16  C8  UNL     1       8.761  -9.293  56.183  1.00  0.00     0.101 A 
ATOM     17  H3  UNL     1       7.272  -9.082  54.795  1.00  0.00     0.169 HD
HETATM   18  N4  UNL     1       8.034  -9.915  57.050  1.00  0.00    -0.385 N 
HETATM   19  C9  UNL     1      10.084  -9.035  56.472  1.00  0.00     0.065 A 
ATOM     20  H42 UNL     1       7.056 -10.105  56.835  1.00  0.00     0.157 HD
ATOM     21  H41 UNL     1       8.417 -10.221  57.945  1.00  0.00     0.157 HD
HETATM   22  C10 UNL     1      10.818  -8.368  55.513  1.00  0.00     0.094 A 
HETATM   23  N5  UNL     1      10.271  -7.978  54.339  1.00  0.00    -0.345 N 
ATOM     24  H5  UNL     1      10.842  -7.486  53.652  1.00  0.00     0.167 HD
ENDBRANCH  13  14
ENDBRANCH  11  12
ENDBRANCH  10  11
ENDBRANCH   4  10
BRANCH   1  25
HETATM   25  N1  UNL     1      12.064  -4.226  52.961  1.00  0.00    -0.230 N 
HETATM   26  C1  UNL     1      12.966  -5.157  52.323  1.00  0.00     0.165 C 
ATOM     27  H1  UNL     1      12.365  -3.698  53.779  1.00  0.00     0.177 HD
ENDBRANCH   1  25
BRANCH   7  28
HETATM   28  N7  UNL     1       7.983  -1.924  52.964  1.00  0.00    -0.214 N 
HETATM   29  C12 UNL     1       7.129  -2.047  54.119  1.00  0.00     0.168 C 
HETATM   30  C13 UNL     1       7.136  -0.688  54.814  1.00  0.00     0.252 C 
HETATM   31  N8  UNL     1       8.399  -0.005  54.601  1.00  0.00    -0.072 N 
HETATM   32  C14 UNL     1       8.616   0.358  53.223  1.00  0.00     0.252 C 
ATOM     33  H82 UNL     1       8.479   0.810  55.210  1.00  0.00     0.277 HD
ATOM     34  H81 UNL     1       9.178  -0.557  54.959  1.00  0.00     0.277 HD
HETATM   35  C15 UNL     1       7.951  -0.629  52.272  1.00  0.00     0.168 C 
ENDBRANCH   7  28
TORSDOF 6
ENDMDL
MODEL 5
REMARK VINA RESULT: -6.534182443      1.613      3.652
REMARK  6 active torsions:
REMARK  status: ('A' for Active; 'I' for Inactive)
REMARK    1  A    between atoms: N1_2  and  C2_4 
REMARK    2  A    between atoms: C3_7  and  S1_8 
REMARK    3  A    between atoms: S1_8  and  C4_9 
REMARK    4  A    between atoms: C4_9  and  C5_10 
REMARK    5  A    between atoms: C6_11  and  C7_12 
REMARK    6  A    between atoms: C11_25  and  N7_26 
ROOT
HETATM    1  C2  UNL     1       8.727  -2.820  52.116  1.00  0.00     0.694 A 
HETATM    2  N2  UNL     1       8.377  -3.736  51.207  1.00  0.00    -0.169 N 
ATOM      3  H2  UNL     1       7.505  -3.624  50.689  1.00  0.00     0.186 HD
HETATM    4  C3  UNL     1       9.158  -4.804  50.966  1.00  0.00     0.175 A 
HETATM    5  N6  UNL     1      10.323  -4.954  51.656  1.00  0.00    -0.169 N 
ATOM      6  H6  UNL     1      10.919  -5.763  51.478  1.00  0.00     0.186 HD
HETATM    7  C11 UNL     1      10.688  -4.043  52.570  1.00  0.00     0.697 A 
HETATM    8  N9  UNL     1       9.890  -3.002  52.781  1.00  0.00    -0.022 N 
ATOM      9  H9  UNL     1      10.168  -2.309  53.476  1.00  0.00     0.203 HD
ENDROOT
BRANCH   4  10
HETATM   10  S1  UNL     1       8.620  -5.984  49.739  1.00  0.00    -0.081 SA
BRANCH  10  11
HETATM   11  C4  UNL     1       7.430  -7.102  50.548  1.00  0.00     0.176 C 
BRANCH  11  12
HETATM   12  C5  UNL     1       7.985  -7.526  51.834  1.00  0.00    -0.088 C 
HETATM   13  C6  UNL     1       8.463  -7.872  52.888  1.00  0.00    -0.029 C 
BRANCH  13  14
HETATM   14  C7  UNL     1       9.055  -8.274  54.138  1.00  0.00     0.162 A 
HETATM   15  N3  UNL     1      10.320  -8.002  54.475  1.00  0.00    -0.322 N 
HETATM   16  C8  UNL     1      10.876  -8.380  55.650  1.00  0.00     0.101 A 
ATOM     17  H3  UNL     1      10.896  -7.482  53.812  1.00  0.00     0.169 HD
HETATM   18  N4  UNL     1      12.102  -8.098  55.938  1.00  0.00    -0.385 N 
HETATM   19  C9  UNL     1      10.114  -9.084  56.559  1.00  0.00     0.065 A 
ATOM     20  H42 UNL     1      12.665  -7.578  55.266  1.00  0.00     0.157 HD
ATOM     21  H41 UNL     1      12.521  -8.384  56.824  1.00  0.00     0.157 HD
HETATM   22  C10 UNL     1       8.809  -9.359  56.203  1.00  0.00     0.094 A 
HETATM   23  N5  UNL     1       8.294  -8.963  55.017  1.00  0.00    -0.345 N 
ATOM     24  H5  UNL     1       7.325  -9.184  54.786  1.00  0.00     0.167 HD
ENDBRANCH  13  14
ENDBRANCH  11  12
ENDBRANCH  10  11
ENDBRANCH   4  10
BRANCH   1  25
HETATM   25  N1  UNL     1       7.970  -1.815  52.327  1.00  0.00    -0.230 N 
HETATM   26  C1  UNL     1       8.523  -0.482  52.269  1.00  0.00     0.165 C 
ATOM     27  H1  UNL     1       6.981  -1.953  52.534  1.00  0.00     0.177 HD
ENDBRANCH   1  25
BRANCH   7  28
HETATM   28  N7  UNL     1      11.891  -4.196  53.283  1.00  0.00    -0.214 N 
HETATM   29  C12 UNL     1      13.199  -4.316  52.691  1.00  0.00     0.168 C 
HETATM   30  C13 UNL     1      14.167  -3.587  53.618  1.00  0.00     0.252 C 
HETATM   31  N8  UNL     1      13.503  -2.495  54.305  1.00  0.00    -0.072 N 
HETATM   32  C14 UNL     1      12.485  -2.945  55.221  1.00  0.00     0.252 C 
ATOM     33  H82 UNL     1      14.180  -1.896  54.778  1.00  0.00     0.277 HD
ATOM     34  H81 UNL     1      13.122  -1.823  53.639  1.00  0.00     0.277 HD
HETATM   35  C15 UNL     1      11.839  -4.242  54.751  1.00  0.00     0.168 C 
ENDBRANCH   7  28
TORSDOF 6
ENDMDL
