MODEL 1
REMARK VINA RESULT: -7.062467773      0.000      0.000
REMARK  9 active torsions:
REMARK  status: ('A' for Active; 'I' for Inactive)
REMARK    1  A    between atoms: C6_7  and  N2_8 
REMARK    2  A    between atoms: N2_8  and  C7_10 
REMARK    3  A    between atoms: C7_10  and  C8_11 
REMARK    4  A    between atoms: C8_11  and  N3_12 
REMARK    5  A    between atoms: N3_12  and  C9_14 
REMARK    6  A    between atoms: C9_14  and  C10_15 
REMARK    7  A    between atoms: C10_15  and  O1_16 
REMARK    8  A    between atoms: C10_15  and  C11_18 
REMARK    9  A    between atoms: C11_18  and  C12_19 
ROOT
HETATM    1  N1  UNL     1     -10.287   9.662 -19.007  1.00  0.00    -0.191 NA
HETATM    2  C1  UNL     1     -10.108  10.801 -19.108  1.00  0.00     0.099 C 
HETATM    3  C2  UNL     1      -9.908  12.229 -19.238  1.00  0.00     0.046 A 
HETATM    4  C3  UNL     1     -10.558  13.052 -18.341  1.00  0.00     0.023 A 
HETATM    5  C4  UNL     1     -10.392  14.418 -18.437  1.00  0.00     0.004 A 
HETATM    6  C5  UNL     1      -9.579  14.935 -19.431  1.00  0.00     0.029 A 
HETATM    7  C6  UNL     1      -8.919  14.141 -20.338  1.00  0.00     0.029 A 
HETATM    8  C18 UNL     1      -9.107  12.779 -20.214  1.00  0.00     0.051 A 
ENDROOT
BRANCH   7   9
HETATM    9  N2  UNL     1      -8.106  14.735 -21.339  1.00  0.00    -0.388 N 
ATOM     10  H2  UNL     1      -8.010  14.259 -22.236  1.00  0.00     0.159 HD
BRANCH   9  11
HETATM   11  C7  UNL     1      -7.406  15.990 -21.141  1.00  0.00     0.139 C 
BRANCH  11  12
HETATM   12  C8  UNL     1      -5.958  15.791 -21.428  1.00  0.00     0.133 C 
BRANCH  12  13
HETATM   13  N3  UNL     1      -5.080  15.844 -20.313  1.00  0.00    -0.417 N 
ATOM     14  H3  UNL     1      -4.940  16.701 -19.779  1.00  0.00     0.153 HD
BRANCH  13  15
HETATM   15  C9  UNL     1      -4.404  14.629 -19.984  1.00  0.00     0.145 C 
BRANCH  15  16
HETATM   16  C10 UNL     1      -4.784  14.259 -18.563  1.00  0.00     0.139 C 
BRANCH  16  17
HETATM   17  O1  UNL     1      -3.640  13.834 -17.912  1.00  0.00    -0.394 OA
ATOM     18  H1  UNL     1      -3.232  14.592 -17.510  1.00  0.00     0.210 HD
ENDBRANCH  16  17
BRANCH  16  19
HETATM   19  C11 UNL     1      -5.897  13.259 -18.488  1.00  0.00     0.072 C 
BRANCH  19  20
HETATM   20  C12 UNL     1      -6.771  13.678 -17.344  1.00  0.00    -0.056 A 
HETATM   21  C13 UNL     1      -6.945  15.031 -17.070  1.00  0.00     0.009 A 
HETATM   22  C14 UNL     1      -7.734  15.463 -16.038  1.00  0.00     0.024 A 
HETATM   23  C15 UNL     1      -8.392  14.529 -15.227  1.00  0.00     0.034 A 
HETATM   24 CL1  UNL     1      -9.379  15.130 -13.935  1.00  0.00    -0.084 Cl
HETATM   25  C16 UNL     1      -8.217  13.182 -15.505  1.00  0.00     0.024 A 
HETATM   26  C17 UNL     1      -7.422  12.751 -16.543  1.00  0.00     0.009 A 
ENDBRANCH  19  20
ENDBRANCH  16  19
ENDBRANCH  15  16
ENDBRANCH  13  15
ENDBRANCH  12  13
ENDBRANCH  11  12
ENDBRANCH   9  11
ENDBRANCH   7   9
TORSDOF 9
ENDMDL
MODEL 2
REMARK VINA RESULT: -6.825768071      1.512      1.955
REMARK  9 active torsions:
REMARK  status: ('A' for Active; 'I' for Inactive)
REMARK    1  A    between atoms: C6_7  and  N2_8 
REMARK    2  A    between atoms: N2_8  and  C7_10 
REMARK    3  A    between atoms: C7_10  and  C8_11 
REMARK    4  A    between atoms: C8_11  and  N3_12 
REMARK    5  A    between atoms: N3_12  and  C9_14 
REMARK    6  A    between atoms: C9_14  and  C10_15 
REMARK    7  A    between atoms: C10_15  and  O1_16 
REMARK    8  A    between atoms: C10_15  and  C11_18 
REMARK    9  A    between atoms: C11_18  and  C12_19 
ROOT
HETATM    1  N1  UNL     1     -11.806   9.126 -22.941  1.00  0.00    -0.191 NA
HETATM    2  C1  UNL     1     -11.442   9.829 -22.097  1.00  0.00     0.099 C 
HETATM    3  C2  UNL     1     -11.009  10.710 -21.033  1.00  0.00     0.046 A 
HETATM    4  C3  UNL     1     -11.219  10.297 -19.733  1.00  0.00     0.023 A 
HETATM    5  C4  UNL     1     -10.821  11.114 -18.695  1.00  0.00     0.004 A 
HETATM    6  C5  UNL     1     -10.220  12.328 -18.977  1.00  0.00     0.029 A 
HETATM    7  C6  UNL     1      -9.998  12.766 -20.260  1.00  0.00     0.029 A 
HETATM    8  C18 UNL     1     -10.408  11.926 -21.276  1.00  0.00     0.051 A 
ENDROOT
BRANCH   7   9
HETATM    9  N2  UNL     1      -9.384  14.027 -20.482  1.00  0.00    -0.388 N 
ATOM     10  H2  UNL     1      -9.818  14.859 -20.080  1.00  0.00     0.159 HD
BRANCH   9  11
HETATM   11  C7  UNL     1      -8.168  14.184 -21.255  1.00  0.00     0.139 C 
BRANCH  11  12
HETATM   12  C8  UNL     1      -7.514  15.469 -20.880  1.00  0.00     0.133 C 
BRANCH  12  13
HETATM   13  N3  UNL     1      -6.141  15.400 -20.526  1.00  0.00    -0.417 N 
ATOM     14  H3  UNL     1      -5.569  16.237 -20.421  1.00  0.00     0.153 HD
BRANCH  13  15
HETATM   15  C9  UNL     1      -5.607  14.089 -20.326  1.00  0.00     0.145 C 
BRANCH  15  16
HETATM   16  C10 UNL     1      -5.521  13.849 -18.831  1.00  0.00     0.139 C 
BRANCH  16  17
HETATM   17  O1  UNL     1      -4.210  13.531 -18.524  1.00  0.00    -0.394 OA
ATOM     18  H1  UNL     1      -3.804  13.174 -19.305  1.00  0.00     0.210 HD
ENDBRANCH  16  17
BRANCH  16  19
HETATM   19  C11 UNL     1      -6.495  12.822 -18.339  1.00  0.00     0.072 C 
BRANCH  19  20
HETATM   20  C12 UNL     1      -7.218  13.439 -17.179  1.00  0.00    -0.056 A 
HETATM   21  C13 UNL     1      -7.406  14.818 -17.140  1.00  0.00     0.009 A 
HETATM   22  C14 UNL     1      -8.060  15.428 -16.104  1.00  0.00     0.024 A 
HETATM   23  C15 UNL     1      -8.561  14.656 -15.047  1.00  0.00     0.034 A 
HETATM   24 CL1  UNL     1      -9.382  15.480 -13.761  1.00  0.00    -0.084 Cl
HETATM   25  C16 UNL     1      -8.373  13.284 -15.091  1.00  0.00     0.024 A 
HETATM   26  C17 UNL     1      -7.713  12.673 -16.134  1.00  0.00     0.009 A 
ENDBRANCH  19  20
ENDBRANCH  16  19
ENDBRANCH  15  16
ENDBRANCH  13  15
ENDBRANCH  12  13
ENDBRANCH  11  12
ENDBRANCH   9  11
ENDBRANCH   7   9
TORSDOF 9
ENDMDL
MODEL 3
REMARK VINA RESULT: -6.776350248      3.253      4.517
REMARK  9 active torsions:
REMARK  status: ('A' for Active; 'I' for Inactive)
REMARK    1  A    between atoms: C6_7  and  N2_8 
REMARK    2  A    between atoms: N2_8  and  C7_10 
REMARK    3  A    between atoms: C7_10  and  C8_11 
REMARK    4  A    between atoms: C8_11  and  N3_12 
REMARK    5  A    between atoms: N3_12  and  C9_14 
REMARK    6  A    between atoms: C9_14  and  C10_15 
REMARK    7  A    between atoms: C10_15  and  O1_16 
REMARK    8  A    between atoms: C10_15  and  C11_18 
REMARK    9  A    between atoms: C11_18  and  C12_19 
ROOT
HETATM    1  N1  UNL     1     -11.249   9.133 -23.353  1.00  0.00    -0.191 NA
HETATM    2  C1  UNL     1     -11.063   9.806 -22.431  1.00  0.00     0.099 C 
HETATM    3  C2  UNL     1     -10.854  10.648 -21.272  1.00  0.00     0.046 A 
HETATM    4  C3  UNL     1     -11.192  10.134 -20.036  1.00  0.00     0.023 A 
HETATM    5  C4  UNL     1     -11.008  10.911 -18.911  1.00  0.00     0.004 A 
HETATM    6  C5  UNL     1     -10.489  12.187 -19.042  1.00  0.00     0.029 A 
HETATM    7  C6  UNL     1     -10.142  12.725 -20.258  1.00  0.00     0.029 A 
HETATM    8  C18 UNL     1     -10.339  11.923 -21.365  1.00  0.00     0.051 A 
ENDROOT
BRANCH   7   9
HETATM    9  N2  UNL     1      -9.622  14.045 -20.326  1.00  0.00    -0.388 N 
ATOM     10  H2  UNL     1      -9.033  14.297 -21.121  1.00  0.00     0.159 HD
BRANCH   9  11
HETATM   11  C7  UNL     1      -9.891  15.049 -19.316  1.00  0.00     0.139 C 
BRANCH  11  12
HETATM   12  C8  UNL     1      -8.657  15.277 -18.514  1.00  0.00     0.133 C 
BRANCH  12  13
HETATM   13  N3  UNL     1      -8.815  15.291 -17.102  1.00  0.00    -0.417 N 
ATOM     14  H3  UNL     1      -9.576  15.797 -16.650  1.00  0.00     0.153 HD
BRANCH  13  15
HETATM   15  C9  UNL     1      -7.846  14.555 -16.352  1.00  0.00     0.145 C 
BRANCH  15  16
HETATM   16  C10 UNL     1      -8.152  13.080 -16.523  1.00  0.00     0.139 C 
BRANCH  16  17
HETATM   17  O1  UNL     1      -8.922  12.675 -15.446  1.00  0.00    -0.394 OA
ATOM     18  H1  UNL     1      -9.651  12.168 -15.781  1.00  0.00     0.210 HD
ENDBRANCH  16  17
BRANCH  16  19
HETATM   19  C11 UNL     1      -6.927  12.237 -16.706  1.00  0.00     0.072 C 
BRANCH  19  20
HETATM   20  C12 UNL     1      -6.876  11.866 -18.158  1.00  0.00    -0.056 A 
HETATM   21  C13 UNL     1      -7.328  10.613 -18.565  1.00  0.00     0.009 A 
HETATM   22  C14 UNL     1      -7.304  10.229 -19.878  1.00  0.00     0.024 A 
HETATM   23  C15 UNL     1      -6.813  11.109 -20.852  1.00  0.00     0.034 A 
HETATM   24 CL1  UNL     1      -6.806  10.571 -22.500  1.00  0.00    -0.084 Cl
HETATM   25  C16 UNL     1      -6.366  12.355 -20.442  1.00  0.00     0.024 A 
HETATM   26  C17 UNL     1      -6.391  12.739 -19.120  1.00  0.00     0.009 A 
ENDBRANCH  19  20
ENDBRANCH  16  19
ENDBRANCH  15  16
ENDBRANCH  13  15
ENDBRANCH  12  13
ENDBRANCH  11  12
ENDBRANCH   9  11
ENDBRANCH   7   9
TORSDOF 9
ENDMDL
MODEL 4
REMARK VINA RESULT: -6.736719579      2.365      4.783
REMARK  9 active torsions:
REMARK  status: ('A' for Active; 'I' for Inactive)
REMARK    1  A    between atoms: C6_7  and  N2_8 
REMARK    2  A    between atoms: N2_8  and  C7_10 
REMARK    3  A    between atoms: C7_10  and  C8_11 
REMARK    4  A    between atoms: C8_11  and  N3_12 
REMARK    5  A    between atoms: N3_12  and  C9_14 
REMARK    6  A    between atoms: C9_14  and  C10_15 
REMARK    7  A    between atoms: C10_15  and  O1_16 
REMARK    8  A    between atoms: C10_15  and  C11_18 
REMARK    9  A    between atoms: C11_18  and  C12_19 
ROOT
HETATM    1  N1  UNL     1      -2.110  14.767 -17.735  1.00  0.00    -0.191 NA
HETATM    2  C1  UNL     1      -3.039  14.728 -18.425  1.00  0.00     0.099 C 
HETATM    3  C2  UNL     1      -4.215  14.685 -19.269  1.00  0.00     0.046 A 
HETATM    4  C3  UNL     1      -4.941  15.849 -19.416  1.00  0.00     0.023 A 
HETATM    5  C4  UNL     1      -6.069  15.843 -20.212  1.00  0.00     0.004 A 
HETATM    6  C5  UNL     1      -6.448  14.672 -20.844  1.00  0.00     0.029 A 
HETATM    7  C6  UNL     1      -5.744  13.498 -20.717  1.00  0.00     0.029 A 
HETATM    8  C18 UNL     1      -4.622  13.538 -19.914  1.00  0.00     0.051 A 
ENDROOT
BRANCH   7   9
HETATM    9  N2  UNL     1      -6.192  12.328 -21.386  1.00  0.00    -0.388 N 
ATOM     10  H2  UNL     1      -7.107  12.343 -21.837  1.00  0.00     0.159 HD
BRANCH   9  11
HETATM   11  C7  UNL     1      -5.403  11.114 -21.457  1.00  0.00     0.139 C 
BRANCH  11  12
HETATM   12  C8  UNL     1      -6.150  10.008 -20.794  1.00  0.00     0.133 C 
BRANCH  12  13
HETATM   13  N3  UNL     1      -7.494  10.285 -20.427  1.00  0.00    -0.417 N 
ATOM     14  H3  UNL     1      -8.176  10.631 -21.100  1.00  0.00     0.153 HD
BRANCH  13  15
HETATM   15  C9  UNL     1      -7.834  10.052 -19.058  1.00  0.00     0.145 C 
BRANCH  15  16
HETATM   16  C10 UNL     1      -8.123  11.396 -18.418  1.00  0.00     0.139 C 
BRANCH  16  17
HETATM   17  O1  UNL     1      -8.625  12.236 -19.396  1.00  0.00    -0.394 OA
ATOM     18  H1  UNL     1      -9.565  12.103 -19.442  1.00  0.00     0.210 HD
ENDBRANCH  16  17
BRANCH  16  19
HETATM   19  C11 UNL     1      -6.941  11.980 -17.707  1.00  0.00     0.072 C 
BRANCH  19  20
HETATM   20  C12 UNL     1      -7.478  13.015 -16.763  1.00  0.00    -0.056 A 
HETATM   21  C13 UNL     1      -8.063  12.616 -15.564  1.00  0.00     0.009 A 
HETATM   22  C14 UNL     1      -8.566  13.521 -14.670  1.00  0.00     0.024 A 
HETATM   23  C15 UNL     1      -8.498  14.892 -14.955  1.00  0.00     0.034 A 
HETATM   24 CL1  UNL     1      -9.150  15.995 -13.788  1.00  0.00    -0.084 Cl
HETATM   25  C16 UNL     1      -7.914  15.285 -16.149  1.00  0.00     0.024 A 
HETATM   26  C17 UNL     1      -7.409  14.371 -17.047  1.00  0.00     0.009 A 
ENDBRANCH  19  20
ENDBRANCH  16  19
ENDBRANCH  15  16
ENDBRANCH  13  15
ENDBRANCH  12  13
ENDBRANCH  11  12
ENDBRANCH   9  11
ENDBRANCH   7   9
TORSDOF 9
ENDMDL
MODEL 5
REMARK VINA RESULT: -6.681794401      2.382      3.589
REMARK  9 active torsions:
REMARK  status: ('A' for Active; 'I' for Inactive)
REMARK    1  A    between atoms: C6_7  and  N2_8 
REMARK    2  A    between atoms: N2_8  and  C7_10 
REMARK    3  A    between atoms: C7_10  and  C8_11 
REMARK    4  A    between atoms: C8_11  and  N3_12 
REMARK    5  A    between atoms: N3_12  and  C9_14 
REMARK    6  A    between atoms: C9_14  and  C10_15 
REMARK    7  A    between atoms: C10_15  and  O1_16 
REMARK    8  A    between atoms: C10_15  and  C11_18 
REMARK    9  A    between atoms: C11_18  and  C12_19 
ROOT
HETATM    1  N1  UNL     1      -6.264  11.694 -16.788  1.00  0.00    -0.191 NA
HETATM    2  C1  UNL     1      -7.223  11.581 -17.426  1.00  0.00     0.099 C 
HETATM    3  C2  UNL     1      -8.431  11.425 -18.207  1.00  0.00     0.046 A 
HETATM    4  C3  UNL     1      -9.626  11.796 -17.623  1.00  0.00     0.023 A 
HETATM    5  C4  UNL     1     -10.797  11.658 -18.339  1.00  0.00     0.004 A 
HETATM    6  C5  UNL     1     -10.752  11.152 -19.626  1.00  0.00     0.029 A 
HETATM    7  C6  UNL     1      -9.578  10.775 -20.234  1.00  0.00     0.029 A 
HETATM    8  C18 UNL     1      -8.424  10.925 -19.491  1.00  0.00     0.051 A 
ENDROOT
BRANCH   7   9
HETATM    9  N2  UNL     1      -9.601  10.254 -21.555  1.00  0.00    -0.388 N 
ATOM     10  H2  UNL     1      -9.330   9.281 -21.701  1.00  0.00     0.159 HD
BRANCH   9  11
HETATM   11  C7  UNL     1      -9.992  11.045 -22.705  1.00  0.00     0.139 C 
BRANCH  11  12
HETATM   12  C8  UNL     1      -8.838  11.885 -23.134  1.00  0.00     0.133 C 
BRANCH  12  13
HETATM   13  N3  UNL     1      -8.752  13.181 -22.560  1.00  0.00    -0.417 N 
ATOM     14  H3  UNL     1      -9.531  13.838 -22.592  1.00  0.00     0.153 HD
BRANCH  13  15
HETATM   15  C9  UNL     1      -7.510  13.511 -21.933  1.00  0.00     0.145 C 
BRANCH  15  16
HETATM   16  C10 UNL     1      -7.727  14.769 -21.114  1.00  0.00     0.139 C 
BRANCH  16  17
HETATM   17  O1  UNL     1      -7.910  15.823 -21.990  1.00  0.00    -0.394 OA
ATOM     18  H1  UNL     1      -7.096  16.311 -22.036  1.00  0.00     0.210 HD
ENDBRANCH  16  17
BRANCH  16  19
HETATM   19  C11 UNL     1      -6.634  15.025 -20.122  1.00  0.00     0.072 C 
BRANCH  19  20
HETATM   20  C12 UNL     1      -7.293  15.135 -18.779  1.00  0.00    -0.056 A 
HETATM   21  C13 UNL     1      -6.511  15.134 -17.626  1.00  0.00     0.009 A 
HETATM   22  C14 UNL     1      -7.065  15.234 -16.379  1.00  0.00     0.024 A 
HETATM   23  C15 UNL     1      -8.455  15.341 -16.241  1.00  0.00     0.034 A 
HETATM   24 CL1  UNL     1      -9.103  15.465 -14.638  1.00  0.00    -0.084 Cl
HETATM   25  C16 UNL     1      -9.229  15.342 -17.391  1.00  0.00     0.024 A 
HETATM   26  C17 UNL     1      -8.669  15.241 -18.645  1.00  0.00     0.009 A 
ENDBRANCH  19  20
ENDBRANCH  16  19
ENDBRANCH  15  16
ENDBRANCH  13  15
ENDBRANCH  12  13
ENDBRANCH  11  12
ENDBRANCH   9  11
ENDBRANCH   7   9
TORSDOF 9
ENDMDL
