MODEL 1
REMARK VINA RESULT: -7.051014471      0.000      0.000
REMARK  9 active torsions:
REMARK  status: ('A' for Active; 'I' for Inactive)
REMARK    1  A    between atoms: N2_3  and  C2_5 
REMARK    2  A    between atoms: C2_5  and  C3_6 
REMARK    3  A    between atoms: C3_6  and  C4_7 
REMARK    4  A    between atoms: C4_7  and  C5_8 
REMARK    5  A    between atoms: C5_8  and  C6_9 
REMARK    6  A    between atoms: C6_9  and  C7_10 
REMARK    7  A    between atoms: C7_10  and  N3_11 
REMARK    8  A    between atoms: N3_11  and  N4_13 
REMARK    9  A    between atoms: N4_13  and  C8_15 
ROOT
HETATM    1  N1  UNL     1      -2.116  14.809 -17.537  1.00  0.00    -0.172 NA
HETATM    2  C1  UNL     1      -3.186  14.532 -17.862  1.00  0.00     0.177 C 
HETATM    3  N2  UNL     1      -4.485  14.178 -18.273  1.00  0.00    -0.329 N 
ATOM      4  H2  UNL     1      -4.744  13.193 -18.335  1.00  0.00     0.171 HD
ENDROOT
BRANCH   3   5
HETATM    5  C2  UNL     1      -5.451  15.193 -18.605  1.00  0.00     0.131 C 
BRANCH   5   6
HETATM    6  C3  UNL     1      -6.366  14.639 -19.691  1.00  0.00     0.020 C 
BRANCH   6   7
HETATM    7  C4  UNL     1      -5.551  14.043 -20.807  1.00  0.00     0.002 C 
BRANCH   7   8
HETATM    8  C5  UNL     1      -6.119  12.712 -21.193  1.00  0.00     0.002 C 
BRANCH   8   9
HETATM    9  C6  UNL     1      -5.316  11.622 -20.534  1.00  0.00     0.021 C 
BRANCH   9  10
HETATM   10  C7  UNL     1      -5.956  10.257 -20.758  1.00  0.00     0.139 C 
BRANCH  10  11
HETATM   11  N3  UNL     1      -7.319  10.291 -20.306  1.00  0.00    -0.336 N 
ATOM     12  H3  UNL     1      -8.060  10.406 -20.997  1.00  0.00     0.180 HD
BRANCH  11  13
HETATM   13  N4  UNL     1      -7.640  10.182 -19.085  1.00  0.00    -0.301 N 
ATOM     14  H4  UNL     1      -7.178   9.507 -18.475  1.00  0.00     0.186 HD
BRANCH  13  15
HETATM   15  C8  UNL     1      -8.668  11.035 -18.593  1.00  0.00     0.108 A 
HETATM   16  C9  UNL     1     -10.008  10.989 -18.966  1.00  0.00     0.147 A 
HETATM   17  N5  UNL     1     -10.597  10.085 -19.902  1.00  0.00    -0.080 NA
HETATM   18  N6  UNL     1     -10.614  11.959 -18.267  1.00  0.00    -0.328 N 
HETATM   19  C10 UNL     1      -9.760  12.628 -17.471  1.00  0.00     0.127 A 
ATOM     20  H6  UNL     1     -11.611  12.167 -18.332  1.00  0.00     0.168 HD
HETATM   21  N7  UNL     1      -9.909  13.663 -16.602  1.00  0.00    -0.318 N 
HETATM   22  C13 UNL     1      -8.527  12.048 -17.673  1.00  0.00     0.107 A 
HETATM   23  C11 UNL     1      -8.871  14.158 -15.912  1.00  0.00     0.183 A 
ATOM     24  H7  UNL     1     -10.833  14.074 -16.472  1.00  0.00     0.170 HD
HETATM   25 CL1  UNL     1      -9.087  15.509 -14.784  1.00  0.00    -0.045 Cl
HETATM   26  N8  UNL     1      -7.660  13.607 -16.095  1.00  0.00    -0.299 N 
HETATM   27  C12 UNL     1      -7.471  12.570 -16.955  1.00  0.00     0.264 A 
ATOM     28  H8  UNL     1      -6.862  13.975 -15.576  1.00  0.00     0.171 HD
HETATM   29  O1  UNL     1      -6.345  12.050 -17.131  1.00  0.00    -0.267 OA
ENDBRANCH  13  15
ENDBRANCH  11  13
ENDBRANCH  10  11
ENDBRANCH   9  10
ENDBRANCH   8   9
ENDBRANCH   7   8
ENDBRANCH   6   7
ENDBRANCH   5   6
ENDBRANCH   3   5
TORSDOF 9
ENDMDL
MODEL 2
REMARK VINA RESULT: -6.959684658      2.767      4.698
REMARK  9 active torsions:
REMARK  status: ('A' for Active; 'I' for Inactive)
REMARK    1  A    between atoms: N2_3  and  C2_5 
REMARK    2  A    between atoms: C2_5  and  C3_6 
REMARK    3  A    between atoms: C3_6  and  C4_7 
REMARK    4  A    between atoms: C4_7  and  C5_8 
REMARK    5  A    between atoms: C5_8  and  C6_9 
REMARK    6  A    between atoms: C6_9  and  C7_10 
REMARK    7  A    between atoms: C7_10  and  N3_11 
REMARK    8  A    between atoms: N3_11  and  N4_13 
REMARK    9  A    between atoms: N4_13  and  C8_15 
ROOT
HETATM    1  N1  UNL     1      -2.326  14.853 -17.532  1.00  0.00    -0.172 NA
HETATM    2  C1  UNL     1      -3.263  14.411 -18.037  1.00  0.00     0.177 C 
HETATM    3  N2  UNL     1      -4.402  13.882 -18.672  1.00  0.00    -0.329 N 
ATOM      4  H2  UNL     1      -4.328  13.521 -19.623  1.00  0.00     0.171 HD
ENDROOT
BRANCH   3   5
HETATM    5  C2  UNL     1      -5.671  13.845 -17.990  1.00  0.00     0.131 C 
BRANCH   5   6
HETATM    6  C3  UNL     1      -5.888  15.196 -17.320  1.00  0.00     0.020 C 
BRANCH   6   7
HETATM    7  C4  UNL     1      -7.359  15.458 -17.137  1.00  0.00     0.002 C 
BRANCH   7   8
HETATM    8  C5  UNL     1      -7.702  15.418 -15.680  1.00  0.00     0.002 C 
BRANCH   8   9
HETATM    9  C6  UNL     1      -9.020  14.713 -15.502  1.00  0.00     0.021 C 
BRANCH   9  10
HETATM   10  C7  UNL     1      -9.030  13.376 -16.235  1.00  0.00     0.139 C 
BRANCH  10  11
HETATM   11  N3  UNL     1     -10.229  13.272 -17.019  1.00  0.00    -0.336 N 
ATOM     12  H3  UNL     1     -11.057  13.784 -16.716  1.00  0.00     0.180 HD
BRANCH  11  13
HETATM   13  N4  UNL     1     -10.302  12.571 -18.073  1.00  0.00    -0.301 N 
ATOM     14  H4  UNL     1     -10.977  11.811 -18.156  1.00  0.00     0.186 HD
BRANCH  13  15
HETATM   15  C8  UNL     1      -9.410  12.882 -19.136  1.00  0.00     0.108 A 
HETATM   16  C9  UNL     1      -9.298  14.118 -19.767  1.00  0.00     0.147 A 
HETATM   17  N5  UNL     1     -10.051  15.293 -19.466  1.00  0.00    -0.080 NA
HETATM   18  N6  UNL     1      -8.347  13.967 -20.699  1.00  0.00    -0.328 N 
HETATM   19  C10 UNL     1      -7.837  12.721 -20.716  1.00  0.00     0.127 A 
ATOM     20  H6  UNL     1      -8.044  14.713 -21.326  1.00  0.00     0.168 HD
HETATM   21  N7  UNL     1      -6.880  12.113 -21.465  1.00  0.00    -0.318 N 
HETATM   22  C13 UNL     1      -8.506  12.030 -19.729  1.00  0.00     0.107 A 
HETATM   23  C11 UNL     1      -6.550  10.828 -21.277  1.00  0.00     0.183 A 
ATOM     24  H7  UNL     1      -6.401  12.649 -22.189  1.00  0.00     0.170 HD
HETATM   25 CL1  UNL     1      -5.297  10.054 -22.266  1.00  0.00    -0.045 Cl
HETATM   26  N8  UNL     1      -7.189  10.135 -20.320  1.00  0.00    -0.299 N 
HETATM   27  C12 UNL     1      -8.153  10.709 -19.550  1.00  0.00     0.264 A 
ATOM     28  H8  UNL     1      -6.948   9.156 -20.168  1.00  0.00     0.171 HD
HETATM   29  O1  UNL     1      -8.755  10.071 -18.655  1.00  0.00    -0.267 OA
ENDBRANCH  13  15
ENDBRANCH  11  13
ENDBRANCH  10  11
ENDBRANCH   9  10
ENDBRANCH   8   9
ENDBRANCH   7   8
ENDBRANCH   6   7
ENDBRANCH   5   6
ENDBRANCH   3   5
TORSDOF 9
ENDMDL
MODEL 3
REMARK VINA RESULT: -6.913348095      2.728      4.454
REMARK  9 active torsions:
REMARK  status: ('A' for Active; 'I' for Inactive)
REMARK    1  A    between atoms: N2_3  and  C2_5 
REMARK    2  A    between atoms: C2_5  and  C3_6 
REMARK    3  A    between atoms: C3_6  and  C4_7 
REMARK    4  A    between atoms: C4_7  and  C5_8 
REMARK    5  A    between atoms: C5_8  and  C6_9 
REMARK    6  A    between atoms: C6_9  and  C7_10 
REMARK    7  A    between atoms: C7_10  and  N3_11 
REMARK    8  A    between atoms: N3_11  and  N4_13 
REMARK    9  A    between atoms: N4_13  and  C8_15 
ROOT
HETATM    1  N1  UNL     1      -3.093  13.609 -20.568  1.00  0.00    -0.172 NA
HETATM    2  C1  UNL     1      -3.613  13.754 -19.550  1.00  0.00     0.177 C 
HETATM    3  N2  UNL     1      -4.261  13.912 -18.310  1.00  0.00    -0.329 N 
ATOM      4  H2  UNL     1      -4.381  13.107 -17.696  1.00  0.00     0.171 HD
ENDROOT
BRANCH   3   5
HETATM    5  C2  UNL     1      -4.756  15.202 -17.902  1.00  0.00     0.131 C 
BRANCH   5   6
HETATM    6  C3  UNL     1      -6.273  15.195 -18.048  1.00  0.00     0.020 C 
BRANCH   6   7
HETATM    7  C4  UNL     1      -6.928  15.208 -16.692  1.00  0.00     0.002 C 
BRANCH   7   8
HETATM    8  C5  UNL     1      -8.372  15.580 -16.832  1.00  0.00     0.002 C 
BRANCH   8   9
HETATM    9  C6  UNL     1      -9.220  14.354 -16.622  1.00  0.00     0.021 C 
BRANCH   9  10
HETATM   10  C7  UNL     1      -9.793  13.851 -17.942  1.00  0.00     0.139 C 
BRANCH  10  11
HETATM   11  N3  UNL     1     -10.248  12.498 -17.778  1.00  0.00    -0.336 N 
ATOM     12  H3  UNL     1     -11.221  12.338 -17.516  1.00  0.00     0.180 HD
BRANCH  11  13
HETATM   13  N4  UNL     1      -9.492  11.494 -17.944  1.00  0.00    -0.301 N 
ATOM     14  H4  UNL     1      -9.145  10.957 -17.149  1.00  0.00     0.186 HD
BRANCH  13  15
HETATM   15  C8  UNL     1      -9.146  11.142 -19.278  1.00  0.00     0.108 A 
HETATM   16  C9  UNL     1     -10.043  10.786 -20.282  1.00  0.00     0.147 A 
HETATM   17  N5  UNL     1     -11.463  10.711 -20.161  1.00  0.00    -0.080 NA
HETATM   18  N6  UNL     1      -9.295  10.536 -21.367  1.00  0.00    -0.328 N 
HETATM   19  C10 UNL     1      -7.980  10.705 -21.134  1.00  0.00     0.127 A 
ATOM     20  H6  UNL     1      -9.680  10.251 -22.268  1.00  0.00     0.168 HD
HETATM   21  N7  UNL     1      -6.870  10.572 -21.906  1.00  0.00    -0.318 N 
HETATM   22  C13 UNL     1      -7.879  11.087 -19.814  1.00  0.00     0.107 A 
HETATM   23  C11 UNL     1      -5.642  10.805 -21.421  1.00  0.00     0.183 A 
ATOM     24  H7  UNL     1      -6.973  10.286 -22.880  1.00  0.00     0.170 HD
HETATM   25 CL1  UNL     1      -4.206  10.625 -22.447  1.00  0.00    -0.045 Cl
HETATM   26  N8  UNL     1      -5.522  11.179 -20.136  1.00  0.00    -0.299 N 
HETATM   27  C12 UNL     1      -6.609  11.323 -19.332  1.00  0.00     0.264 A 
ATOM     28  H8  UNL     1      -4.592  11.359 -19.755  1.00  0.00     0.171 HD
HETATM   29  O1  UNL     1      -6.506  11.672 -18.132  1.00  0.00    -0.267 OA
ENDBRANCH  13  15
ENDBRANCH  11  13
ENDBRANCH  10  11
ENDBRANCH   9  10
ENDBRANCH   8   9
ENDBRANCH   7   8
ENDBRANCH   6   7
ENDBRANCH   5   6
ENDBRANCH   3   5
TORSDOF 9
ENDMDL
MODEL 4
REMARK VINA RESULT: -6.812964495      2.762      5.194
REMARK  9 active torsions:
REMARK  status: ('A' for Active; 'I' for Inactive)
REMARK    1  A    between atoms: N2_3  and  C2_5 
REMARK    2  A    between atoms: C2_5  and  C3_6 
REMARK    3  A    between atoms: C3_6  and  C4_7 
REMARK    4  A    between atoms: C4_7  and  C5_8 
REMARK    5  A    between atoms: C5_8  and  C6_9 
REMARK    6  A    between atoms: C6_9  and  C7_10 
REMARK    7  A    between atoms: C7_10  and  N3_11 
REMARK    8  A    between atoms: N3_11  and  N4_13 
REMARK    9  A    between atoms: N4_13  and  C8_15 
ROOT
HETATM    1  N1  UNL     1      -7.229  12.286 -15.346  1.00  0.00    -0.172 NA
HETATM    2  C1  UNL     1      -8.067  12.931 -14.888  1.00  0.00     0.177 C 
HETATM    3  N2  UNL     1      -9.106  13.706 -14.340  1.00  0.00    -0.329 N 
ATOM      4  H2  UNL     1      -9.934  13.246 -13.961  1.00  0.00     0.171 HD
ENDROOT
BRANCH   3   5
HETATM    5  C2  UNL     1      -9.010  15.144 -14.310  1.00  0.00     0.131 C 
BRANCH   5   6
HETATM    6  C3  UNL     1      -8.144  15.585 -15.483  1.00  0.00     0.020 C 
BRANCH   6   7
HETATM    7  C4  UNL     1      -8.965  15.653 -16.743  1.00  0.00     0.002 C 
BRANCH   7   8
HETATM    8  C5  UNL     1      -8.118  15.279 -17.920  1.00  0.00     0.002 C 
BRANCH   8   9
HETATM    9  C6  UNL     1      -6.677  15.211 -17.491  1.00  0.00     0.021 C 
BRANCH   9  10
HETATM   10  C7  UNL     1      -5.834  14.462 -18.516  1.00  0.00     0.139 C 
BRANCH  10  11
HETATM   11  N3  UNL     1      -5.523  13.153 -18.011  1.00  0.00    -0.336 N 
ATOM     12  H3  UNL     1      -4.620  13.004 -17.563  1.00  0.00     0.180 HD
BRANCH  11  13
HETATM   13  N4  UNL     1      -6.325  12.175 -18.099  1.00  0.00    -0.301 N 
ATOM     14  H4  UNL     1      -6.682  11.709 -17.265  1.00  0.00     0.186 HD
BRANCH  13  15
HETATM   15  C8  UNL     1      -6.711  11.751 -19.401  1.00  0.00     0.108 A 
HETATM   16  C9  UNL     1      -5.869  11.653 -20.505  1.00  0.00     0.147 A 
HETATM   17  N5  UNL     1      -4.473  11.956 -20.535  1.00  0.00    -0.080 NA
HETATM   18  N6  UNL     1      -6.638  11.220 -21.513  1.00  0.00    -0.328 N 
HETATM   19  C10 UNL     1      -7.918  11.032 -21.138  1.00  0.00     0.127 A 
ATOM     20  H6  UNL     1      -6.293  11.051 -22.459  1.00  0.00     0.168 HD
HETATM   21  N7  UNL     1      -9.031  10.613 -21.795  1.00  0.00    -0.318 N 
HETATM   22  C13 UNL     1      -7.970  11.367 -19.803  1.00  0.00     0.107 A 
HETATM   23  C11 UNL     1     -10.216  10.509 -21.176  1.00  0.00     0.183 A 
ATOM     24  H7  UNL     1      -8.965  10.372 -22.784  1.00  0.00     0.170 HD
HETATM   25 CL1  UNL     1     -11.658   9.961 -22.052  1.00  0.00    -0.045 Cl
HETATM   26  N8  UNL     1     -10.289  10.831 -19.874  1.00  0.00    -0.299 N 
HETATM   27  C12 UNL     1      -9.196  11.254 -19.183  1.00  0.00     0.264 A 
ATOM     28  H8  UNL     1     -11.186  10.757 -19.392  1.00  0.00     0.171 HD
HETATM   29  O1  UNL     1      -9.255  11.556 -17.968  1.00  0.00    -0.267 OA
ENDBRANCH  13  15
ENDBRANCH  11  13
ENDBRANCH  10  11
ENDBRANCH   9  10
ENDBRANCH   8   9
ENDBRANCH   7   8
ENDBRANCH   6   7
ENDBRANCH   5   6
ENDBRANCH   3   5
TORSDOF 9
ENDMDL
MODEL 5
REMARK VINA RESULT: -6.780190974      0.932      1.415
REMARK  9 active torsions:
REMARK  status: ('A' for Active; 'I' for Inactive)
REMARK    1  A    between atoms: N2_3  and  C2_5 
REMARK    2  A    between atoms: C2_5  and  C3_6 
REMARK    3  A    between atoms: C3_6  and  C4_7 
REMARK    4  A    between atoms: C4_7  and  C5_8 
REMARK    5  A    between atoms: C5_8  and  C6_9 
REMARK    6  A    between atoms: C6_9  and  C7_10 
REMARK    7  A    between atoms: C7_10  and  N3_11 
REMARK    8  A    between atoms: N3_11  and  N4_13 
REMARK    9  A    between atoms: N4_13  and  C8_15 
ROOT
HETATM    1  N1  UNL     1      -5.561  15.542 -17.496  1.00  0.00    -0.172 NA
HETATM    2  C1  UNL     1      -4.440  15.276 -17.483  1.00  0.00     0.177 C 
HETATM    3  N2  UNL     1      -3.067  14.971 -17.462  1.00  0.00    -0.329 N 
ATOM      4  H2  UNL     1      -2.491  15.284 -16.680  1.00  0.00     0.171 HD
ENDROOT
BRANCH   3   5
HETATM    5  C2  UNL     1      -2.465  14.221 -18.535  1.00  0.00     0.131 C 
BRANCH   5   6
HETATM    6  C3  UNL     1      -3.308  14.429 -19.788  1.00  0.00     0.020 C 
BRANCH   6   7
HETATM    7  C4  UNL     1      -3.640  13.103 -20.421  1.00  0.00     0.002 C 
BRANCH   7   8
HETATM    8  C5  UNL     1      -5.090  12.792 -20.213  1.00  0.00     0.002 C 
BRANCH   8   9
HETATM    9  C6  UNL     1      -5.381  11.415 -20.747  1.00  0.00     0.021 C 
BRANCH   9  10
HETATM   10  C7  UNL     1      -6.855  11.266 -21.105  1.00  0.00     0.139 C 
BRANCH  10  11
HETATM   11  N3  UNL     1      -7.425  10.193 -20.339  1.00  0.00    -0.336 N 
ATOM     12  H3  UNL     1      -7.715   9.345 -20.826  1.00  0.00     0.180 HD
BRANCH  11  13
HETATM   13  N4  UNL     1      -7.582  10.254 -19.082  1.00  0.00    -0.301 N 
ATOM     14  H4  UNL     1      -6.984   9.723 -18.449  1.00  0.00     0.186 HD
BRANCH  13  15
HETATM   15  C8  UNL     1      -8.620  11.091 -18.587  1.00  0.00     0.108 A 
HETATM   16  C9  UNL     1      -9.957  11.038 -18.969  1.00  0.00     0.147 A 
HETATM   17  N5  UNL     1     -10.531  10.141 -19.921  1.00  0.00    -0.080 NA
HETATM   18  N6  UNL     1     -10.577  11.993 -18.261  1.00  0.00    -0.328 N 
HETATM   19  C10 UNL     1      -9.735  12.659 -17.450  1.00  0.00     0.127 A 
ATOM     20  H6  UNL     1     -11.575  12.192 -18.330  1.00  0.00     0.168 HD
HETATM   21  N7  UNL     1      -9.899  13.680 -16.569  1.00  0.00    -0.318 N 
HETATM   22  C13 UNL     1      -8.494  12.093 -17.651  1.00  0.00     0.107 A 
HETATM   23  C11 UNL     1      -8.870  14.175 -15.865  1.00  0.00     0.183 A 
ATOM     24  H7  UNL     1     -10.828  14.082 -16.439  1.00  0.00     0.170 HD
HETATM   25 CL1  UNL     1      -9.106  15.509 -14.720  1.00  0.00    -0.045 Cl
HETATM   26  N8  UNL     1      -7.652  13.638 -16.046  1.00  0.00    -0.299 N 
HETATM   27  C12 UNL     1      -7.449  12.614 -16.919  1.00  0.00     0.264 A 
ATOM     28  H8  UNL     1      -6.862  14.006 -15.517  1.00  0.00     0.171 HD
HETATM   29  O1  UNL     1      -6.316  12.107 -17.095  1.00  0.00    -0.267 OA
ENDBRANCH  13  15
ENDBRANCH  11  13
ENDBRANCH  10  11
ENDBRANCH   9  10
ENDBRANCH   8   9
ENDBRANCH   7   8
ENDBRANCH   6   7
ENDBRANCH   5   6
ENDBRANCH   3   5
TORSDOF 9
ENDMDL
