MODEL 1
REMARK VINA RESULT: -6.599035196      0.000      0.000
REMARK  9 active torsions:
REMARK  status: ('A' for Active; 'I' for Inactive)
REMARK    1  A    between atoms: N1_1  and  C1_4 
REMARK    2  A    between atoms: C2_9  and  C3_10 
REMARK    3  A    between atoms: C3_10  and  C4_11 
REMARK    4  A    between atoms: C4_11  and  C5_12 
REMARK    5  A    between atoms: C5_12  and  N4_13 
REMARK    6  A    between atoms: N4_13  and  C6_15 
REMARK    7  A    between atoms: C7_16  and  C8_17 
REMARK    8  A    between atoms: C8_17  and  N5_18 
REMARK    9  A    between atoms: C12_26  and  N6_27 
ROOT
HETATM    1  N4  UNL     1      -9.148  11.256 -18.243  1.00  0.00    -0.387 N 
ATOM      2  H4  UNL     1      -9.651  10.793 -17.486  1.00  0.00     0.159 HD
ENDROOT
BRANCH   1   3
HETATM    3  C5  UNL     1      -8.477  10.474 -19.229  1.00  0.00     0.120 C 
BRANCH   3   4
HETATM    4  C4  UNL     1      -6.993  10.358 -18.999  1.00  0.00     0.027 C 
BRANCH   4   5
HETATM    5  C3  UNL     1      -6.195  11.010 -20.103  1.00  0.00     0.080 C 
BRANCH   5   6
HETATM    6  C2  UNL     1      -5.926  12.428 -19.772  1.00  0.00     0.112 A 
HETATM    7  N3  UNL     1      -6.215  13.503 -20.559  1.00  0.00    -0.274 N 
HETATM    8  N2  UNL     1      -5.833  14.610 -19.942  1.00  0.00    -0.131 N 
ATOM      9  H3  UNL     1      -6.656  13.462 -21.477  1.00  0.00     0.189 HD
HETATM   10  C1  UNL     1      -5.293  14.294 -18.752  1.00  0.00     0.691 A 
ATOM     11  H2  UNL     1      -5.933  15.556 -20.312  1.00  0.00     0.205 HD
HETATM   12  N7  UNL     1      -5.360  12.953 -18.669  1.00  0.00    -0.178 N 
ATOM     13  H7  UNL     1      -5.027  12.407 -17.875  1.00  0.00     0.185 HD
BRANCH  10  14
HETATM   14  N1  UNL     1      -4.806  15.131 -17.867  1.00  0.00    -0.233 N 
ATOM     15  H12 UNL     1      -3.895  15.589 -17.875  1.00  0.00     0.174 HD
ATOM     16  H11 UNL     1      -5.270  15.459 -17.020  1.00  0.00     0.174 HD
ENDBRANCH  10  14
ENDBRANCH   5   6
ENDBRANCH   4   5
ENDBRANCH   3   4
ENDBRANCH   1   3
BRANCH   1  17
HETATM   17  C6  UNL     1      -9.121  12.658 -18.306  1.00  0.00     0.071 A 
HETATM   18  C7  UNL     1      -9.611  13.309 -19.399  1.00  0.00    -0.004 A 
HETATM   19  C9  UNL     1      -9.580  14.708 -19.459  1.00  0.00     0.013 A 
HETATM   20  C10 UNL     1      -9.060  15.443 -18.425  1.00  0.00     0.027 A 
HETATM   21  C11 UNL     1      -8.556  14.785 -17.306  1.00  0.00     0.069 A 
HETATM   22 CL1  UNL     1      -7.879  15.671 -15.955  1.00  0.00    -0.082 Cl
HETATM   23  C12 UNL     1      -8.603  13.408 -17.281  1.00  0.00     0.151 A 
BRANCH  18  24
HETATM   24  C8  UNL     1     -10.181  12.589 -20.532  1.00  0.00     0.270 C 
BRANCH  24  25
HETATM   25  N5  UNL     1      -9.527  12.953 -21.799  1.00  0.00    -0.075 N 
ATOM     26  H53 UNL     1      -9.244  13.933 -21.802  1.00  0.00     0.274 HD
ATOM     27  H52 UNL     1      -8.606  12.520 -21.879  1.00  0.00     0.274 HD
ATOM     28  H51 UNL     1     -10.111  12.733 -22.606  1.00  0.00     0.274 HD
ENDBRANCH  24  25
ENDBRANCH  18  24
BRANCH  23  29
HETATM   29  N6  UNL     1      -8.089  12.746 -16.138  1.00  0.00    -0.112 N 
HETATM   30  O1  UNL     1      -6.933  12.287 -16.141  1.00  0.00    -0.532 OA
HETATM   31  O2  UNL     1      -8.824  12.581 -14.995  1.00  0.00    -0.532 OA
ENDBRANCH  23  29
ENDBRANCH   1  17
TORSDOF 9
ENDMDL
MODEL 2
REMARK VINA RESULT: -6.559175057      2.508      4.444
REMARK  9 active torsions:
REMARK  status: ('A' for Active; 'I' for Inactive)
REMARK    1  A    between atoms: N1_1  and  C1_4 
REMARK    2  A    between atoms: C2_9  and  C3_10 
REMARK    3  A    between atoms: C3_10  and  C4_11 
REMARK    4  A    between atoms: C4_11  and  C5_12 
REMARK    5  A    between atoms: C5_12  and  N4_13 
REMARK    6  A    between atoms: N4_13  and  C6_15 
REMARK    7  A    between atoms: C7_16  and  C8_17 
REMARK    8  A    between atoms: C8_17  and  N5_18 
REMARK    9  A    between atoms: C12_26  and  N6_27 
ROOT
HETATM    1  N4  UNL     1      -9.038  12.243 -17.201  1.00  0.00    -0.387 N 
ATOM      2  H4  UNL     1      -9.006  11.555 -16.448  1.00  0.00     0.159 HD
ENDROOT
BRANCH   1   3
HETATM    3  C5  UNL     1     -10.091  12.191 -18.163  1.00  0.00     0.120 C 
BRANCH   3   4
HETATM    4  C4  UNL     1     -10.344  10.810 -18.705  1.00  0.00     0.027 C 
BRANCH   4   5
HETATM    5  C3  UNL     1     -11.104  10.842 -20.010  1.00  0.00     0.080 C 
BRANCH   5   6
HETATM    6  C2  UNL     1     -10.218  11.295 -21.108  1.00  0.00     0.112 A 
HETATM    7  N3  UNL     1      -9.367  10.509 -21.826  1.00  0.00    -0.274 N 
HETATM    8  N2  UNL     1      -8.738  11.253 -22.721  1.00  0.00    -0.131 N 
ATOM      9  H3  UNL     1      -9.237   9.506 -21.695  1.00  0.00     0.189 HD
HETATM   10  C1  UNL     1      -9.154  12.527 -22.615  1.00  0.00     0.691 A 
ATOM     11  H2  UNL     1      -8.044  10.913 -23.387  1.00  0.00     0.205 HD
HETATM   12  N7  UNL     1     -10.061  12.529 -21.621  1.00  0.00    -0.178 N 
ATOM     13  H7  UNL     1     -10.562  13.357 -21.300  1.00  0.00     0.185 HD
BRANCH  10  14
HETATM   14  N1  UNL     1      -8.751  13.545 -23.337  1.00  0.00    -0.233 N 
ATOM     15  H12 UNL     1      -8.605  14.508 -23.034  1.00  0.00     0.174 HD
ATOM     16  H11 UNL     1      -8.516  13.532 -24.330  1.00  0.00     0.174 HD
ENDBRANCH  10  14
ENDBRANCH   5   6
ENDBRANCH   4   5
ENDBRANCH   3   4
ENDBRANCH   1   3
BRANCH   1  17
HETATM   17  C6  UNL     1      -8.048  13.233 -17.282  1.00  0.00     0.071 A 
HETATM   18  C7  UNL     1      -8.166  14.388 -16.565  1.00  0.00    -0.004 A 
HETATM   19  C9  UNL     1      -7.176  15.375 -16.651  1.00  0.00     0.013 A 
HETATM   20  C10 UNL     1      -6.076  15.199 -17.451  1.00  0.00     0.027 A 
HETATM   21  C11 UNL     1      -5.950  14.023 -18.186  1.00  0.00     0.069 A 
HETATM   22 CL1  UNL     1      -4.568  13.742 -19.226  1.00  0.00    -0.082 Cl
HETATM   23  C12 UNL     1      -6.943  13.073 -18.078  1.00  0.00     0.151 A 
BRANCH  18  24
HETATM   24  C8  UNL     1      -9.307  14.638 -15.693  1.00  0.00     0.270 C 
BRANCH  24  25
HETATM   25  N5  UNL     1      -9.022  14.267 -14.297  1.00  0.00    -0.075 N 
ATOM     26  H53 UNL     1      -8.334  13.515 -14.247  1.00  0.00     0.274 HD
ATOM     27  H52 UNL     1      -8.495  14.999 -13.818  1.00  0.00     0.274 HD
ATOM     28  H51 UNL     1      -9.871  14.027 -13.786  1.00  0.00     0.274 HD
ENDBRANCH  24  25
ENDBRANCH  18  24
BRANCH  23  29
HETATM   29  N6  UNL     1      -6.805  11.879 -18.829  1.00  0.00    -0.112 N 
HETATM   30  O1  UNL     1      -6.438  10.826 -18.280  1.00  0.00    -0.532 OA
HETATM   31  O2  UNL     1      -7.065  11.826 -20.172  1.00  0.00    -0.532 OA
ENDBRANCH  23  29
ENDBRANCH   1  17
TORSDOF 9
ENDMDL
MODEL 3
REMARK VINA RESULT: -6.551838054      2.733      3.874
REMARK  9 active torsions:
REMARK  status: ('A' for Active; 'I' for Inactive)
REMARK    1  A    between atoms: N1_1  and  C1_4 
REMARK    2  A    between atoms: C2_9  and  C3_10 
REMARK    3  A    between atoms: C3_10  and  C4_11 
REMARK    4  A    between atoms: C4_11  and  C5_12 
REMARK    5  A    between atoms: C5_12  and  N4_13 
REMARK    6  A    between atoms: N4_13  and  C6_15 
REMARK    7  A    between atoms: C7_16  and  C8_17 
REMARK    8  A    between atoms: C8_17  and  N5_18 
REMARK    9  A    between atoms: C12_26  and  N6_27 
ROOT
HETATM    1  N4  UNL     1     -10.284  13.435 -17.926  1.00  0.00    -0.387 N 
ATOM      2  H4  UNL     1     -11.281  13.582 -17.770  1.00  0.00     0.159 HD
ENDROOT
BRANCH   1   3
HETATM    3  C5  UNL     1      -9.359  13.675 -16.866  1.00  0.00     0.120 C 
BRANCH   3   4
HETATM    4  C4  UNL     1      -8.597  12.447 -16.443  1.00  0.00     0.027 C 
BRANCH   4   5
HETATM    5  C3  UNL     1      -7.103  12.643 -16.545  1.00  0.00     0.080 C 
BRANCH   5   6
HETATM    6  C2  UNL     1      -6.611  12.157 -17.855  1.00  0.00     0.112 A 
HETATM    7  N3  UNL     1      -5.809  12.846 -18.716  1.00  0.00    -0.274 N 
HETATM    8  N2  UNL     1      -5.576  12.101 -19.785  1.00  0.00    -0.131 N 
ATOM      9  H3  UNL     1      -5.446  13.786 -18.561  1.00  0.00     0.189 HD
HETATM   10  C1  UNL     1      -6.208  10.922 -19.654  1.00  0.00     0.691 A 
ATOM     11  H2  UNL     1      -5.005  12.379 -20.583  1.00  0.00     0.205 HD
HETATM   12  N7  UNL     1      -6.836  10.978 -18.465  1.00  0.00    -0.178 N 
ATOM     13  H7  UNL     1      -7.406  10.227 -18.078  1.00  0.00     0.185 HD
BRANCH  10  14
HETATM   14  N1  UNL     1      -6.205   9.933 -20.515  1.00  0.00    -0.233 N 
ATOM     15  H12 UNL     1      -6.853   9.147 -20.566  1.00  0.00     0.174 HD
ATOM     16  H11 UNL     1      -5.544   9.793 -21.279  1.00  0.00     0.174 HD
ENDBRANCH  10  14
ENDBRANCH   5   6
ENDBRANCH   4   5
ENDBRANCH   3   4
ENDBRANCH   1   3
BRANCH   1  17
HETATM   17  C6  UNL     1      -9.833  12.997 -19.180  1.00  0.00     0.071 A 
HETATM   18  C7  UNL     1     -10.129  11.741 -19.621  1.00  0.00    -0.004 A 
HETATM   19  C9  UNL     1      -9.675  11.308 -20.872  1.00  0.00     0.013 A 
HETATM   20  C10 UNL     1      -8.928  12.134 -21.673  1.00  0.00     0.027 A 
HETATM   21  C11 UNL     1      -8.620  13.417 -21.229  1.00  0.00     0.069 A 
HETATM   22 CL1  UNL     1      -7.669  14.517 -22.207  1.00  0.00    -0.082 Cl
HETATM   23  C12 UNL     1      -9.084  13.811 -19.992  1.00  0.00     0.151 A 
BRANCH  18  24
HETATM   24  C8  UNL     1     -10.921  10.813 -18.822  1.00  0.00     0.270 C 
BRANCH  24  25
HETATM   25  N5  UNL     1     -11.120   9.528 -19.511  1.00  0.00    -0.075 N 
ATOM     26  H53 UNL     1     -11.146   9.650 -20.524  1.00  0.00     0.274 HD
ATOM     27  H52 UNL     1     -10.291   8.937 -19.442  1.00  0.00     0.274 HD
ATOM     28  H51 UNL     1     -11.951   9.041 -19.176  1.00  0.00     0.274 HD
ENDBRANCH  24  25
ENDBRANCH  18  24
BRANCH  23  29
HETATM   29  N6  UNL     1      -8.766  15.119 -19.548  1.00  0.00    -0.112 N 
HETATM   30  O1  UNL     1      -9.625  16.017 -19.566  1.00  0.00    -0.532 OA
HETATM   31  O2  UNL     1      -7.522  15.453 -19.087  1.00  0.00    -0.532 OA
ENDBRANCH  23  29
ENDBRANCH   1  17
TORSDOF 9
ENDMDL
MODEL 4
REMARK VINA RESULT: -6.485523098      1.620      3.478
REMARK  9 active torsions:
REMARK  status: ('A' for Active; 'I' for Inactive)
REMARK    1  A    between atoms: N1_1  and  C1_4 
REMARK    2  A    between atoms: C2_9  and  C3_10 
REMARK    3  A    between atoms: C3_10  and  C4_11 
REMARK    4  A    between atoms: C4_11  and  C5_12 
REMARK    5  A    between atoms: C5_12  and  N4_13 
REMARK    6  A    between atoms: N4_13  and  C6_15 
REMARK    7  A    between atoms: C7_16  and  C8_17 
REMARK    8  A    between atoms: C8_17  and  N5_18 
REMARK    9  A    between atoms: C12_26  and  N6_27 
ROOT
HETATM    1  N4  UNL     1      -6.591  11.337 -17.953  1.00  0.00    -0.387 N 
ATOM      2  H4  UNL     1      -6.203  10.822 -17.162  1.00  0.00     0.159 HD
ENDROOT
BRANCH   1   3
HETATM    3  C5  UNL     1      -7.123  10.624 -19.069  1.00  0.00     0.120 C 
BRANCH   3   4
HETATM    4  C4  UNL     1      -8.569  10.239 -18.904  1.00  0.00     0.027 C 
BRANCH   4   5
HETATM    5  C3  UNL     1      -9.453  10.898 -19.937  1.00  0.00     0.080 C 
BRANCH   5   6
HETATM    6  C2  UNL     1      -9.751  12.294 -19.541  1.00  0.00     0.112 A 
HETATM    7  N3  UNL     1     -10.462  12.682 -18.444  1.00  0.00    -0.274 N 
HETATM    8  N2  UNL     1     -10.527  14.003 -18.412  1.00  0.00    -0.131 N 
ATOM      9  H3  UNL     1     -10.877  12.053 -17.757  1.00  0.00     0.189 HD
HETATM   10  C1  UNL     1      -9.870  14.508 -19.471  1.00  0.00     0.691 A 
ATOM     11  H2  UNL     1     -11.003  14.552 -17.697  1.00  0.00     0.205 HD
HETATM   12  N7  UNL     1      -9.403  13.444 -20.147  1.00  0.00    -0.178 N 
ATOM     13  H7  UNL     1      -8.857  13.502 -21.007  1.00  0.00     0.185 HD
BRANCH  10  14
HETATM   14  N1  UNL     1      -9.724  15.777 -19.768  1.00  0.00    -0.233 N 
ATOM     15  H12 UNL     1     -10.266  16.567 -19.419  1.00  0.00     0.174 HD
ATOM     16  H11 UNL     1      -9.033  16.178 -20.402  1.00  0.00     0.174 HD
ENDBRANCH  10  14
ENDBRANCH   5   6
ENDBRANCH   4   5
ENDBRANCH   3   4
ENDBRANCH   1   3
BRANCH   1  17
HETATM   17  C6  UNL     1      -6.596  12.740 -17.935  1.00  0.00     0.071 A 
HETATM   18  C7  UNL     1      -5.941  13.445 -18.901  1.00  0.00    -0.004 A 
HETATM   19  C9  UNL     1      -5.947  14.845 -18.879  1.00  0.00     0.013 A 
HETATM   20  C10 UNL     1      -6.609  15.528 -17.891  1.00  0.00     0.027 A 
HETATM   21  C11 UNL     1      -7.280  14.815 -16.901  1.00  0.00     0.069 A 
HETATM   22 CL1  UNL     1      -8.142  15.632 -15.614  1.00  0.00    -0.082 Cl
HETATM   23  C12 UNL     1      -7.253  13.438 -16.954  1.00  0.00     0.151 A 
BRANCH  18  24
HETATM   24  C8  UNL     1      -5.220  12.782 -19.982  1.00  0.00     0.270 C 
BRANCH  24  25
HETATM   25  N5  UNL     1      -3.769  13.012 -19.896  1.00  0.00    -0.075 N 
ATOM     26  H53 UNL     1      -3.499  13.331 -18.965  1.00  0.00     0.274 HD
ATOM     27  H52 UNL     1      -3.251  12.133 -19.921  1.00  0.00     0.274 HD
ATOM     28  H51 UNL     1      -3.442  13.655 -20.617  1.00  0.00     0.274 HD
ENDBRANCH  24  25
ENDBRANCH  18  24
BRANCH  23  29
HETATM   29  N6  UNL     1      -7.938  12.720 -15.943  1.00  0.00    -0.112 N 
HETATM   30  O1  UNL     1      -9.158  12.503 -16.039  1.00  0.00    -0.532 OA
HETATM   31  O2  UNL     1      -7.304  12.239 -14.829  1.00  0.00    -0.532 OA
ENDBRANCH  23  29
ENDBRANCH   1  17
TORSDOF 9
ENDMDL
MODEL 5
REMARK VINA RESULT: -6.443070721      2.369      4.031
REMARK  9 active torsions:
REMARK  status: ('A' for Active; 'I' for Inactive)
REMARK    1  A    between atoms: N1_1  and  C1_4 
REMARK    2  A    between atoms: C2_9  and  C3_10 
REMARK    3  A    between atoms: C3_10  and  C4_11 
REMARK    4  A    between atoms: C4_11  and  C5_12 
REMARK    5  A    between atoms: C5_12  and  N4_13 
REMARK    6  A    between atoms: N4_13  and  C6_15 
REMARK    7  A    between atoms: C7_16  and  C8_17 
REMARK    8  A    between atoms: C8_17  and  N5_18 
REMARK    9  A    between atoms: C12_26  and  N6_27 
ROOT
HETATM    1  N4  UNL     1      -6.473  11.369 -17.832  1.00  0.00    -0.387 N 
ATOM      2  H4  UNL     1      -5.872  10.889 -17.163  1.00  0.00     0.159 HD
ENDROOT
BRANCH   1   3
HETATM    3  C5  UNL     1      -7.085  10.631 -18.890  1.00  0.00     0.120 C 
BRANCH   3   4
HETATM    4  C4  UNL     1      -8.539  10.325 -18.648  1.00  0.00     0.027 C 
BRANCH   4   5
HETATM    5  C3  UNL     1      -9.392  10.630 -19.857  1.00  0.00     0.080 C 
BRANCH   5   6
HETATM    6  C2  UNL     1      -9.348  12.079 -20.162  1.00  0.00     0.112 A 
HETATM    7  N3  UNL     1      -8.790  12.649 -21.267  1.00  0.00    -0.274 N 
HETATM    8  N2  UNL     1      -8.936  13.963 -21.201  1.00  0.00    -0.131 N 
ATOM      9  H3  UNL     1      -8.331  12.144 -22.025  1.00  0.00     0.189 HD
HETATM   10  C1  UNL     1      -9.586  14.284 -20.069  1.00  0.00     0.691 A 
ATOM     11  H2  UNL     1      -8.607  14.628 -21.901  1.00  0.00     0.205 HD
HETATM   12  N7  UNL     1      -9.828  13.115 -19.448  1.00  0.00    -0.178 N 
ATOM     13  H7  UNL     1     -10.312  13.026 -18.555  1.00  0.00     0.185 HD
BRANCH  10  14
HETATM   14  N1  UNL     1      -9.909  15.489 -19.667  1.00  0.00    -0.233 N 
ATOM     15  H12 UNL     1      -9.348  16.339 -19.726  1.00  0.00     0.174 HD
ATOM     16  H11 UNL     1     -10.785  15.770 -19.226  1.00  0.00     0.174 HD
ENDBRANCH  10  14
ENDBRANCH   5   6
ENDBRANCH   4   5
ENDBRANCH   3   4
ENDBRANCH   1   3
BRANCH   1  17
HETATM   17  C6  UNL     1      -6.695  12.748 -17.705  1.00  0.00     0.071 A 
HETATM   18  C7  UNL     1      -7.416  13.238 -16.656  1.00  0.00    -0.004 A 
HETATM   19  C9  UNL     1      -7.636  14.615 -16.534  1.00  0.00     0.013 A 
HETATM   20  C10 UNL     1      -7.134  15.492 -17.462  1.00  0.00     0.027 A 
HETATM   21  C11 UNL     1      -6.397  14.998 -18.536  1.00  0.00     0.069 A 
HETATM   22 CL1  UNL     1      -5.730  16.069 -19.752  1.00  0.00    -0.082 Cl
HETATM   23  C12 UNL     1      -6.199  13.637 -18.624  1.00  0.00     0.151 A 
BRANCH  18  24
HETATM   24  C8  UNL     1      -7.976  12.363 -15.633  1.00  0.00     0.270 C 
BRANCH  24  25
HETATM   25  N5  UNL     1      -8.682  13.123 -14.588  1.00  0.00    -0.075 N 
ATOM     26  H53 UNL     1      -9.579  13.472 -14.926  1.00  0.00     0.274 HD
ATOM     27  H52 UNL     1      -9.018  12.509 -13.846  1.00  0.00     0.274 HD
ATOM     28  H51 UNL     1      -8.108  13.878 -14.213  1.00  0.00     0.274 HD
ENDBRANCH  24  25
ENDBRANCH  18  24
BRANCH  23  29
HETATM   29  N6  UNL     1      -5.449  13.144 -19.721  1.00  0.00    -0.112 N 
HETATM   30  O1  UNL     1      -4.263  12.802 -19.571  1.00  0.00    -0.532 OA
HETATM   31  O2  UNL     1      -5.980  13.023 -20.976  1.00  0.00    -0.532 OA
ENDBRANCH  23  29
ENDBRANCH   1  17
TORSDOF 9
ENDMDL
