MODEL 1
REMARK VINA RESULT: -8.071154881      0.000      0.000
REMARK  9 active torsions:
REMARK  status: ('A' for Active; 'I' for Inactive)
REMARK       I    between atoms: C1_2  and  N1_3 
REMARK    1  A    between atoms: C1_2  and  C5_8 
REMARK    2  A    between atoms: N1_3  and  C2_5 
REMARK       I    between atoms: C5_8  and  N2_10 
REMARK    3  A    between atoms: N2_10  and  C6_12 
REMARK    4  A    between atoms: C11_19  and  C12_20 
REMARK    5  A    between atoms: C13_21  and  C14_22 
REMARK    6  A    between atoms: C14_22  and  N4_23 
REMARK       I    between atoms: N4_23  and  C15_25 
REMARK       I    between atoms: C15_25  and  N5_27 
REMARK    7  A    between atoms: C24_37  and  C25_38 
REMARK       I    between atoms: C25_38  and  N6_40 
REMARK    8  A    between atoms: C28_43  and  C29_44 
REMARK    9  A    between atoms: C29_44  and  C30_45 
ROOT
HETATM    1  C6  UNL     1      -2.399 -21.314  36.654  1.00  0.00     0.108 C 
HETATM    2  C7  UNL     1      -2.504 -22.592  35.849  1.00  0.00     0.029 C 
HETATM    3  C8  UNL     1      -1.598 -23.687  36.291  1.00  0.00     0.022 C 
HETATM    4  C9  UNL     1      -0.511 -23.251  37.218  1.00  0.00     0.126 C 
HETATM    5  N3  UNL     1      -1.021 -22.432  38.311  1.00  0.00    -0.344 N 
HETATM    6  C10 UNL     1      -0.240 -22.529  39.489  1.00  0.00     0.228 C 
HETATM    7  O3  UNL     1       0.172 -23.693  39.719  1.00  0.00    -0.273 OA
HETATM    8  C11 UNL     1       0.159 -21.519  40.461  1.00  0.00     0.105 C 
HETATM    9  C20 UNL     1      -1.004 -20.698  40.987  1.00  0.00     0.016 C 
HETATM   10  C21 UNL     1      -0.884 -19.279  40.449  1.00  0.00     0.007 C 
HETATM   11  C22 UNL     1      -1.227 -19.532  38.975  1.00  0.00     0.008 C 
HETATM   12  C23 UNL     1      -2.349 -20.511  39.049  1.00  0.00     0.024 C 
HETATM   13  C24 UNL     1      -2.322 -21.123  40.450  1.00  0.00     0.089 C 
HETATM   14  C36 UNL     1      -2.200 -21.665  38.084  1.00  0.00     0.114 C 
ENDROOT
BRANCH   8  15
HETATM   15  C12 UNL     1       0.700 -22.223  41.670  1.00  0.00    -0.015 C 
HETATM   16  C13 UNL     1       1.603 -21.805  42.497  1.00  0.00    -0.010 C 
BRANCH  16  17
HETATM   17  C14 UNL     1       2.362 -20.542  42.504  1.00  0.00     0.151 C 
BRANCH  17  18
HETATM   18  N4  UNL     1       3.653 -20.604  41.883  1.00  0.00    -0.340 N 
HETATM   19  C15 UNL     1       3.944 -20.402  40.519  1.00  0.00     0.318 C 
HETATM   20  O4  UNL     1       3.046 -20.134  39.691  1.00  0.00    -0.247 OA
HETATM   21  N5  UNL     1       5.266 -20.494  40.012  1.00  0.00    -0.330 N 
HETATM   22  C16 UNL     1       5.602 -20.316  38.615  1.00  0.00     0.153 C 
HETATM   23  C19 UNL     1       6.404 -20.782  40.892  1.00  0.00     0.153 C 
HETATM   24  C17 UNL     1       6.494 -21.522  38.271  1.00  0.00     0.187 C 
HETATM   25  O5  UNL     1       7.689 -21.431  38.939  1.00  0.00    -0.388 OA
HETATM   26  C18 UNL     1       7.676 -20.722  40.110  1.00  0.00     0.187 C 
ATOM     27  H4  UNL     1       4.443 -20.817  42.492  1.00  0.00     0.164 HD
ENDBRANCH  17  18
ENDBRANCH  16  17
ENDBRANCH   8  15
BRANCH  13  28
HETATM   28  C25 UNL     1      -3.498 -20.743  41.223  1.00  0.00     0.224 C 
HETATM   29  O6  UNL     1      -4.311 -19.907  40.723  1.00  0.00    -0.273 OA
HETATM   30  N6  UNL     1      -3.770 -21.262  42.502  1.00  0.00    -0.351 N 
HETATM   31  C26 UNL     1      -4.949 -20.869  43.305  1.00  0.00     0.126 C 
HETATM   32  C35 UNL     1      -2.989 -22.242  43.203  1.00  0.00     0.130 C 
HETATM   33  C27 UNL     1      -5.029 -21.983  44.336  1.00  0.00     0.026 C 
HETATM   34  C28 UNL     1      -3.581 -22.213  44.618  1.00  0.00     0.005 C 
BRANCH  34  35
HETATM   35  C29 UNL     1      -2.829 -21.187  45.366  1.00  0.00     0.011 C 
BRANCH  35  36
HETATM   36  C30 UNL     1      -1.390 -20.979  45.089  1.00  0.00    -0.014 C 
HETATM   37  C31 UNL     1      -0.508 -21.322  46.265  1.00  0.00     0.005 C 
HETATM   38  C32 UNL     1       0.798 -20.641  45.948  1.00  0.00     0.000 C 
HETATM   39  C33 UNL     1       0.270 -19.294  45.421  1.00  0.00     0.000 C 
HETATM   40  C34 UNL     1      -0.905 -19.720  44.533  1.00  0.00     0.005 C 
ENDBRANCH  35  36
ENDBRANCH  34  35
ENDBRANCH  13  28
BRANCH   1  41
HETATM   41  N2  UNL     1      -1.449 -20.439  36.063  1.00  0.00    -0.346 N 
HETATM   42  C5  UNL     1      -1.845 -19.521  35.056  1.00  0.00     0.309 C 
HETATM   43  O2  UNL     1      -3.080 -19.534  34.725  1.00  0.00    -0.262 OA
ATOM     44  H2  UNL     1      -0.475 -20.470  36.365  1.00  0.00     0.163 HD
BRANCH  42  45
HETATM   45  C1  UNL     1      -0.922 -18.597  34.407  1.00  0.00     0.309 C 
HETATM   46  O1  UNL     1      -0.863 -17.390  34.730  1.00  0.00    -0.262 OA
HETATM   47  N1  UNL     1      -0.075 -19.086  33.386  1.00  0.00    -0.348 N 
ATOM     48  H1  UNL     1      -0.123 -20.069  33.121  1.00  0.00     0.163 HD
BRANCH  47  49
HETATM   49  C2  UNL     1       0.856 -18.214  32.717  1.00  0.00     0.085 A 
HETATM   50  C3  UNL     1       2.115 -18.762  32.139  1.00  0.00     0.027 A 
HETATM   51  C4  UNL     1       1.002 -18.375  31.234  1.00  0.00     0.027 A 
ENDBRANCH  47  49
ENDBRANCH  42  45
ENDBRANCH   1  41
TORSDOF 9
ENDMDL
MODEL 2
REMARK VINA RESULT: -7.872865540      0.961      1.059
REMARK  9 active torsions:
REMARK  status: ('A' for Active; 'I' for Inactive)
REMARK       I    between atoms: C1_2  and  N1_3 
REMARK    1  A    between atoms: C1_2  and  C5_8 
REMARK    2  A    between atoms: N1_3  and  C2_5 
REMARK       I    between atoms: C5_8  and  N2_10 
REMARK    3  A    between atoms: N2_10  and  C6_12 
REMARK    4  A    between atoms: C11_19  and  C12_20 
REMARK    5  A    between atoms: C13_21  and  C14_22 
REMARK    6  A    between atoms: C14_22  and  N4_23 
REMARK       I    between atoms: N4_23  and  C15_25 
REMARK       I    between atoms: C15_25  and  N5_27 
REMARK    7  A    between atoms: C24_37  and  C25_38 
REMARK       I    between atoms: C25_38  and  N6_40 
REMARK    8  A    between atoms: C28_43  and  C29_44 
REMARK    9  A    between atoms: C29_44  and  C30_45 
ROOT
HETATM    1  C6  UNL     1      -2.511 -21.573  36.864  1.00  0.00     0.108 C 
HETATM    2  C7  UNL     1      -2.611 -22.909  36.157  1.00  0.00     0.029 C 
HETATM    3  C8  UNL     1      -1.637 -23.935  36.615  1.00  0.00     0.022 C 
HETATM    4  C9  UNL     1      -0.514 -23.394  37.440  1.00  0.00     0.126 C 
HETATM    5  N3  UNL     1      -0.990 -22.519  38.503  1.00  0.00    -0.344 N 
HETATM    6  C10 UNL     1      -0.137 -22.502  39.634  1.00  0.00     0.228 C 
HETATM    7  O3  UNL     1       0.336 -23.631  39.917  1.00  0.00    -0.273 OA
HETATM    8  C11 UNL     1       0.278 -21.412  40.507  1.00  0.00     0.105 C 
HETATM    9  C20 UNL     1      -0.884 -20.599  41.047  1.00  0.00     0.016 C 
HETATM   10  C21 UNL     1      -0.856 -19.218  40.407  1.00  0.00     0.007 C 
HETATM   11  C22 UNL     1      -1.276 -19.588  38.978  1.00  0.00     0.008 C 
HETATM   12  C23 UNL     1      -2.350 -20.601  39.190  1.00  0.00     0.024 C 
HETATM   13  C24 UNL     1      -2.213 -21.110  40.625  1.00  0.00     0.089 C 
HETATM   14  C36 UNL     1      -2.212 -21.814  38.299  1.00  0.00     0.114 C 
ENDROOT
BRANCH   8  15
HETATM   15  C12 UNL     1       0.920 -22.007  41.725  1.00  0.00    -0.015 C 
HETATM   16  C13 UNL     1       1.876 -21.513  42.443  1.00  0.00    -0.010 C 
BRANCH  16  17
HETATM   17  C14 UNL     1       2.613 -20.247  42.288  1.00  0.00     0.151 C 
BRANCH  17  18
HETATM   18  N4  UNL     1       3.913 -20.368  41.694  1.00  0.00    -0.340 N 
HETATM   19  C15 UNL     1       4.225 -20.286  40.323  1.00  0.00     0.318 C 
HETATM   20  O4  UNL     1       3.340 -20.088  39.461  1.00  0.00    -0.247 OA
HETATM   21  N5  UNL     1       5.553 -20.427  39.846  1.00  0.00    -0.330 N 
HETATM   22  C16 UNL     1       5.912 -20.373  38.444  1.00  0.00     0.153 C 
HETATM   23  C19 UNL     1       6.677 -20.642  40.764  1.00  0.00     0.153 C 
HETATM   24  C17 UNL     1       6.803 -21.607  38.220  1.00  0.00     0.187 C 
HETATM   25  O5  UNL     1       7.988 -21.464  38.895  1.00  0.00    -0.388 OA
HETATM   26  C18 UNL     1       7.961 -20.654  40.000  1.00  0.00     0.187 C 
ATOM     27  H4  UNL     1       4.693 -20.530  42.332  1.00  0.00     0.164 HD
ENDBRANCH  17  18
ENDBRANCH  16  17
ENDBRANCH   8  15
BRANCH  13  28
HETATM   28  C25 UNL     1      -3.355 -20.719  41.443  1.00  0.00     0.224 C 
HETATM   29  O6  UNL     1      -4.185 -19.884  40.970  1.00  0.00    -0.273 OA
HETATM   30  N6  UNL     1      -3.576 -21.227  42.736  1.00  0.00    -0.351 N 
HETATM   31  C26 UNL     1      -4.720 -20.823  43.583  1.00  0.00     0.126 C 
HETATM   32  C35 UNL     1      -2.770 -22.205  43.412  1.00  0.00     0.130 C 
HETATM   33  C27 UNL     1      -4.761 -21.929  44.625  1.00  0.00     0.026 C 
HETATM   34  C28 UNL     1      -3.304 -22.162  44.849  1.00  0.00     0.005 C 
BRANCH  34  35
HETATM   35  C29 UNL     1      -2.518 -21.133  45.558  1.00  0.00     0.011 C 
BRANCH  35  36
HETATM   36  C30 UNL     1      -1.115 -20.875  45.163  1.00  0.00    -0.014 C 
HETATM   37  C31 UNL     1      -0.129 -21.158  46.269  1.00  0.00     0.005 C 
HETATM   38  C32 UNL     1       1.118 -20.434  45.837  1.00  0.00     0.000 C 
HETATM   39  C33 UNL     1       0.496 -19.119  45.331  1.00  0.00     0.000 C 
HETATM   40  C34 UNL     1      -0.729 -19.610  44.548  1.00  0.00     0.005 C 
ENDBRANCH  35  36
ENDBRANCH  34  35
ENDBRANCH  13  28
BRANCH   1  41
HETATM   41  N2  UNL     1      -1.635 -20.708  36.155  1.00  0.00    -0.346 N 
HETATM   42  C5  UNL     1      -2.127 -19.891  35.104  1.00  0.00     0.309 C 
HETATM   43  O2  UNL     1      -3.375 -19.983  34.844  1.00  0.00    -0.262 OA
ATOM     44  H2  UNL     1      -0.646 -20.674  36.403  1.00  0.00     0.163 HD
BRANCH  42  45
HETATM   45  C1  UNL     1      -1.283 -18.983  34.335  1.00  0.00     0.309 C 
HETATM   46  O1  UNL     1      -0.228 -19.371  33.786  1.00  0.00    -0.262 OA
HETATM   47  N1  UNL     1      -1.676 -17.630  34.209  1.00  0.00    -0.348 N 
ATOM     48  H1  UNL     1      -2.536 -17.313  34.657  1.00  0.00     0.163 HD
BRANCH  47  49
HETATM   49  C2  UNL     1      -0.879 -16.695  33.458  1.00  0.00     0.085 A 
HETATM   50  C3  UNL     1      -1.063 -16.565  31.986  1.00  0.00     0.027 A 
HETATM   51  C4  UNL     1      -1.581 -15.502  32.885  1.00  0.00     0.027 A 
ENDBRANCH  47  49
ENDBRANCH  42  45
ENDBRANCH   1  41
TORSDOF 9
ENDMDL
MODEL 3
REMARK VINA RESULT: -7.835447371      9.741     16.333
REMARK  9 active torsions:
REMARK  status: ('A' for Active; 'I' for Inactive)
REMARK       I    between atoms: C1_2  and  N1_3 
REMARK    1  A    between atoms: C1_2  and  C5_8 
REMARK    2  A    between atoms: N1_3  and  C2_5 
REMARK       I    between atoms: C5_8  and  N2_10 
REMARK    3  A    between atoms: N2_10  and  C6_12 
REMARK    4  A    between atoms: C11_19  and  C12_20 
REMARK    5  A    between atoms: C13_21  and  C14_22 
REMARK    6  A    between atoms: C14_22  and  N4_23 
REMARK       I    between atoms: N4_23  and  C15_25 
REMARK       I    between atoms: C15_25  and  N5_27 
REMARK    7  A    between atoms: C24_37  and  C25_38 
REMARK       I    between atoms: C25_38  and  N6_40 
REMARK    8  A    between atoms: C28_43  and  C29_44 
REMARK    9  A    between atoms: C29_44  and  C30_45 
ROOT
HETATM    1  C6  UNL     1       8.993 -17.719  26.533  1.00  0.00     0.108 C 
HETATM    2  C7  UNL     1       9.128 -18.492  25.238  1.00  0.00     0.029 C 
HETATM    3  C8  UNL     1       7.843 -18.792  24.551  1.00  0.00     0.022 C 
HETATM    4  C9  UNL     1       6.628 -18.588  25.397  1.00  0.00     0.126 C 
HETATM    5  N3  UNL     1       6.646 -17.298  26.075  1.00  0.00    -0.344 N 
HETATM    6  C10 UNL     1       5.350 -16.789  26.337  1.00  0.00     0.228 C 
HETATM    7  O3  UNL     1       4.537 -16.994  25.401  1.00  0.00    -0.273 OA
HETATM    8  C11 UNL     1       4.812 -16.082  27.492  1.00  0.00     0.105 C 
HETATM    9  C20 UNL     1       5.649 -14.886  27.908  1.00  0.00     0.016 C 
HETATM   10  C21 UNL     1       6.318 -15.196  29.239  1.00  0.00     0.007 C 
HETATM   11  C22 UNL     1       7.343 -16.241  28.775  1.00  0.00     0.008 C 
HETATM   12  C23 UNL     1       7.836 -15.684  27.482  1.00  0.00     0.024 C 
HETATM   13  C24 UNL     1       6.816 -14.641  27.023  1.00  0.00     0.089 C 
HETATM   14  C36 UNL     1       7.910 -16.713  26.378  1.00  0.00     0.114 C 
ENDROOT
BRANCH   8  15
HETATM   15  C12 UNL     1       3.486 -15.497  27.105  1.00  0.00    -0.015 C 
HETATM   16  C13 UNL     1       2.351 -15.629  27.712  1.00  0.00    -0.010 C 
BRANCH  16  17
HETATM   17  C14 UNL     1       2.018 -16.377  28.938  1.00  0.00     0.151 C 
BRANCH  17  18
HETATM   18  N4  UNL     1       0.986 -15.795  29.745  1.00  0.00    -0.340 N 
HETATM   19  C15 UNL     1       0.314 -16.404  30.824  1.00  0.00     0.318 C 
HETATM   20  O4  UNL     1       0.582 -17.571  31.187  1.00  0.00    -0.247 OA
HETATM   21  N5  UNL     1      -0.701 -15.731  31.551  1.00  0.00    -0.330 N 
HETATM   22  C16 UNL     1      -1.429 -16.330  32.650  1.00  0.00     0.153 C 
HETATM   23  C19 UNL     1      -1.086 -14.353  31.231  1.00  0.00     0.153 C 
HETATM   24  C17 UNL     1      -2.909 -16.047  32.338  1.00  0.00     0.187 C 
HETATM   25  O5  UNL     1      -3.164 -14.703  32.433  1.00  0.00    -0.388 OA
HETATM   26  C18 UNL     1      -2.100 -13.868  32.215  1.00  0.00     0.187 C 
ATOM     27  H4  UNL     1       0.709 -14.841  29.513  1.00  0.00     0.164 HD
ENDBRANCH  17  18
ENDBRANCH  16  17
ENDBRANCH   8  15
BRANCH  13  28
HETATM   28  C25 UNL     1       7.380 -13.297  27.039  1.00  0.00     0.224 C 
HETATM   29  O6  UNL     1       8.617 -13.159  27.285  1.00  0.00    -0.273 OA
HETATM   30  N6  UNL     1       6.611 -12.144  26.796  1.00  0.00    -0.351 N 
HETATM   31  C26 UNL     1       7.168 -10.774  26.830  1.00  0.00     0.126 C 
HETATM   32  C35 UNL     1       5.215 -12.112  26.463  1.00  0.00     0.130 C 
HETATM   33  C27 UNL     1       6.107  -9.973  26.092  1.00  0.00     0.026 C 
HETATM   34  C28 UNL     1       4.861 -10.625  26.590  1.00  0.00     0.005 C 
BRANCH  34  35
HETATM   35  C29 UNL     1       4.455 -10.409  27.993  1.00  0.00     0.011 C 
BRANCH  35  36
HETATM   36  C30 UNL     1       3.359  -9.464  28.307  1.00  0.00    -0.014 C 
HETATM   37  C31 UNL     1       3.618  -8.069  27.794  1.00  0.00     0.005 C 
HETATM   38  C32 UNL     1       2.657  -7.212  28.574  1.00  0.00     0.000 C 
HETATM   39  C33 UNL     1       2.822  -7.838  29.971  1.00  0.00     0.000 C 
HETATM   40  C34 UNL     1       2.840  -9.340  29.664  1.00  0.00     0.005 C 
ENDBRANCH  35  36
ENDBRANCH  34  35
ENDBRANCH  13  28
BRANCH   1  41
HETATM   41  N2  UNL     1       8.894 -18.615  27.631  1.00  0.00    -0.346 N 
HETATM   42  C5  UNL     1       9.941 -18.701  28.586  1.00  0.00     0.309 C 
HETATM   43  O2  UNL     1      10.951 -17.940  28.396  1.00  0.00    -0.262 OA
ATOM     44  H2  UNL     1       8.065 -19.200  27.735  1.00  0.00     0.163 HD
BRANCH  42  45
HETATM   45  C1  UNL     1       9.905 -19.599  29.734  1.00  0.00     0.309 C 
HETATM   46  O1  UNL     1       8.826 -19.954  30.258  1.00  0.00    -0.262 OA
HETATM   47  N1  UNL     1      11.125 -20.078  30.263  1.00  0.00    -0.348 N 
ATOM     48  H1  UNL     1      12.005 -19.788  29.836  1.00  0.00     0.163 HD
BRANCH  47  49
HETATM   49  C2  UNL     1      11.143 -20.969  31.394  1.00  0.00     0.085 A 
HETATM   50  C3  UNL     1      12.246 -21.958  31.553  1.00  0.00     0.027 A 
HETATM   51  C4  UNL     1      12.212 -20.753  32.421  1.00  0.00     0.027 A 
ENDBRANCH  47  49
ENDBRANCH  42  45
ENDBRANCH   1  41
TORSDOF 9
ENDMDL
MODEL 4
REMARK VINA RESULT: -7.813098245     10.694     16.976
REMARK  9 active torsions:
REMARK  status: ('A' for Active; 'I' for Inactive)
REMARK       I    between atoms: C1_2  and  N1_3 
REMARK    1  A    between atoms: C1_2  and  C5_8 
REMARK    2  A    between atoms: N1_3  and  C2_5 
REMARK       I    between atoms: C5_8  and  N2_10 
REMARK    3  A    between atoms: N2_10  and  C6_12 
REMARK    4  A    between atoms: C11_19  and  C12_20 
REMARK    5  A    between atoms: C13_21  and  C14_22 
REMARK    6  A    between atoms: C14_22  and  N4_23 
REMARK       I    between atoms: N4_23  and  C15_25 
REMARK       I    between atoms: C15_25  and  N5_27 
REMARK    7  A    between atoms: C24_37  and  C25_38 
REMARK       I    between atoms: C25_38  and  N6_40 
REMARK    8  A    between atoms: C28_43  and  C29_44 
REMARK    9  A    between atoms: C29_44  and  C30_45 
ROOT
HETATM    1  C6  UNL     1       9.269 -17.933  26.717  1.00  0.00     0.108 C 
HETATM    2  C7  UNL     1       9.222 -18.736  25.433  1.00  0.00     0.029 C 
HETATM    3  C8  UNL     1       7.888 -18.792  24.778  1.00  0.00     0.022 C 
HETATM    4  C9  UNL     1       6.756 -18.347  25.645  1.00  0.00     0.126 C 
HETATM    5  N3  UNL     1       7.037 -17.075  26.299  1.00  0.00    -0.344 N 
HETATM    6  C10 UNL     1       5.868 -16.323  26.579  1.00  0.00     0.228 C 
HETATM    7  O3  UNL     1       5.010 -16.380  25.664  1.00  0.00    -0.273 OA
HETATM    8  C11 UNL     1       5.504 -15.511  27.732  1.00  0.00     0.105 C 
HETATM    9  C20 UNL     1       6.564 -14.493  28.109  1.00  0.00     0.016 C 
HETATM   10  C21 UNL     1       7.193 -14.907  29.431  1.00  0.00     0.007 C 
HETATM   11  C22 UNL     1       7.987 -16.135  28.966  1.00  0.00     0.008 C 
HETATM   12  C23 UNL     1       8.547 -15.701  27.653  1.00  0.00     0.024 C 
HETATM   13  C24 UNL     1       7.735 -14.488  27.196  1.00  0.00     0.089 C 
HETATM   14  C36 UNL     1       8.396 -16.741  26.566  1.00  0.00     0.114 C 
ENDROOT
BRANCH   8  15
HETATM   15  C12 UNL     1       4.306 -14.687  27.362  1.00  0.00    -0.015 C 
HETATM   16  C13 UNL     1       3.058 -14.961  27.566  1.00  0.00    -0.010 C 
BRANCH  16  17
HETATM   17  C14 UNL     1       2.444 -16.138  28.206  1.00  0.00     0.151 C 
BRANCH  17  18
HETATM   18  N4  UNL     1       1.372 -15.848  29.113  1.00  0.00    -0.340 N 
HETATM   19  C15 UNL     1       0.056 -15.475  28.772  1.00  0.00     0.318 C 
HETATM   20  O4  UNL     1      -0.304 -15.363  27.579  1.00  0.00    -0.247 OA
HETATM   21  N5  UNL     1      -0.927 -15.205  29.758  1.00  0.00    -0.330 N 
HETATM   22  C16 UNL     1      -2.282 -14.798  29.450  1.00  0.00     0.153 C 
HETATM   23  C19 UNL     1      -0.627 -15.325  31.190  1.00  0.00     0.153 C 
HETATM   24  C17 UNL     1      -2.535 -13.573  30.346  1.00  0.00     0.187 C 
HETATM   25  O5  UNL     1      -2.569 -13.951  31.664  1.00  0.00    -0.388 OA
HETATM   26  C18 UNL     1      -1.865 -15.080  31.989  1.00  0.00     0.187 C 
ATOM     27  H4  UNL     1       1.584 -15.919  30.108  1.00  0.00     0.164 HD
ENDBRANCH  17  18
ENDBRANCH  16  17
ENDBRANCH   8  15
BRANCH  13  28
HETATM   28  C25 UNL     1       8.547 -13.277  27.177  1.00  0.00     0.224 C 
HETATM   29  O6  UNL     1       9.642 -13.269  27.818  1.00  0.00    -0.273 OA
HETATM   30  N6  UNL     1       8.168 -12.116  26.480  1.00  0.00    -0.351 N 
HETATM   31  C26 UNL     1       8.973 -10.875  26.470  1.00  0.00     0.126 C 
HETATM   32  C35 UNL     1       6.991 -11.958  25.672  1.00  0.00     0.130 C 
HETATM   33  C27 UNL     1       8.403 -10.126  25.276  1.00  0.00     0.026 C 
HETATM   34  C28 UNL     1       6.952 -10.449  25.404  1.00  0.00     0.005 C 
BRANCH  34  35
HETATM   35  C29 UNL     1       6.183  -9.846  26.511  1.00  0.00     0.011 C 
BRANCH  35  36
HETATM   36  C30 UNL     1       4.711  -9.992  26.551  1.00  0.00    -0.014 C 
HETATM   37  C31 UNL     1       4.240 -10.927  27.637  1.00  0.00     0.005 C 
HETATM   38  C32 UNL     1       2.831 -11.272  27.232  1.00  0.00     0.000 C 
HETATM   39  C33 UNL     1       3.036 -11.478  25.720  1.00  0.00     0.000 C 
HETATM   40  C34 UNL     1       3.953 -10.307  25.345  1.00  0.00     0.005 C 
ENDBRANCH  35  36
ENDBRANCH  34  35
ENDBRANCH  13  28
BRANCH   1  41
HETATM   41  N2  UNL     1       9.026 -18.778  27.833  1.00  0.00    -0.346 N 
HETATM   42  C5  UNL     1       9.972 -18.869  28.886  1.00  0.00     0.309 C 
HETATM   43  O2  UNL     1      11.029 -18.159  28.768  1.00  0.00    -0.262 OA
ATOM     44  H2  UNL     1       8.165 -19.324  27.877  1.00  0.00     0.163 HD
BRANCH  42  45
HETATM   45  C1  UNL     1       9.787 -19.717  30.058  1.00  0.00     0.309 C 
HETATM   46  O1  UNL     1       8.649 -19.987  30.502  1.00  0.00    -0.262 OA
HETATM   47  N1  UNL     1      10.928 -20.245  30.704  1.00  0.00    -0.348 N 
ATOM     48  H1  UNL     1      11.856 -20.024  30.344  1.00  0.00     0.163 HD
BRANCH  47  49
HETATM   49  C2  UNL     1      10.798 -21.090  31.863  1.00  0.00     0.085 A 
HETATM   50  C3  UNL     1      11.973 -21.848  32.375  1.00  0.00     0.027 A 
HETATM   51  C4  UNL     1      11.497 -20.651  33.114  1.00  0.00     0.027 A 
ENDBRANCH  47  49
ENDBRANCH  42  45
ENDBRANCH   1  41
TORSDOF 9
ENDMDL
MODEL 5
REMARK VINA RESULT: -7.770354147     10.633     16.672
REMARK  9 active torsions:
REMARK  status: ('A' for Active; 'I' for Inactive)
REMARK       I    between atoms: C1_2  and  N1_3 
REMARK    1  A    between atoms: C1_2  and  C5_8 
REMARK    2  A    between atoms: N1_3  and  C2_5 
REMARK       I    between atoms: C5_8  and  N2_10 
REMARK    3  A    between atoms: N2_10  and  C6_12 
REMARK    4  A    between atoms: C11_19  and  C12_20 
REMARK    5  A    between atoms: C13_21  and  C14_22 
REMARK    6  A    between atoms: C14_22  and  N4_23 
REMARK       I    between atoms: N4_23  and  C15_25 
REMARK       I    between atoms: C15_25  and  N5_27 
REMARK    7  A    between atoms: C24_37  and  C25_38 
REMARK       I    between atoms: C25_38  and  N6_40 
REMARK    8  A    between atoms: C28_43  and  C29_44 
REMARK    9  A    between atoms: C29_44  and  C30_45 
ROOT
HETATM    1  C6  UNL     1       9.042 -17.728  26.482  1.00  0.00     0.108 C 
HETATM    2  C7  UNL     1       9.031 -18.561  25.217  1.00  0.00     0.029 C 
HETATM    3  C8  UNL     1       7.685 -18.784  24.625  1.00  0.00     0.022 C 
HETATM    4  C9  UNL     1       6.548 -18.449  25.535  1.00  0.00     0.126 C 
HETATM    5  N3  UNL     1       6.711 -17.138  26.152  1.00  0.00    -0.344 N 
HETATM    6  C10 UNL     1       5.477 -16.517  26.470  1.00  0.00     0.228 C 
HETATM    7  O3  UNL     1       4.592 -16.692  25.597  1.00  0.00    -0.273 OA
HETATM    8  C11 UNL     1       5.073 -15.723  27.624  1.00  0.00     0.105 C 
HETATM    9  C20 UNL     1       6.026 -14.583  27.933  1.00  0.00     0.016 C 
HETATM   10  C21 UNL     1       6.755 -14.893  29.232  1.00  0.00     0.007 C 
HETATM   11  C22 UNL     1       7.663 -16.034  28.753  1.00  0.00     0.008 C 
HETATM   12  C23 UNL     1       8.112 -15.570  27.409  1.00  0.00     0.024 C 
HETATM   13  C24 UNL     1       7.148 -14.468  26.967  1.00  0.00     0.089 C 
HETATM   14  C36 UNL     1       8.034 -16.646  26.349  1.00  0.00     0.114 C 
ENDROOT
BRANCH   8  15
HETATM   15  C12 UNL     1       3.774 -15.049  27.294  1.00  0.00    -0.015 C 
HETATM   16  C13 UNL     1       2.596 -15.325  27.753  1.00  0.00    -0.010 C 
BRANCH  16  17
HETATM   17  C14 UNL     1       2.177 -16.361  28.713  1.00  0.00     0.151 C 
BRANCH  17  18
HETATM   18  N4  UNL     1       1.109 -15.980  29.591  1.00  0.00    -0.340 N 
HETATM   19  C15 UNL     1      -0.223 -15.698  29.227  1.00  0.00     0.318 C 
HETATM   20  O4  UNL     1      -0.604 -15.763  28.038  1.00  0.00    -0.247 OA
HETATM   21  N5  UNL     1      -1.199 -15.324  30.185  1.00  0.00    -0.330 N 
HETATM   22  C16 UNL     1      -2.571 -15.005  29.849  1.00  0.00     0.153 C 
HETATM   23  C19 UNL     1      -0.875 -15.235  31.613  1.00  0.00     0.153 C 
HETATM   24  C17 UNL     1      -2.852 -13.676  30.572  1.00  0.00     0.187 C 
HETATM   25  O5  UNL     1      -2.854 -13.868  31.930  1.00  0.00    -0.388 OA
HETATM   26  C18 UNL     1      -2.109 -14.919  32.395  1.00  0.00     0.187 C 
ATOM     27  H4  UNL     1       1.338 -15.906  30.583  1.00  0.00     0.164 HD
ENDBRANCH  17  18
ENDBRANCH  16  17
ENDBRANCH   8  15
BRANCH  13  28
HETATM   28  C25 UNL     1       7.815 -13.174  26.888  1.00  0.00     0.224 C 
HETATM   29  O6  UNL     1       9.063 -13.118  27.113  1.00  0.00    -0.273 OA
HETATM   30  N6  UNL     1       7.135 -11.983  26.576  1.00  0.00    -0.351 N 
HETATM   31  C26 UNL     1       7.796 -10.662  26.512  1.00  0.00     0.126 C 
HETATM   32  C35 UNL     1       5.740 -11.863  26.253  1.00  0.00     0.130 C 
HETATM   33  C27 UNL     1       6.791  -9.830  25.732  1.00  0.00     0.026 C 
HETATM   34  C28 UNL     1       5.505 -10.348  26.284  1.00  0.00     0.005 C 
BRANCH  34  35
HETATM   35  C29 UNL     1       5.137 -10.009  27.672  1.00  0.00     0.011 C 
BRANCH  35  36
HETATM   36  C30 UNL     1       3.852  -9.328  27.951  1.00  0.00    -0.014 C 
HETATM   37  C31 UNL     1       3.982  -7.827  28.017  1.00  0.00     0.005 C 
HETATM   38  C32 UNL     1       2.728  -7.386  28.725  1.00  0.00     0.000 C 
HETATM   39  C33 UNL     1       2.658  -8.458  29.827  1.00  0.00     0.000 C 
HETATM   40  C34 UNL     1       3.008  -9.743  29.066  1.00  0.00     0.005 C 
ENDBRANCH  35  36
ENDBRANCH  34  35
ENDBRANCH  13  28
BRANCH   1  41
HETATM   41  N2  UNL     1       8.946 -18.569  27.624  1.00  0.00    -0.346 N 
HETATM   42  C5  UNL     1       9.997 -18.611  28.576  1.00  0.00     0.309 C 
HETATM   43  O2  UNL     1      11.008 -17.864  28.345  1.00  0.00    -0.262 OA
ATOM     44  H2  UNL     1       8.115 -19.145  27.759  1.00  0.00     0.163 HD
BRANCH  42  45
HETATM   45  C1  UNL     1       9.964 -19.452  29.767  1.00  0.00     0.309 C 
HETATM   46  O1  UNL     1       8.897 -19.687  30.377  1.00  0.00    -0.262 OA
HETATM   47  N1  UNL     1      11.172 -20.013  30.239  1.00  0.00    -0.348 N 
ATOM     48  H1  UNL     1      12.042 -19.821  29.743  1.00  0.00     0.163 HD
BRANCH  47  49
HETATM   49  C2  UNL     1      11.192 -20.852  31.409  1.00  0.00     0.085 A 
HETATM   50  C3  UNL     1      12.133 -22.003  31.492  1.00  0.00     0.027 A 
HETATM   51  C4  UNL     1      12.405 -20.778  32.287  1.00  0.00     0.027 A 
ENDBRANCH  47  49
ENDBRANCH  42  45
ENDBRANCH   1  41
TORSDOF 9
ENDMDL
