MODEL 1
REMARK VINA RESULT: -7.502629673      0.000      0.000
REMARK  11 active torsions:
REMARK  status: ('A' for Active; 'I' for Inactive)
REMARK    1  A    between atoms: C2_2  and  C3_3 
REMARK    2  A    between atoms: C3_3  and  C5_5 
REMARK    3  A    between atoms: C7_10  and  C8_11 
REMARK    4  A    between atoms: C8_11  and  C9_12 
REMARK    5  A    between atoms: C20_25  and  O3_27 
REMARK    6  A    between atoms: N4_33  and  C25_34 
REMARK    7  A    between atoms: C25_34  and  C26_35 
REMARK    8  A    between atoms: C27_36  and  C28_37 
REMARK    9  A    between atoms: C28_37  and  N5_38 
REMARK   10  A    between atoms: N6_41  and  C31_42 
REMARK   11  A    between atoms: C31_42  and  C32_43 
ROOT
HETATM    1  C5  UNL     1       4.974 -18.141  32.065  1.00  0.00     0.108 C 
HETATM    2  N1  UNL     1       3.552 -18.358  32.461  1.00  0.00    -0.313 N 
ATOM      3  H1  UNL     1       3.417 -18.674  33.422  1.00  0.00     0.170 HD
HETATM    4  C6  UNL     1       2.369 -18.196  31.719  1.00  0.00     0.227 C 
HETATM    5  O1  UNL     1       1.360 -18.747  32.163  1.00  0.00    -0.273 OA
HETATM    6  C7  UNL     1       2.234 -17.435  30.471  1.00  0.00     0.081 C 
HETATM    7  C15 UNL     1       3.125 -18.139  29.505  1.00  0.00     0.045 C 
HETATM    8  C16 UNL     1       4.586 -17.972  29.619  1.00  0.00     0.041 C 
HETATM    9  C17 UNL     1       5.065 -18.777  28.392  1.00  0.00     0.068 C 
HETATM   10  C18 UNL     1       4.511 -18.286  27.090  1.00  0.00     0.317 C 
HETATM   11  N2  UNL     1       4.651 -16.895  26.855  1.00  0.00     0.051 N 
HETATM   12  O2  UNL     1       3.784 -16.559  25.844  1.00  0.00    -0.062 OA
HETATM   13  C19 UNL     1       5.972 -16.520  26.389  1.00  0.00     0.385 C 
HETATM   14  C20 UNL     1       6.007 -15.050  26.684  1.00  0.00     0.289 C 
HETATM   15  C21 UNL     1       5.815 -14.301  25.390  1.00  0.00     0.084 C 
HETATM   16  N3  UNL     1       5.001 -14.793  27.662  1.00  0.00     0.161 N 
HETATM   17  C22 UNL     1       4.057 -13.771  27.319  1.00  0.00     0.317 C 
HETATM   18  C23 UNL     1       4.344 -16.070  27.955  1.00  0.00     0.493 C 
HETATM   19  C24 UNL     1       4.930 -16.524  29.284  1.00  0.00     0.106 C 
HETATM   20  N4  UNL     1       5.283 -18.415  30.762  1.00  0.00    -0.354 N 
ENDROOT
BRANCH  20  21
HETATM   21  C25 UNL     1       6.046 -19.654  30.618  1.00  0.00     0.152 C 
BRANCH  21  22
HETATM   22  C26 UNL     1       7.380 -19.671  31.202  1.00  0.00    -0.009 C 
HETATM   23  C27 UNL     1       8.570 -19.582  30.669  1.00  0.00    -0.002 C 
BRANCH  23  24
HETATM   24  C28 UNL     1       8.801 -19.428  29.234  1.00  0.00     0.265 C 
BRANCH  24  25
HETATM   25  N5  UNL     1       9.506 -18.223  28.894  1.00  0.00    -0.059 N 
HETATM   26  C29 UNL     1       8.754 -17.103  29.434  1.00  0.00     0.266 C 
HETATM   27  C30 UNL     1       9.588 -15.832  29.417  1.00  0.00     0.266 C 
HETATM   28  N6  UNL     1      10.566 -15.994  28.365  1.00  0.00    -0.053 N 
HETATM   29  C33 UNL     1       9.923 -16.567  27.221  1.00  0.00     0.266 C 
HETATM   30  C35 UNL     1      11.543 -16.968  28.901  1.00  0.00     0.266 C 
HETATM   31  C34 UNL     1       9.747 -18.065  27.468  1.00  0.00     0.266 C 
HETATM   32  C36 UNL     1      10.833 -18.140  29.513  1.00  0.00     0.266 C 
BRANCH  28  33
HETATM   33  C31 UNL     1      11.248 -14.773  28.145  1.00  0.00     0.350 C 
BRANCH  33  34
HETATM   34  C32 UNL     1      10.833 -14.030  26.951  1.00  0.00     0.199 C 
HETATM   35  O4  UNL     1       9.772 -13.386  26.836  1.00  0.00    -0.647 OA
HETATM   36  O5  UNL     1      11.659 -14.000  25.797  1.00  0.00    -0.647 OA
ENDBRANCH  33  34
ENDBRANCH  28  33
ENDBRANCH  24  25
ENDBRANCH  23  24
ENDBRANCH  21  22
ENDBRANCH  20  21
BRANCH   1  37
HETATM   37  C3  UNL     1       5.418 -17.024  32.904  1.00  0.00    -0.040 C 
HETATM   38  C4  UNL     1       6.530 -16.152  32.314  1.00  0.00     0.047 C 
BRANCH  37  39
HETATM   39  C2  UNL     1       5.689 -17.141  34.344  1.00  0.00     0.033 C 
HETATM   40  C1  UNL     1       6.747 -18.233  34.612  1.00  0.00     0.010 C 
ENDBRANCH  37  39
ENDBRANCH   1  37
BRANCH   6  41
HETATM   41  C8  UNL     1       0.852 -17.387  29.884  1.00  0.00     0.018 C 
BRANCH  41  42
HETATM   42  C9  UNL     1       0.379 -16.066  29.415  1.00  0.00    -0.014 C 
HETATM   43  C10 UNL     1      -0.420 -15.447  30.573  1.00  0.00     0.005 C 
HETATM   44  C11 UNL     1      -1.845 -15.143  30.162  1.00  0.00     0.000 C 
HETATM   45  C12 UNL     1      -1.909 -14.239  28.964  1.00  0.00     0.000 C 
HETATM   46  C13 UNL     1      -0.964 -14.704  27.906  1.00  0.00     0.000 C 
HETATM   47  C14 UNL     1      -0.572 -16.149  28.238  1.00  0.00     0.005 C 
ENDBRANCH  41  42
ENDBRANCH   6  41
BRANCH  14  48
HETATM   48  O3  UNL     1       7.294 -14.744  27.146  1.00  0.00    -0.361 OA
ATOM     49  H3  UNL     1       7.330 -13.806  27.291  1.00  0.00     0.212 HD
ENDBRANCH  14  48
TORSDOF 11
ENDMDL
MODEL 2
REMARK VINA RESULT: -7.242351578      0.788      1.021
REMARK  11 active torsions:
REMARK  status: ('A' for Active; 'I' for Inactive)
REMARK    1  A    between atoms: C2_2  and  C3_3 
REMARK    2  A    between atoms: C3_3  and  C5_5 
REMARK    3  A    between atoms: C7_10  and  C8_11 
REMARK    4  A    between atoms: C8_11  and  C9_12 
REMARK    5  A    between atoms: C20_25  and  O3_27 
REMARK    6  A    between atoms: N4_33  and  C25_34 
REMARK    7  A    between atoms: C25_34  and  C26_35 
REMARK    8  A    between atoms: C27_36  and  C28_37 
REMARK    9  A    between atoms: C28_37  and  N5_38 
REMARK   10  A    between atoms: N6_41  and  C31_42 
REMARK   11  A    between atoms: C31_42  and  C32_43 
ROOT
HETATM    1  C5  UNL     1       5.113 -18.080  31.864  1.00  0.00     0.108 C 
HETATM    2  N1  UNL     1       3.698 -18.357  32.247  1.00  0.00    -0.313 N 
ATOM      3  H1  UNL     1       3.570 -18.694  33.202  1.00  0.00     0.170 HD
HETATM    4  C6  UNL     1       2.514 -18.227  31.501  1.00  0.00     0.227 C 
HETATM    5  O1  UNL     1       1.524 -18.824  31.929  1.00  0.00    -0.273 OA
HETATM    6  C7  UNL     1       2.357 -17.452  30.265  1.00  0.00     0.081 C 
HETATM    7  C15 UNL     1       3.279 -18.105  29.293  1.00  0.00     0.045 C 
HETATM    8  C16 UNL     1       4.732 -17.885  29.419  1.00  0.00     0.041 C 
HETATM    9  C17 UNL     1       5.248 -18.651  28.181  1.00  0.00     0.068 C 
HETATM   10  C18 UNL     1       4.683 -18.159  26.884  1.00  0.00     0.317 C 
HETATM   11  N2  UNL     1       4.771 -16.761  26.673  1.00  0.00     0.051 N 
HETATM   12  O2  UNL     1       3.898 -16.441  25.662  1.00  0.00    -0.062 OA
HETATM   13  C19 UNL     1       6.080 -16.328  26.220  1.00  0.00     0.385 C 
HETATM   14  C20 UNL     1       6.057 -14.863  26.540  1.00  0.00     0.289 C 
HETATM   15  C21 UNL     1       5.843 -14.100  25.257  1.00  0.00     0.084 C 
HETATM   16  N3  UNL     1       5.037 -14.660  27.516  1.00  0.00     0.161 N 
HETATM   17  C22 UNL     1       4.056 -13.670  27.184  1.00  0.00     0.317 C 
HETATM   18  C23 UNL     1       4.427 -15.966  27.784  1.00  0.00     0.493 C 
HETATM   19  C24 UNL     1       5.022 -16.420  29.109  1.00  0.00     0.106 C 
HETATM   20  N4  UNL     1       5.439 -18.321  30.558  1.00  0.00    -0.354 N 
ENDROOT
BRANCH  20  21
HETATM   21  C25 UNL     1       6.249 -19.527  30.399  1.00  0.00     0.152 C 
BRANCH  21  22
HETATM   22  C26 UNL     1       7.369 -19.688  31.316  1.00  0.00    -0.009 C 
HETATM   23  C27 UNL     1       8.663 -19.630  31.137  1.00  0.00    -0.002 C 
BRANCH  23  24
HETATM   24  C28 UNL     1       9.286 -19.361  29.843  1.00  0.00     0.265 C 
BRANCH  24  25
HETATM   25  N5  UNL     1       9.736 -18.004  29.697  1.00  0.00    -0.059 N 
HETATM   26  C29 UNL     1      10.194 -17.545  30.997  1.00  0.00     0.266 C 
HETATM   27  C30 UNL     1      10.989 -16.257  30.868  1.00  0.00     0.266 C 
HETATM   28  N6  UNL     1      10.534 -15.608  29.659  1.00  0.00    -0.053 N 
HETATM   29  C33 UNL     1       9.105 -15.699  29.597  1.00  0.00     0.266 C 
HETATM   30  C35 UNL     1      11.111 -16.411  28.557  1.00  0.00     0.266 C 
HETATM   31  C34 UNL     1       8.733 -17.109  29.139  1.00  0.00     0.266 C 
HETATM   32  C36 UNL     1      10.893 -17.875  28.805  1.00  0.00     0.266 C 
BRANCH  28  33
HETATM   33  C31 UNL     1      11.075 -14.304  29.574  1.00  0.00     0.350 C 
BRANCH  33  34
HETATM   34  C32 UNL     1      10.208 -13.305  28.942  1.00  0.00     0.199 C 
HETATM   35  O4  UNL     1       9.561 -12.427  29.545  1.00  0.00    -0.647 OA
HETATM   36  O5  UNL     1      10.046 -13.280  27.531  1.00  0.00    -0.647 OA
ENDBRANCH  33  34
ENDBRANCH  28  33
ENDBRANCH  24  25
ENDBRANCH  23  24
ENDBRANCH  21  22
ENDBRANCH  20  21
BRANCH   1  37
HETATM   37  C3  UNL     1       5.509 -16.961  32.723  1.00  0.00    -0.040 C 
HETATM   38  C4  UNL     1       6.715 -16.149  32.242  1.00  0.00     0.047 C 
BRANCH  37  39
HETATM   39  C2  UNL     1       5.617 -17.053  34.186  1.00  0.00     0.033 C 
HETATM   40  C1  UNL     1       6.823 -17.928  34.591  1.00  0.00     0.010 C 
ENDBRANCH  37  39
ENDBRANCH   1  37
BRANCH   6  41
HETATM   41  C8  UNL     1       0.977 -17.446  29.670  1.00  0.00     0.018 C 
BRANCH  41  42
HETATM   42  C9  UNL     1       0.470 -16.143  29.189  1.00  0.00    -0.014 C 
HETATM   43  C10 UNL     1      -0.259 -15.489  30.375  1.00  0.00     0.005 C 
HETATM   44  C11 UNL     1      -1.708 -15.202  30.043  1.00  0.00     0.000 C 
HETATM   45  C12 UNL     1      -1.849 -14.337  28.824  1.00  0.00     0.000 C 
HETATM   46  C13 UNL     1      -0.969 -14.833  27.724  1.00  0.00     0.000 C 
HETATM   47  C14 UNL     1      -0.552 -16.265  28.077  1.00  0.00     0.005 C 
ENDBRANCH  41  42
ENDBRANCH   6  41
BRANCH  14  48
HETATM   48  O3  UNL     1       7.329 -14.516  27.015  1.00  0.00    -0.361 OA
ATOM     49  H3  UNL     1       7.558 -13.679  26.630  1.00  0.00     0.212 HD
ENDBRANCH  14  48
TORSDOF 11
ENDMDL
MODEL 3
REMARK VINA RESULT: -6.884858961      2.616      9.475
REMARK  11 active torsions:
REMARK  status: ('A' for Active; 'I' for Inactive)
REMARK    1  A    between atoms: C2_2  and  C3_3 
REMARK    2  A    between atoms: C3_3  and  C5_5 
REMARK    3  A    between atoms: C7_10  and  C8_11 
REMARK    4  A    between atoms: C8_11  and  C9_12 
REMARK    5  A    between atoms: C20_25  and  O3_27 
REMARK    6  A    between atoms: N4_33  and  C25_34 
REMARK    7  A    between atoms: C25_34  and  C26_35 
REMARK    8  A    between atoms: C27_36  and  C28_37 
REMARK    9  A    between atoms: C28_37  and  N5_38 
REMARK   10  A    between atoms: N6_41  and  C31_42 
REMARK   11  A    between atoms: C31_42  and  C32_43 
ROOT
HETATM    1  C5  UNL     1       5.522 -14.984  27.603  1.00  0.00     0.108 C 
HETATM    2  N1  UNL     1       6.509 -15.291  26.528  1.00  0.00    -0.313 N 
ATOM      3  H1  UNL     1       6.536 -14.616  25.764  1.00  0.00     0.170 HD
HETATM    4  C6  UNL     1       7.408 -16.364  26.402  1.00  0.00     0.227 C 
HETATM    5  O1  UNL     1       7.876 -16.563  25.279  1.00  0.00    -0.273 OA
HETATM    6  C7  UNL     1       7.832 -17.263  27.482  1.00  0.00     0.081 C 
HETATM    7  C15 UNL     1       6.579 -17.943  27.917  1.00  0.00     0.045 C 
HETATM    8  C16 UNL     1       5.598 -17.196  28.726  1.00  0.00     0.041 C 
HETATM    9  C17 UNL     1       4.556 -18.300  29.008  1.00  0.00     0.068 C 
HETATM   10  C18 UNL     1       5.116 -19.498  29.711  1.00  0.00     0.317 C 
HETATM   11  N2  UNL     1       5.872 -19.221  30.878  1.00  0.00     0.051 N 
HETATM   12  O2  UNL     1       6.608 -20.345  31.168  1.00  0.00    -0.062 OA
HETATM   13  C19 UNL     1       5.052 -18.968  32.047  1.00  0.00     0.385 C 
HETATM   14  C20 UNL     1       6.009 -18.254  32.956  1.00  0.00     0.289 C 
HETATM   15  C21 UNL     1       6.463 -19.219  34.021  1.00  0.00     0.084 C 
HETATM   16  N3  UNL     1       7.064 -17.746  32.141  1.00  0.00     0.161 N 
HETATM   17  C22 UNL     1       8.387 -18.118  32.546  1.00  0.00     0.317 C 
HETATM   18  C23 UNL     1       6.779 -18.150  30.761  1.00  0.00     0.493 C 
HETATM   19  C24 UNL     1       6.223 -16.905  30.087  1.00  0.00     0.106 C 
HETATM   20  N4  UNL     1       4.939 -16.062  28.209  1.00  0.00    -0.354 N 
ENDROOT
BRANCH  20  21
HETATM   21  C25 UNL     1       3.549 -16.249  27.797  1.00  0.00     0.152 C 
BRANCH  21  22
HETATM   22  C26 UNL     1       2.746 -15.044  27.640  1.00  0.00    -0.009 C 
HETATM   23  C27 UNL     1       1.457 -14.836  27.708  1.00  0.00    -0.002 C 
BRANCH  23  24
HETATM   24  C28 UNL     1       0.484 -15.890  27.988  1.00  0.00     0.265 C 
BRANCH  24  25
HETATM   25  N5  UNL     1      -0.527 -15.498  28.931  1.00  0.00    -0.059 N 
HETATM   26  C29 UNL     1      -0.445 -14.057  29.098  1.00  0.00     0.266 C 
HETATM   27  C30 UNL     1      -1.678 -13.522  29.806  1.00  0.00     0.266 C 
HETATM   28  N6  UNL     1      -2.208 -14.612  30.594  1.00  0.00    -0.053 N 
HETATM   29  C33 UNL     1      -1.121 -15.287  31.238  1.00  0.00     0.266 C 
HETATM   30  C35 UNL     1      -2.822 -15.529  29.607  1.00  0.00     0.266 C 
HETATM   31  C34 UNL     1      -0.438 -16.188  30.209  1.00  0.00     0.266 C 
HETATM   32  C36 UNL     1      -1.889 -15.761  28.455  1.00  0.00     0.266 C 
BRANCH  28  33
HETATM   33  C31 UNL     1      -3.235 -14.141  31.445  1.00  0.00     0.350 C 
BRANCH  33  34
HETATM   34  C32 UNL     1      -3.315 -14.797  32.754  1.00  0.00     0.199 C 
HETATM   35  O4  UNL     1      -2.834 -14.351  33.814  1.00  0.00    -0.647 OA
HETATM   36  O5  UNL     1      -3.980 -16.044  32.897  1.00  0.00    -0.647 OA
ENDBRANCH  33  34
ENDBRANCH  28  33
ENDBRANCH  24  25
ENDBRANCH  23  24
ENDBRANCH  21  22
ENDBRANCH  20  21
BRANCH   1  37
HETATM   37  C3  UNL     1       6.015 -13.741  28.205  1.00  0.00    -0.040 C 
HETATM   38  C4  UNL     1       5.169 -12.493  27.937  1.00  0.00     0.047 C 
BRANCH  37  39
HETATM   39  C2  UNL     1       7.422 -13.317  28.165  1.00  0.00     0.033 C 
HETATM   40  C1  UNL     1       8.205 -13.912  29.355  1.00  0.00     0.010 C 
ENDBRANCH  37  39
ENDBRANCH   1  37
BRANCH   6  41
HETATM   41  C8  UNL     1       8.829 -18.319  27.097  1.00  0.00     0.018 C 
BRANCH  41  42
HETATM   42  C9  UNL     1      10.073 -18.376  27.896  1.00  0.00    -0.014 C 
HETATM   43  C10 UNL     1      10.140 -19.786  28.506  1.00  0.00     0.005 C 
HETATM   44  C11 UNL     1      10.190 -19.733  30.018  1.00  0.00     0.000 C 
HETATM   45  C12 UNL     1      11.343 -18.911  30.518  1.00  0.00     0.000 C 
HETATM   46  C13 UNL     1      11.428 -17.620  29.774  1.00  0.00     0.000 C 
HETATM   47  C14 UNL     1      10.086 -17.408  29.062  1.00  0.00     0.005 C 
ENDBRANCH  41  42
ENDBRANCH   6  41
BRANCH  14  48
HETATM   48  O3  UNL     1       5.295 -17.237  33.602  1.00  0.00    -0.361 OA
ATOM     49  H3  UNL     1       5.743 -17.048  34.418  1.00  0.00     0.212 HD
ENDBRANCH  14  48
TORSDOF 11
ENDMDL
MODEL 4
REMARK VINA RESULT: -6.868189313     11.674     15.722
REMARK  11 active torsions:
REMARK  status: ('A' for Active; 'I' for Inactive)
REMARK    1  A    between atoms: C2_2  and  C3_3 
REMARK    2  A    between atoms: C3_3  and  C5_5 
REMARK    3  A    between atoms: C7_10  and  C8_11 
REMARK    4  A    between atoms: C8_11  and  C9_12 
REMARK    5  A    between atoms: C20_25  and  O3_27 
REMARK    6  A    between atoms: N4_33  and  C25_34 
REMARK    7  A    between atoms: C25_34  and  C26_35 
REMARK    8  A    between atoms: C27_36  and  C28_37 
REMARK    9  A    between atoms: C28_37  and  N5_38 
REMARK   10  A    between atoms: N6_41  and  C31_42 
REMARK   11  A    between atoms: C31_42  and  C32_43 
ROOT
HETATM    1  C5  UNL     1      -1.719 -19.837  41.092  1.00  0.00     0.108 C 
HETATM    2  N1  UNL     1      -3.050 -19.322  41.524  1.00  0.00    -0.313 N 
ATOM      3  H1  UNL     1      -3.417 -18.554  40.961  1.00  0.00     0.170 HD
HETATM    4  C6  UNL     1      -3.879 -19.728  42.585  1.00  0.00     0.227 C 
HETATM    5  O1  UNL     1      -4.762 -18.939  42.927  1.00  0.00    -0.273 OA
HETATM    6  C7  UNL     1      -3.782 -20.997  43.315  1.00  0.00     0.081 C 
HETATM    7  C15 UNL     1      -2.437 -20.960  43.955  1.00  0.00     0.045 C 
HETATM    8  C16 UNL     1      -1.238 -21.179  43.125  1.00  0.00     0.041 C 
HETATM    9  C17 UNL     1      -0.132 -21.149  44.201  1.00  0.00     0.068 C 
HETATM   10  C18 UNL     1      -0.304 -22.176  45.277  1.00  0.00     0.317 C 
HETATM   11  N2  UNL     1      -0.518 -23.502  44.824  1.00  0.00     0.051 N 
HETATM   12  O2  UNL     1      -1.024 -24.221  45.880  1.00  0.00    -0.062 OA
HETATM   13  C19 UNL     1       0.702 -24.179  44.429  1.00  0.00     0.385 C 
HETATM   14  C20 UNL     1       0.181 -25.297  43.575  1.00  0.00     0.289 C 
HETATM   15  C21 UNL     1       0.247 -26.575  44.372  1.00  0.00     0.084 C 
HETATM   16  N3  UNL     1      -1.135 -24.934  43.163  1.00  0.00     0.161 N 
HETATM   17  C22 UNL     1      -2.156 -25.898  43.445  1.00  0.00     0.317 C 
HETATM   18  C23 UNL     1      -1.433 -23.629  43.761  1.00  0.00     0.493 C 
HETATM   19  C24 UNL     1      -1.253 -22.623  42.633  1.00  0.00     0.106 C 
HETATM   20  N4  UNL     1      -0.896 -20.286  42.088  1.00  0.00    -0.354 N 
ENDROOT
BRANCH  20  21
HETATM   21  C25 UNL     1       0.204 -19.364  42.361  1.00  0.00     0.152 C 
BRANCH  21  22
HETATM   22  C26 UNL     1       0.843 -18.748  41.205  1.00  0.00    -0.009 C 
HETATM   23  C27 UNL     1       1.785 -19.165  40.401  1.00  0.00    -0.002 C 
BRANCH  23  24
HETATM   24  C28 UNL     1       2.435 -20.468  40.527  1.00  0.00     0.265 C 
BRANCH  24  25
HETATM   25  N5  UNL     1       3.785 -20.483  40.036  1.00  0.00    -0.059 N 
HETATM   26  C29 UNL     1       4.123 -19.131  39.623  1.00  0.00     0.266 C 
HETATM   27  C30 UNL     1       5.620 -18.986  39.412  1.00  0.00     0.266 C 
HETATM   28  N6  UNL     1       6.123 -20.305  39.099  1.00  0.00    -0.053 N 
HETATM   29  C33 UNL     1       5.223 -20.935  38.179  1.00  0.00     0.266 C 
HETATM   30  C35 UNL     1       6.087 -21.040  40.383  1.00  0.00     0.266 C 
HETATM   31  C34 UNL     1       4.011 -21.439  38.963  1.00  0.00     0.266 C 
HETATM   32  C36 UNL     1       4.767 -20.835  41.068  1.00  0.00     0.266 C 
BRANCH  28  33
HETATM   33  C31 UNL     1       7.474 -20.223  38.684  1.00  0.00     0.350 C 
BRANCH  33  34
HETATM   34  C32 UNL     1       7.879 -21.204  37.673  1.00  0.00     0.199 C 
HETATM   35  O4  UNL     1       8.081 -20.955  36.468  1.00  0.00    -0.647 OA
HETATM   36  O5  UNL     1       8.075 -22.565  38.025  1.00  0.00    -0.647 OA
ENDBRANCH  33  34
ENDBRANCH  28  33
ENDBRANCH  24  25
ENDBRANCH  23  24
ENDBRANCH  21  22
ENDBRANCH  20  21
BRANCH   1  37
HETATM   37  C3  UNL     1      -1.965 -20.415  39.768  1.00  0.00    -0.040 C 
HETATM   38  C4  UNL     1      -1.051 -21.577  39.370  1.00  0.00     0.047 C 
BRANCH  37  39
HETATM   39  C2  UNL     1      -2.184 -19.614  38.555  1.00  0.00     0.033 C 
HETATM   40  C1  UNL     1      -3.647 -19.735  38.078  1.00  0.00     0.010 C 
ENDBRANCH  37  39
ENDBRANCH   1  37
BRANCH   6  41
HETATM   41  C8  UNL     1      -4.808 -21.208  44.392  1.00  0.00     0.018 C 
BRANCH  41  42
HETATM   42  C9  UNL     1      -5.513 -22.508  44.387  1.00  0.00    -0.014 C 
HETATM   43  C10 UNL     1      -6.820 -22.304  45.171  1.00  0.00     0.005 C 
HETATM   44  C11 UNL     1      -6.905 -23.238  46.360  1.00  0.00     0.000 C 
HETATM   45  C12 UNL     1      -6.777 -24.679  45.958  1.00  0.00     0.000 C 
HETATM   46  C13 UNL     1      -5.638 -24.860  45.011  1.00  0.00     0.000 C 
HETATM   47  C14 UNL     1      -4.757 -23.609  45.103  1.00  0.00     0.005 C 
ENDBRANCH  41  42
ENDBRANCH   6  41
BRANCH  14  48
HETATM   48  O3  UNL     1       1.060 -25.444  42.494  1.00  0.00    -0.361 OA
ATOM     49  H3  UNL     1       0.541 -25.424  41.699  1.00  0.00     0.212 HD
ENDBRANCH  14  48
TORSDOF 11
ENDMDL
MODEL 5
REMARK VINA RESULT: -6.854706748     11.742     15.850
REMARK  11 active torsions:
REMARK  status: ('A' for Active; 'I' for Inactive)
REMARK    1  A    between atoms: C2_2  and  C3_3 
REMARK    2  A    between atoms: C3_3  and  C5_5 
REMARK    3  A    between atoms: C7_10  and  C8_11 
REMARK    4  A    between atoms: C8_11  and  C9_12 
REMARK    5  A    between atoms: C20_25  and  O3_27 
REMARK    6  A    between atoms: N4_33  and  C25_34 
REMARK    7  A    between atoms: C25_34  and  C26_35 
REMARK    8  A    between atoms: C27_36  and  C28_37 
REMARK    9  A    between atoms: C28_37  and  N5_38 
REMARK   10  A    between atoms: N6_41  and  C31_42 
REMARK   11  A    between atoms: C31_42  and  C32_43 
ROOT
HETATM    1  C5  UNL     1      -1.745 -19.811  41.166  1.00  0.00     0.108 C 
HETATM    2  N1  UNL     1      -3.080 -19.301  41.592  1.00  0.00    -0.313 N 
ATOM      3  H1  UNL     1      -3.442 -18.528  41.034  1.00  0.00     0.170 HD
HETATM    4  C6  UNL     1      -3.918 -19.718  42.640  1.00  0.00     0.227 C 
HETATM    5  O1  UNL     1      -4.805 -18.933  42.983  1.00  0.00    -0.273 OA
HETATM    6  C7  UNL     1      -3.828 -20.995  43.358  1.00  0.00     0.081 C 
HETATM    7  C15 UNL     1      -2.488 -20.964  44.011  1.00  0.00     0.045 C 
HETATM    8  C16 UNL     1      -1.282 -21.174  43.189  1.00  0.00     0.041 C 
HETATM    9  C17 UNL     1      -0.186 -21.155  44.276  1.00  0.00     0.068 C 
HETATM   10  C18 UNL     1      -0.368 -22.194  45.340  1.00  0.00     0.317 C 
HETATM   11  N2  UNL     1      -0.577 -23.515  44.871  1.00  0.00     0.051 N 
HETATM   12  O2  UNL     1      -1.093 -24.245  45.915  1.00  0.00    -0.062 OA
HETATM   13  C19 UNL     1       0.647 -24.187  44.480  1.00  0.00     0.385 C 
HETATM   14  C20 UNL     1       0.135 -25.296  43.609  1.00  0.00     0.289 C 
HETATM   15  C21 UNL     1       0.193 -26.582  44.394  1.00  0.00     0.084 C 
HETATM   16  N3  UNL     1      -1.178 -24.929  43.189  1.00  0.00     0.161 N 
HETATM   17  C22 UNL     1      -2.201 -25.897  43.452  1.00  0.00     0.317 C 
HETATM   18  C23 UNL     1      -1.482 -23.631  43.797  1.00  0.00     0.493 C 
HETATM   19  C24 UNL     1      -1.292 -22.613  42.683  1.00  0.00     0.106 C 
HETATM   20  N4  UNL     1      -0.931 -20.270  42.166  1.00  0.00    -0.354 N 
ENDROOT
BRANCH  20  21
HETATM   21  C25 UNL     1       0.166 -19.351  42.458  1.00  0.00     0.152 C 
BRANCH  21  22
HETATM   22  C26 UNL     1       0.719 -18.612  41.330  1.00  0.00    -0.009 C 
HETATM   23  C27 UNL     1       1.943 -18.462  40.898  1.00  0.00    -0.002 C 
BRANCH  23  24
HETATM   24  C28 UNL     1       3.105 -19.077  41.537  1.00  0.00     0.265 C 
BRANCH  24  25
HETATM   25  N5  UNL     1       4.158 -19.404  40.615  1.00  0.00    -0.059 N 
HETATM   26  C29 UNL     1       3.736 -20.566  39.852  1.00  0.00     0.266 C 
HETATM   27  C30 UNL     1       4.627 -20.772  38.640  1.00  0.00     0.266 C 
HETATM   28  N6  UNL     1       5.902 -20.166  38.955  1.00  0.00    -0.053 N 
HETATM   29  C33 UNL     1       6.255 -20.510  40.300  1.00  0.00     0.266 C 
HETATM   30  C35 UNL     1       5.656 -18.708  38.884  1.00  0.00     0.266 C 
HETATM   31  C34 UNL     1       5.448 -19.624  41.250  1.00  0.00     0.266 C 
HETATM   32  C36 UNL     1       4.400 -18.350  39.624  1.00  0.00     0.266 C 
BRANCH  28  33
HETATM   33  C31 UNL     1       6.855 -20.494  37.962  1.00  0.00     0.350 C 
BRANCH  33  34
HETATM   34  C32 UNL     1       7.421 -21.843  38.059  1.00  0.00     0.199 C 
HETATM   35  O4  UNL     1       6.822 -22.898  37.774  1.00  0.00    -0.647 OA
HETATM   36  O5  UNL     1       8.755 -22.035  38.506  1.00  0.00    -0.647 OA
ENDBRANCH  33  34
ENDBRANCH  28  33
ENDBRANCH  24  25
ENDBRANCH  23  24
ENDBRANCH  21  22
ENDBRANCH  20  21
BRANCH   1  37
HETATM   37  C3  UNL     1      -1.979 -20.375  39.834  1.00  0.00    -0.040 C 
HETATM   38  C4  UNL     1      -0.948 -21.402  39.357  1.00  0.00     0.047 C 
BRANCH  37  39
HETATM   39  C2  UNL     1      -2.350 -19.571  38.661  1.00  0.00     0.033 C 
HETATM   40  C1  UNL     1      -3.777 -19.925  38.187  1.00  0.00     0.010 C 
ENDBRANCH  37  39
ENDBRANCH   1  37
BRANCH   6  41
HETATM   41  C8  UNL     1      -4.864 -21.218  44.423  1.00  0.00     0.018 C 
BRANCH  41  42
HETATM   42  C9  UNL     1      -5.552 -22.527  44.412  1.00  0.00    -0.014 C 
HETATM   43  C10 UNL     1      -6.844 -22.353  45.228  1.00  0.00     0.005 C 
HETATM   44  C11 UNL     1      -6.890 -23.307  46.402  1.00  0.00     0.000 C 
HETATM   45  C12 UNL     1      -6.753 -24.739  45.974  1.00  0.00     0.000 C 
HETATM   46  C13 UNL     1      -5.633 -24.890  44.999  1.00  0.00     0.000 C 
HETATM   47  C14 UNL     1      -4.766 -23.629  45.093  1.00  0.00     0.005 C 
ENDBRANCH  41  42
ENDBRANCH   6  41
BRANCH  14  48
HETATM   48  O3  UNL     1       1.023 -25.432  42.535  1.00  0.00    -0.361 OA
ATOM     49  H3  UNL     1       0.783 -26.220  42.063  1.00  0.00     0.212 HD
ENDBRANCH  14  48
TORSDOF 11
ENDMDL
