MODEL 1
REMARK VINA RESULT: -8.436879484      0.000      0.000
REMARK  7 active torsions:
REMARK  status: ('A' for Active; 'I' for Inactive)
REMARK    1  A    between atoms: C6_6  and  O1_7 
REMARK    2  A    between atoms: O1_7  and  C7_8 
REMARK    3  A    between atoms: C7_8  and  C8_9 
REMARK    4  A    between atoms: C8_9  and  C9_10 
REMARK    5  A    between atoms: C9_10  and  C10_11 
REMARK    6  A    between atoms: C10_11  and  C11_12 
REMARK    7  A    between atoms: C11_12  and  N1_13 
ROOT
HETATM    1  O1  UNL     1     240.683 -25.510 351.551  1.00  0.00    -0.351 OA
ENDROOT
BRANCH   1   2
HETATM    2  C6  UNL     1     241.371 -24.933 352.583  1.00  0.00     0.070 A 
HETATM    3  C5  UNL     1     242.051 -25.648 353.554  1.00  0.00     0.037 A 
HETATM    4  C4  UNL     1     242.731 -25.079 354.574  1.00  0.00     0.015 A 
HETATM    5  C3  UNL     1     242.793 -23.682 354.718  1.00  0.00    -0.018 A 
HETATM    6  C2  UNL     1     243.440 -22.999 355.692  1.00  0.00     0.020 A 
HETATM    7  C16 UNL     1     242.134 -22.957 353.776  1.00  0.00     0.017 A 
HETATM    8  C1  UNL     1     243.373 -21.632 355.644  1.00  0.00     0.051 A 
HETATM    9  S1  UNL     1     242.422 -21.345 354.258  1.00  0.00    -0.101 SA
HETATM   10  C15 UNL     1     241.431 -23.558 352.721  1.00  0.00     0.056 A 
ENDBRANCH   1   2
BRANCH   1  11
HETATM   11  C7  UNL     1     240.102 -26.776 351.550  1.00  0.00     0.175 C 
BRANCH  11  12
HETATM   12  C8  UNL     1     238.775 -26.710 352.279  1.00  0.00     0.027 C 
BRANCH  12  13
HETATM   13  C9  UNL     1     238.405 -28.018 352.908  1.00  0.00     0.004 C 
BRANCH  13  14
HETATM   14  C10 UNL     1     237.492 -28.867 352.064  1.00  0.00     0.030 C 
BRANCH  14  15
HETATM   15  C11 UNL     1     236.366 -28.037 351.530  1.00  0.00     0.272 C 
BRANCH  15  16
HETATM   16  N1  UNL     1     235.321 -27.829 352.519  1.00  0.00     0.088 N 
HETATM   17  C12 UNL     1     234.077 -28.491 352.272  1.00  0.00     0.274 C 
HETATM   18  C13 UNL     1     233.608 -27.272 351.500  1.00  0.00     0.060 C 
HETATM   19  C14 UNL     1     234.669 -26.561 352.298  1.00  0.00     0.274 C 
ENDBRANCH  15  16
ENDBRANCH  14  15
ENDBRANCH  13  14
ENDBRANCH  12  13
ENDBRANCH  11  12
ENDBRANCH   1  11
TORSDOF 7
ENDMDL
MODEL 2
REMARK VINA RESULT: -8.429918774      1.182      1.542
REMARK  7 active torsions:
REMARK  status: ('A' for Active; 'I' for Inactive)
REMARK    1  A    between atoms: C6_6  and  O1_7 
REMARK    2  A    between atoms: O1_7  and  C7_8 
REMARK    3  A    between atoms: C7_8  and  C8_9 
REMARK    4  A    between atoms: C8_9  and  C9_10 
REMARK    5  A    between atoms: C9_10  and  C10_11 
REMARK    6  A    between atoms: C10_11  and  C11_12 
REMARK    7  A    between atoms: C11_12  and  N1_13 
ROOT
HETATM    1  O1  UNL     1     240.652 -25.422 351.497  1.00  0.00    -0.351 OA
ENDROOT
BRANCH   1   2
HETATM    2  C6  UNL     1     241.342 -24.890 352.551  1.00  0.00     0.070 A 
HETATM    3  C5  UNL     1     242.020 -25.647 353.491  1.00  0.00     0.037 A 
HETATM    4  C4  UNL     1     242.704 -25.122 354.533  1.00  0.00     0.015 A 
HETATM    5  C3  UNL     1     242.771 -23.733 354.733  1.00  0.00    -0.018 A 
HETATM    6  C2  UNL     1     243.421 -23.092 355.734  1.00  0.00     0.020 A 
HETATM    7  C16 UNL     1     242.114 -22.967 353.823  1.00  0.00     0.017 A 
HETATM    8  C1  UNL     1     243.359 -21.724 355.742  1.00  0.00     0.051 A 
HETATM    9  S1  UNL     1     242.408 -21.378 354.369  1.00  0.00    -0.101 SA
HETATM   10  C15 UNL     1     241.408 -23.522 352.744  1.00  0.00     0.056 A 
ENDBRANCH   1   2
BRANCH   1  11
HETATM   11  C7  UNL     1     240.077 -26.690 351.440  1.00  0.00     0.175 C 
BRANCH  11  12
HETATM   12  C8  UNL     1     238.777 -26.677 352.220  1.00  0.00     0.027 C 
BRANCH  12  13
HETATM   13  C9  UNL     1     238.477 -28.004 352.847  1.00  0.00     0.004 C 
BRANCH  13  14
HETATM   14  C10 UNL     1     238.480 -29.155 351.876  1.00  0.00     0.030 C 
BRANCH  14  15
HETATM   15  C11 UNL     1     237.441 -30.160 352.267  1.00  0.00     0.272 C 
BRANCH  15  16
HETATM   16  N1  UNL     1     236.468 -30.382 351.210  1.00  0.00     0.088 N 
HETATM   17  C12 UNL     1     236.083 -29.229 350.455  1.00  0.00     0.274 C 
HETATM   18  C13 UNL     1     234.965 -28.979 351.450  1.00  0.00     0.060 C 
HETATM   19  C14 UNL     1     235.135 -30.442 351.762  1.00  0.00     0.274 C 
ENDBRANCH  15  16
ENDBRANCH  14  15
ENDBRANCH  13  14
ENDBRANCH  12  13
ENDBRANCH  11  12
ENDBRANCH   1  11
TORSDOF 7
ENDMDL
MODEL 3
REMARK VINA RESULT: -8.424960699      3.780      7.987
REMARK  7 active torsions:
REMARK  status: ('A' for Active; 'I' for Inactive)
REMARK    1  A    between atoms: C6_6  and  O1_7 
REMARK    2  A    between atoms: O1_7  and  C7_8 
REMARK    3  A    between atoms: C7_8  and  C8_9 
REMARK    4  A    between atoms: C8_9  and  C9_10 
REMARK    5  A    between atoms: C9_10  and  C10_11 
REMARK    6  A    between atoms: C10_11  and  C11_12 
REMARK    7  A    between atoms: C11_12  and  N1_13 
ROOT
HETATM    1  O1  UNL     1     239.926 -25.692 352.581  1.00  0.00    -0.351 OA
ENDROOT
BRANCH   1   2
HETATM    2  C6  UNL     1     239.386 -26.723 351.862  1.00  0.00     0.070 A 
HETATM    3  C5  UNL     1     239.984 -27.283 350.747  1.00  0.00     0.037 A 
HETATM    4  C4  UNL     1     239.453 -28.303 350.036  1.00  0.00     0.015 A 
HETATM    5  C3  UNL     1     238.221 -28.876 350.395  1.00  0.00    -0.018 A 
HETATM    6  C2  UNL     1     237.590 -29.895 349.765  1.00  0.00     0.020 A 
HETATM    7  C16 UNL     1     237.613 -28.344 351.488  1.00  0.00     0.017 A 
HETATM    8  C1  UNL     1     236.391 -30.303 350.285  1.00  0.00     0.051 A 
HETATM    9  S1  UNL     1     236.183 -29.264 351.622  1.00  0.00    -0.101 SA
HETATM   10  C15 UNL     1     238.174 -27.285 352.220  1.00  0.00     0.056 A 
ENDBRANCH   1   2
BRANCH   1  11
HETATM   11  C7  UNL     1     241.117 -25.721 353.303  1.00  0.00     0.175 C 
BRANCH  11  12
HETATM   12  C8  UNL     1     241.783 -24.362 353.208  1.00  0.00     0.027 C 
BRANCH  12  13
HETATM   13  C9  UNL     1     242.602 -24.045 354.422  1.00  0.00     0.004 C 
BRANCH  13  14
HETATM   14  C10 UNL     1     243.284 -22.703 354.367  1.00  0.00     0.030 C 
BRANCH  14  15
HETATM   15  C11 UNL     1     243.046 -22.061 353.035  1.00  0.00     0.272 C 
BRANCH  15  16
HETATM   16  N1  UNL     1     242.569 -20.693 353.164  1.00  0.00     0.088 N 
HETATM   17  C12 UNL     1     241.564 -20.466 354.157  1.00  0.00     0.274 C 
HETATM   18  C13 UNL     1     240.501 -20.754 353.114  1.00  0.00     0.060 C 
HETATM   19  C14 UNL     1     241.595 -20.405 352.139  1.00  0.00     0.274 C 
ENDBRANCH  15  16
ENDBRANCH  14  15
ENDBRANCH  13  14
ENDBRANCH  12  13
ENDBRANCH  11  12
ENDBRANCH   1  11
TORSDOF 7
ENDMDL
MODEL 4
REMARK VINA RESULT: -8.382795369      3.682      8.266
REMARK  7 active torsions:
REMARK  status: ('A' for Active; 'I' for Inactive)
REMARK    1  A    between atoms: C6_6  and  O1_7 
REMARK    2  A    between atoms: O1_7  and  C7_8 
REMARK    3  A    between atoms: C7_8  and  C8_9 
REMARK    4  A    between atoms: C8_9  and  C9_10 
REMARK    5  A    between atoms: C9_10  and  C10_11 
REMARK    6  A    between atoms: C10_11  and  C11_12 
REMARK    7  A    between atoms: C11_12  and  N1_13 
ROOT
HETATM    1  O1  UNL     1     239.730 -25.709 352.656  1.00  0.00    -0.351 OA
ENDROOT
BRANCH   1   2
HETATM    2  C6  UNL     1     239.238 -26.748 351.915  1.00  0.00     0.070 A 
HETATM    3  C5  UNL     1     239.905 -27.316 350.844  1.00  0.00     0.037 A 
HETATM    4  C4  UNL     1     239.420 -28.344 350.111  1.00  0.00     0.015 A 
HETATM    5  C3  UNL     1     238.170 -28.917 350.399  1.00  0.00    -0.018 A 
HETATM    6  C2  UNL     1     237.582 -29.943 349.741  1.00  0.00     0.020 A 
HETATM    7  C16 UNL     1     237.495 -28.377 351.448  1.00  0.00     0.017 A 
HETATM    8  C1  UNL     1     236.354 -30.350 350.190  1.00  0.00     0.051 A 
HETATM    9  S1  UNL     1     236.061 -29.301 351.502  1.00  0.00    -0.101 SA
HETATM   10  C15 UNL     1     238.008 -27.311 352.203  1.00  0.00     0.056 A 
ENDBRANCH   1   2
BRANCH   1  11
HETATM   11  C7  UNL     1     241.055 -25.525 353.047  1.00  0.00     0.175 C 
BRANCH  11  12
HETATM   12  C8  UNL     1     241.631 -24.344 352.293  1.00  0.00     0.027 C 
BRANCH  12  13
HETATM   13  C9  UNL     1     241.199 -23.032 352.873  1.00  0.00     0.004 C 
BRANCH  13  14
HETATM   14  C10 UNL     1     242.295 -22.002 352.945  1.00  0.00     0.030 C 
BRANCH  14  15
HETATM   15  C11 UNL     1     243.352 -22.443 353.908  1.00  0.00     0.272 C 
BRANCH  15  16
HETATM   16  N1  UNL     1     242.807 -22.736 355.224  1.00  0.00     0.088 N 
HETATM   17  C12 UNL     1     243.333 -21.967 356.310  1.00  0.00     0.274 C 
HETATM   18  C13 UNL     1     244.407 -23.020 356.506  1.00  0.00     0.060 C 
HETATM   19  C14 UNL     1     243.438 -23.912 355.776  1.00  0.00     0.274 C 
ENDBRANCH  15  16
ENDBRANCH  14  15
ENDBRANCH  13  14
ENDBRANCH  12  13
ENDBRANCH  11  12
ENDBRANCH   1  11
TORSDOF 7
ENDMDL
MODEL 5
REMARK VINA RESULT: -8.305033350      3.516      8.345
REMARK  7 active torsions:
REMARK  status: ('A' for Active; 'I' for Inactive)
REMARK    1  A    between atoms: C6_6  and  O1_7 
REMARK    2  A    between atoms: O1_7  and  C7_8 
REMARK    3  A    between atoms: C7_8  and  C8_9 
REMARK    4  A    between atoms: C8_9  and  C9_10 
REMARK    5  A    between atoms: C9_10  and  C10_11 
REMARK    6  A    between atoms: C10_11  and  C11_12 
REMARK    7  A    between atoms: C11_12  and  N1_13 
ROOT
HETATM    1  O1  UNL     1     239.610 -27.638 352.266  1.00  0.00    -0.351 OA
ENDROOT
BRANCH   1   2
HETATM    2  C6  UNL     1     238.423 -28.312 352.185  1.00  0.00     0.070 A 
HETATM    3  C5  UNL     1     238.322 -29.686 352.055  1.00  0.00     0.037 A 
HETATM    4  C4  UNL     1     237.150 -30.354 351.975  1.00  0.00     0.015 A 
HETATM    5  C3  UNL     1     235.921 -29.674 352.018  1.00  0.00    -0.018 A 
HETATM    6  C2  UNL     1     234.688 -30.230 351.948  1.00  0.00     0.020 A 
HETATM    7  C16 UNL     1     235.992 -28.323 352.146  1.00  0.00     0.017 A 
HETATM    8  C1  UNL     1     233.616 -29.379 352.011  1.00  0.00     0.051 A 
HETATM    9  S1  UNL     1     234.353 -27.849 352.165  1.00  0.00    -0.101 SA
HETATM   10  C15 UNL     1     237.215 -27.639 352.229  1.00  0.00     0.056 A 
ENDBRANCH   1   2
BRANCH   1  11
HETATM   11  C7  UNL     1     239.928 -26.441 351.627  1.00  0.00     0.175 C 
BRANCH  11  12
HETATM   12  C8  UNL     1     240.118 -25.360 352.673  1.00  0.00     0.027 C 
BRANCH  12  13
HETATM   13  C9  UNL     1     241.362 -24.558 352.442  1.00  0.00     0.004 C 
BRANCH  13  14
HETATM   14  C10 UNL     1     242.170 -24.309 353.688  1.00  0.00     0.030 C 
BRANCH  14  15
HETATM   15  C11 UNL     1     242.893 -23.003 353.580  1.00  0.00     0.272 C 
BRANCH  15  16
HETATM   16  N1  UNL     1     242.059 -21.962 353.001  1.00  0.00     0.088 N 
HETATM   17  C12 UNL     1     242.727 -21.007 352.170  1.00  0.00     0.274 C 
HETATM   18  C13 UNL     1     242.975 -20.148 353.395  1.00  0.00     0.060 C 
HETATM   19  C14 UNL     1     241.817 -20.919 353.970  1.00  0.00     0.274 C 
ENDBRANCH  15  16
ENDBRANCH  14  15
ENDBRANCH  13  14
ENDBRANCH  12  13
ENDBRANCH  11  12
ENDBRANCH   1  11
TORSDOF 7
ENDMDL
