MODEL 1
REMARK VINA RESULT: -7.113169964      0.000      0.000
REMARK  1 active torsions:
REMARK  status: ('A' for Active; 'I' for Inactive)
REMARK    1  A    between atoms: S1_2  and  C2_3 
ROOT
HETATM    1  C2  UNL     1      13.483  23.029  -0.263  1.00  0.00     0.285 C 
HETATM    2  O1  UNL     1      13.570  22.843  -1.675  1.00  0.00    -0.329 OA
HETATM    3  C3  UNL     1      14.005  24.047  -2.185  1.00  0.00     0.175 C 
HETATM    4  C4  UNL     1      12.809  24.865  -2.558  1.00  0.00     0.069 C 
HETATM    5  C5  UNL     1      13.206  26.330  -2.663  1.00  0.00     0.005 C 
HETATM    6  C6  UNL     1      13.465  26.640  -4.098  1.00  0.00     0.000 C 
HETATM    7  C7  UNL     1      14.703  26.042  -4.670  1.00  0.00     0.000 C 
HETATM    8  C8  UNL     1      15.522  25.255  -3.677  1.00  0.00     0.005 C 
HETATM    9  C9  UNL     1      14.915  23.899  -3.389  1.00  0.00     0.069 C 
HETATM   10  O2  UNL     1      14.810  24.631  -1.171  1.00  0.00    -0.281 OA
HETATM   11  C10 UNL     1      14.655  23.859  -0.029  1.00  0.00     0.301 C 
HETATM   12  O3  UNL     1      15.433  23.934   0.951  1.00  0.00    -0.261 OA
ENDROOT
BRANCH   1  13
HETATM   13  S1  UNL     1      13.486  21.418   0.475  1.00  0.00    -0.132 SA
HETATM   14  C1  UNL     1      14.999  20.496   0.436  1.00  0.00     0.093 C 
ENDBRANCH   1  13
TORSDOF 1
ENDMDL
MODEL 2
REMARK VINA RESULT: -6.992031389      0.993      1.022
REMARK  1 active torsions:
REMARK  status: ('A' for Active; 'I' for Inactive)
REMARK    1  A    between atoms: S1_2  and  C2_3 
ROOT
HETATM    1  C2  UNL     1      12.758  23.801  -0.020  1.00  0.00     0.285 C 
HETATM    2  O1  UNL     1      12.922  23.256  -1.327  1.00  0.00    -0.329 OA
HETATM    3  C3  UNL     1      13.765  24.121  -1.991  1.00  0.00     0.175 C 
HETATM    4  C4  UNL     1      12.934  25.127  -2.721  1.00  0.00     0.069 C 
HETATM    5  C5  UNL     1      13.783  26.345  -3.054  1.00  0.00     0.005 C 
HETATM    6  C6  UNL     1      14.269  26.205  -4.456  1.00  0.00     0.000 C 
HETATM    7  C7  UNL     1      15.303  25.156  -4.674  1.00  0.00     0.000 C 
HETATM    8  C8  UNL     1      15.727  24.438  -3.417  1.00  0.00     0.005 C 
HETATM    9  C9  UNL     1      14.697  23.427  -2.966  1.00  0.00     0.069 C 
HETATM   10  O2  UNL     1      14.608  24.682  -0.996  1.00  0.00    -0.281 OA
HETATM   11  C10 UNL     1      14.104  24.293   0.236  1.00  0.00     0.301 C 
HETATM   12  O3  UNL     1      14.763  24.383   1.298  1.00  0.00    -0.261 OA
ENDROOT
BRANCH   1  13
HETATM   13  S1  UNL     1      12.177  22.490   1.022  1.00  0.00    -0.132 SA
HETATM   14  C1  UNL     1      13.179  21.035   1.153  1.00  0.00     0.093 C 
ENDBRANCH   1  13
TORSDOF 1
ENDMDL
MODEL 3
REMARK VINA RESULT: -6.948037555      1.467      2.573
REMARK  1 active torsions:
REMARK  status: ('A' for Active; 'I' for Inactive)
REMARK    1  A    between atoms: S1_2  and  C2_3 
ROOT
HETATM    1  C2  UNL     1      14.070  22.555  -0.472  1.00  0.00     0.285 C 
HETATM    2  O1  UNL     1      13.649  23.908  -0.632  1.00  0.00    -0.329 OA
HETATM    3  C3  UNL     1      14.262  24.358  -1.781  1.00  0.00     0.175 C 
HETATM    4  C4  UNL     1      15.558  25.005  -1.406  1.00  0.00     0.069 C 
HETATM    5  C5  UNL     1      16.464  25.077  -2.627  1.00  0.00     0.005 C 
HETATM    6  C6  UNL     1      16.330  26.435  -3.227  1.00  0.00     0.000 C 
HETATM    7  C7  UNL     1      15.033  26.710  -3.906  1.00  0.00     0.000 C 
HETATM    8  C8  UNL     1      14.082  25.538  -3.916  1.00  0.00     0.005 C 
HETATM    9  C9  UNL     1      13.416  25.337  -2.573  1.00  0.00     0.069 C 
HETATM   10  O2  UNL     1      14.406  23.219  -2.616  1.00  0.00    -0.281 OA
HETATM   11  C10 UNL     1      14.068  22.109  -1.857  1.00  0.00     0.301 C 
HETATM   12  O3  UNL     1      13.821  20.990  -2.365  1.00  0.00    -0.261 OA
ENDROOT
BRANCH   1  13
HETATM   13  S1  UNL     1      12.911  21.774   0.619  1.00  0.00    -0.132 SA
HETATM   14  C1  UNL     1      11.629  22.779   1.315  1.00  0.00     0.093 C 
ENDBRANCH   1  13
TORSDOF 1
ENDMDL
MODEL 4
REMARK VINA RESULT: -6.725632393      1.876      2.845
REMARK  1 active torsions:
REMARK  status: ('A' for Active; 'I' for Inactive)
REMARK    1  A    between atoms: S1_2  and  C2_3 
ROOT
HETATM    1  C2  UNL     1      14.263  23.590  -1.894  1.00  0.00     0.285 C 
HETATM    2  O1  UNL     1      13.723  24.830  -2.347  1.00  0.00    -0.329 OA
HETATM    3  C3  UNL     1      14.657  25.349  -3.218  1.00  0.00     0.175 C 
HETATM    4  C4  UNL     1      15.574  26.247  -2.449  1.00  0.00     0.069 C 
HETATM    5  C5  UNL     1      16.863  26.451  -3.232  1.00  0.00     0.005 C 
HETATM    6  C6  UNL     1      16.755  27.735  -3.981  1.00  0.00     0.000 C 
HETATM    7  C7  UNL     1      15.806  27.729  -5.129  1.00  0.00     0.000 C 
HETATM    8  C8  UNL     1      15.144  26.396  -5.374  1.00  0.00     0.005 C 
HETATM    9  C9  UNL     1      14.044  26.116  -4.373  1.00  0.00     0.069 C 
HETATM   10  O2  UNL     1      15.305  24.231  -3.806  1.00  0.00    -0.281 OA
HETATM   11  C10 UNL     1      14.882  23.103  -3.118  1.00  0.00     0.301 C 
HETATM   12  O3  UNL     1      15.044  21.941  -3.557  1.00  0.00    -0.261 OA
ENDROOT
BRANCH   1  13
HETATM   13  S1  UNL     1      12.914  22.639  -1.250  1.00  0.00    -0.132 SA
HETATM   14  C1  UNL     1      13.232  20.954  -0.802  1.00  0.00     0.093 C 
ENDBRANCH   1  13
TORSDOF 1
ENDMDL
MODEL 5
REMARK VINA RESULT: -6.670301349      2.782      4.105
REMARK  1 active torsions:
REMARK  status: ('A' for Active; 'I' for Inactive)
REMARK    1  A    between atoms: S1_2  and  C2_3 
ROOT
HETATM    1  C2  UNL     1      12.169  21.334   1.760  1.00  0.00     0.285 C 
HETATM    2  O1  UNL     1      12.293  22.754   1.785  1.00  0.00    -0.329 OA
HETATM    3  C3  UNL     1      12.269  23.156   0.466  1.00  0.00     0.175 C 
HETATM    4  C4  UNL     1      13.678  23.232  -0.032  1.00  0.00     0.069 C 
HETATM    5  C5  UNL     1      13.684  23.195  -1.553  1.00  0.00     0.005 C 
HETATM    6  C6  UNL     1      13.772  24.597  -2.053  1.00  0.00     0.000 C 
HETATM    7  C7  UNL     1      12.547  25.422  -1.863  1.00  0.00     0.000 C 
HETATM    8  C8  UNL     1      11.393  24.679  -1.236  1.00  0.00     0.005 C 
HETATM    9  C9  UNL     1      11.582  24.491   0.253  1.00  0.00     0.069 C 
HETATM   10  O2  UNL     1      11.467  22.203  -0.216  1.00  0.00    -0.281 OA
HETATM   11  C10 UNL     1      11.218  21.167   0.671  1.00  0.00     0.301 C 
HETATM   12  O3  UNL     1      10.321  20.312   0.481  1.00  0.00    -0.261 OA
ENDROOT
BRANCH   1  13
HETATM   13  S1  UNL     1      11.633  20.830   3.372  1.00  0.00    -0.132 SA
HETATM   14  C1  UNL     1      11.891  19.139   3.835  1.00  0.00     0.093 C 
ENDBRANCH   1  13
TORSDOF 1
ENDMDL
