MODEL 1
REMARK VINA RESULT: -6.254701876      0.000      0.000
REMARK  7 active torsions:
REMARK  status: ('A' for Active; 'I' for Inactive)
REMARK    1  A    between atoms: C2_2  and  O1_3 
REMARK    2  A    between atoms: O1_3  and  C3_4 
REMARK    3  A    between atoms: C3_4  and  C4_6 
REMARK    4  A    between atoms: C6_8  and  O3_10 
REMARK    5  A    between atoms: C8_12  and  N1_13 
REMARK       I    between atoms: N1_13  and  C9_15 
REMARK    6  A    between atoms: C14_21  and  O5_22 
REMARK    7  A    between atoms: C16_24  and  O6_25 
ROOT
HETATM    1  C4  UNL     1     -22.484   4.636 102.031  1.00  0.00     0.084 C 
HETATM    2  C5  UNL     1     -23.951   4.326 102.255  1.00  0.00     0.062 C 
HETATM    3  C6  UNL     1     -24.669   5.648 102.413  1.00  0.00     0.076 C 
HETATM    4  C7  UNL     1     -25.908   5.697 101.533  1.00  0.00     0.048 C 
HETATM    5  C8  UNL     1     -23.663   6.633 101.914  1.00  0.00     0.123 C 
HETATM    6  C11 UNL     1     -22.314   6.061 102.376  1.00  0.00     0.032 C 
HETATM    7  C12 UNL     1     -21.979   6.425 103.758  1.00  0.00     0.011 C 
HETATM    8  C13 UNL     1     -21.415   5.392 104.649  1.00  0.00     0.035 C 
HETATM    9  C14 UNL     1     -21.662   3.968 104.292  1.00  0.00     0.150 C 
HETATM   10  C16 UNL     1     -21.658   3.667 102.829  1.00  0.00     0.166 C 
ENDROOT
BRANCH   1  11
HETATM   11  C3  UNL     1     -22.140   4.402 100.605  1.00  0.00     0.270 C 
HETATM   12  O2  UNL     1     -21.147   5.007 100.132  1.00  0.00    -0.264 OA
BRANCH  11  13
HETATM   13  O1  UNL     1     -22.847   3.560  99.771  1.00  0.00    -0.321 OA
BRANCH  13  14
HETATM   14  C2  UNL     1     -23.206   3.928  98.455  1.00  0.00     0.174 C 
HETATM   15  C1  UNL     1     -24.138   5.102  98.406  1.00  0.00     0.034 C 
ENDBRANCH  13  14
ENDBRANCH  11  13
ENDBRANCH   1  11
BRANCH  10  16
HETATM   16  O6  UNL     1     -20.349   3.589 102.321  1.00  0.00    -0.392 OA
ATOM     17  H6  UNL     1     -19.889   2.841 102.684  1.00  0.00     0.210 HD
ENDBRANCH  10  16
BRANCH   3  18
HETATM   18  O3  UNL     1     -25.061   5.810 103.717  1.00  0.00    -0.388 OA
ATOM     19  H3  UNL     1     -25.946   6.155 103.746  1.00  0.00     0.210 HD
ENDBRANCH   3  18
BRANCH   5  20
HETATM   20  N1  UNL     1     -23.879   7.979 102.283  1.00  0.00    -0.353 N 
HETATM   21  C9  UNL     1     -24.080   8.963 101.282  1.00  0.00     0.214 C 
HETATM   22  C10 UNL     1     -24.313  10.394 101.587  1.00  0.00     0.117 C 
HETATM   23  O4  UNL     1     -24.069   8.651 100.043  1.00  0.00    -0.274 OA
ATOM     24  H1  UNL     1     -23.890   8.244 103.268  1.00  0.00     0.163 HD
ENDBRANCH   5  20
BRANCH   9  25
HETATM   25  O5  UNL     1     -20.698   3.135 104.868  1.00  0.00    -0.388 OA
HETATM   26  C15 UNL     1     -21.191   2.395 105.929  1.00  0.00     0.202 C 
ENDBRANCH   9  25
TORSDOF 7
ENDMDL
MODEL 2
REMARK VINA RESULT: -6.029263443      2.326      4.376
REMARK  7 active torsions:
REMARK  status: ('A' for Active; 'I' for Inactive)
REMARK    1  A    between atoms: C2_2  and  O1_3 
REMARK    2  A    between atoms: O1_3  and  C3_4 
REMARK    3  A    between atoms: C3_4  and  C4_6 
REMARK    4  A    between atoms: C6_8  and  O3_10 
REMARK    5  A    between atoms: C8_12  and  N1_13 
REMARK       I    between atoms: N1_13  and  C9_15 
REMARK    6  A    between atoms: C14_21  and  O5_22 
REMARK    7  A    between atoms: C16_24  and  O6_25 
ROOT
HETATM    1  C4  UNL     1     -23.402   3.826 104.444  1.00  0.00     0.084 C 
HETATM    2  C5  UNL     1     -22.711   5.171 104.330  1.00  0.00     0.062 C 
HETATM    3  C6  UNL     1     -22.230   5.307 102.902  1.00  0.00     0.076 C 
HETATM    4  C7  UNL     1     -22.628   6.656 102.325  1.00  0.00     0.048 C 
HETATM    5  C8  UNL     1     -22.976   4.222 102.196  1.00  0.00     0.123 C 
HETATM    6  C11 UNL     1     -23.042   3.081 103.223  1.00  0.00     0.032 C 
HETATM    7  C12 UNL     1     -21.837   2.243 103.227  1.00  0.00     0.011 C 
HETATM    8  C13 UNL     1     -21.263   1.829 104.523  1.00  0.00     0.035 C 
HETATM    9  C14 UNL     1     -21.606   2.647 105.718  1.00  0.00     0.150 C 
HETATM   10  C16 UNL     1     -23.000   3.186 105.743  1.00  0.00     0.166 C 
ENDROOT
BRANCH   1  11
HETATM   11  C3  UNL     1     -24.871   4.028 104.517  1.00  0.00     0.270 C 
HETATM   12  O2  UNL     1     -25.295   5.179 104.778  1.00  0.00    -0.264 OA
BRANCH  11  13
HETATM   13  O1  UNL     1     -25.797   3.025 104.313  1.00  0.00    -0.321 OA
BRANCH  13  14
HETATM   14  C2  UNL     1     -26.747   3.074 103.269  1.00  0.00     0.174 C 
HETATM   15  C1  UNL     1     -26.482   2.072 102.185  1.00  0.00     0.034 C 
ENDBRANCH  13  14
ENDBRANCH  11  13
ENDBRANCH   1  11
BRANCH  10  16
HETATM   16  O6  UNL     1     -23.928   2.201 106.124  1.00  0.00    -0.392 OA
ATOM     17  H6  UNL     1     -23.563   1.331 106.011  1.00  0.00     0.210 HD
ENDBRANCH  10  16
BRANCH   3  18
HETATM   18  O3  UNL     1     -20.863   5.208 102.861  1.00  0.00    -0.388 OA
ATOM     19  H3  UNL     1     -20.566   4.587 103.515  1.00  0.00     0.210 HD
ENDBRANCH   3  18
BRANCH   5  20
HETATM   20  N1  UNL     1     -22.468   3.839 100.935  1.00  0.00    -0.353 N 
HETATM   21  C9  UNL     1     -23.331   3.789  99.811  1.00  0.00     0.214 C 
HETATM   22  C10 UNL     1     -22.875   3.398  98.457  1.00  0.00     0.117 C 
HETATM   23  O4  UNL     1     -24.569   4.086  99.919  1.00  0.00    -0.274 OA
ATOM     24  H1  UNL     1     -21.482   3.599 100.833  1.00  0.00     0.163 HD
ENDBRANCH   5  20
BRANCH   9  25
HETATM   25  O5  UNL     1     -21.451   1.904 106.892  1.00  0.00    -0.388 OA
HETATM   26  C15 UNL     1     -20.138   1.854 107.328  1.00  0.00     0.202 C 
ENDBRANCH   9  25
TORSDOF 7
ENDMDL
MODEL 3
REMARK VINA RESULT: -5.993993462      1.866      4.467
REMARK  7 active torsions:
REMARK  status: ('A' for Active; 'I' for Inactive)
REMARK    1  A    between atoms: C2_2  and  O1_3 
REMARK    2  A    between atoms: O1_3  and  C3_4 
REMARK    3  A    between atoms: C3_4  and  C4_6 
REMARK    4  A    between atoms: C6_8  and  O3_10 
REMARK    5  A    between atoms: C8_12  and  N1_13 
REMARK       I    between atoms: N1_13  and  C9_15 
REMARK    6  A    between atoms: C14_21  and  O5_22 
REMARK    7  A    between atoms: C16_24  and  O6_25 
ROOT
HETATM    1  C4  UNL     1     -23.211   4.772 103.349  1.00  0.00     0.084 C 
HETATM    2  C5  UNL     1     -21.784   5.105 103.736  1.00  0.00     0.062 C 
HETATM    3  C6  UNL     1     -21.459   6.454 103.133  1.00  0.00     0.076 C 
HETATM    4  C7  UNL     1     -20.830   7.371 104.170  1.00  0.00     0.048 C 
HETATM    5  C8  UNL     1     -22.806   6.979 102.753  1.00  0.00     0.123 C 
HETATM    6  C11 UNL     1     -23.579   5.734 102.293  1.00  0.00     0.032 C 
HETATM    7  C12 UNL     1     -23.324   5.386 100.890  1.00  0.00     0.011 C 
HETATM    8  C13 UNL     1     -23.112   3.968 100.536  1.00  0.00     0.035 C 
HETATM    9  C14 UNL     1     -22.684   3.046 101.622  1.00  0.00     0.150 C 
HETATM   10  C16 UNL     1     -23.281   3.320 102.964  1.00  0.00     0.166 C 
ENDROOT
BRANCH   1  11
HETATM   11  C3  UNL     1     -24.096   4.933 104.531  1.00  0.00     0.270 C 
HETATM   12  O2  UNL     1     -25.308   5.185 104.329  1.00  0.00    -0.264 OA
BRANCH  11  13
HETATM   13  O1  UNL     1     -23.663   4.822 105.837  1.00  0.00    -0.321 OA
BRANCH  13  14
HETATM   14  C2  UNL     1     -23.423   3.572 106.449  1.00  0.00     0.174 C 
HETATM   15  C1  UNL     1     -22.092   3.499 107.136  1.00  0.00     0.034 C 
ENDBRANCH  13  14
ENDBRANCH  11  13
ENDBRANCH   1  11
BRANCH  10  16
HETATM   16  O6  UNL     1     -24.601   2.843 103.050  1.00  0.00    -0.392 OA
ATOM     17  H6  UNL     1     -24.934   2.613 102.191  1.00  0.00     0.210 HD
ENDBRANCH  10  16
BRANCH   3  18
HETATM   18  O3  UNL     1     -20.571   6.300 102.100  1.00  0.00    -0.388 OA
ATOM     19  H3  UNL     1     -20.758   6.934 101.418  1.00  0.00     0.210 HD
ENDBRANCH   3  18
BRANCH   5  20
HETATM   20  N1  UNL     1     -22.816   8.044 101.825  1.00  0.00    -0.353 N 
HETATM   21  C9  UNL     1     -23.818   9.043 101.908  1.00  0.00     0.214 C 
HETATM   22  C10 UNL     1     -23.897  10.191 100.975  1.00  0.00     0.117 C 
HETATM   23  O4  UNL     1     -24.719   8.997 102.813  1.00  0.00    -0.274 OA
ATOM     24  H1  UNL     1     -22.103   8.094 101.097  1.00  0.00     0.163 HD
ENDBRANCH   5  20
BRANCH   9  25
HETATM   25  O5  UNL     1     -23.009   1.722 101.311  1.00  0.00    -0.388 OA
HETATM   26  C15 UNL     1     -23.547   1.585 100.043  1.00  0.00     0.202 C 
ENDBRANCH   9  25
TORSDOF 7
ENDMDL
MODEL 4
REMARK VINA RESULT: -5.976378809      2.043      3.220
REMARK  7 active torsions:
REMARK  status: ('A' for Active; 'I' for Inactive)
REMARK    1  A    between atoms: C2_2  and  O1_3 
REMARK    2  A    between atoms: O1_3  and  C3_4 
REMARK    3  A    between atoms: C3_4  and  C4_6 
REMARK    4  A    between atoms: C6_8  and  O3_10 
REMARK    5  A    between atoms: C8_12  and  N1_13 
REMARK       I    between atoms: N1_13  and  C9_15 
REMARK    6  A    between atoms: C14_21  and  O5_22 
REMARK    7  A    between atoms: C16_24  and  O6_25 
ROOT
HETATM    1  C4  UNL     1     -22.047   3.385 104.397  1.00  0.00     0.084 C 
HETATM    2  C5  UNL     1     -23.535   3.148 104.229  1.00  0.00     0.062 C 
HETATM    3  C6  UNL     1     -24.139   4.439 103.722  1.00  0.00     0.076 C 
HETATM    4  C7  UNL     1     -25.042   4.178 102.526  1.00  0.00     0.048 C 
HETATM    5  C8  UNL     1     -22.941   5.215 103.283  1.00  0.00     0.123 C 
HETATM    6  C11 UNL     1     -21.857   4.845 104.306  1.00  0.00     0.032 C 
HETATM    7  C12 UNL     1     -21.925   5.651 105.532  1.00  0.00     0.011 C 
HETATM    8  C13 UNL     1     -21.758   4.978 106.835  1.00  0.00     0.035 C 
HETATM    9  C14 UNL     1     -22.018   3.514 106.891  1.00  0.00     0.150 C 
HETATM   10  C16 UNL     1     -21.598   2.745 105.680  1.00  0.00     0.166 C 
ENDROOT
BRANCH   1  11
HETATM   11  C3  UNL     1     -21.309   2.696 103.307  1.00  0.00     0.270 C 
HETATM   12  O2  UNL     1     -20.230   3.201 102.916  1.00  0.00    -0.264 OA
BRANCH  11  13
HETATM   13  O1  UNL     1     -21.742   1.534 102.700  1.00  0.00    -0.321 OA
BRANCH  13  14
HETATM   14  C2  UNL     1     -21.455   0.255 103.227  1.00  0.00     0.174 C 
HETATM   15  C1  UNL     1     -22.357  -0.817 102.693  1.00  0.00     0.034 C 
ENDBRANCH  13  14
ENDBRANCH  11  13
ENDBRANCH   1  11
BRANCH  10  16
HETATM   16  O6  UNL     1     -20.210   2.519 105.668  1.00  0.00    -0.392 OA
ATOM     17  H6  UNL     1     -19.893   2.315 106.540  1.00  0.00     0.210 HD
ENDBRANCH  10  16
BRANCH   3  18
HETATM   18  O3  UNL     1     -24.892   5.019 104.710  1.00  0.00    -0.388 OA
ATOM     19  H3  UNL     1     -24.788   5.963 104.681  1.00  0.00     0.210 HD
ENDBRANCH   3  18
BRANCH   5  20
HETATM   20  N1  UNL     1     -23.131   6.605 103.117  1.00  0.00    -0.353 N 
HETATM   21  C9  UNL     1     -23.189   7.159 101.813  1.00  0.00     0.214 C 
HETATM   22  C10 UNL     1     -23.386   8.604 101.554  1.00  0.00     0.117 C 
HETATM   23  O4  UNL     1     -23.072   6.418 100.778  1.00  0.00    -0.274 OA
ATOM     24  H1  UNL     1     -23.226   7.210 103.933  1.00  0.00     0.163 HD
ENDBRANCH   5  20
BRANCH   9  25
HETATM   25  O5  UNL     1     -21.358   2.930 107.976  1.00  0.00    -0.388 OA
HETATM   26  C15 UNL     1     -22.166   2.069 108.698  1.00  0.00     0.202 C 
ENDBRANCH   9  25
TORSDOF 7
ENDMDL
MODEL 5
REMARK VINA RESULT: -5.931956843      1.597      1.925
REMARK  7 active torsions:
REMARK  status: ('A' for Active; 'I' for Inactive)
REMARK    1  A    between atoms: C2_2  and  O1_3 
REMARK    2  A    between atoms: O1_3  and  C3_4 
REMARK    3  A    between atoms: C3_4  and  C4_6 
REMARK    4  A    between atoms: C6_8  and  O3_10 
REMARK    5  A    between atoms: C8_12  and  N1_13 
REMARK       I    between atoms: N1_13  and  C9_15 
REMARK    6  A    between atoms: C14_21  and  O5_22 
REMARK    7  A    between atoms: C16_24  and  O6_25 
ROOT
HETATM    1  C4  UNL     1     -22.456   3.727 103.596  1.00  0.00     0.084 C 
HETATM    2  C5  UNL     1     -23.961   3.571 103.674  1.00  0.00     0.062 C 
HETATM    3  C6  UNL     1     -24.568   4.924 103.371  1.00  0.00     0.076 C 
HETATM    4  C7  UNL     1     -25.675   4.799 102.336  1.00  0.00     0.048 C 
HETATM    5  C8  UNL     1     -23.419   5.678 102.785  1.00  0.00     0.123 C 
HETATM    6  C11 UNL     1     -22.199   5.181 103.575  1.00  0.00     0.032 C 
HETATM    7  C12 UNL     1     -22.011   5.889 104.847  1.00  0.00     0.011 C 
HETATM    8  C13 UNL     1     -21.663   5.109 106.051  1.00  0.00     0.035 C 
HETATM    9  C14 UNL     1     -21.995   3.658 106.049  1.00  0.00     0.150 C 
HETATM   10  C16 UNL     1     -21.832   2.969 104.734  1.00  0.00     0.166 C 
ENDROOT
BRANCH   1  11
HETATM   11  C3  UNL     1     -21.955   3.094 102.349  1.00  0.00     0.270 C 
HETATM   12  O2  UNL     1     -20.848   3.474 101.898  1.00  0.00    -0.264 OA
BRANCH  11  13
HETATM   13  O1  UNL     1     -22.637   2.113 101.657  1.00  0.00    -0.321 OA
BRANCH  13  14
HETATM   14  C2  UNL     1     -23.353   2.385 100.470  1.00  0.00     0.174 C 
HETATM   15  C1  UNL     1     -24.680   1.689 100.412  1.00  0.00     0.034 C 
ENDBRANCH  13  14
ENDBRANCH  11  13
ENDBRANCH   1  11
BRANCH  10  16
HETATM   16  O6  UNL     1     -20.482   2.683 104.464  1.00  0.00    -0.392 OA
ATOM     17  H6  UNL     1     -20.376   1.779 104.191  1.00  0.00     0.210 HD
ENDBRANCH  10  16
BRANCH   3  18
HETATM   18  O3  UNL     1     -25.106   5.458 104.513  1.00  0.00    -0.388 OA
ATOM     19  H3  UNL     1     -25.500   6.301 104.320  1.00  0.00     0.210 HD
ENDBRANCH   3  18
BRANCH   5  20
HETATM   20  N1  UNL     1     -23.553   7.084 102.751  1.00  0.00    -0.353 N 
HETATM   21  C9  UNL     1     -23.639   7.756 101.506  1.00  0.00     0.214 C 
HETATM   22  C10 UNL     1     -23.781   9.225 101.386  1.00  0.00     0.117 C 
HETATM   23  O4  UNL     1     -23.595   7.108 100.405  1.00  0.00    -0.274 OA
ATOM     24  H1  UNL     1     -23.589   7.615 103.621  1.00  0.00     0.163 HD
ENDBRANCH   5  20
BRANCH   9  25
HETATM   25  O5  UNL     1     -21.194   2.962 106.960  1.00  0.00    -0.388 OA
HETATM   26  C15 UNL     1     -21.919   2.414 108.004  1.00  0.00     0.202 C 
ENDBRANCH   9  25
TORSDOF 7
ENDMDL
