MODEL 1
REMARK VINA RESULT: -6.951613494      0.000      0.000
REMARK  4 active torsions:
REMARK  status: ('A' for Active; 'I' for Inactive)
REMARK    1  A    between atoms: N2_5  and  C4_6 
REMARK    2  A    between atoms: C4_6  and  C5_7 
REMARK    3  A    between atoms: C5_7  and  O1_8 
REMARK    4  A    between atoms: C11_19  and  C12_20 
ROOT
HETATM    1  C5  UNL     1     -22.099  33.266   3.605  1.00  0.00     0.084 C 
HETATM    2  C6  UNL     1     -21.418  34.481   4.211  1.00  0.00     0.042 C 
HETATM    3  C7  UNL     1     -21.158  35.427   3.060  1.00  0.00     0.040 C 
HETATM    4  C8  UNL     1     -22.285  34.995   2.152  1.00  0.00     0.122 C 
HETATM    5  S1  UNL     1     -23.797  35.457   3.119  1.00  0.00    -0.141 SA
HETATM    6  C9  UNL     1     -23.991  37.168   2.681  1.00  0.00     0.090 C 
HETATM    7  C10 UNL     1     -22.967  37.563   1.697  1.00  0.00     0.152 C 
HETATM    8  S2  UNL     1     -22.471  36.025   0.845  1.00  0.00     0.163 S 
HETATM    9  O2  UNL     1     -23.597  35.819  -0.094  1.00  0.00    -0.226 OA
HETATM   10  O3  UNL     1     -21.197  36.489   0.136  1.00  0.00    -0.226 OA
HETATM   11  C11 UNL     1     -22.291  33.516   2.144  1.00  0.00     0.110 C 
ENDROOT
BRANCH   1  12
HETATM   12  C4  UNL     1     -21.377  32.077   4.073  1.00  0.00     0.155 C 
BRANCH  12  13
HETATM   13  N2  UNL     1     -21.428  31.780   5.458  1.00  0.00    -0.406 N 
HETATM   14  C3  UNL     1     -22.072  30.708   6.011  1.00  0.00     0.147 C 
HETATM   15  C2  UNL     1     -21.111  29.609   6.509  1.00  0.00     0.291 C 
HETATM   16  N1  UNL     1     -20.312  30.216   7.528  1.00  0.00     0.087 N 
HETATM   17  C1  UNL     1     -21.078  30.548   8.685  1.00  0.00     0.310 C 
HETATM   18  C15 UNL     1     -19.556  31.318   6.992  1.00  0.00     0.291 C 
HETATM   19  C14 UNL     1     -20.388  32.322   6.257  1.00  0.00     0.147 C 
ENDBRANCH  12  13
ENDBRANCH   1  12
BRANCH   1  20
HETATM   20  O1  UNL     1     -23.404  33.200   4.173  1.00  0.00    -0.388 OA
ATOM     21  H1  UNL     1     -23.748  34.085   4.168  1.00  0.00     0.210 HD
ENDBRANCH   1  20
BRANCH  11  22
HETATM   22  C12 UNL     1     -21.426  32.767   1.224  1.00  0.00     0.184 C 
HETATM   23  C13 UNL     1     -21.622  31.244   1.303  1.00  0.00     0.070 C 
HETATM   24  F1  UNL     1     -20.111  32.900   1.653  1.00  0.00    -0.225 F 
HETATM   25 CL1  UNL     1     -21.619  33.117  -0.499  1.00  0.00    -0.082 Cl
ENDBRANCH  11  22
TORSDOF 4
ENDMDL
MODEL 2
REMARK VINA RESULT: -6.798609496      1.106      1.198
REMARK  4 active torsions:
REMARK  status: ('A' for Active; 'I' for Inactive)
REMARK    1  A    between atoms: N2_5  and  C4_6 
REMARK    2  A    between atoms: C4_6  and  C5_7 
REMARK    3  A    between atoms: C5_7  and  O1_8 
REMARK    4  A    between atoms: C11_19  and  C12_20 
ROOT
HETATM    1  C5  UNL     1     -21.778  33.824   2.900  1.00  0.00     0.084 C 
HETATM    2  C6  UNL     1     -20.934  35.082   2.998  1.00  0.00     0.042 C 
HETATM    3  C7  UNL     1     -20.772  35.584   1.580  1.00  0.00     0.040 C 
HETATM    4  C8  UNL     1     -22.043  35.018   0.992  1.00  0.00     0.122 C 
HETATM    5  S1  UNL     1     -23.367  35.927   1.916  1.00  0.00    -0.141 SA
HETATM    6  C9  UNL     1     -23.499  37.425   0.969  1.00  0.00     0.090 C 
HETATM    7  C10 UNL     1     -22.598  37.374  -0.197  1.00  0.00     0.152 C 
HETATM    8  S2  UNL     1     -22.337  35.600  -0.551  1.00  0.00     0.163 S 
HETATM    9  O2  UNL     1     -23.595  35.238  -1.241  1.00  0.00    -0.226 OA
HETATM   10  O3  UNL     1     -21.145  35.672  -1.508  1.00  0.00    -0.226 OA
HETATM   11  C11 UNL     1     -22.155  33.622   1.467  1.00  0.00     0.110 C 
ENDROOT
BRANCH   1  12
HETATM   12  C4  UNL     1     -21.083  32.768   3.646  1.00  0.00     0.155 C 
BRANCH  12  13
HETATM   13  N2  UNL     1     -21.516  32.508   4.971  1.00  0.00    -0.406 N 
HETATM   14  C3  UNL     1     -22.242  31.418   5.364  1.00  0.00     0.147 C 
HETATM   15  C2  UNL     1     -21.415  30.389   6.161  1.00  0.00     0.291 C 
HETATM   16  N1  UNL     1     -20.970  31.068   7.338  1.00  0.00     0.087 N 
HETATM   17  C1  UNL     1     -22.049  31.390   8.214  1.00  0.00     0.310 C 
HETATM   18  C15 UNL     1     -20.143  32.195   6.993  1.00  0.00     0.291 C 
HETATM   19  C14 UNL     1     -20.774  33.130   6.009  1.00  0.00     0.147 C 
ENDBRANCH  12  13
ENDBRANCH   1  12
BRANCH   1  20
HETATM   20  O1  UNL     1     -22.991  34.085   3.598  1.00  0.00    -0.388 OA
ATOM     21  H1  UNL     1     -23.275  34.953   3.334  1.00  0.00     0.210 HD
ENDBRANCH   1  20
BRANCH  11  22
HETATM   22  C12 UNL     1     -21.484  32.530   0.752  1.00  0.00     0.184 C 
HETATM   23  C13 UNL     1     -21.869  31.133   1.265  1.00  0.00     0.070 C 
HETATM   24  F1  UNL     1     -20.128  32.574   1.059  1.00  0.00    -0.225 F 
HETATM   25 CL1  UNL     1     -21.784  32.426  -0.988  1.00  0.00    -0.082 Cl
ENDBRANCH  11  22
TORSDOF 4
ENDMDL
MODEL 3
REMARK VINA RESULT: -6.596730715      3.766      6.633
REMARK  4 active torsions:
REMARK  status: ('A' for Active; 'I' for Inactive)
REMARK    1  A    between atoms: N2_5  and  C4_6 
REMARK    2  A    between atoms: C4_6  and  C5_7 
REMARK    3  A    between atoms: C5_7  and  O1_8 
REMARK    4  A    between atoms: C11_19  and  C12_20 
ROOT
HETATM    1  C5  UNL     1     -21.771  32.697   1.787  1.00  0.00     0.084 C 
HETATM    2  C6  UNL     1     -22.684  33.805   2.281  1.00  0.00     0.042 C 
HETATM    3  C7  UNL     1     -23.280  33.303   3.577  1.00  0.00     0.040 C 
HETATM    4  C8  UNL     1     -22.165  32.372   3.994  1.00  0.00     0.122 C 
HETATM    5  S1  UNL     1     -20.743  33.527   4.271  1.00  0.00    -0.141 SA
HETATM    6  C9  UNL     1     -21.035  34.058   5.941  1.00  0.00     0.090 C 
HETATM    7  C10 UNL     1     -22.210  33.365   6.501  1.00  0.00     0.152 C 
HETATM    8  S2  UNL     1     -22.367  31.808   5.559  1.00  0.00     0.163 S 
HETATM    9  O2  UNL     1     -21.315  30.969   6.175  1.00  0.00    -0.226 OA
HETATM   10  O3  UNL     1     -23.776  31.369   5.965  1.00  0.00    -0.226 OA
HETATM   11  C11 UNL     1     -21.780  31.594   2.797  1.00  0.00     0.110 C 
ENDROOT
BRANCH   1  12
HETATM   12  C4  UNL     1     -22.119  32.431   0.385  1.00  0.00     0.155 C 
BRANCH  12  13
HETATM   13  N2  UNL     1     -21.626  33.329  -0.594  1.00  0.00    -0.406 N 
HETATM   14  C3  UNL     1     -21.057  32.963  -1.783  1.00  0.00     0.147 C 
HETATM   15  C2  UNL     1     -21.971  33.213  -3.000  1.00  0.00     0.291 C 
HETATM   16  N1  UNL     1     -22.202  34.624  -3.037  1.00  0.00     0.087 N 
HETATM   17  C1  UNL     1     -21.015  35.354  -3.348  1.00  0.00     0.310 C 
HETATM   18  C15 UNL     1     -22.860  35.064  -1.835  1.00  0.00     0.291 C 
HETATM   19  C14 UNL     1     -22.169  34.640  -0.577  1.00  0.00     0.147 C 
ENDBRANCH  12  13
ENDBRANCH   1  12
BRANCH   1  20
HETATM   20  O1  UNL     1     -20.448  33.223   1.785  1.00  0.00    -0.388 OA
ATOM     21  H1  UNL     1     -20.025  32.899   2.572  1.00  0.00     0.210 HD
ENDBRANCH   1  20
BRANCH  11  22
HETATM   22  C12 UNL     1     -22.502  30.369   2.434  1.00  0.00     0.184 C 
HETATM   23  C13 UNL     1     -21.916  29.654   1.206  1.00  0.00     0.070 C 
HETATM   24  F1  UNL     1     -23.764  30.725   1.971  1.00  0.00    -0.225 F 
HETATM   25 CL1  UNL     1     -22.561  29.097   3.661  1.00  0.00    -0.082 Cl
ENDBRANCH  11  22
TORSDOF 4
ENDMDL
MODEL 4
REMARK VINA RESULT: -6.488040857      3.597      6.107
REMARK  4 active torsions:
REMARK  status: ('A' for Active; 'I' for Inactive)
REMARK    1  A    between atoms: N2_5  and  C4_6 
REMARK    2  A    between atoms: C4_6  and  C5_7 
REMARK    3  A    between atoms: C5_7  and  O1_8 
REMARK    4  A    between atoms: C11_19  and  C12_20 
ROOT
HETATM    1  C5  UNL     1     -21.835  35.114   0.808  1.00  0.00     0.084 C 
HETATM    2  C6  UNL     1     -23.345  35.076   0.653  1.00  0.00     0.042 C 
HETATM    3  C7  UNL     1     -23.910  35.422   2.012  1.00  0.00     0.040 C 
HETATM    4  C8  UNL     1     -22.763  36.262   2.527  1.00  0.00     0.122 C 
HETATM    5  S1  UNL     1     -22.760  37.711   1.372  1.00  0.00    -0.141 SA
HETATM    6  C9  UNL     1     -23.977  38.767   2.122  1.00  0.00     0.090 C 
HETATM    7  C10 UNL     1     -24.475  38.166   3.373  1.00  0.00     0.152 C 
HETATM    8  S2  UNL     1     -23.150  37.050   3.953  1.00  0.00     0.163 S 
HETATM    9  O2  UNL     1     -22.185  38.002   4.547  1.00  0.00    -0.226 OA
HETATM   10  O3  UNL     1     -23.902  36.242   5.014  1.00  0.00    -0.226 OA
HETATM   11  C11 UNL     1     -21.517  35.533   2.207  1.00  0.00     0.110 C 
ENDROOT
BRANCH   1  12
HETATM   12  C4  UNL     1     -21.303  33.859   0.264  1.00  0.00     0.155 C 
BRANCH  12  13
HETATM   13  N2  UNL     1     -21.751  33.459  -1.021  1.00  0.00    -0.406 N 
HETATM   14  C3  UNL     1     -21.499  34.129  -2.187  1.00  0.00     0.147 C 
HETATM   15  C2  UNL     1     -20.459  33.427  -3.082  1.00  0.00     0.291 C 
HETATM   16  N1  UNL     1     -21.022  32.155  -3.417  1.00  0.00     0.087 N 
HETATM   17  C1  UNL     1     -22.167  32.280  -4.260  1.00  0.00     0.310 C 
HETATM   18  C15 UNL     1     -21.252  31.372  -2.232  1.00  0.00     0.291 C 
HETATM   19  C14 UNL     1     -22.050  32.082  -1.183  1.00  0.00     0.147 C 
ENDBRANCH  12  13
ENDBRANCH   1  12
BRANCH   1  20
HETATM   20  O1  UNL     1     -21.360  36.158  -0.038  1.00  0.00    -0.388 OA
ATOM     21  H1  UNL     1     -21.775  36.959   0.260  1.00  0.00     0.210 HD
ENDBRANCH   1  20
BRANCH  11  22
HETATM   22  C12 UNL     1     -21.001  34.496   3.109  1.00  0.00     0.184 C 
HETATM   23  C13 UNL     1     -22.018  33.382   3.406  1.00  0.00     0.070 C 
HETATM   24  F1  UNL     1     -20.828  35.057   4.369  1.00  0.00    -0.225 F 
HETATM   25 CL1  UNL     1     -19.574  33.611   2.555  1.00  0.00    -0.082 Cl
ENDBRANCH  11  22
TORSDOF 4
ENDMDL
MODEL 5
REMARK VINA RESULT: -6.431945084      0.892      1.515
REMARK  4 active torsions:
REMARK  status: ('A' for Active; 'I' for Inactive)
REMARK    1  A    between atoms: N2_5  and  C4_6 
REMARK    2  A    between atoms: C4_6  and  C5_7 
REMARK    3  A    between atoms: C5_7  and  O1_8 
REMARK    4  A    between atoms: C11_19  and  C12_20 
ROOT
HETATM    1  C5  UNL     1     -22.087  33.273   3.646  1.00  0.00     0.084 C 
HETATM    2  C6  UNL     1     -21.380  34.486   4.223  1.00  0.00     0.042 C 
HETATM    3  C7  UNL     1     -21.123  35.411   3.053  1.00  0.00     0.040 C 
HETATM    4  C8  UNL     1     -22.269  34.980   2.168  1.00  0.00     0.122 C 
HETATM    5  S1  UNL     1     -23.760  35.479   3.148  1.00  0.00    -0.141 SA
HETATM    6  C9  UNL     1     -23.936  37.186   2.685  1.00  0.00     0.090 C 
HETATM    7  C10 UNL     1     -22.921  37.551   1.681  1.00  0.00     0.152 C 
HETATM    8  S2  UNL     1     -22.459  35.993   0.847  1.00  0.00     0.163 S 
HETATM    9  O2  UNL     1     -23.600  35.788  -0.073  1.00  0.00    -0.226 OA
HETATM   10  O3  UNL     1     -21.188  36.427   0.113  1.00  0.00    -0.226 OA
HETATM   11  C11 UNL     1     -22.296  33.502   2.183  1.00  0.00     0.110 C 
ENDROOT
BRANCH   1  12
HETATM   12  C4  UNL     1     -21.375  32.080   4.121  1.00  0.00     0.155 C 
BRANCH  12  13
HETATM   13  N2  UNL     1     -21.448  31.782   5.505  1.00  0.00    -0.406 N 
HETATM   14  C3  UNL     1     -20.846  32.502   6.500  1.00  0.00     0.147 C 
HETATM   15  C2  UNL     1     -21.836  33.346   7.328  1.00  0.00     0.291 C 
HETATM   16  N1  UNL     1     -22.733  32.415   7.939  1.00  0.00     0.087 N 
HETATM   17  C1  UNL     1     -22.081  31.603   8.915  1.00  0.00     0.310 C 
HETATM   18  C15 UNL     1     -23.448  31.666   6.939  1.00  0.00     0.291 C 
HETATM   19  C14 UNL     1     -22.563  31.011   5.925  1.00  0.00     0.147 C 
ENDBRANCH  12  13
ENDBRANCH   1  12
BRANCH   1  20
HETATM   20  O1  UNL     1     -23.384  33.233   4.232  1.00  0.00    -0.388 OA
ATOM     21  H1  UNL     1     -23.926  33.834   3.734  1.00  0.00     0.210 HD
ENDBRANCH   1  20
BRANCH  11  22
HETATM   22  C12 UNL     1     -21.455  32.726   1.264  1.00  0.00     0.184 C 
HETATM   23  C13 UNL     1     -21.682  31.209   1.358  1.00  0.00     0.070 C 
HETATM   24  F1  UNL     1     -20.133  32.835   1.681  1.00  0.00    -0.225 F 
HETATM   25 CL1  UNL     1     -21.654  33.066  -0.461  1.00  0.00    -0.082 Cl
ENDBRANCH  11  22
TORSDOF 4
ENDMDL
