MODEL 1
REMARK VINA RESULT: -10.897522366      0.000      0.000
REMARK  7 active torsions:
REMARK  status: ('A' for Active; 'I' for Inactive)
REMARK    1  A    between atoms: C2_2  and  C3_3 
REMARK    2  A    between atoms: C3_3  and  C4_4 
REMARK    3  A    between atoms: C4_4  and  C5_5 
REMARK    4  A    between atoms: C5_5  and  C6_6 
REMARK    5  A    between atoms: C6_6  and  C7_7 
REMARK    6  A    between atoms: C7_7  and  N1_8 
REMARK    7  A    between atoms: N1_8  and  C8_11 
ROOT
HETATM    1  C8  UNL     1      -8.573  24.077  13.620  1.00  0.00     0.197 C 
HETATM    2  C9  UNL     1      -7.328  23.837  12.860  1.00  0.00     0.039 C 
HETATM    3  C10 UNL     1      -6.057  24.419  13.353  1.00  0.00    -0.007 C 
HETATM    4  C11 UNL     1      -5.017  23.900  12.340  1.00  0.00     0.006 C 
HETATM    5  C12 UNL     1      -3.644  23.873  12.867  1.00  0.00     0.010 C 
HETATM    6  C13 UNL     1      -3.012  25.156  13.266  1.00  0.00    -0.036 C 
HETATM    7  C14 UNL     1      -2.972  26.040  12.036  1.00  0.00     0.016 C 
HETATM    8  C15 UNL     1      -3.598  25.915  14.369  1.00  0.00    -0.006 C 
HETATM    9  C16 UNL     1      -3.457  25.279  15.746  1.00  0.00     0.006 C 
HETATM   10  C17 UNL     1      -2.561  24.134  15.843  1.00  0.00     0.006 C 
HETATM   11  C18 UNL     1      -1.468  23.973  14.827  1.00  0.00    -0.001 C 
HETATM   12  C19 UNL     1      -0.129  23.968  15.483  1.00  0.00     0.019 C 
HETATM   13  C20 UNL     1       0.660  22.686  15.268  1.00  0.00     0.017 C 
HETATM   14  C21 UNL     1       2.073  22.944  14.791  1.00  0.00     0.079 C 
HETATM   15  C22 UNL     1       2.771  23.900  15.686  1.00  0.00     0.130 C 
HETATM   16  O1  UNL     1       3.913  23.676  16.019  1.00  0.00    -0.298 OA
HETATM   17  C23 UNL     1       1.998  25.108  16.130  1.00  0.00     0.112 C 
HETATM   18  C24 UNL     1       0.758  25.083  15.245  1.00  0.00    -0.072 C 
HETATM   19  C25 UNL     1       0.547  25.990  14.357  1.00  0.00    -0.023 C 
HETATM   20  C26 UNL     1      -0.634  25.968  13.493  1.00  0.00     0.033 C 
HETATM   21  C27 UNL     1      -1.556  24.821  13.603  1.00  0.00     0.002 C 
HETATM   22  C28 UNL     1      -4.932  26.515  14.202  1.00  0.00     0.011 C 
HETATM   23  C29 UNL     1      -5.941  25.890  13.319  1.00  0.00     0.006 C 
HETATM   24  C30 UNL     1      -7.243  26.576  13.657  1.00  0.00     0.030 A 
HETATM   25  C31 UNL     1      -7.797  27.689  12.905  1.00  0.00     0.025 A 
HETATM   26  C32 UNL     1      -8.334  26.342  12.709  1.00  0.00     0.016 A 
HETATM   27  C33 UNL     1      -8.952  25.510  13.806  1.00  0.00     0.092 C 
HETATM   28  C34 UNL     1      -8.036  26.113  14.817  1.00  0.00     0.142 C 
HETATM   29  O2  UNL     1      -8.006  26.166  16.014  1.00  0.00    -0.297 OA
ENDROOT
BRANCH   1  30
HETATM   30  N1  UNL     1      -9.589  23.256  13.015  1.00  0.00    -0.070 N 
ATOM     31  H12 UNL     1      -9.260  22.297  12.906  1.00  0.00     0.277 HD
ATOM     32  H11 UNL     1      -9.716  23.504  12.034  1.00  0.00     0.277 HD
BRANCH  30  33
HETATM   33  C7  UNL     1     -10.860  23.287  13.722  1.00  0.00     0.232 C 
BRANCH  33  34
HETATM   34  C6  UNL     1     -11.755  22.267  13.117  1.00  0.00     0.027 C 
BRANCH  34  35
HETATM   35  C5  UNL     1     -13.180  22.587  13.035  1.00  0.00     0.002 C 
BRANCH  35  36
HETATM   36  C4  UNL     1     -13.652  23.938  12.739  1.00  0.00     0.000 C 
BRANCH  36  37
HETATM   37  C3  UNL     1     -14.454  24.705  13.709  1.00  0.00    -0.000 C 
BRANCH  37  38
HETATM   38  C2  UNL     1     -14.292  24.261  15.158  1.00  0.00    -0.005 C 
HETATM   39  C1  UNL     1     -13.247  25.172  15.768  1.00  0.00     0.005 C 
ENDBRANCH  37  38
ENDBRANCH  36  37
ENDBRANCH  35  36
ENDBRANCH  34  35
ENDBRANCH  33  34
ENDBRANCH  30  33
ENDBRANCH   1  30
TORSDOF 7
ENDMDL
MODEL 2
REMARK VINA RESULT: -10.872647323      1.363      1.969
REMARK  7 active torsions:
REMARK  status: ('A' for Active; 'I' for Inactive)
REMARK    1  A    between atoms: C2_2  and  C3_3 
REMARK    2  A    between atoms: C3_3  and  C4_4 
REMARK    3  A    between atoms: C4_4  and  C5_5 
REMARK    4  A    between atoms: C5_5  and  C6_6 
REMARK    5  A    between atoms: C6_6  and  C7_7 
REMARK    6  A    between atoms: C7_7  and  N1_8 
REMARK    7  A    between atoms: N1_8  and  C8_11 
ROOT
HETATM    1  C8  UNL     1      -9.920  23.246  13.662  1.00  0.00     0.197 C 
HETATM    2  C9  UNL     1      -8.791  23.667  12.806  1.00  0.00     0.039 C 
HETATM    3  C10 UNL     1      -7.597  24.280  13.435  1.00  0.00    -0.007 C 
HETATM    4  C11 UNL     1      -6.652  24.515  12.240  1.00  0.00     0.006 C 
HETATM    5  C12 UNL     1      -5.234  24.610  12.621  1.00  0.00     0.010 C 
HETATM    6  C13 UNL     1      -4.812  25.715  13.517  1.00  0.00    -0.036 C 
HETATM    7  C14 UNL     1      -5.145  27.016  12.816  1.00  0.00     0.016 C 
HETATM    8  C15 UNL     1      -5.351  25.763  14.875  1.00  0.00    -0.006 C 
HETATM    9  C16 UNL     1      -4.868  24.661  15.808  1.00  0.00     0.006 C 
HETATM   10  C17 UNL     1      -3.759  23.845  15.329  1.00  0.00     0.006 C 
HETATM   11  C18 UNL     1      -2.834  24.406  14.290  1.00  0.00    -0.001 C 
HETATM   12  C19 UNL     1      -1.433  24.455  14.797  1.00  0.00     0.019 C 
HETATM   13  C20 UNL     1      -0.451  23.626  13.983  1.00  0.00     0.017 C 
HETATM   14  C21 UNL     1       0.787  24.403  13.594  1.00  0.00     0.079 C 
HETATM   15  C22 UNL     1       1.418  25.030  14.784  1.00  0.00     0.130 C 
HETATM   16  O1  UNL     1       2.620  24.977  14.914  1.00  0.00    -0.298 OA
HETATM   17  C23 UNL     1       0.503  25.703  15.766  1.00  0.00     0.112 C 
HETATM   18  C24 UNL     1      -0.833  25.748  15.036  1.00  0.00    -0.072 C 
HETATM   19  C25 UNL     1      -1.359  26.862  14.664  1.00  0.00    -0.023 C 
HETATM   20  C26 UNL     1      -2.635  26.916  13.950  1.00  0.00     0.033 C 
HETATM   21  C27 UNL     1      -3.284  25.642  13.585  1.00  0.00     0.002 C 
HETATM   22  C28 UNL     1      -6.786  26.026  15.071  1.00  0.00     0.011 C 
HETATM   23  C29 UNL     1      -7.781  25.605  14.061  1.00  0.00     0.006 C 
HETATM   24  C30 UNL     1      -9.121  25.736  14.744  1.00  0.00     0.030 A 
HETATM   25  C31 UNL     1      -9.997  26.887  14.605  1.00  0.00     0.025 A 
HETATM   26  C32 UNL     1     -10.282  25.663  13.855  1.00  0.00     0.016 A 
HETATM   27  C33 UNL     1     -10.540  24.320  14.493  1.00  0.00     0.092 C 
HETATM   28  C34 UNL     1      -9.610  24.645  15.614  1.00  0.00     0.142 C 
HETATM   29  O2  UNL     1      -9.399  24.191  16.703  1.00  0.00    -0.297 OA
ENDROOT
BRANCH   1  30
HETATM   30  N1  UNL     1     -10.838  22.534  12.810  1.00  0.00    -0.070 N 
ATOM     31  H12 UNL     1     -10.410  21.681  12.451  1.00  0.00     0.277 HD
ATOM     32  H11 UNL     1     -10.979  23.035  11.933  1.00  0.00     0.277 HD
BRANCH  30  33
HETATM   33  C7  UNL     1     -12.113  22.242  13.446  1.00  0.00     0.232 C 
BRANCH  33  34
HETATM   34  C6  UNL     1     -13.200  22.668  12.527  1.00  0.00     0.027 C 
BRANCH  34  35
HETATM   35  C5  UNL     1     -13.620  24.068  12.586  1.00  0.00     0.002 C 
BRANCH  35  36
HETATM   36  C4  UNL     1     -14.485  24.569  13.653  1.00  0.00     0.000 C 
BRANCH  36  37
HETATM   37  C3  UNL     1     -14.168  24.340  15.075  1.00  0.00    -0.000 C 
BRANCH  37  38
HETATM   38  C2  UNL     1     -15.253  23.605  15.856  1.00  0.00    -0.005 C 
HETATM   39  C1  UNL     1     -14.867  22.141  15.846  1.00  0.00     0.005 C 
ENDBRANCH  37  38
ENDBRANCH  36  37
ENDBRANCH  35  36
ENDBRANCH  34  35
ENDBRANCH  33  34
ENDBRANCH  30  33
ENDBRANCH   1  30
TORSDOF 7
ENDMDL
MODEL 3
REMARK VINA RESULT: -10.195267095      2.633     10.267
REMARK  7 active torsions:
REMARK  status: ('A' for Active; 'I' for Inactive)
REMARK    1  A    between atoms: C2_2  and  C3_3 
REMARK    2  A    between atoms: C3_3  and  C4_4 
REMARK    3  A    between atoms: C4_4  and  C5_5 
REMARK    4  A    between atoms: C5_5  and  C6_6 
REMARK    5  A    between atoms: C6_6  and  C7_7 
REMARK    6  A    between atoms: C7_7  and  N1_8 
REMARK    7  A    between atoms: N1_8  and  C8_11 
ROOT
HETATM    1  C8  UNL     1      -2.161  24.261  13.697  1.00  0.00     0.197 C 
HETATM    2  C9  UNL     1      -3.205  24.087  14.728  1.00  0.00     0.039 C 
HETATM    3  C10 UNL     1      -4.571  24.600  14.465  1.00  0.00    -0.007 C 
HETATM    4  C11 UNL     1      -5.353  24.178  15.725  1.00  0.00     0.006 C 
HETATM    5  C12 UNL     1      -6.805  24.082  15.512  1.00  0.00     0.010 C 
HETATM    6  C13 UNL     1      -7.550  25.309  15.134  1.00  0.00    -0.036 C 
HETATM    7  C14 UNL     1      -7.356  26.315  16.250  1.00  0.00     0.016 C 
HETATM    8  C15 UNL     1      -7.238  25.956  13.861  1.00  0.00    -0.006 C 
HETATM    9  C16 UNL     1      -7.649  25.179  12.617  1.00  0.00     0.006 C 
HETATM   10  C17 UNL     1      -8.507  24.020  12.830  1.00  0.00     0.006 C 
HETATM   11  C18 UNL     1      -9.352  23.953  14.068  1.00  0.00    -0.001 C 
HETATM   12  C19 UNL     1     -10.799  23.865  13.720  1.00  0.00     0.019 C 
HETATM   13  C20 UNL     1     -11.481  22.604  14.227  1.00  0.00     0.017 C 
HETATM   14  C21 UNL     1     -12.767  22.894  14.970  1.00  0.00     0.079 C 
HETATM   15  C22 UNL     1     -13.672  23.745  14.156  1.00  0.00     0.130 C 
HETATM   16  O1  UNL     1     -14.850  23.474  14.102  1.00  0.00    -0.298 OA
HETATM   17  C23 UNL     1     -13.051  24.909  13.439  1.00  0.00     0.112 C 
HETATM   18  C24 UNL     1     -11.651  24.989  14.033  1.00  0.00    -0.072 C 
HETATM   19  C25 UNL     1     -11.285  25.985  14.760  1.00  0.00    -0.023 C 
HETATM   20  C26 UNL     1      -9.947  26.067  15.347  1.00  0.00     0.033 C 
HETATM   21  C27 UNL     1      -9.032  24.925  15.155  1.00  0.00     0.002 C 
HETATM   22  C28 UNL     1      -5.920  26.585  13.676  1.00  0.00     0.011 C 
HETATM   23  C29 UNL     1      -4.726  26.066  14.377  1.00  0.00     0.006 C 
HETATM   24  C30 UNL     1      -3.550  26.728  13.700  1.00  0.00     0.030 A 
HETATM   25  C31 UNL     1      -2.885  27.919  14.202  1.00  0.00     0.025 A 
HETATM   26  C32 UNL     1      -2.274  26.605  14.409  1.00  0.00     0.016 A 
HETATM   27  C33 UNL     1      -1.877  25.671  13.292  1.00  0.00     0.092 C 
HETATM   28  C34 UNL     1      -3.008  26.156  12.449  1.00  0.00     0.142 C 
HETATM   29  O2  UNL     1      -3.295  26.084  11.287  1.00  0.00    -0.297 OA
ENDROOT
BRANCH   1  30
HETATM   30  N1  UNL     1      -1.011  23.519  14.146  1.00  0.00    -0.070 N 
ATOM     31  H12 UNL     1      -0.150  23.950  13.811  1.00  0.00     0.277 HD
ATOM     32  H11 UNL     1      -0.951  22.622  13.665  1.00  0.00     0.277 HD
BRANCH  30  33
HETATM   33  C7  UNL     1      -0.966  23.332  15.588  1.00  0.00     0.232 C 
BRANCH  33  34
HETATM   34  C6  UNL     1      -0.011  22.234  15.886  1.00  0.00     0.027 C 
BRANCH  34  35
HETATM   35  C5  UNL     1       1.244  22.212  15.135  1.00  0.00     0.002 C 
BRANCH  35  36
HETATM   36  C4  UNL     1       2.369  23.076  15.488  1.00  0.00     0.000 C 
BRANCH  36  37
HETATM   37  C3  UNL     1       2.694  24.280  14.702  1.00  0.00    -0.000 C 
BRANCH  37  38
HETATM   38  C2  UNL     1       2.692  25.579  15.501  1.00  0.00    -0.005 C 
HETATM   39  C1  UNL     1       1.260  26.074  15.504  1.00  0.00     0.005 C 
ENDBRANCH  37  38
ENDBRANCH  36  37
ENDBRANCH  35  36
ENDBRANCH  34  35
ENDBRANCH  33  34
ENDBRANCH  30  33
ENDBRANCH   1  30
TORSDOF 7
ENDMDL
MODEL 4
REMARK VINA RESULT: -10.143547708      0.579      1.236
REMARK  7 active torsions:
REMARK  status: ('A' for Active; 'I' for Inactive)
REMARK    1  A    between atoms: C2_2  and  C3_3 
REMARK    2  A    between atoms: C3_3  and  C4_4 
REMARK    3  A    between atoms: C4_4  and  C5_5 
REMARK    4  A    between atoms: C5_5  and  C6_6 
REMARK    5  A    between atoms: C6_6  and  C7_7 
REMARK    6  A    between atoms: C7_7  and  N1_8 
REMARK    7  A    between atoms: N1_8  and  C8_11 
ROOT
HETATM    1  C8  UNL     1      -8.794  24.361  13.953  1.00  0.00     0.197 C 
HETATM    2  C9  UNL     1      -7.609  23.895  13.201  1.00  0.00     0.039 C 
HETATM    3  C10 UNL     1      -6.276  24.446  13.542  1.00  0.00    -0.007 C 
HETATM    4  C11 UNL     1      -5.329  23.681  12.597  1.00  0.00     0.006 C 
HETATM    5  C12 UNL     1      -3.937  23.632  13.071  1.00  0.00     0.010 C 
HETATM    6  C13 UNL     1      -3.193  24.908  13.221  1.00  0.00    -0.036 C 
HETATM    7  C14 UNL     1      -3.147  25.566  11.858  1.00  0.00     0.016 C 
HETATM    8  C15 UNL     1      -3.666  25.887  14.199  1.00  0.00    -0.006 C 
HETATM    9  C16 UNL     1      -3.506  25.482  15.658  1.00  0.00     0.006 C 
HETATM   10  C17 UNL     1      -2.693  24.300  15.918  1.00  0.00     0.006 C 
HETATM   11  C18 UNL     1      -1.666  23.882  14.907  1.00  0.00    -0.001 C 
HETATM   12  C19 UNL     1      -0.301  23.878  15.506  1.00  0.00     0.019 C 
HETATM   13  C20 UNL     1       0.380  22.519  15.485  1.00  0.00     0.017 C 
HETATM   14  C21 UNL     1       1.782  22.577  14.921  1.00  0.00     0.079 C 
HETATM   15  C22 UNL     1       2.593  23.610  15.614  1.00  0.00     0.130 C 
HETATM   16  O1  UNL     1       3.729  23.352  15.939  1.00  0.00    -0.298 OA
HETATM   17  C23 UNL     1       1.934  24.934  15.871  1.00  0.00     0.112 C 
HETATM   18  C24 UNL     1       0.654  24.861  15.049  1.00  0.00    -0.072 C 
HETATM   19  C25 UNL     1       0.467  25.621  14.027  1.00  0.00    -0.023 C 
HETATM   20  C26 UNL     1      -0.752  25.550  13.221  1.00  0.00     0.033 C 
HETATM   21  C27 UNL     1      -1.751  24.517  13.559  1.00  0.00     0.002 C 
HETATM   22  C28 UNL     1      -4.958  26.557  13.978  1.00  0.00     0.011 C 
HETATM   23  C29 UNL     1      -6.053  25.877  13.253  1.00  0.00     0.006 C 
HETATM   24  C30 UNL     1      -7.282  26.714  13.514  1.00  0.00     0.030 A 
HETATM   25  C31 UNL     1      -7.788  27.726  12.602  1.00  0.00     0.025 A 
HETATM   26  C32 UNL     1      -8.433  26.413  12.660  1.00  0.00     0.016 A 
HETATM   27  C33 UNL     1      -9.057  25.830  13.904  1.00  0.00     0.092 C 
HETATM   28  C34 UNL     1      -8.050  26.518  14.763  1.00  0.00     0.142 C 
HETATM   29  O2  UNL     1      -7.957  26.769  15.932  1.00  0.00    -0.297 OA
ENDROOT
BRANCH   1  30
HETATM   30  N1  UNL     1      -9.897  23.535  13.534  1.00  0.00    -0.070 N 
ATOM     31  H12 UNL     1      -9.564  22.727  13.007  1.00  0.00     0.277 HD
ATOM     32  H11 UNL     1     -10.439  24.000  12.806  1.00  0.00     0.277 HD
BRANCH  30  33
HETATM   33  C7  UNL     1     -10.759  23.116  14.628  1.00  0.00     0.232 C 
BRANCH  33  34
HETATM   34  C6  UNL     1     -11.305  24.333  15.283  1.00  0.00     0.027 C 
BRANCH  34  35
HETATM   35  C5  UNL     1     -12.730  24.335  15.615  1.00  0.00     0.002 C 
BRANCH  35  36
HETATM   36  C4  UNL     1     -13.714  25.030  14.788  1.00  0.00     0.000 C 
BRANCH  36  37
HETATM   37  C3  UNL     1     -14.423  24.345  13.693  1.00  0.00    -0.000 C 
BRANCH  37  38
HETATM   38  C2  UNL     1     -13.681  24.340  12.361  1.00  0.00    -0.005 C 
HETATM   39  C1  UNL     1     -13.268  22.905  12.109  1.00  0.00     0.005 C 
ENDBRANCH  37  38
ENDBRANCH  36  37
ENDBRANCH  35  36
ENDBRANCH  34  35
ENDBRANCH  33  34
ENDBRANCH  30  33
ENDBRANCH   1  30
TORSDOF 7
ENDMDL
MODEL 5
REMARK VINA RESULT: -10.083587254      3.293      9.779
REMARK  7 active torsions:
REMARK  status: ('A' for Active; 'I' for Inactive)
REMARK    1  A    between atoms: C2_2  and  C3_3 
REMARK    2  A    between atoms: C3_3  and  C4_4 
REMARK    3  A    between atoms: C4_4  and  C5_5 
REMARK    4  A    between atoms: C5_5  and  C6_6 
REMARK    5  A    between atoms: C6_6  and  C7_7 
REMARK    6  A    between atoms: C7_7  and  N1_8 
REMARK    7  A    between atoms: N1_8  and  C8_11 
ROOT
HETATM    1  C8  UNL     1      -2.102  25.431  11.337  1.00  0.00     0.197 C 
HETATM    2  C9  UNL     1      -2.827  24.376  12.077  1.00  0.00     0.039 C 
HETATM    3  C10 UNL     1      -4.100  24.714  12.755  1.00  0.00    -0.007 C 
HETATM    4  C11 UNL     1      -4.554  23.363  13.343  1.00  0.00     0.006 C 
HETATM    5  C12 UNL     1      -6.002  23.289  13.597  1.00  0.00     0.010 C 
HETATM    6  C13 UNL     1      -6.597  24.224  14.584  1.00  0.00    -0.036 C 
HETATM    7  C14 UNL     1      -5.924  23.963  15.916  1.00  0.00     0.016 C 
HETATM    8  C15 UNL     1      -6.552  25.659  14.309  1.00  0.00    -0.006 C 
HETATM    9  C16 UNL     1      -7.425  26.130  13.154  1.00  0.00     0.006 C 
HETATM   10  C17 UNL     1      -8.376  25.162  12.623  1.00  0.00     0.006 C 
HETATM   11  C18 UNL     1      -8.835  24.031  13.497  1.00  0.00    -0.001 C 
HETATM   12  C19 UNL     1     -10.313  24.069  13.683  1.00  0.00     0.019 C 
HETATM   13  C20 UNL     1     -11.032  22.829  13.176  1.00  0.00     0.017 C 
HETATM   14  C21 UNL     1     -11.985  22.248  14.198  1.00  0.00     0.079 C 
HETATM   15  C22 UNL     1     -12.921  23.284  14.703  1.00  0.00     0.130 C 
HETATM   16  O1  UNL     1     -14.095  23.015  14.822  1.00  0.00    -0.298 OA
HETATM   17  C23 UNL     1     -12.336  24.625  15.039  1.00  0.00     0.112 C 
HETATM   18  C24 UNL     1     -10.834  24.381  14.994  1.00  0.00    -0.072 C 
HETATM   19  C25 UNL     1     -10.110  24.445  16.056  1.00  0.00    -0.023 C 
HETATM   20  C26 UNL     1      -8.668  24.199  16.027  1.00  0.00     0.033 C 
HETATM   21  C27 UNL     1      -8.057  23.789  14.748  1.00  0.00     0.002 C 
HETATM   22  C28 UNL     1      -5.251  26.349  14.300  1.00  0.00     0.011 C 
HETATM   23  C29 UNL     1      -4.016  25.637  13.905  1.00  0.00     0.006 C 
HETATM   24  C30 UNL     1      -2.983  26.719  13.699  1.00  0.00     0.030 A 
HETATM   25  C31 UNL     1      -2.008  27.116  14.700  1.00  0.00     0.025 A 
HETATM   26  C32 UNL     1      -1.601  26.247  13.594  1.00  0.00     0.016 A 
HETATM   27  C33 UNL     1      -1.705  26.627  12.137  1.00  0.00     0.092 C 
HETATM   28  C34 UNL     1      -2.925  27.440  12.409  1.00  0.00     0.142 C 
HETATM   29  O2  UNL     1      -3.537  28.282  11.813  1.00  0.00    -0.297 OA
ENDROOT
BRANCH   1  30
HETATM   30  N1  UNL     1      -1.020  24.779  10.645  1.00  0.00    -0.070 N 
ATOM     31  H12 UNL     1      -0.641  24.016  11.207  1.00  0.00     0.277 HD
ATOM     32  H11 UNL     1      -0.200  25.385  10.607  1.00  0.00     0.277 HD
BRANCH  30  33
HETATM   33  C7  UNL     1      -1.377  24.311   9.316  1.00  0.00     0.232 C 
BRANCH  33  34
HETATM   34  C6  UNL     1      -0.415  24.893   8.343  1.00  0.00     0.027 C 
BRANCH  34  35
HETATM   35  C5  UNL     1       0.689  25.686   8.883  1.00  0.00     0.002 C 
BRANCH  35  36
HETATM   36  C4  UNL     1       0.833  27.110   8.586  1.00  0.00     0.000 C 
BRANCH  36  37
HETATM   37  C3  UNL     1      -0.283  27.900   8.036  1.00  0.00    -0.000 C 
BRANCH  37  38
HETATM   38  C2  UNL     1      -1.319  28.338   9.066  1.00  0.00    -0.005 C 
HETATM   39  C1  UNL     1      -2.643  27.762   8.609  1.00  0.00     0.005 C 
ENDBRANCH  37  38
ENDBRANCH  36  37
ENDBRANCH  35  36
ENDBRANCH  34  35
ENDBRANCH  33  34
ENDBRANCH  30  33
ENDBRANCH   1  30
TORSDOF 7
ENDMDL
