MODEL 1
REMARK VINA RESULT: -9.945322737      0.000      0.000
REMARK  11 active torsions:
REMARK  status: ('A' for Active; 'I' for Inactive)
REMARK       I    between atoms: C1_2  and  N1_3 
REMARK    1  A    between atoms: C1_2  and  C18_25 
REMARK    2  A    between atoms: N1_3  and  C2_5 
REMARK    3  A    between atoms: C2_5  and  C3_6 
REMARK    4  A    between atoms: C2_5  and  C11_18 
REMARK    5  A    between atoms: C4_7  and  S1_8 
REMARK    6  A    between atoms: S1_8  and  C5_11 
REMARK    7  A    between atoms: C11_18  and  C12_19 
REMARK    8  A    between atoms: C21_29  and  C22_30 
REMARK    9  A    between atoms: C22_30  and  O5_31 
REMARK   10  A    between atoms: C22_30  and  C23_33 
REMARK   11  A    between atoms: C24_34  and  O6_35 
ROOT
HETATM    1  C2  UNL     1       2.411  -0.185   8.554  1.00  0.00     0.112 C 
ENDROOT
BRANCH   1   2
HETATM    2  N1  UNL     1       1.595   0.631   7.682  1.00  0.00    -0.351 N 
HETATM    3  C1  UNL     1       2.015   1.858   7.118  1.00  0.00     0.249 C 
HETATM    4  O1  UNL     1       3.180   2.255   7.403  1.00  0.00    -0.271 OA
ATOM      5  H1  UNL     1       0.656   0.300   7.459  1.00  0.00     0.163 HD
BRANCH   3   6
HETATM    6  C18 UNL     1       1.156   2.678   6.221  1.00  0.00     0.237 C 
HETATM    7  C19 UNL     1       1.238   2.229   4.801  1.00  0.00     0.209 C 
HETATM    8  O4  UNL     1       0.061   2.411   4.126  1.00  0.00    -0.386 OA
HETATM    9  C20 UNL     1      -0.667   3.501   4.551  1.00  0.00     0.202 C 
HETATM   10  C21 UNL     1      -1.058   3.343   6.009  1.00  0.00     0.175 C 
HETATM   11  O7  UNL     1      -0.122   2.651   6.729  1.00  0.00    -0.364 OA
BRANCH  10  12
HETATM   12  C22 UNL     1      -1.437   4.700   6.506  1.00  0.00     0.157 C 
BRANCH  12  13
HETATM   13  O5  UNL     1      -0.605   5.683   5.928  1.00  0.00    -0.392 OA
ATOM     14  H5  UNL     1      -0.852   6.548   6.237  1.00  0.00     0.210 HD
ENDBRANCH  12  13
BRANCH  12  15
HETATM   15  C23 UNL     1      -1.508   4.882   7.968  1.00  0.00     0.068 A 
HETATM   16  C24 UNL     1      -1.730   6.199   8.643  1.00  0.00     0.145 A 
HETATM   17  C25 UNL     1      -2.764   5.030   8.731  1.00  0.00     0.120 A 
HETATM   18 CL1  UNL     1      -4.299   5.301   7.905  1.00  0.00    -0.122 Cl
BRANCH  16  19
HETATM   19  O6  UNL     1      -2.168   7.265   7.880  1.00  0.00    -0.394 OA
ATOM     20  H6  UNL     1      -2.917   7.764   8.186  1.00  0.00     0.210 HD
ENDBRANCH  16  19
ENDBRANCH  12  15
ENDBRANCH  10  12
ENDBRANCH   3   6
ENDBRANCH   1   2
BRANCH   1  21
HETATM   21  C3  UNL     1       1.679  -0.450   9.801  1.00  0.00     0.010 C 
HETATM   22  C4  UNL     1       0.525   0.134  10.089  1.00  0.00     0.112 C 
BRANCH  22  23
HETATM   23  S1  UNL     1      -0.325  -0.210  11.599  1.00  0.00     0.196 S 
HETATM   24  O2  UNL     1      -0.907  -1.578  11.525  1.00  0.00    -0.218 OA
HETATM   25  O3  UNL     1       0.709  -0.192  12.718  1.00  0.00    -0.218 OA
BRANCH  23  26
HETATM   26  C5  UNL     1      -1.513   0.999  11.952  1.00  0.00     0.063 A 
HETATM   27  C6  UNL     1      -1.692   1.401  13.258  1.00  0.00     0.027 A 
HETATM   28  C7  UNL     1      -2.637   2.378  13.580  1.00  0.00     0.044 A 
HETATM   29  C8  UNL     1      -3.420   2.974  12.609  1.00  0.00     0.116 A 
HETATM   30  F1  UNL     1      -4.329   3.918  12.949  1.00  0.00    -0.206 F 
HETATM   31  C9  UNL     1      -3.233   2.564  11.302  1.00  0.00     0.044 A 
HETATM   32  C10 UNL     1      -2.302   1.601  10.984  1.00  0.00     0.027 A 
ENDBRANCH  23  26
ENDBRANCH  22  23
ENDBRANCH   1  21
BRANCH   1  33
HETATM   33  C11 UNL     1       2.732  -1.444   7.780  1.00  0.00     0.067 C 
BRANCH  33  34
HETATM   34  C12 UNL     1       4.159  -1.628   7.508  1.00  0.00    -0.056 A 
HETATM   35  C13 UNL     1       5.094  -0.614   7.499  1.00  0.00     0.007 A 
HETATM   36  C14 UNL     1       6.422  -0.877   7.228  1.00  0.00     0.001 A 
HETATM   37  C15 UNL     1       6.870  -2.169   6.953  1.00  0.00     0.000 A 
HETATM   38  C16 UNL     1       5.944  -3.184   6.960  1.00  0.00     0.001 A 
HETATM   39  C17 UNL     1       4.632  -2.894   7.233  1.00  0.00     0.007 A 
ENDBRANCH  33  34
ENDBRANCH   1  33
TORSDOF 11
ENDMDL
MODEL 2
REMARK VINA RESULT: -9.683763568      1.680      2.011
REMARK  11 active torsions:
REMARK  status: ('A' for Active; 'I' for Inactive)
REMARK       I    between atoms: C1_2  and  N1_3 
REMARK    1  A    between atoms: C1_2  and  C18_25 
REMARK    2  A    between atoms: N1_3  and  C2_5 
REMARK    3  A    between atoms: C2_5  and  C3_6 
REMARK    4  A    between atoms: C2_5  and  C11_18 
REMARK    5  A    between atoms: C4_7  and  S1_8 
REMARK    6  A    between atoms: S1_8  and  C5_11 
REMARK    7  A    between atoms: C11_18  and  C12_19 
REMARK    8  A    between atoms: C21_29  and  C22_30 
REMARK    9  A    between atoms: C22_30  and  O5_31 
REMARK   10  A    between atoms: C22_30  and  C23_33 
REMARK   11  A    between atoms: C24_34  and  O6_35 
ROOT
HETATM    1  C2  UNL     1       1.858   1.789   9.102  1.00  0.00     0.112 C 
ENDROOT
BRANCH   1   2
HETATM    2  N1  UNL     1       1.267   2.937   8.448  1.00  0.00    -0.351 N 
HETATM    3  C1  UNL     1       2.006   4.037   7.954  1.00  0.00     0.249 C 
HETATM    4  O1  UNL     1       3.260   4.002   8.100  1.00  0.00    -0.271 OA
ATOM      5  H1  UNL     1       0.254   2.954   8.336  1.00  0.00     0.163 HD
BRANCH   3   6
HETATM    6  C18 UNL     1       1.375   5.206   7.283  1.00  0.00     0.237 C 
HETATM    7  C19 UNL     1       2.018   5.515   5.973  1.00  0.00     0.209 C 
HETATM    8  O4  UNL     1       1.131   6.024   5.063  1.00  0.00    -0.386 OA
HETATM    9  C20 UNL     1       0.119   6.773   5.623  1.00  0.00     0.202 C 
HETATM   10  C21 UNL     1      -0.713   5.922   6.566  1.00  0.00     0.175 C 
HETATM   11  O7  UNL     1       0.027   4.951   7.183  1.00  0.00    -0.364 OA
BRANCH  10  12
HETATM   12  C22 UNL     1      -1.474   6.863   7.441  1.00  0.00     0.157 C 
BRANCH  12  13
HETATM   13  O5  UNL     1      -0.762   8.072   7.599  1.00  0.00    -0.392 OA
ATOM     14  H5  UNL     1      -0.705   8.303   8.519  1.00  0.00     0.210 HD
ENDBRANCH  12  13
BRANCH  12  15
HETATM   15  C23 UNL     1      -1.912   6.351   8.753  1.00  0.00     0.068 A 
HETATM   16  C24 UNL     1      -2.779   7.110   9.707  1.00  0.00     0.145 A 
HETATM   17  C25 UNL     1      -3.249   5.784   9.025  1.00  0.00     0.120 A 
HETATM   18 CL1  UNL     1      -4.558   5.949   7.852  1.00  0.00    -0.122 Cl
BRANCH  16  19
HETATM   19  O6  UNL     1      -3.442   8.232   9.245  1.00  0.00    -0.394 OA
ATOM     20  H6  UNL     1      -3.061   9.085   9.415  1.00  0.00     0.210 HD
ENDBRANCH  16  19
ENDBRANCH  12  15
ENDBRANCH  10  12
ENDBRANCH   3   6
ENDBRANCH   1   2
BRANCH   1  21
HETATM   21  C3  UNL     1       1.198   1.572  10.397  1.00  0.00     0.010 C 
HETATM   22  C4  UNL     1       0.224   0.689  10.565  1.00  0.00     0.112 C 
BRANCH  22  23
HETATM   23  S1  UNL     1      -0.546   0.460  12.138  1.00  0.00     0.196 S 
HETATM   24  O2  UNL     1      -0.978  -0.960  12.262  1.00  0.00    -0.218 OA
HETATM   25  O3  UNL     1       0.507   0.733  13.204  1.00  0.00    -0.218 OA
BRANCH  23  26
HETATM   26  C5  UNL     1      -1.849   1.574  12.378  1.00  0.00     0.063 A 
HETATM   27  C6  UNL     1      -2.120   2.022  13.653  1.00  0.00     0.027 A 
HETATM   28  C7  UNL     1      -3.160   2.926  13.885  1.00  0.00     0.044 A 
HETATM   29  C8  UNL     1      -3.948   3.401  12.853  1.00  0.00     0.116 A 
HETATM   30  F1  UNL     1      -4.950   4.276  13.106  1.00  0.00    -0.206 F 
HETATM   31  C9  UNL     1      -3.668   2.945  11.578  1.00  0.00     0.044 A 
HETATM   32  C10 UNL     1      -2.644   2.055  11.349  1.00  0.00     0.027 A 
ENDBRANCH  23  26
ENDBRANCH  22  23
ENDBRANCH   1  21
BRANCH   1  33
HETATM   33  C11 UNL     1       1.686   0.625   8.152  1.00  0.00     0.067 C 
BRANCH  33  34
HETATM   34  C12 UNL     1       2.913  -0.138   7.917  1.00  0.00    -0.056 A 
HETATM   35  C13 UNL     1       4.110   0.408   7.501  1.00  0.00     0.007 A 
HETATM   36  C14 UNL     1       5.220  -0.388   7.299  1.00  0.00     0.001 A 
HETATM   37  C15 UNL     1       5.178  -1.767   7.505  1.00  0.00     0.000 A 
HETATM   38  C16 UNL     1       3.989  -2.318   7.917  1.00  0.00     0.001 A 
HETATM   39  C17 UNL     1       2.903  -1.504   8.111  1.00  0.00     0.007 A 
ENDBRANCH  33  34
ENDBRANCH   1  33
TORSDOF 11
ENDMDL
MODEL 3
REMARK VINA RESULT: -9.496266276      3.687      7.525
REMARK  11 active torsions:
REMARK  status: ('A' for Active; 'I' for Inactive)
REMARK       I    between atoms: C1_2  and  N1_3 
REMARK    1  A    between atoms: C1_2  and  C18_25 
REMARK    2  A    between atoms: N1_3  and  C2_5 
REMARK    3  A    between atoms: C2_5  and  C3_6 
REMARK    4  A    between atoms: C2_5  and  C11_18 
REMARK    5  A    between atoms: C4_7  and  S1_8 
REMARK    6  A    between atoms: S1_8  and  C5_11 
REMARK    7  A    between atoms: C11_18  and  C12_19 
REMARK    8  A    between atoms: C21_29  and  C22_30 
REMARK    9  A    between atoms: C22_30  and  O5_31 
REMARK   10  A    between atoms: C22_30  and  C23_33 
REMARK   11  A    between atoms: C24_34  and  O6_35 
ROOT
HETATM    1  C2  UNL     1       1.642   0.399   9.150  1.00  0.00     0.112 C 
ENDROOT
BRANCH   1   2
HETATM    2  N1  UNL     1       2.708  -0.569   9.001  1.00  0.00    -0.351 N 
HETATM    3  C1  UNL     1       2.905  -1.362   7.847  1.00  0.00     0.249 C 
HETATM    4  O1  UNL     1       2.092  -1.205   6.893  1.00  0.00    -0.271 OA
ATOM      5  H1  UNL     1       3.358  -0.686   9.778  1.00  0.00     0.163 HD
BRANCH   3   6
HETATM    6  C18 UNL     1       4.010  -2.350   7.718  1.00  0.00     0.237 C 
HETATM    7  C19 UNL     1       5.350  -1.719   7.899  1.00  0.00     0.209 C 
HETATM    8  O4  UNL     1       6.255  -2.570   8.476  1.00  0.00    -0.386 OA
HETATM    9  C20 UNL     1       6.062  -3.896   8.156  1.00  0.00     0.202 C 
HETATM   10  C21 UNL     1       4.701  -4.366   8.637  1.00  0.00     0.175 C 
HETATM   11  O7  UNL     1       3.763  -3.370   8.606  1.00  0.00    -0.364 OA
BRANCH  10  12
HETATM   12  C22 UNL     1       4.389  -5.623   7.894  1.00  0.00     0.157 C 
BRANCH  12  13
HETATM   13  O5  UNL     1       4.360  -6.722   8.779  1.00  0.00    -0.392 OA
ATOM     14  H5  UNL     1       4.517  -6.433   9.670  1.00  0.00     0.210 HD
ENDBRANCH  12  13
BRANCH  12  15
HETATM   15  C23 UNL     1       5.227  -5.932   6.720  1.00  0.00     0.068 A 
HETATM   16  C24 UNL     1       4.897  -6.976   5.699  1.00  0.00     0.145 A 
HETATM   17  C25 UNL     1       4.956  -5.453   5.349  1.00  0.00     0.120 A 
HETATM   18 CL1  UNL     1       3.412  -4.701   4.943  1.00  0.00    -0.122 Cl
BRANCH  16  19
HETATM   19  O6  UNL     1       3.616  -7.496   5.680  1.00  0.00    -0.394 OA
ATOM     20  H6  UNL     1       3.141  -7.560   6.501  1.00  0.00     0.210 HD
ENDBRANCH  16  19
ENDBRANCH  12  15
ENDBRANCH  10  12
ENDBRANCH   3   6
ENDBRANCH   1   2
BRANCH   1  21
HETATM   21  C3  UNL     1       0.915   0.136  10.400  1.00  0.00     0.010 C 
HETATM   22  C4  UNL     1       0.224   1.071  11.035  1.00  0.00     0.112 C 
BRANCH  22  23
HETATM   23  S1  UNL     1      -0.635   0.716  12.537  1.00  0.00     0.196 S 
HETATM   24  O2  UNL     1      -1.056  -0.712  12.526  1.00  0.00    -0.218 OA
HETATM   25  O3  UNL     1       0.350   0.914  13.683  1.00  0.00    -0.218 OA
BRANCH  23  26
HETATM   26  C5  UNL     1      -1.963   1.798  12.783  1.00  0.00     0.063 A 
HETATM   27  C6  UNL     1      -2.718   2.190  11.699  1.00  0.00     0.027 A 
HETATM   28  C7  UNL     1      -3.801   3.058  11.859  1.00  0.00     0.044 A 
HETATM   29  C8  UNL     1      -4.154   3.550  13.102  1.00  0.00     0.116 A 
HETATM   30  F1  UNL     1      -5.208   4.390  13.230  1.00  0.00    -0.206 F 
HETATM   31  C9  UNL     1      -3.391   3.151  14.184  1.00  0.00     0.044 A 
HETATM   32  C10 UNL     1      -2.324   2.296  14.026  1.00  0.00     0.027 A 
ENDBRANCH  23  26
ENDBRANCH  22  23
ENDBRANCH   1  21
BRANCH   1  33
HETATM   33  C11 UNL     1       2.299   1.761   9.126  1.00  0.00     0.067 C 
BRANCH  33  34
HETATM   34  C12 UNL     1       2.489   2.307   7.781  1.00  0.00    -0.056 A 
HETATM   35  C13 UNL     1       3.653   2.896   7.330  1.00  0.00     0.007 A 
HETATM   36  C14 UNL     1       3.744   3.390   6.044  1.00  0.00     0.001 A 
HETATM   37  C15 UNL     1       2.672   3.314   5.154  1.00  0.00     0.000 A 
HETATM   38  C16 UNL     1       1.511   2.730   5.596  1.00  0.00     0.001 A 
HETATM   39  C17 UNL     1       1.448   2.247   6.878  1.00  0.00     0.007 A 
ENDBRANCH  33  34
ENDBRANCH   1  33
TORSDOF 11
ENDMDL
MODEL 4
REMARK VINA RESULT: -9.494056060      3.973      7.346
REMARK  11 active torsions:
REMARK  status: ('A' for Active; 'I' for Inactive)
REMARK       I    between atoms: C1_2  and  N1_3 
REMARK    1  A    between atoms: C1_2  and  C18_25 
REMARK    2  A    between atoms: N1_3  and  C2_5 
REMARK    3  A    between atoms: C2_5  and  C3_6 
REMARK    4  A    between atoms: C2_5  and  C11_18 
REMARK    5  A    between atoms: C4_7  and  S1_8 
REMARK    6  A    between atoms: S1_8  and  C5_11 
REMARK    7  A    between atoms: C11_18  and  C12_19 
REMARK    8  A    between atoms: C21_29  and  C22_30 
REMARK    9  A    between atoms: C22_30  and  O5_31 
REMARK   10  A    between atoms: C22_30  and  C23_33 
REMARK   11  A    between atoms: C24_34  and  O6_35 
ROOT
HETATM    1  C2  UNL     1       1.655   0.409   8.718  1.00  0.00     0.112 C 
ENDROOT
BRANCH   1   2
HETATM    2  N1  UNL     1       2.930  -0.264   8.591  1.00  0.00    -0.351 N 
HETATM    3  C1  UNL     1       3.160  -1.379   7.752  1.00  0.00     0.249 C 
HETATM    4  O1  UNL     1       2.180  -1.805   7.077  1.00  0.00    -0.271 OA
ATOM      5  H1  UNL     1       3.713   0.089   9.140  1.00  0.00     0.163 HD
BRANCH   3   6
HETATM    6  C18 UNL     1       4.482  -2.053   7.637  1.00  0.00     0.237 C 
HETATM    7  C19 UNL     1       5.603  -1.073   7.544  1.00  0.00     0.209 C 
HETATM    8  O4  UNL     1       6.752  -1.539   8.125  1.00  0.00    -0.386 OA
HETATM    9  C20 UNL     1       6.910  -2.905   8.043  1.00  0.00     0.202 C 
HETATM   10  C21 UNL     1       5.778  -3.615   8.761  1.00  0.00     0.175 C 
HETATM   11  O7  UNL     1       4.601  -2.921   8.697  1.00  0.00    -0.364 OA
BRANCH  10  12
HETATM   12  C22 UNL     1       5.768  -5.025   8.268  1.00  0.00     0.157 C 
BRANCH  12  13
HETATM   13  O5  UNL     1       5.896  -5.054   6.862  1.00  0.00    -0.392 OA
ATOM     14  H5  UNL     1       5.111  -5.415   6.466  1.00  0.00     0.210 HD
ENDBRANCH  12  13
BRANCH  12  15
HETATM   15  C23 UNL     1       4.643  -5.877   8.698  1.00  0.00     0.068 A 
HETATM   16  C24 UNL     1       3.248  -5.762   8.168  1.00  0.00     0.145 A 
HETATM   17  C25 UNL     1       4.130  -7.032   7.933  1.00  0.00     0.120 A 
HETATM   18 CL1  UNL     1       4.639  -7.312   6.266  1.00  0.00    -0.122 Cl
BRANCH  16  19
HETATM   19  O6  UNL     1       3.038  -5.018   7.022  1.00  0.00    -0.394 OA
ATOM     20  H6  UNL     1       2.494  -5.387   6.336  1.00  0.00     0.210 HD
ENDBRANCH  16  19
ENDBRANCH  12  15
ENDBRANCH  10  12
ENDBRANCH   3   6
ENDBRANCH   1   2
BRANCH   1  21
HETATM   21  C3  UNL     1       1.174   0.283  10.101  1.00  0.00     0.010 C 
HETATM   22  C4  UNL     1      -0.016   0.721  10.487  1.00  0.00     0.112 C 
BRANCH  22  23
HETATM   23  S1  UNL     1      -0.557   0.553  12.160  1.00  0.00     0.196 S 
HETATM   24  O2  UNL     1      -0.909  -0.871  12.413  1.00  0.00    -0.218 OA
HETATM   25  O3  UNL     1       0.617   0.922  13.058  1.00  0.00    -0.218 OA
BRANCH  23  26
HETATM   26  C5  UNL     1      -1.862   1.632  12.519  1.00  0.00     0.063 A 
HETATM   27  C6  UNL     1      -2.036   2.065  13.816  1.00  0.00     0.027 A 
HETATM   28  C7  UNL     1      -3.074   2.941  14.143  1.00  0.00     0.044 A 
HETATM   29  C8  UNL     1      -3.957   3.404  13.185  1.00  0.00     0.116 A 
HETATM   30  F1  UNL     1      -4.955   4.252  13.529  1.00  0.00    -0.206 F 
HETATM   31  C9  UNL     1      -3.775   2.964  11.887  1.00  0.00     0.044 A 
HETATM   32  C10 UNL     1      -2.752   2.101  11.565  1.00  0.00     0.027 A 
ENDBRANCH  23  26
ENDBRANCH  22  23
ENDBRANCH   1  21
BRANCH   1  33
HETATM   33  C11 UNL     1       1.889   1.844   8.304  1.00  0.00     0.067 C 
BRANCH  33  34
HETATM   34  C12 UNL     1       1.827   2.065   6.858  1.00  0.00    -0.056 A 
HETATM   35  C13 UNL     1       2.672   2.899   6.154  1.00  0.00     0.007 A 
HETATM   36  C14 UNL     1       2.540   3.052   4.789  1.00  0.00     0.001 A 
HETATM   37  C15 UNL     1       1.554   2.376   4.069  1.00  0.00     0.000 A 
HETATM   38  C16 UNL     1       0.710   1.544   4.764  1.00  0.00     0.001 A 
HETATM   39  C17 UNL     1       0.864   1.411   6.120  1.00  0.00     0.007 A 
ENDBRANCH  33  34
ENDBRANCH   1  33
TORSDOF 11
ENDMDL
MODEL 5
REMARK VINA RESULT: -9.490146920      1.174      1.337
REMARK  11 active torsions:
REMARK  status: ('A' for Active; 'I' for Inactive)
REMARK       I    between atoms: C1_2  and  N1_3 
REMARK    1  A    between atoms: C1_2  and  C18_25 
REMARK    2  A    between atoms: N1_3  and  C2_5 
REMARK    3  A    between atoms: C2_5  and  C3_6 
REMARK    4  A    between atoms: C2_5  and  C11_18 
REMARK    5  A    between atoms: C4_7  and  S1_8 
REMARK    6  A    between atoms: S1_8  and  C5_11 
REMARK    7  A    between atoms: C11_18  and  C12_19 
REMARK    8  A    between atoms: C21_29  and  C22_30 
REMARK    9  A    between atoms: C22_30  and  O5_31 
REMARK   10  A    between atoms: C22_30  and  C23_33 
REMARK   11  A    between atoms: C24_34  and  O6_35 
ROOT
HETATM    1  C2  UNL     1       2.464  -0.361   8.686  1.00  0.00     0.112 C 
ENDROOT
BRANCH   1   2
HETATM    2  N1  UNL     1       1.699   0.491   7.801  1.00  0.00    -0.351 N 
HETATM    3  C1  UNL     1       2.144   1.746   7.326  1.00  0.00     0.249 C 
HETATM    4  O1  UNL     1       3.284   2.136   7.706  1.00  0.00    -0.271 OA
ATOM      5  H1  UNL     1       0.780   0.165   7.501  1.00  0.00     0.163 HD
BRANCH   3   6
HETATM    6  C18 UNL     1       1.338   2.603   6.415  1.00  0.00     0.237 C 
HETATM    7  C19 UNL     1       1.498   2.208   4.985  1.00  0.00     0.209 C 
HETATM    8  O4  UNL     1       0.360   2.420   4.254  1.00  0.00    -0.386 OA
HETATM    9  C20 UNL     1      -0.388   3.497   4.678  1.00  0.00     0.202 C 
HETATM   10  C21 UNL     1      -0.859   3.286   6.106  1.00  0.00     0.175 C 
HETATM   11  O7  UNL     1       0.034   2.563   6.850  1.00  0.00    -0.364 OA
BRANCH  10  12
HETATM   12  C22 UNL     1      -1.261   4.625   6.632  1.00  0.00     0.157 C 
BRANCH  12  13
HETATM   13  O5  UNL     1      -2.665   4.700   6.759  1.00  0.00    -0.392 OA
ATOM     14  H5  UNL     1      -2.934   5.596   6.929  1.00  0.00     0.210 HD
ENDBRANCH  12  13
BRANCH  12  15
HETATM   15  C23 UNL     1      -0.747   5.807   5.916  1.00  0.00     0.068 A 
HETATM   16  C24 UNL     1      -1.232   7.205   6.140  1.00  0.00     0.145 A 
HETATM   17  C25 UNL     1       0.230   6.764   6.476  1.00  0.00     0.120 A 
HETATM   18 CL1  UNL     1       0.644   6.735   8.191  1.00  0.00    -0.122 Cl
BRANCH  16  19
HETATM   19  O6  UNL     1      -2.000   7.464   7.259  1.00  0.00    -0.394 OA
ATOM     20  H6  UNL     1      -2.552   8.238   7.261  1.00  0.00     0.210 HD
ENDBRANCH  16  19
ENDBRANCH  12  15
ENDBRANCH  10  12
ENDBRANCH   3   6
ENDBRANCH   1   2
BRANCH   1  21
HETATM   21  C3  UNL     1       1.688  -0.618   9.908  1.00  0.00     0.010 C 
HETATM   22  C4  UNL     1       0.593   0.062  10.214  1.00  0.00     0.112 C 
BRANCH  22  23
HETATM   23  S1  UNL     1      -0.312  -0.275  11.694  1.00  0.00     0.196 S 
HETATM   24  O2  UNL     1      -0.895  -1.642  11.602  1.00  0.00    -0.218 OA
HETATM   25  O3  UNL     1       0.682  -0.256  12.849  1.00  0.00    -0.218 OA
BRANCH  23  26
HETATM   26  C5  UNL     1      -1.508   0.938  12.000  1.00  0.00     0.063 A 
HETATM   27  C6  UNL     1      -1.748   1.329  13.300  1.00  0.00     0.027 A 
HETATM   28  C7  UNL     1      -2.702   2.309  13.585  1.00  0.00     0.044 A 
HETATM   29  C8  UNL     1      -3.432   2.919  12.583  1.00  0.00     0.116 A 
HETATM   30  F1  UNL     1      -4.351   3.867  12.887  1.00  0.00    -0.206 F 
HETATM   31  C9  UNL     1      -3.184   2.520  11.282  1.00  0.00     0.044 A 
HETATM   32  C10 UNL     1      -2.245   1.555  11.000  1.00  0.00     0.027 A 
ENDBRANCH  23  26
ENDBRANCH  22  23
ENDBRANCH   1  21
BRANCH   1  33
HETATM   33  C11 UNL     1       2.767  -1.621   7.905  1.00  0.00     0.067 C 
BRANCH  33  34
HETATM   34  C12 UNL     1       4.183  -1.790   7.573  1.00  0.00    -0.056 A 
HETATM   35  C13 UNL     1       5.105  -0.765   7.522  1.00  0.00     0.007 A 
HETATM   36  C14 UNL     1       6.423  -1.014   7.195  1.00  0.00     0.001 A 
HETATM   37  C15 UNL     1       6.874  -2.302   6.906  1.00  0.00     0.000 A 
HETATM   38  C16 UNL     1       5.961  -3.327   6.955  1.00  0.00     0.001 A 
HETATM   39  C17 UNL     1       4.658  -3.051   7.283  1.00  0.00     0.007 A 
ENDBRANCH  33  34
ENDBRANCH   1  33
TORSDOF 11
ENDMDL
