MODEL 1
REMARK VINA RESULT: -9.660681618      0.000      0.000
REMARK  9 active torsions:
REMARK  status: ('A' for Active; 'I' for Inactive)
REMARK    1  A    between atoms: C1_2  and  C2_3 
REMARK       I    between atoms: C1_2  and  N2_16 
REMARK    2  A    between atoms: C2_3  and  C3_4 
REMARK    3  A    between atoms: C3_4  and  N1_5 
REMARK       I    between atoms: N1_5  and  C4_7 
REMARK    4  A    between atoms: C4_7  and  C5_9 
REMARK    5  A    between atoms: N2_16  and  C10_18 
REMARK    6  A    between atoms: C17_26  and  C18_27 
REMARK    7  A    between atoms: C18_27  and  N4_28 
REMARK    8  A    between atoms: N4_28  and  S1_30 
REMARK    9  A    between atoms: S1_30  and  C19_33 
ROOT
HETATM    1  C10 UNL     1      -0.814   4.345   9.313  1.00  0.00     0.086 C 
HETATM    2  C11 UNL     1      -0.144   5.669   9.500  1.00  0.00     0.027 C 
HETATM    3  C12 UNL     1      -0.267   6.665   8.425  1.00  0.00     0.038 C 
HETATM    4  C13 UNL     1      -1.367   6.354   7.483  1.00  0.00     0.223 C 
HETATM    5  C14 UNL     1      -1.419   7.314   6.302  1.00  0.00     0.037 C 
HETATM    6  C15 UNL     1      -2.485   8.289   6.681  1.00  0.00     0.032 C 
HETATM    7  C16 UNL     1      -3.183   7.688   7.867  1.00  0.00     0.273 C 
HETATM    8  N3  UNL     1      -2.695   6.353   8.024  1.00  0.00     0.099 N 
HETATM    9  C17 UNL     1      -2.878   5.763   9.297  1.00  0.00     0.243 C 
HETATM   10  C23 UNL     1      -2.304   4.384   9.371  1.00  0.00     0.062 C 
ENDROOT
BRANCH   1  11
HETATM   11  N2  UNL     1      -0.258   3.363  10.249  1.00  0.00    -0.356 N 
HETATM   12  C1  UNL     1      -0.054   2.005   9.927  1.00  0.00     0.219 C 
HETATM   13  O1  UNL     1      -0.367   1.631   8.767  1.00  0.00    -0.274 OA
ATOM     14  H2  UNL     1      -0.005   3.679  11.185  1.00  0.00     0.162 HD
BRANCH  12  15
HETATM   15  C2  UNL     1       0.502   1.024  10.870  1.00  0.00     0.122 C 
BRANCH  15  16
HETATM   16  C3  UNL     1      -0.462  -0.116  11.098  1.00  0.00     0.132 C 
BRANCH  16  17
HETATM   17  N1  UNL     1      -1.770   0.390  11.396  1.00  0.00    -0.360 N 
HETATM   18  C4  UNL     1      -2.250   0.479  12.731  1.00  0.00     0.222 C 
HETATM   19  O2  UNL     1      -1.489   0.098  13.660  1.00  0.00    -0.273 OA
ATOM     20  H1  UNL     1      -2.372   0.695  10.631  1.00  0.00     0.162 HD
BRANCH  18  21
HETATM   21  C5  UNL     1      -3.601   1.001  13.000  1.00  0.00     0.084 C 
HETATM   22  C6  UNL     1      -3.729   2.324  12.282  1.00  0.00     0.020 C 
HETATM   23  C7  UNL     1      -3.595   3.419  13.280  1.00  0.00     0.080 C 
HETATM   24  C8  UNL     1      -3.192   2.749  14.556  1.00  0.00     0.244 C 
HETATM   25  F1  UNL     1      -1.794   2.632  14.540  1.00  0.00    -0.206 F 
HETATM   26  F2  UNL     1      -3.592   3.426  15.686  1.00  0.00    -0.206 F 
HETATM   27  C9  UNL     1      -3.785   1.350  14.474  1.00  0.00     0.093 C 
ENDBRANCH  18  21
ENDBRANCH  16  17
ENDBRANCH  15  16
ENDBRANCH  12  15
ENDBRANCH   1  11
BRANCH   9  28
HETATM   28  C18 UNL     1      -4.385   5.645   9.531  1.00  0.00     0.168 C 
BRANCH  28  29
HETATM   29  N4  UNL     1      -4.721   5.636  10.905  1.00  0.00    -0.313 N 
ATOM     30  H4  UNL     1      -4.827   4.755  11.408  1.00  0.00     0.172 HD
BRANCH  29  31
HETATM   31  S1  UNL     1      -4.941   7.095  11.688  1.00  0.00     0.265 S 
HETATM   32  O3  UNL     1      -5.073   6.831  13.185  1.00  0.00    -0.200 OA
HETATM   33  O4  UNL     1      -3.799   8.066  11.524  1.00  0.00    -0.200 OA
BRANCH  31  34
HETATM   34  C19 UNL     1      -6.396   7.963  11.244  1.00  0.00     0.119 A 
HETATM   35  C20 UNL     1      -7.629   8.054  11.805  1.00  0.00     0.033 A 
HETATM   36  C21 UNL     1      -8.546   8.835  11.205  1.00  0.00     0.009 A 
HETATM   37  C22 UNL     1      -8.166   9.485  10.061  1.00  0.00     0.051 A 
HETATM   38  S2  UNL     1      -6.549   8.992   9.858  1.00  0.00    -0.088 SA
ENDBRANCH  31  34
ENDBRANCH  29  31
ENDBRANCH  28  29
ENDBRANCH   9  28
TORSDOF 9
ENDMDL
MODEL 2
REMARK VINA RESULT: -9.627387846      4.739      8.189
REMARK  9 active torsions:
REMARK  status: ('A' for Active; 'I' for Inactive)
REMARK    1  A    between atoms: C1_2  and  C2_3 
REMARK       I    between atoms: C1_2  and  N2_16 
REMARK    2  A    between atoms: C2_3  and  C3_4 
REMARK    3  A    between atoms: C3_4  and  N1_5 
REMARK       I    between atoms: N1_5  and  C4_7 
REMARK    4  A    between atoms: C4_7  and  C5_9 
REMARK    5  A    between atoms: N2_16  and  C10_18 
REMARK    6  A    between atoms: C17_26  and  C18_27 
REMARK    7  A    between atoms: C18_27  and  N4_28 
REMARK    8  A    between atoms: N4_28  and  S1_30 
REMARK    9  A    between atoms: S1_30  and  C19_33 
ROOT
HETATM    1  C10 UNL     1      -2.122   0.904  12.755  1.00  0.00     0.086 C 
HETATM    2  C11 UNL     1      -3.498   0.577  13.242  1.00  0.00     0.027 C 
HETATM    3  C12 UNL     1      -4.131   1.497  14.198  1.00  0.00     0.038 C 
HETATM    4  C13 UNL     1      -3.468   2.821  14.239  1.00  0.00     0.223 C 
HETATM    5  C14 UNL     1      -4.043   3.733  15.315  1.00  0.00     0.037 C 
HETATM    6  C15 UNL     1      -4.987   4.617  14.567  1.00  0.00     0.032 C 
HETATM    7  C16 UNL     1      -4.690   4.391  13.113  1.00  0.00     0.273 C 
HETATM    8  N3  UNL     1      -3.504   3.595  13.032  1.00  0.00     0.099 N 
HETATM    9  C17 UNL     1      -3.288   2.910  11.814  1.00  0.00     0.243 C 
HETATM   10  C23 UNL     1      -2.045   2.080  11.842  1.00  0.00     0.062 C 
ENDROOT
BRANCH   1  11
HETATM   11  N2  UNL     1      -1.502  -0.286  12.164  1.00  0.00    -0.356 N 
HETATM   12  C1  UNL     1      -0.375  -0.934  12.713  1.00  0.00     0.219 C 
HETATM   13  O1  UNL     1       0.111  -0.454  13.770  1.00  0.00    -0.274 OA
ATOM     14  H2  UNL     1      -1.907  -0.667  11.310  1.00  0.00     0.162 HD
BRANCH  12  15
HETATM   15  C2  UNL     1       0.245  -2.125  12.116  1.00  0.00     0.122 C 
BRANCH  15  16
HETATM   16  C3  UNL     1       1.369  -1.742  11.183  1.00  0.00     0.132 C 
BRANCH  16  17
HETATM   17  N1  UNL     1       2.292  -2.831  11.042  1.00  0.00    -0.360 N 
HETATM   18  C4  UNL     1       3.174  -2.924   9.933  1.00  0.00     0.222 C 
HETATM   19  O2  UNL     1       3.130  -2.012   9.063  1.00  0.00    -0.273 OA
ATOM     20  H1  UNL     1       2.314  -3.559  11.757  1.00  0.00     0.162 HD
BRANCH  18  21
HETATM   21  C5  UNL     1       4.106  -4.059   9.819  1.00  0.00     0.084 C 
HETATM   22  C6  UNL     1       5.131  -3.704   8.767  1.00  0.00     0.020 C 
HETATM   23  C7  UNL     1       4.797  -4.434   7.515  1.00  0.00     0.080 C 
HETATM   24  C8  UNL     1       3.464  -5.067   7.766  1.00  0.00     0.244 C 
HETATM   25  F1  UNL     1       2.485  -4.117   7.439  1.00  0.00    -0.206 F 
HETATM   26  F2  UNL     1       3.255  -6.221   7.043  1.00  0.00    -0.206 F 
HETATM   27  C9  UNL     1       3.412  -5.302   9.268  1.00  0.00     0.093 C 
ENDBRANCH  18  21
ENDBRANCH  16  17
ENDBRANCH  15  16
ENDBRANCH  12  15
ENDBRANCH   1  11
BRANCH   9  28
HETATM   28  C18 UNL     1      -3.109   3.968  10.723  1.00  0.00     0.168 C 
BRANCH  28  29
HETATM   29  N4  UNL     1      -2.054   3.657   9.834  1.00  0.00    -0.313 N 
ATOM     30  H4  UNL     1      -1.753   2.691   9.702  1.00  0.00     0.172 HD
BRANCH  29  31
HETATM   31  S1  UNL     1      -1.312   4.901   9.002  1.00  0.00     0.265 S 
HETATM   32  O3  UNL     1      -2.126   5.201   7.747  1.00  0.00    -0.200 OA
HETATM   33  O4  UNL     1      -1.221   6.195   9.772  1.00  0.00    -0.200 OA
BRANCH  31  34
HETATM   34  C19 UNL     1       0.305   4.550   8.431  1.00  0.00     0.119 A 
HETATM   35  C20 UNL     1       1.062   3.423   8.425  1.00  0.00     0.033 A 
HETATM   36  C21 UNL     1       2.294   3.486   7.887  1.00  0.00     0.009 A 
HETATM   37  C22 UNL     1       2.699   4.692   7.381  1.00  0.00     0.051 A 
HETATM   38  S2  UNL     1       1.355   5.698   7.668  1.00  0.00    -0.088 SA
ENDBRANCH  31  34
ENDBRANCH  29  31
ENDBRANCH  28  29
ENDBRANCH   9  28
TORSDOF 9
ENDMDL
MODEL 3
REMARK VINA RESULT: -9.445338825      1.910      2.633
REMARK  9 active torsions:
REMARK  status: ('A' for Active; 'I' for Inactive)
REMARK    1  A    between atoms: C1_2  and  C2_3 
REMARK       I    between atoms: C1_2  and  N2_16 
REMARK    2  A    between atoms: C2_3  and  C3_4 
REMARK    3  A    between atoms: C3_4  and  N1_5 
REMARK       I    between atoms: N1_5  and  C4_7 
REMARK    4  A    between atoms: C4_7  and  C5_9 
REMARK    5  A    between atoms: N2_16  and  C10_18 
REMARK    6  A    between atoms: C17_26  and  C18_27 
REMARK    7  A    between atoms: C18_27  and  N4_28 
REMARK    8  A    between atoms: N4_28  and  S1_30 
REMARK    9  A    between atoms: S1_30  and  C19_33 
ROOT
HETATM    1  C10 UNL     1       0.532   2.452  10.034  1.00  0.00     0.086 C 
HETATM    2  C11 UNL     1       1.419   3.540  10.551  1.00  0.00     0.027 C 
HETATM    3  C12 UNL     1       2.120   4.385   9.572  1.00  0.00     0.038 C 
HETATM    4  C13 UNL     1       1.540   4.284   8.212  1.00  0.00     0.223 C 
HETATM    5  C14 UNL     1       2.339   5.060   7.174  1.00  0.00     0.037 C 
HETATM    6  C15 UNL     1       1.583   6.340   7.025  1.00  0.00     0.032 C 
HETATM    7  C16 UNL     1       0.271   6.121   7.720  1.00  0.00     0.273 C 
HETATM    8  N3  UNL     1       0.187   4.733   8.058  1.00  0.00     0.099 N 
HETATM    9  C17 UNL     1      -0.733   4.388   9.075  1.00  0.00     0.243 C 
HETATM   10  C23 UNL     1      -0.721   2.924   9.379  1.00  0.00     0.062 C 
ENDROOT
BRANCH   1  11
HETATM   11  N2  UNL     1       0.258   1.480  11.097  1.00  0.00    -0.356 N 
HETATM   12  C1  UNL     1       0.629   0.121  11.027  1.00  0.00     0.219 C 
HETATM   13  O1  UNL     1       1.230  -0.263   9.991  1.00  0.00    -0.274 OA
ATOM     14  H2  UNL     1      -0.227   1.804  11.933  1.00  0.00     0.162 HD
BRANCH  12  15
HETATM   15  C2  UNL     1       0.350  -0.850  12.095  1.00  0.00     0.122 C 
BRANCH  15  16
HETATM   16  C3  UNL     1      -0.987  -1.521  11.882  1.00  0.00     0.132 C 
BRANCH  16  17
HETATM   17  N1  UNL     1      -2.016  -0.817  12.591  1.00  0.00    -0.360 N 
HETATM   18  C4  UNL     1      -2.851   0.134  11.945  1.00  0.00     0.222 C 
HETATM   19  O2  UNL     1      -2.666   0.346  10.717  1.00  0.00    -0.273 OA
ATOM     20  H1  UNL     1      -2.151  -1.003  13.585  1.00  0.00     0.162 HD
BRANCH  18  21
HETATM   21  C5  UNL     1      -3.895   0.842  12.706  1.00  0.00     0.084 C 
HETATM   22  C6  UNL     1      -4.023   2.229  12.122  1.00  0.00     0.020 C 
HETATM   23  C7  UNL     1      -3.342   3.190  13.029  1.00  0.00     0.080 C 
HETATM   24  C8  UNL     1      -2.642   2.347  14.050  1.00  0.00     0.244 C 
HETATM   25  F1  UNL     1      -1.389   2.007  13.518  1.00  0.00    -0.206 F 
HETATM   26  F2  UNL     1      -2.479   2.973  15.266  1.00  0.00    -0.206 F 
HETATM   27  C9  UNL     1      -3.473   1.078  14.153  1.00  0.00     0.093 C 
ENDBRANCH  18  21
ENDBRANCH  16  17
ENDBRANCH  15  16
ENDBRANCH  12  15
ENDBRANCH   1  11
BRANCH   9  28
HETATM   28  C18 UNL     1      -2.131   4.739   8.562  1.00  0.00     0.168 C 
BRANCH  28  29
HETATM   29  N4  UNL     1      -3.042   5.007   9.610  1.00  0.00    -0.313 N 
ATOM     30  H4  UNL     1      -3.355   4.261  10.231  1.00  0.00     0.172 HD
BRANCH  29  31
HETATM   31  S1  UNL     1      -3.595   6.571   9.812  1.00  0.00     0.265 S 
HETATM   32  O3  UNL     1      -2.446   7.431  10.329  1.00  0.00    -0.200 OA
HETATM   33  O4  UNL     1      -4.082   7.226   8.544  1.00  0.00    -0.200 OA
BRANCH  31  34
HETATM   34  C19 UNL     1      -4.878   6.757  10.990  1.00  0.00     0.119 A 
HETATM   35  C20 UNL     1      -5.200   6.083  12.123  1.00  0.00     0.033 A 
HETATM   36  C21 UNL     1      -6.269   6.496  12.828  1.00  0.00     0.009 A 
HETATM   37  C22 UNL     1      -6.962   7.575  12.346  1.00  0.00     0.051 A 
HETATM   38  S2  UNL     1      -6.103   7.980  10.931  1.00  0.00    -0.088 SA
ENDBRANCH  31  34
ENDBRANCH  29  31
ENDBRANCH  28  29
ENDBRANCH   9  28
TORSDOF 9
ENDMDL
MODEL 4
REMARK VINA RESULT: -9.388072554      5.014      7.673
REMARK  9 active torsions:
REMARK  status: ('A' for Active; 'I' for Inactive)
REMARK    1  A    between atoms: C1_2  and  C2_3 
REMARK       I    between atoms: C1_2  and  N2_16 
REMARK    2  A    between atoms: C2_3  and  C3_4 
REMARK    3  A    between atoms: C3_4  and  N1_5 
REMARK       I    between atoms: N1_5  and  C4_7 
REMARK    4  A    between atoms: C4_7  and  C5_9 
REMARK    5  A    between atoms: N2_16  and  C10_18 
REMARK    6  A    between atoms: C17_26  and  C18_27 
REMARK    7  A    between atoms: C18_27  and  N4_28 
REMARK    8  A    between atoms: N4_28  and  S1_30 
REMARK    9  A    between atoms: S1_30  and  C19_33 
ROOT
HETATM    1  C10 UNL     1       2.179   3.867   8.568  1.00  0.00     0.086 C 
HETATM    2  C11 UNL     1       1.854   5.216   9.125  1.00  0.00     0.027 C 
HETATM    3  C12 UNL     1       0.557   5.815   8.777  1.00  0.00     0.038 C 
HETATM    4  C13 UNL     1      -0.403   4.823   8.240  1.00  0.00     0.223 C 
HETATM    5  C14 UNL     1      -1.701   5.461   7.764  1.00  0.00     0.037 C 
HETATM    6  C15 UNL     1      -2.645   5.243   8.902  1.00  0.00     0.032 C 
HETATM    7  C16 UNL     1      -1.967   4.258   9.810  1.00  0.00     0.273 C 
HETATM    8  N3  UNL     1      -0.805   3.773   9.130  1.00  0.00     0.099 N 
HETATM    9  C17 UNL     1       0.197   3.187   9.938  1.00  0.00     0.243 C 
HETATM   10  C23 UNL     1       1.382   2.744   9.141  1.00  0.00     0.062 C 
ENDROOT
BRANCH   1  11
HETATM   11  N2  UNL     1       3.620   3.616   8.664  1.00  0.00    -0.356 N 
HETATM   12  C1  UNL     1       4.395   3.097   7.606  1.00  0.00     0.219 C 
HETATM   13  O1  UNL     1       3.804   2.844   6.524  1.00  0.00    -0.274 OA
ATOM     14  H2  UNL     1       4.089   3.828   9.545  1.00  0.00     0.162 HD
BRANCH  12  15
HETATM   15  C2  UNL     1       5.840   2.846   7.708  1.00  0.00     0.122 C 
BRANCH  15  16
HETATM   16  C3  UNL     1       6.179   1.443   7.262  1.00  0.00     0.132 C 
BRANCH  16  17
HETATM   17  N1  UNL     1       5.223   0.510   7.783  1.00  0.00    -0.360 N 
HETATM   18  C4  UNL     1       5.563  -0.845   8.037  1.00  0.00     0.222 C 
HETATM   19  O2  UNL     1       6.743  -1.215   7.794  1.00  0.00    -0.273 OA
ATOM     20  H1  UNL     1       4.273   0.829   7.976  1.00  0.00     0.162 HD
BRANCH  18  21
HETATM   21  C5  UNL     1       4.553  -1.776   8.570  1.00  0.00     0.084 C 
HETATM   22  C6  UNL     1       5.128  -3.171   8.481  1.00  0.00     0.020 C 
HETATM   23  C7  UNL     1       4.506  -3.866   7.323  1.00  0.00     0.080 C 
HETATM   24  C8  UNL     1       3.709  -2.818   6.609  1.00  0.00     0.244 C 
HETATM   25  F1  UNL     1       4.579  -2.172   5.717  1.00  0.00    -0.206 F 
HETATM   26  F2  UNL     1       2.625  -3.320   5.924  1.00  0.00    -0.206 F 
HETATM   27  C9  UNL     1       3.310  -1.821   7.686  1.00  0.00     0.093 C 
ENDBRANCH  18  21
ENDBRANCH  16  17
ENDBRANCH  15  16
ENDBRANCH  12  15
ENDBRANCH   1  11
BRANCH   9  28
HETATM   28  C18 UNL     1      -0.412   1.941  10.585  1.00  0.00     0.168 C 
BRANCH  28  29
HETATM   29  N4  UNL     1       0.051   1.734  11.905  1.00  0.00    -0.313 N 
ATOM     30  H4  UNL     1       0.976   2.057  12.188  1.00  0.00     0.172 HD
BRANCH  29  31
HETATM   31  S1  UNL     1      -0.948   0.952  12.993  1.00  0.00     0.265 S 
HETATM   32  O3  UNL     1      -1.731  -0.124  12.248  1.00  0.00    -0.200 OA
HETATM   33  O4  UNL     1      -0.220   0.253  14.113  1.00  0.00    -0.200 OA
BRANCH  31  34
HETATM   34  C19 UNL     1      -2.160   1.966  13.747  1.00  0.00     0.119 A 
HETATM   35  C20 UNL     1      -2.345   2.399  15.021  1.00  0.00     0.033 A 
HETATM   36  C21 UNL     1      -3.397   3.198  15.276  1.00  0.00     0.009 A 
HETATM   37  C22 UNL     1      -4.214   3.517  14.224  1.00  0.00     0.051 A 
HETATM   38  S2  UNL     1      -3.492   2.699  12.916  1.00  0.00    -0.088 SA
ENDBRANCH  31  34
ENDBRANCH  29  31
ENDBRANCH  28  29
ENDBRANCH   9  28
TORSDOF 9
ENDMDL
MODEL 5
REMARK VINA RESULT: -9.382087403      5.418      8.057
REMARK  9 active torsions:
REMARK  status: ('A' for Active; 'I' for Inactive)
REMARK    1  A    between atoms: C1_2  and  C2_3 
REMARK       I    between atoms: C1_2  and  N2_16 
REMARK    2  A    between atoms: C2_3  and  C3_4 
REMARK    3  A    between atoms: C3_4  and  N1_5 
REMARK       I    between atoms: N1_5  and  C4_7 
REMARK    4  A    between atoms: C4_7  and  C5_9 
REMARK    5  A    between atoms: N2_16  and  C10_18 
REMARK    6  A    between atoms: C17_26  and  C18_27 
REMARK    7  A    between atoms: C18_27  and  N4_28 
REMARK    8  A    between atoms: N4_28  and  S1_30 
REMARK    9  A    between atoms: S1_30  and  C19_33 
ROOT
HETATM    1  C10 UNL     1       1.806   2.375   7.983  1.00  0.00     0.086 C 
HETATM    2  C11 UNL     1       1.902   3.795   8.440  1.00  0.00     0.027 C 
HETATM    3  C12 UNL     1       0.680   4.613   8.421  1.00  0.00     0.038 C 
HETATM    4  C13 UNL     1      -0.552   3.795   8.320  1.00  0.00     0.223 C 
HETATM    5  C14 UNL     1      -1.809   4.642   8.176  1.00  0.00     0.037 C 
HETATM    6  C15 UNL     1      -2.369   4.689   9.560  1.00  0.00     0.032 C 
HETATM    7  C16 UNL     1      -1.613   3.653  10.340  1.00  0.00     0.273 C 
HETATM    8  N3  UNL     1      -0.822   2.905   9.412  1.00  0.00     0.099 N 
HETATM    9  C17 UNL     1       0.272   2.189   9.952  1.00  0.00     0.243 C 
HETATM   10  C23 UNL     1       1.055   1.471   8.901  1.00  0.00     0.062 C 
ENDROOT
BRANCH   1  11
HETATM   11  N2  UNL     1       3.142   1.853   7.677  1.00  0.00    -0.356 N 
HETATM   12  C1  UNL     1       3.460   0.479   7.662  1.00  0.00     0.219 C 
HETATM   13  O1  UNL     1       2.535  -0.333   7.923  1.00  0.00    -0.274 OA
ATOM     14  H2  UNL     1       3.883   2.521   7.464  1.00  0.00     0.162 HD
BRANCH  12  15
HETATM   15  C2  UNL     1       4.802  -0.038   7.357  1.00  0.00     0.122 C 
BRANCH  15  16
HETATM   16  C3  UNL     1       5.145  -1.212   8.243  1.00  0.00     0.132 C 
BRANCH  16  17
HETATM   17  N1  UNL     1       5.125  -2.430   7.485  1.00  0.00    -0.360 N 
HETATM   18  C4  UNL     1       4.555  -3.623   8.004  1.00  0.00     0.222 C 
HETATM   19  O2  UNL     1       4.057  -3.587   9.161  1.00  0.00    -0.273 OA
ATOM     20  H1  UNL     1       5.532  -2.439   6.550  1.00  0.00     0.162 HD
BRANCH  18  21
HETATM   21  C5  UNL     1       4.556  -4.857   7.198  1.00  0.00     0.084 C 
HETATM   22  C6  UNL     1       5.103  -4.509   5.833  1.00  0.00     0.020 C 
HETATM   23  C7  UNL     1       3.968  -4.420   4.877  1.00  0.00     0.080 C 
HETATM   24  C8  UNL     1       2.731  -4.521   5.715  1.00  0.00     0.244 C 
HETATM   25  F1  UNL     1       2.422  -3.226   6.157  1.00  0.00    -0.206 F 
HETATM   26  F2  UNL     1       1.653  -5.057   5.046  1.00  0.00    -0.206 F 
HETATM   27  C9  UNL     1       3.138  -5.349   6.924  1.00  0.00     0.093 C 
ENDBRANCH  18  21
ENDBRANCH  16  17
ENDBRANCH  15  16
ENDBRANCH  12  15
ENDBRANCH   1  11
BRANCH   9  28
HETATM   28  C18 UNL     1      -0.301   1.132  10.899  1.00  0.00     0.168 C 
BRANCH  28  29
HETATM   29  N4  UNL     1       0.069   1.355  12.247  1.00  0.00    -0.313 N 
ATOM     30  H4  UNL     1       0.914   1.877  12.474  1.00  0.00     0.172 HD
BRANCH  29  31
HETATM   31  S1  UNL     1      -0.908   0.746  13.458  1.00  0.00     0.265 S 
HETATM   32  O3  UNL     1      -1.662  -0.463  12.914  1.00  0.00    -0.200 OA
HETATM   33  O4  UNL     1      -0.161   0.270  14.678  1.00  0.00    -0.200 OA
BRANCH  31  34
HETATM   34  C19 UNL     1      -2.147   1.843  14.032  1.00  0.00     0.119 A 
HETATM   35  C20 UNL     1      -2.328   2.504  15.204  1.00  0.00     0.033 A 
HETATM   36  C21 UNL     1      -3.407   3.300  15.325  1.00  0.00     0.009 A 
HETATM   37  C22 UNL     1      -4.251   3.384  14.250  1.00  0.00     0.051 A 
HETATM   38  S2  UNL     1      -3.518   2.356  13.106  1.00  0.00    -0.088 SA
ENDBRANCH  31  34
ENDBRANCH  29  31
ENDBRANCH  28  29
ENDBRANCH   9  28
TORSDOF 9
ENDMDL
