MODEL 1
REMARK VINA RESULT: -8.709457362      0.000      0.000
REMARK  14 active torsions:
REMARK  status: ('A' for Active; 'I' for Inactive)
REMARK    1  A    between atoms: C2_2  and  C4_4 
REMARK    2  A    between atoms: C4_4  and  N1_5 
REMARK    3  A    between atoms: C4_4  and  C14_22 
REMARK       I    between atoms: N1_5  and  C5_7 
REMARK    4  A    between atoms: C5_7  and  O2_9 
REMARK    5  A    between atoms: O2_9  and  C6_10 
REMARK    6  A    between atoms: C6_10  and  C7_11 
REMARK    7  A    between atoms: C12_18  and  C13_19 
REMARK    8  A    between atoms: C14_22  and  O5_23 
REMARK    9  A    between atoms: C14_22  and  N2_25 
REMARK   10  A    between atoms: C18_29  and  C19_30 
REMARK       I    between atoms: C19_30  and  N3_32 
REMARK   11  A    between atoms: N3_32  and  C20_34 
REMARK   12  A    between atoms: C20_34  and  C21_35 
REMARK   13  A    between atoms: C20_34  and  C22_38 
REMARK   14  A    between atoms: C21_35  and  O7_36 
ROOT
HETATM    1  C4  UNL     1      -1.596   0.619  12.618  1.00  0.00     0.164 C 
ENDROOT
BRANCH   1   2
HETATM    2  C2  UNL     1      -2.178  -0.384  11.638  1.00  0.00     0.008 C 
HETATM    3  C1  UNL     1      -3.643  -0.329  11.425  1.00  0.00     0.012 C 
HETATM    4  C3  UNL     1      -1.683  -1.796  11.874  1.00  0.00     0.012 C 
ENDBRANCH   1   2
BRANCH   1   5
HETATM    5  N1  UNL     1      -2.592   1.742  12.490  1.00  0.00    -0.325 N 
HETATM    6  C5  UNL     1      -2.869   2.590  13.577  1.00  0.00     0.361 C 
HETATM    7  O1  UNL     1      -2.260   2.387  14.646  1.00  0.00    -0.238 OA
ATOM      8  H1  UNL     1      -3.071   1.890  11.603  1.00  0.00     0.165 HD
BRANCH   6   9
HETATM    9  O2  UNL     1      -3.772   3.633  13.534  1.00  0.00    -0.304 OA
BRANCH   9  10
HETATM   10  C6  UNL     1      -4.611   3.758  12.401  1.00  0.00     0.186 C 
BRANCH  10  11
HETATM   11  C7  UNL     1      -4.745   5.194  11.961  1.00  0.00     0.030 C 
HETATM   12  C8  UNL     1      -4.746   5.380  10.480  1.00  0.00     0.086 C 
HETATM   13  C9  UNL     1      -4.701   6.880  10.215  1.00  0.00     0.244 C 
HETATM   14  F1  UNL     1      -4.652   7.155   8.871  1.00  0.00    -0.206 F 
HETATM   15  F2  UNL     1      -3.574   7.400  10.833  1.00  0.00    -0.206 F 
HETATM   16  C10 UNL     1      -5.922   7.542  10.782  1.00  0.00     0.080 C 
HETATM   17  C11 UNL     1      -6.138   7.233  12.257  1.00  0.00     0.021 C 
HETATM   18  C12 UNL     1      -6.044   5.752  12.511  1.00  0.00     0.093 C 
BRANCH  18  19
HETATM   19  C13 UNL     1      -6.082   5.498  13.964  1.00  0.00     0.177 C 
HETATM   20  O3  UNL     1      -6.988   4.777  14.444  1.00  0.00    -0.648 OA
HETATM   21  O4  UNL     1      -5.142   6.034  14.822  1.00  0.00    -0.648 OA
ENDBRANCH  18  19
ENDBRANCH  10  11
ENDBRANCH   9  10
ENDBRANCH   6   9
ENDBRANCH   1   5
BRANCH   1  22
HETATM   22  C14 UNL     1      -0.324   1.217  12.278  1.00  0.00     0.138 C 
BRANCH  22  23
HETATM   23  O5  UNL     1       0.506   1.485  13.254  1.00  0.00    -0.348 OA
ATOM     24  H5  UNL     1       1.125   0.811  13.508  1.00  0.00     0.219 HD
ENDBRANCH  22  23
BRANCH  22  25
HETATM   25  N2  UNL     1       0.212   1.576  10.993  1.00  0.00    -0.350 N 
HETATM   26  C15 UNL     1       0.476   0.552  10.023  1.00  0.00     0.126 C 
HETATM   27  C16 UNL     1       0.593   1.320   8.720  1.00  0.00     0.022 C 
HETATM   28  C17 UNL     1       1.346   2.577   9.203  1.00  0.00     0.037 C 
HETATM   29  C18 UNL     1       0.531   2.842  10.482  1.00  0.00     0.178 C 
BRANCH  29  30
HETATM   30  C19 UNL     1      -0.614   3.730  10.127  1.00  0.00     0.241 C 
HETATM   31  O6  UNL     1      -1.808   3.488  10.231  1.00  0.00    -0.271 OA
HETATM   32  N3  UNL     1      -0.235   5.028   9.600  1.00  0.00    -0.352 N 
ATOM     33  H3  UNL     1       0.755   5.261   9.517  1.00  0.00     0.163 HD
BRANCH  32  34
HETATM   34  C20 UNL     1      -1.226   6.001   9.186  1.00  0.00     0.115 C 
BRANCH  34  35
HETATM   35  C21 UNL     1      -0.668   7.369   9.641  1.00  0.00     0.190 C 
BRANCH  35  36
HETATM   36  O7  UNL     1       0.724   7.287   9.745  1.00  0.00    -0.399 OA
ATOM     37  H7  UNL     1       1.119   7.972   9.218  1.00  0.00     0.209 HD
ENDBRANCH  35  36
ENDBRANCH  34  35
BRANCH  34  38
HETATM   38  C22 UNL     1      -1.422   6.075   7.703  1.00  0.00    -0.029 C 
HETATM   39  C23 UNL     1      -1.924   7.461   7.294  1.00  0.00     0.016 C 
HETATM   40  C24 UNL     1      -0.111   5.871   6.961  1.00  0.00     0.016 C 
HETATM   41  C25 UNL     1      -2.385   5.031   7.188  1.00  0.00     0.016 C 
ENDBRANCH  34  38
ENDBRANCH  32  34
ENDBRANCH  29  30
ENDBRANCH  22  25
ENDBRANCH   1  22
TORSDOF 14
ENDMDL
MODEL 2
REMARK VINA RESULT: -8.347172404      2.982      6.088
REMARK  14 active torsions:
REMARK  status: ('A' for Active; 'I' for Inactive)
REMARK    1  A    between atoms: C2_2  and  C4_4 
REMARK    2  A    between atoms: C4_4  and  N1_5 
REMARK    3  A    between atoms: C4_4  and  C14_22 
REMARK       I    between atoms: N1_5  and  C5_7 
REMARK    4  A    between atoms: C5_7  and  O2_9 
REMARK    5  A    between atoms: O2_9  and  C6_10 
REMARK    6  A    between atoms: C6_10  and  C7_11 
REMARK    7  A    between atoms: C12_18  and  C13_19 
REMARK    8  A    between atoms: C14_22  and  O5_23 
REMARK    9  A    between atoms: C14_22  and  N2_25 
REMARK   10  A    between atoms: C18_29  and  C19_30 
REMARK       I    between atoms: C19_30  and  N3_32 
REMARK   11  A    between atoms: N3_32  and  C20_34 
REMARK   12  A    between atoms: C20_34  and  C21_35 
REMARK   13  A    between atoms: C20_34  and  C22_38 
REMARK   14  A    between atoms: C21_35  and  O7_36 
ROOT
HETATM    1  C4  UNL     1      -4.379   7.654   9.306  1.00  0.00     0.164 C 
ENDROOT
BRANCH   1   2
HETATM    2  C2  UNL     1      -5.256   8.632  10.067  1.00  0.00     0.008 C 
HETATM    3  C1  UNL     1      -6.126   8.060  11.120  1.00  0.00     0.012 C 
HETATM    4  C3  UNL     1      -6.002   9.587   9.159  1.00  0.00     0.012 C 
ENDBRANCH   1   2
BRANCH   1   5
HETATM    5  N1  UNL     1      -4.275   6.535  10.308  1.00  0.00    -0.325 N 
HETATM    6  C5  UNL     1      -4.064   5.208   9.893  1.00  0.00     0.361 C 
HETATM    7  O1  UNL     1      -3.960   4.989   8.669  1.00  0.00    -0.238 OA
ATOM      8  H1  UNL     1      -4.359   6.742  11.303  1.00  0.00     0.165 HD
BRANCH   6   9
HETATM    9  O2  UNL     1      -3.965   4.134  10.754  1.00  0.00    -0.304 OA
BRANCH   9  10
HETATM   10  C6  UNL     1      -4.833   4.077  11.870  1.00  0.00     0.186 C 
BRANCH  10  11
HETATM   11  C7  UNL     1      -4.264   3.225  12.976  1.00  0.00     0.030 C 
HETATM   12  C8  UNL     1      -3.025   2.482  12.597  1.00  0.00     0.086 C 
HETATM   13  C9  UNL     1      -2.694   1.542  13.750  1.00  0.00     0.244 C 
HETATM   14  F1  UNL     1      -1.589   0.775  13.476  1.00  0.00    -0.206 F 
HETATM   15  F2  UNL     1      -3.786   0.715  13.967  1.00  0.00    -0.206 F 
HETATM   16  C10 UNL     1      -2.418   2.330  14.996  1.00  0.00     0.080 C 
HETATM   17  C11 UNL     1      -3.541   3.293  15.355  1.00  0.00     0.021 C 
HETATM   18  C12 UNL     1      -3.939   4.117  14.160  1.00  0.00     0.093 C 
BRANCH  18  19
HETATM   19  C13 UNL     1      -5.139   4.912  14.486  1.00  0.00     0.177 C 
HETATM   20  O3  UNL     1      -6.171   4.335  14.901  1.00  0.00    -0.648 OA
HETATM   21  O4  UNL     1      -5.161   6.286  14.348  1.00  0.00    -0.648 OA
ENDBRANCH  18  19
ENDBRANCH  10  11
ENDBRANCH   9  10
ENDBRANCH   6   9
ENDBRANCH   1   5
BRANCH   1  22
HETATM   22  C14 UNL     1      -3.011   8.047   9.053  1.00  0.00     0.138 C 
BRANCH  22  23
HETATM   23  O5  UNL     1      -2.374   8.688  10.000  1.00  0.00    -0.348 OA
ATOM     24  H5  UNL     1      -2.145   8.206  10.786  1.00  0.00     0.219 HD
ENDBRANCH  22  23
BRANCH  22  25
HETATM   25  N2  UNL     1      -2.191   7.837   7.891  1.00  0.00    -0.350 N 
HETATM   26  C15 UNL     1      -2.114   8.856   6.883  1.00  0.00     0.126 C 
HETATM   27  C16 UNL     1      -0.873   8.481   6.095  1.00  0.00     0.022 C 
HETATM   28  C17 UNL     1      -1.008   6.943   6.076  1.00  0.00     0.037 C 
HETATM   29  C18 UNL     1      -1.387   6.739   7.555  1.00  0.00     0.178 C 
BRANCH  29  30
HETATM   30  C19 UNL     1      -0.128   6.564   8.336  1.00  0.00     0.241 C 
HETATM   31  O6  UNL     1       0.350   7.328   9.163  1.00  0.00    -0.271 OA
HETATM   32  N3  UNL     1       0.592   5.335   8.062  1.00  0.00    -0.352 N 
ATOM     33  H3  UNL     1       0.207   4.673   7.387  1.00  0.00     0.163 HD
BRANCH  32  34
HETATM   34  C20 UNL     1       1.844   5.022   8.721  1.00  0.00     0.115 C 
BRANCH  34  35
HETATM   35  C21 UNL     1       1.529   3.825   9.647  1.00  0.00     0.190 C 
BRANCH  35  36
HETATM   36  O7  UNL     1       2.162   4.015  10.878  1.00  0.00    -0.399 OA
ATOM     37  H7  UNL     1       2.068   3.229  11.404  1.00  0.00     0.209 HD
ENDBRANCH  35  36
ENDBRANCH  34  35
BRANCH  34  38
HETATM   38  C22 UNL     1       2.929   4.582   7.786  1.00  0.00    -0.029 C 
HETATM   39  C23 UNL     1       2.844   5.346   6.464  1.00  0.00     0.016 C 
HETATM   40  C24 UNL     1       4.306   4.886   8.355  1.00  0.00     0.016 C 
HETATM   41  C25 UNL     1       2.888   3.099   7.501  1.00  0.00     0.016 C 
ENDBRANCH  34  38
ENDBRANCH  32  34
ENDBRANCH  29  30
ENDBRANCH  22  25
ENDBRANCH   1  22
TORSDOF 14
ENDMDL
MODEL 3
REMARK VINA RESULT: -8.263901192      2.770      6.143
REMARK  14 active torsions:
REMARK  status: ('A' for Active; 'I' for Inactive)
REMARK    1  A    between atoms: C2_2  and  C4_4 
REMARK    2  A    between atoms: C4_4  and  N1_5 
REMARK    3  A    between atoms: C4_4  and  C14_22 
REMARK       I    between atoms: N1_5  and  C5_7 
REMARK    4  A    between atoms: C5_7  and  O2_9 
REMARK    5  A    between atoms: O2_9  and  C6_10 
REMARK    6  A    between atoms: C6_10  and  C7_11 
REMARK    7  A    between atoms: C12_18  and  C13_19 
REMARK    8  A    between atoms: C14_22  and  O5_23 
REMARK    9  A    between atoms: C14_22  and  N2_25 
REMARK   10  A    between atoms: C18_29  and  C19_30 
REMARK       I    between atoms: C19_30  and  N3_32 
REMARK   11  A    between atoms: N3_32  and  C20_34 
REMARK   12  A    between atoms: C20_34  and  C21_35 
REMARK   13  A    between atoms: C20_34  and  C22_38 
REMARK   14  A    between atoms: C21_35  and  O7_36 
ROOT
HETATM    1  C4  UNL     1      -4.800   7.341  10.100  1.00  0.00     0.164 C 
ENDROOT
BRANCH   1   2
HETATM    2  C2  UNL     1      -5.768   8.363  10.670  1.00  0.00     0.008 C 
HETATM    3  C1  UNL     1      -6.772   7.859  11.634  1.00  0.00     0.012 C 
HETATM    4  C3  UNL     1      -6.383   9.250   9.608  1.00  0.00     0.012 C 
ENDBRANCH   1   2
BRANCH   1   5
HETATM    5  N1  UNL     1      -4.473   6.548  11.338  1.00  0.00    -0.325 N 
HETATM    6  C5  UNL     1      -4.228   5.165  11.268  1.00  0.00     0.361 C 
HETATM    7  O1  UNL     1      -4.286   4.618  10.148  1.00  0.00    -0.238 OA
ATOM      8  H1  UNL     1      -4.427   7.022  12.240  1.00  0.00     0.165 HD
BRANCH   6   9
HETATM    9  O2  UNL     1      -3.928   4.376  12.360  1.00  0.00    -0.304 OA
BRANCH   9  10
HETATM   10  C6  UNL     1      -4.319   3.016  12.341  1.00  0.00     0.186 C 
BRANCH  10  11
HETATM   11  C7  UNL     1      -3.137   2.094  12.503  1.00  0.00     0.030 C 
HETATM   12  C8  UNL     1      -2.162   2.148  11.373  1.00  0.00     0.086 C 
HETATM   13  C9  UNL     1      -1.144   1.039  11.603  1.00  0.00     0.244 C 
HETATM   14  F1  UNL     1      -0.225   0.975  10.584  1.00  0.00    -0.206 F 
HETATM   15  F2  UNL     1      -1.822  -0.168  11.686  1.00  0.00    -0.206 F 
HETATM   16  C10 UNL     1      -0.402   1.276  12.885  1.00  0.00     0.080 C 
HETATM   17  C11 UNL     1      -1.325   1.457  14.083  1.00  0.00     0.021 C 
HETATM   18  C12 UNL     1      -2.403   2.462  13.779  1.00  0.00     0.093 C 
BRANCH  18  19
HETATM   19  C13 UNL     1      -3.379   2.488  14.886  1.00  0.00     0.177 C 
HETATM   20  O3  UNL     1      -4.035   1.456  15.158  1.00  0.00    -0.648 OA
HETATM   21  O4  UNL     1      -3.596   3.626  15.639  1.00  0.00    -0.648 OA
ENDBRANCH  18  19
ENDBRANCH  10  11
ENDBRANCH   9  10
ENDBRANCH   6   9
ENDBRANCH   1   5
BRANCH   1  22
HETATM   22  C14 UNL     1      -3.523   7.827   9.628  1.00  0.00     0.138 C 
BRANCH  22  23
HETATM   23  O5  UNL     1      -2.906   8.728  10.351  1.00  0.00    -0.348 OA
ATOM     24  H5  UNL     1      -2.012   8.547  10.616  1.00  0.00     0.219 HD
ENDBRANCH  22  23
BRANCH  22  25
HETATM   25  N2  UNL     1      -2.778   7.469   8.452  1.00  0.00    -0.350 N 
HETATM   26  C15 UNL     1      -2.761   8.356   7.324  1.00  0.00     0.126 C 
HETATM   27  C16 UNL     1      -1.573   7.875   6.513  1.00  0.00     0.022 C 
HETATM   28  C17 UNL     1      -1.712   6.348   6.691  1.00  0.00     0.037 C 
HETATM   29  C18 UNL     1      -1.998   6.330   8.204  1.00  0.00     0.178 C 
BRANCH  29  30
HETATM   30  C19 UNL     1      -0.694   6.240   8.923  1.00  0.00     0.241 C 
HETATM   31  O6  UNL     1      -0.291   6.951   9.832  1.00  0.00    -0.271 OA
HETATM   32  N3  UNL     1       0.179   5.175   8.465  1.00  0.00    -0.352 N 
ATOM     33  H3  UNL     1      -0.139   4.559   7.717  1.00  0.00     0.163 HD
BRANCH  32  34
HETATM   34  C20 UNL     1       1.492   4.965   9.043  1.00  0.00     0.115 C 
BRANCH  34  35
HETATM   35  C21 UNL     1       1.333   3.746   9.980  1.00  0.00     0.190 C 
BRANCH  35  36
HETATM   36  O7  UNL     1       2.094   3.950  11.135  1.00  0.00    -0.399 OA
ATOM     37  H7  UNL     1       1.912   4.816  11.482  1.00  0.00     0.209 HD
ENDBRANCH  35  36
ENDBRANCH  34  35
BRANCH  34  38
HETATM   38  C22 UNL     1       2.548   4.615   8.040  1.00  0.00    -0.029 C 
HETATM   39  C23 UNL     1       2.480   3.131   7.680  1.00  0.00     0.016 C 
HETATM   40  C24 UNL     1       2.344   5.371   6.736  1.00  0.00     0.016 C 
HETATM   41  C25 UNL     1       3.942   4.941   8.523  1.00  0.00     0.016 C 
ENDBRANCH  34  38
ENDBRANCH  32  34
ENDBRANCH  29  30
ENDBRANCH  22  25
ENDBRANCH   1  22
TORSDOF 14
ENDMDL
MODEL 4
REMARK VINA RESULT: -8.205660813      3.108      6.386
REMARK  14 active torsions:
REMARK  status: ('A' for Active; 'I' for Inactive)
REMARK    1  A    between atoms: C2_2  and  C4_4 
REMARK    2  A    between atoms: C4_4  and  N1_5 
REMARK    3  A    between atoms: C4_4  and  C14_22 
REMARK       I    between atoms: N1_5  and  C5_7 
REMARK    4  A    between atoms: C5_7  and  O2_9 
REMARK    5  A    between atoms: O2_9  and  C6_10 
REMARK    6  A    between atoms: C6_10  and  C7_11 
REMARK    7  A    between atoms: C12_18  and  C13_19 
REMARK    8  A    between atoms: C14_22  and  O5_23 
REMARK    9  A    between atoms: C14_22  and  N2_25 
REMARK   10  A    between atoms: C18_29  and  C19_30 
REMARK       I    between atoms: C19_30  and  N3_32 
REMARK   11  A    between atoms: N3_32  and  C20_34 
REMARK   12  A    between atoms: C20_34  and  C21_35 
REMARK   13  A    between atoms: C20_34  and  C22_38 
REMARK   14  A    between atoms: C21_35  and  O7_36 
ROOT
HETATM    1  C4  UNL     1      -1.891  -0.091  10.996  1.00  0.00     0.164 C 
ENDROOT
BRANCH   1   2
HETATM    2  C2  UNL     1      -1.017  -1.138  11.663  1.00  0.00     0.008 C 
HETATM    3  C1  UNL     1      -1.679  -2.406  12.048  1.00  0.00     0.012 C 
HETATM    4  C3  UNL     1      -0.163  -0.572  12.779  1.00  0.00     0.012 C 
ENDBRANCH   1   2
BRANCH   1   5
HETATM    5  N1  UNL     1      -0.996   1.117  11.090  1.00  0.00    -0.325 N 
HETATM    6  C5  UNL     1      -0.336   1.619   9.954  1.00  0.00     0.361 C 
HETATM    7  O1  UNL     1      -0.521   1.036   8.867  1.00  0.00    -0.238 OA
ATOM      8  H1  UNL     1      -0.868   1.578  11.990  1.00  0.00     0.165 HD
BRANCH   6   9
HETATM    9  O2  UNL     1       0.501   2.716   9.966  1.00  0.00    -0.304 OA
BRANCH   9  10
HETATM   10  C6  UNL     1       0.325   3.715   8.980  1.00  0.00     0.186 C 
BRANCH  10  11
HETATM   11  C7  UNL     1       1.643   4.177   8.412  1.00  0.00     0.030 C 
HETATM   12  C8  UNL     1       2.426   3.100   7.736  1.00  0.00     0.086 C 
HETATM   13  C9  UNL     1       3.790   3.685   7.391  1.00  0.00     0.244 C 
HETATM   14  F1  UNL     1       4.607   2.751   6.803  1.00  0.00    -0.206 F 
HETATM   15  F2  UNL     1       4.380   4.142   8.560  1.00  0.00    -0.206 F 
HETATM   16  C10 UNL     1       3.633   4.833   6.438  1.00  0.00     0.080 C 
HETATM   17  C11 UNL     1       2.670   5.899   6.942  1.00  0.00     0.021 C 
HETATM   18  C12 UNL     1       1.379   5.277   7.401  1.00  0.00     0.093 C 
BRANCH  18  19
HETATM   19  C13 UNL     1       0.537   6.306   8.042  1.00  0.00     0.177 C 
HETATM   20  O3  UNL     1       1.030   7.049   8.923  1.00  0.00    -0.648 OA
HETATM   21  O4  UNL     1      -0.790   6.478   7.700  1.00  0.00    -0.648 OA
ENDBRANCH  18  19
ENDBRANCH  10  11
ENDBRANCH   9  10
ENDBRANCH   6   9
ENDBRANCH   1   5
BRANCH   1  22
HETATM   22  C14 UNL     1      -3.102   0.297  11.683  1.00  0.00     0.138 C 
BRANCH  22  23
HETATM   23  O5  UNL     1      -4.184  -0.406  11.461  1.00  0.00    -0.348 OA
ATOM     24  H5  UNL     1      -4.919  -0.288  12.051  1.00  0.00     0.219 HD
ENDBRANCH  22  23
BRANCH  22  25
HETATM   25  N2  UNL     1      -3.331   1.367  12.617  1.00  0.00    -0.350 N 
HETATM   26  C15 UNL     1      -2.714   1.322  13.912  1.00  0.00     0.126 C 
HETATM   27  C16 UNL     1      -2.817   2.754  14.402  1.00  0.00     0.022 C 
HETATM   28  C17 UNL     1      -4.221   3.128  13.881  1.00  0.00     0.037 C 
HETATM   29  C18 UNL     1      -4.095   2.533  12.466  1.00  0.00     0.178 C 
BRANCH  29  30
HETATM   30  C19 UNL     1      -3.539   3.587  11.567  1.00  0.00     0.241 C 
HETATM   31  O6  UNL     1      -2.463   3.583  10.988  1.00  0.00    -0.271 OA
HETATM   32  N3  UNL     1      -4.401   4.739  11.379  1.00  0.00    -0.352 N 
ATOM     33  H3  UNL     1      -5.311   4.760  11.839  1.00  0.00     0.163 HD
BRANCH  32  34
HETATM   34  C20 UNL     1      -4.001   5.861  10.553  1.00  0.00     0.115 C 
BRANCH  34  35
HETATM   35  C21 UNL     1      -4.494   5.514   9.129  1.00  0.00     0.190 C 
BRANCH  35  36
HETATM   36  O7  UNL     1      -3.407   5.106   8.351  1.00  0.00    -0.399 OA
ATOM     37  H7  UNL     1      -3.457   4.167   8.210  1.00  0.00     0.209 HD
ENDBRANCH  35  36
ENDBRANCH  34  35
BRANCH  34  38
HETATM   38  C22 UNL     1      -4.645   7.158  10.938  1.00  0.00    -0.029 C 
HETATM   39  C23 UNL     1      -5.250   7.064  12.339  1.00  0.00     0.016 C 
HETATM   40  C24 UNL     1      -3.625   8.284  10.999  1.00  0.00     0.016 C 
HETATM   41  C25 UNL     1      -5.718   7.589   9.966  1.00  0.00     0.016 C 
ENDBRANCH  34  38
ENDBRANCH  32  34
ENDBRANCH  29  30
ENDBRANCH  22  25
ENDBRANCH   1  22
TORSDOF 14
ENDMDL
MODEL 5
REMARK VINA RESULT: -8.182419547      2.439      5.951
REMARK  14 active torsions:
REMARK  status: ('A' for Active; 'I' for Inactive)
REMARK    1  A    between atoms: C2_2  and  C4_4 
REMARK    2  A    between atoms: C4_4  and  N1_5 
REMARK    3  A    between atoms: C4_4  and  C14_22 
REMARK       I    between atoms: N1_5  and  C5_7 
REMARK    4  A    between atoms: C5_7  and  O2_9 
REMARK    5  A    between atoms: O2_9  and  C6_10 
REMARK    6  A    between atoms: C6_10  and  C7_11 
REMARK    7  A    between atoms: C12_18  and  C13_19 
REMARK    8  A    between atoms: C14_22  and  O5_23 
REMARK    9  A    between atoms: C14_22  and  N2_25 
REMARK   10  A    between atoms: C18_29  and  C19_30 
REMARK       I    between atoms: C19_30  and  N3_32 
REMARK   11  A    between atoms: N3_32  and  C20_34 
REMARK   12  A    between atoms: C20_34  and  C21_35 
REMARK   13  A    between atoms: C20_34  and  C22_38 
REMARK   14  A    between atoms: C21_35  and  O7_36 
ROOT
HETATM    1  C4  UNL     1      -1.030   5.359   8.680  1.00  0.00     0.164 C 
ENDROOT
BRANCH   1   2
HETATM    2  C2  UNL     1      -0.814   6.804   8.267  1.00  0.00     0.008 C 
HETATM    3  C1  UNL     1      -1.236   7.841   9.236  1.00  0.00     0.012 C 
HETATM    4  C3  UNL     1      -1.302   7.095   6.862  1.00  0.00     0.012 C 
ENDBRANCH   1   2
BRANCH   1   5
HETATM    5  N1  UNL     1      -1.792   5.548   9.965  1.00  0.00    -0.325 N 
HETATM    6  C5  UNL     1      -3.162   5.241  10.047  1.00  0.00     0.361 C 
HETATM    7  O1  UNL     1      -3.723   4.801   9.024  1.00  0.00    -0.238 OA
ATOM      8  H1  UNL     1      -1.307   5.905  10.789  1.00  0.00     0.165 HD
BRANCH   6   9
HETATM    9  O2  UNL     1      -3.923   5.395  11.188  1.00  0.00    -0.304 OA
BRANCH   9  10
HETATM   10  C6  UNL     1      -4.871   4.395  11.511  1.00  0.00     0.186 C 
BRANCH  10  11
HETATM   11  C7  UNL     1      -4.559   3.737  12.831  1.00  0.00     0.030 C 
HETATM   12  C8  UNL     1      -3.239   3.039  12.868  1.00  0.00     0.086 C 
HETATM   13  C9  UNL     1      -3.166   2.283  14.188  1.00  0.00     0.244 C 
HETATM   14  F1  UNL     1      -2.001   1.565  14.297  1.00  0.00    -0.206 F 
HETATM   15  F2  UNL     1      -4.247   1.417  14.258  1.00  0.00    -0.206 F 
HETATM   16  C10 UNL     1      -3.231   3.244  15.338  1.00  0.00     0.080 C 
HETATM   17  C11 UNL     1      -4.441   4.165  15.278  1.00  0.00     0.021 C 
HETATM   18  C12 UNL     1      -4.564   4.797  13.918  1.00  0.00     0.093 C 
BRANCH  18  19
HETATM   19  C13 UNL     1      -5.835   5.543  13.833  1.00  0.00     0.177 C 
HETATM   20  O3  UNL     1      -5.833   6.726  13.420  1.00  0.00    -0.648 OA
HETATM   21  O4  UNL     1      -7.039   4.973  14.198  1.00  0.00    -0.648 OA
ENDBRANCH  18  19
ENDBRANCH  10  11
ENDBRANCH   9  10
ENDBRANCH   6   9
ENDBRANCH   1   5
BRANCH   1  22
HETATM   22  C14 UNL     1       0.138   4.595   9.057  1.00  0.00     0.138 C 
BRANCH  22  23
HETATM   23  O5  UNL     1       1.065   5.199   9.757  1.00  0.00    -0.348 OA
ATOM     24  H5  UNL     1       1.751   5.656   9.285  1.00  0.00     0.219 HD
ENDBRANCH  22  23
BRANCH  22  25
HETATM   25  N2  UNL     1       0.467   3.221   8.789  1.00  0.00    -0.350 N 
HETATM   26  C15 UNL     1       1.721   2.899   8.169  1.00  0.00     0.126 C 
HETATM   27  C16 UNL     1       1.887   1.418   8.454  1.00  0.00     0.022 C 
HETATM   28  C17 UNL     1       0.432   0.935   8.276  1.00  0.00     0.037 C 
HETATM   29  C18 UNL     1      -0.270   2.059   9.060  1.00  0.00     0.178 C 
BRANCH  29  30
HETATM   30  C19 UNL     1      -0.363   1.642  10.489  1.00  0.00     0.241 C 
HETATM   31  O6  UNL     1       0.000   2.266  11.475  1.00  0.00    -0.271 OA
HETATM   32  N3  UNL     1      -0.958   0.336  10.702  1.00  0.00    -0.352 N 
ATOM     33  H3  UNL     1      -1.283  -0.200   9.897  1.00  0.00     0.163 HD
BRANCH  32  34
HETATM   34  C20 UNL     1      -1.102  -0.228  12.030  1.00  0.00     0.115 C 
BRANCH  34  35
HETATM   35  C21 UNL     1      -2.519  -0.846  12.057  1.00  0.00     0.190 C 
BRANCH  35  36
HETATM   36  O7  UNL     1      -3.389  -0.040  11.317  1.00  0.00    -0.399 OA
ATOM     37  H7  UNL     1      -4.238  -0.021  11.743  1.00  0.00     0.209 HD
ENDBRANCH  35  36
ENDBRANCH  34  35
BRANCH  34  38
HETATM   38  C22 UNL     1      -0.134  -1.331  12.330  1.00  0.00    -0.029 C 
HETATM   39  C23 UNL     1       0.348  -1.246  13.779  1.00  0.00     0.016 C 
HETATM   40  C24 UNL     1      -0.789  -2.696  12.188  1.00  0.00     0.016 C 
HETATM   41  C25 UNL     1       1.065  -1.321  11.411  1.00  0.00     0.016 C 
ENDBRANCH  34  38
ENDBRANCH  32  34
ENDBRANCH  29  30
ENDBRANCH  22  25
ENDBRANCH   1  22
TORSDOF 14
ENDMDL
