MODEL 1
REMARK VINA RESULT: -8.902182142      0.000      0.000
REMARK  13 active torsions:
REMARK  status: ('A' for Active; 'I' for Inactive)
REMARK    1  A    between atoms: C2_2  and  C3_3 
REMARK    2  A    between atoms: C2_2  and  C4_8 
REMARK    3  A    between atoms: C3_3  and  N1_4 
REMARK    4  A    between atoms: C4_8  and  C5_9 
REMARK    5  A    between atoms: C5_9  and  O2_11 
REMARK    6  A    between atoms: O2_11  and  C6_12 
REMARK    7  A    between atoms: C12_18  and  O3_19 
REMARK    8  A    between atoms: O3_19  and  C13_20 
REMARK    9  A    between atoms: C13_20  and  C14_22 
REMARK   10  A    between atoms: C15_23  and  C16_24 
REMARK   11  A    between atoms: C24_33  and  O5_34 
REMARK   12  A    between atoms: C25_36  and  O6_37 
REMARK   13  A    between atoms: C26_39  and  O7_40 
ROOT
HETATM    1  C6  UNL     1      23.458   4.973   1.838  1.00  0.00     0.085 C 
HETATM    2  C7  UNL     1      24.143   4.004   1.289  1.00  0.00     0.018 C 
HETATM    3  C8  UNL     1      23.614   2.656   1.037  1.00  0.00     0.062 C 
HETATM    4  C9  UNL     1      24.331   1.595   1.841  1.00  0.00    -0.007 C 
HETATM    5  C10 UNL     1      25.814   1.726   1.465  1.00  0.00     0.018 C 
HETATM    6  C11 UNL     1      24.211   1.733   3.312  1.00  0.00     0.018 C 
HETATM    7  C12 UNL     1      23.892   0.252   1.302  1.00  0.00     0.163 C 
HETATM    8  C22 UNL     1      22.435   0.115   1.418  1.00  0.00     0.005 C 
HETATM    9  C23 UNL     1      21.674   1.176   1.298  1.00  0.00     0.012 C 
HETATM   10  C24 UNL     1      22.134   2.567   1.047  1.00  0.00     0.112 C 
HETATM   11  C25 UNL     1      21.457   3.461   2.032  1.00  0.00     0.192 C 
HETATM   12  C26 UNL     1      22.073   4.780   2.256  1.00  0.00     0.207 C 
ENDROOT
BRANCH   7  13
HETATM   13  O3  UNL     1      24.615  -0.812   1.865  1.00  0.00    -0.308 OA
BRANCH  13  14
HETATM   14  C13 UNL     1      24.856  -2.015   1.242  1.00  0.00     0.283 C 
HETATM   15  O4  UNL     1      23.937  -2.880   1.298  1.00  0.00    -0.260 OA
BRANCH  14  16
HETATM   16  C14 UNL     1      26.111  -2.321   0.530  1.00  0.00     0.083 C 
HETATM   17  C15 UNL     1      26.871  -1.343   0.121  1.00  0.00     0.017 C 
BRANCH  17  18
HETATM   18  C16 UNL     1      28.123  -1.565  -0.588  1.00  0.00    -0.036 A 
HETATM   19  C17 UNL     1      29.323  -1.078  -0.095  1.00  0.00     0.014 A 
HETATM   20  C18 UNL     1      30.536  -1.240  -0.692  1.00  0.00     0.043 A 
HETATM   21  C19 UNL     1      30.565  -1.951  -1.892  1.00  0.00     0.116 A 
HETATM   22  F1  UNL     1      31.770  -2.116  -2.493  1.00  0.00    -0.206 F 
HETATM   23  C20 UNL     1      29.403  -2.449  -2.414  1.00  0.00     0.043 A 
HETATM   24  C21 UNL     1      28.191  -2.262  -1.774  1.00  0.00     0.014 A 
ENDBRANCH  17  18
ENDBRANCH  14  16
ENDBRANCH  13  14
ENDBRANCH   7  13
BRANCH  10  25
HETATM   25  O5  UNL     1      21.617   2.899  -0.231  1.00  0.00    -0.382 OA
ATOM     26  H5  UNL     1      21.027   2.219  -0.532  1.00  0.00     0.211 HD
ENDBRANCH  10  25
BRANCH   1  27
HETATM   27  O2  UNL     1      24.063   6.247   2.041  1.00  0.00    -0.281 OA
BRANCH  27  28
HETATM   28  C5  UNL     1      24.857   6.694   0.972  1.00  0.00     0.264 C 
HETATM   29  O1  UNL     1      24.284   7.039  -0.070  1.00  0.00    -0.265 OA
BRANCH  28  30
HETATM   30  C4  UNL     1      26.325   6.757   1.068  1.00  0.00     0.117 C 
BRANCH  30  31
HETATM   31  C2  UNL     1      26.918   5.839   0.031  1.00  0.00     0.016 C 
HETATM   32  C1  UNL     1      27.724   6.670  -0.935  1.00  0.00     0.012 C 
BRANCH  31  33
HETATM   33  C3  UNL     1      27.757   4.745   0.663  1.00  0.00     0.234 C 
BRANCH  33  34
HETATM   34  N1  UNL     1      28.209   3.843  -0.356  1.00  0.00    -0.079 N 
ATOM     35  H13 UNL     1      27.448   3.285  -0.743  1.00  0.00     0.274 HD
ATOM     36  H12 UNL     1      28.480   4.331  -1.210  1.00  0.00     0.274 HD
ATOM     37  H11 UNL     1      28.962   3.264   0.014  1.00  0.00     0.274 HD
ENDBRANCH  33  34
ENDBRANCH  31  33
ENDBRANCH  30  31
ENDBRANCH  28  30
ENDBRANCH  27  28
ENDBRANCH   1  27
BRANCH  11  38
HETATM   38  O6  UNL     1      21.219   2.807   3.266  1.00  0.00    -0.389 OA
ATOM     39  H6  UNL     1      21.222   3.414   3.997  1.00  0.00     0.210 HD
ENDBRANCH  11  38
BRANCH  12  40
HETATM   40  O7  UNL     1      22.029   5.119   3.634  1.00  0.00    -0.386 OA
ATOM     41  H7  UNL     1      22.495   4.426   4.089  1.00  0.00     0.210 HD
ENDBRANCH  12  40
TORSDOF 13
ENDMDL
MODEL 2
REMARK VINA RESULT: -8.701999237      4.214      8.991
REMARK  13 active torsions:
REMARK  status: ('A' for Active; 'I' for Inactive)
REMARK    1  A    between atoms: C2_2  and  C3_3 
REMARK    2  A    between atoms: C2_2  and  C4_8 
REMARK    3  A    between atoms: C3_3  and  N1_4 
REMARK    4  A    between atoms: C4_8  and  C5_9 
REMARK    5  A    between atoms: C5_9  and  O2_11 
REMARK    6  A    between atoms: O2_11  and  C6_12 
REMARK    7  A    between atoms: C12_18  and  O3_19 
REMARK    8  A    between atoms: O3_19  and  C13_20 
REMARK    9  A    between atoms: C13_20  and  C14_22 
REMARK   10  A    between atoms: C15_23  and  C16_24 
REMARK   11  A    between atoms: C24_33  and  O5_34 
REMARK   12  A    between atoms: C25_36  and  O6_37 
REMARK   13  A    between atoms: C26_39  and  O7_40 
ROOT
HETATM    1  C6  UNL     1      27.274  -1.327  -0.397  1.00  0.00     0.085 C 
HETATM    2  C7  UNL     1      26.859  -0.090  -0.314  1.00  0.00     0.018 C 
HETATM    3  C8  UNL     1      27.369   1.012  -1.142  1.00  0.00     0.062 C 
HETATM    4  C9  UNL     1      28.082   2.067  -0.326  1.00  0.00    -0.007 C 
HETATM    5  C10 UNL     1      27.060   2.539   0.718  1.00  0.00     0.018 C 
HETATM    6  C11 UNL     1      29.293   1.596   0.389  1.00  0.00     0.018 C 
HETATM    7  C12 UNL     1      28.315   3.254  -1.233  1.00  0.00     0.163 C 
HETATM    8  C22 UNL     1      29.115   2.849  -2.397  1.00  0.00     0.005 C 
HETATM    9  C23 UNL     1      28.982   1.639  -2.883  1.00  0.00     0.012 C 
HETATM   10  C24 UNL     1      28.076   0.578  -2.372  1.00  0.00     0.112 C 
HETATM   11  C25 UNL     1      28.870  -0.678  -2.230  1.00  0.00     0.192 C 
HETATM   12  C26 UNL     1      28.308  -1.717  -1.350  1.00  0.00     0.207 C 
ENDROOT
BRANCH   7  13
HETATM   13  O3  UNL     1      28.828   4.362  -0.542  1.00  0.00    -0.308 OA
BRANCH  13  14
HETATM   14  C13 UNL     1      28.750   5.665  -0.977  1.00  0.00     0.283 C 
HETATM   15  O4  UNL     1      29.376   5.952  -2.036  1.00  0.00    -0.260 OA
BRANCH  14  16
HETATM   16  C14 UNL     1      27.981   6.709  -0.272  1.00  0.00     0.083 C 
HETATM   17  C15 UNL     1      26.862   6.392   0.319  1.00  0.00     0.017 C 
BRANCH  17  18
HETATM   18  C16 UNL     1      26.049   7.366   1.033  1.00  0.00    -0.036 A 
HETATM   19  C17 UNL     1      26.250   8.727   0.870  1.00  0.00     0.014 A 
HETATM   20  C18 UNL     1      25.538   9.703   1.497  1.00  0.00     0.043 A 
HETATM   21  C19 UNL     1      24.530   9.294   2.370  1.00  0.00     0.116 A 
HETATM   22  F1  UNL     1      23.816  10.261   2.999  1.00  0.00    -0.206 F 
HETATM   23  C20 UNL     1      24.298   7.959   2.561  1.00  0.00     0.043 A 
HETATM   24  C21 UNL     1      25.046   7.000   1.902  1.00  0.00     0.014 A 
ENDBRANCH  17  18
ENDBRANCH  14  16
ENDBRANCH  13  14
ENDBRANCH   7  13
BRANCH  10  25
HETATM   25  O5  UNL     1      27.143   0.357  -3.417  1.00  0.00    -0.382 OA
ATOM     26  H5  UNL     1      27.492   0.678  -4.239  1.00  0.00     0.211 HD
ENDBRANCH  10  25
BRANCH   1  27
HETATM   27  O2  UNL     1      26.715  -2.324   0.454  1.00  0.00    -0.281 OA
BRANCH  27  28
HETATM   28  C5  UNL     1      25.425  -2.033   0.927  1.00  0.00     0.264 C 
HETATM   29  O1  UNL     1      24.591  -2.948   0.936  1.00  0.00    -0.265 OA
BRANCH  28  30
HETATM   30  C4  UNL     1      25.056  -0.688   1.399  1.00  0.00     0.117 C 
BRANCH  30  31
HETATM   31  C2  UNL     1      23.593  -0.462   1.121  1.00  0.00     0.016 C 
HETATM   32  C1  UNL     1      22.955   0.106   2.365  1.00  0.00     0.012 C 
BRANCH  31  33
HETATM   33  C3  UNL     1      23.382   0.442  -0.078  1.00  0.00     0.234 C 
BRANCH  33  34
HETATM   34  N1  UNL     1      22.551  -0.226  -1.036  1.00  0.00    -0.079 N 
ATOM     35  H13 UNL     1      21.704  -0.608  -0.614  1.00  0.00     0.274 HD
ATOM     36  H12 UNL     1      22.109   0.425  -1.685  1.00  0.00     0.274 HD
ATOM     37  H11 UNL     1      23.097  -0.940  -1.518  1.00  0.00     0.274 HD
ENDBRANCH  33  34
ENDBRANCH  31  33
ENDBRANCH  30  31
ENDBRANCH  28  30
ENDBRANCH  27  28
ENDBRANCH   1  27
BRANCH  11  38
HETATM   38  O6  UNL     1      30.220  -0.417  -1.891  1.00  0.00    -0.389 OA
ATOM     39  H6  UNL     1      30.297   0.042  -1.062  1.00  0.00     0.210 HD
ENDBRANCH  11  38
BRANCH  12  40
HETATM   40  O7  UNL     1      29.337  -2.326  -0.584  1.00  0.00    -0.386 OA
ATOM     41  H7  UNL     1      30.070  -2.444  -1.177  1.00  0.00     0.210 HD
ENDBRANCH  12  40
TORSDOF 13
ENDMDL
MODEL 3
REMARK VINA RESULT: -8.523685912      4.215      7.529
REMARK  13 active torsions:
REMARK  status: ('A' for Active; 'I' for Inactive)
REMARK    1  A    between atoms: C2_2  and  C3_3 
REMARK    2  A    between atoms: C2_2  and  C4_8 
REMARK    3  A    between atoms: C3_3  and  N1_4 
REMARK    4  A    between atoms: C4_8  and  C5_9 
REMARK    5  A    between atoms: C5_9  and  O2_11 
REMARK    6  A    between atoms: O2_11  and  C6_12 
REMARK    7  A    between atoms: C12_18  and  O3_19 
REMARK    8  A    between atoms: O3_19  and  C13_20 
REMARK    9  A    between atoms: C13_20  and  C14_22 
REMARK   10  A    between atoms: C15_23  and  C16_24 
REMARK   11  A    between atoms: C24_33  and  O5_34 
REMARK   12  A    between atoms: C25_36  and  O6_37 
REMARK   13  A    between atoms: C26_39  and  O7_40 
ROOT
HETATM    1  C6  UNL     1      20.531   1.198   1.222  1.00  0.00     0.085 C 
HETATM    2  C7  UNL     1      21.405   2.052   0.759  1.00  0.00     0.018 C 
HETATM    3  C8  UNL     1      22.798   1.716   0.430  1.00  0.00     0.062 C 
HETATM    4  C9  UNL     1      23.791   2.440   1.312  1.00  0.00    -0.007 C 
HETATM    5  C10 UNL     1      23.487   3.934   1.134  1.00  0.00     0.018 C 
HETATM    6  C11 UNL     1      23.699   2.117   2.757  1.00  0.00     0.018 C 
HETATM    7  C12 UNL     1      25.162   2.227   0.712  1.00  0.00     0.163 C 
HETATM    8  C22 UNL     1      25.462   0.792   0.637  1.00  0.00     0.005 C 
HETATM    9  C23 UNL     1      24.489  -0.062   0.427  1.00  0.00     0.012 C 
HETATM   10  C24 UNL     1      23.051   0.266   0.248  1.00  0.00     0.112 C 
HETATM   11  C25 UNL     1      22.260  -0.628   1.143  1.00  0.00     0.192 C 
HETATM   12  C26 UNL     1      20.886  -0.198   1.454  1.00  0.00     0.207 C 
ENDROOT
BRANCH   7  13
HETATM   13  O3  UNL     1      26.151   2.988   1.356  1.00  0.00    -0.308 OA
BRANCH  13  14
HETATM   14  C13 UNL     1      27.051   3.809   0.717  1.00  0.00     0.283 C 
HETATM   15  O4  UNL     1      27.949   3.246   0.029  1.00  0.00    -0.260 OA
BRANCH  14  16
HETATM   16  C14 UNL     1      27.005   5.282   0.801  1.00  0.00     0.083 C 
HETATM   17  C15 UNL     1      25.903   5.867   1.181  1.00  0.00     0.017 C 
BRANCH  17  18
HETATM   18  C16 UNL     1      25.780   7.314   1.288  1.00  0.00    -0.036 A 
HETATM   19  C17 UNL     1      24.657   7.900   1.852  1.00  0.00     0.014 A 
HETATM   20  C18 UNL     1      24.461   9.240   1.991  1.00  0.00     0.043 A 
HETATM   21  C19 UNL     1      25.473  10.082   1.528  1.00  0.00     0.116 A 
HETATM   22  F1  UNL     1      25.285  11.419   1.663  1.00  0.00    -0.206 F 
HETATM   23  C20 UNL     1      26.598   9.546   0.965  1.00  0.00     0.043 A 
HETATM   24  C21 UNL     1      26.756   8.177   0.843  1.00  0.00     0.014 A 
ENDBRANCH  17  18
ENDBRANCH  14  16
ENDBRANCH  13  14
ENDBRANCH   7  13
BRANCH  10  25
HETATM   25  O5  UNL     1      22.750  -0.117  -1.084  1.00  0.00    -0.382 OA
ATOM     26  H5  UNL     1      21.909   0.239  -1.344  1.00  0.00     0.211 HD
ENDBRANCH  10  25
BRANCH   1  27
HETATM   27  O2  UNL     1      19.202   1.625   1.511  1.00  0.00    -0.281 OA
BRANCH  27  28
HETATM   28  C5  UNL     1      19.113   2.889   2.116  1.00  0.00     0.264 C 
HETATM   29  O1  UNL     1      19.055   3.882   1.379  1.00  0.00    -0.265 OA
BRANCH  28  30
HETATM   30  C4  UNL     1      19.089   3.049   3.580  1.00  0.00     0.117 C 
BRANCH  30  31
HETATM   31  C2  UNL     1      20.479   3.384   4.053  1.00  0.00     0.016 C 
HETATM   32  C1  UNL     1      20.570   4.877   4.244  1.00  0.00     0.012 C 
BRANCH  31  33
HETATM   33  C3  UNL     1      20.836   2.635   5.322  1.00  0.00     0.234 C 
BRANCH  33  34
HETATM   34  N1  UNL     1      20.807   1.224   5.066  1.00  0.00    -0.079 N 
ATOM     35  H13 UNL     1      21.615   0.912   4.528  1.00  0.00     0.274 HD
ATOM     36  H12 UNL     1      20.972   0.675   5.910  1.00  0.00     0.274 HD
ATOM     37  H11 UNL     1      19.925   0.981   4.614  1.00  0.00     0.274 HD
ENDBRANCH  33  34
ENDBRANCH  31  33
ENDBRANCH  30  31
ENDBRANCH  28  30
ENDBRANCH  27  28
ENDBRANCH   1  27
BRANCH  11  38
HETATM   38  O6  UNL     1      22.962  -0.947   2.331  1.00  0.00    -0.389 OA
ATOM     39  H6  UNL     1      22.376  -1.073   3.068  1.00  0.00     0.210 HD
ENDBRANCH  11  38
BRANCH  12  40
HETATM   40  O7  UNL     1      20.584  -0.457   2.818  1.00  0.00    -0.386 OA
ATOM     41  H7  UNL     1      19.674  -0.729   2.837  1.00  0.00     0.210 HD
ENDBRANCH  12  40
TORSDOF 13
ENDMDL
MODEL 4
REMARK VINA RESULT: -8.522480902      2.337      5.397
REMARK  13 active torsions:
REMARK  status: ('A' for Active; 'I' for Inactive)
REMARK    1  A    between atoms: C2_2  and  C3_3 
REMARK    2  A    between atoms: C2_2  and  C4_8 
REMARK    3  A    between atoms: C3_3  and  N1_4 
REMARK    4  A    between atoms: C4_8  and  C5_9 
REMARK    5  A    between atoms: C5_9  and  O2_11 
REMARK    6  A    between atoms: O2_11  and  C6_12 
REMARK    7  A    between atoms: C12_18  and  O3_19 
REMARK    8  A    between atoms: O3_19  and  C13_20 
REMARK    9  A    between atoms: C13_20  and  C14_22 
REMARK   10  A    between atoms: C15_23  and  C16_24 
REMARK   11  A    between atoms: C24_33  and  O5_34 
REMARK   12  A    between atoms: C25_36  and  O6_37 
REMARK   13  A    between atoms: C26_39  and  O7_40 
ROOT
HETATM    1  C6  UNL     1      21.050   1.662   2.501  1.00  0.00     0.085 C 
HETATM    2  C7  UNL     1      22.145   2.030   3.112  1.00  0.00     0.018 C 
HETATM    3  C8  UNL     1      22.935   3.216   2.751  1.00  0.00     0.062 C 
HETATM    4  C9  UNL     1      24.317   2.859   2.252  1.00  0.00    -0.007 C 
HETATM    5  C10 UNL     1      24.963   2.041   3.379  1.00  0.00     0.018 C 
HETATM    6  C11 UNL     1      24.347   2.046   1.013  1.00  0.00     0.018 C 
HETATM    7  C12 UNL     1      25.111   4.144   2.174  1.00  0.00     0.163 C 
HETATM    8  C22 UNL     1      24.447   5.092   1.271  1.00  0.00     0.005 C 
HETATM    9  C23 UNL     1      23.138   5.097   1.188  1.00  0.00     0.012 C 
HETATM   10  C24 UNL     1      22.204   4.214   1.933  1.00  0.00     0.112 C 
HETATM   11  C25 UNL     1      21.236   3.636   0.954  1.00  0.00     0.192 C 
HETATM   12  C26 UNL     1      20.514   2.425   1.379  1.00  0.00     0.207 C 
ENDROOT
BRANCH   7  13
HETATM   13  O3  UNL     1      26.464   3.918   1.875  1.00  0.00    -0.308 OA
BRANCH  13  14
HETATM   14  C13 UNL     1      27.092   4.323   0.719  1.00  0.00     0.283 C 
HETATM   15  O4  UNL     1      27.341   5.557   0.608  1.00  0.00    -0.260 OA
BRANCH  14  16
HETATM   16  C14 UNL     1      27.476   3.396  -0.362  1.00  0.00     0.083 C 
HETATM   17  C15 UNL     1      27.755   2.155  -0.071  1.00  0.00     0.017 C 
BRANCH  17  18
HETATM   18  C16 UNL     1      28.142   1.181  -1.083  1.00  0.00    -0.036 A 
HETATM   19  C17 UNL     1      28.471  -0.121  -0.737  1.00  0.00     0.014 A 
HETATM   20  C18 UNL     1      28.842  -1.092  -1.615  1.00  0.00     0.043 A 
HETATM   21  C19 UNL     1      28.895  -0.743  -2.965  1.00  0.00     0.116 A 
HETATM   22  F1  UNL     1      29.264  -1.706  -3.847  1.00  0.00    -0.206 F 
HETATM   23  C20 UNL     1      28.578   0.531  -3.350  1.00  0.00     0.043 A 
HETATM   24  C21 UNL     1      28.205   1.487  -2.423  1.00  0.00     0.014 A 
ENDBRANCH  17  18
ENDBRANCH  14  16
ENDBRANCH  13  14
ENDBRANCH   7  13
BRANCH  10  25
HETATM   25  O5  UNL     1      21.466   5.086   2.773  1.00  0.00    -0.382 OA
ATOM     26  H5  UNL     1      20.635   4.689   3.005  1.00  0.00     0.211 HD
ENDBRANCH  10  25
BRANCH   1  27
HETATM   27  O2  UNL     1      20.355   0.493   2.928  1.00  0.00    -0.281 OA
BRANCH  27  28
HETATM   28  C5  UNL     1      21.181  -0.611   3.199  1.00  0.00     0.264 C 
HETATM   29  O1  UNL     1      21.719  -0.673   4.312  1.00  0.00    -0.265 OA
BRANCH  28  30
HETATM   30  C4  UNL     1      21.412  -1.671   2.203  1.00  0.00     0.117 C 
BRANCH  30  31
HETATM   31  C2  UNL     1      22.458  -1.199   1.228  1.00  0.00     0.016 C 
HETATM   32  C1  UNL     1      23.725  -1.980   1.476  1.00  0.00     0.012 C 
BRANCH  31  33
HETATM   33  C3  UNL     1      21.990  -1.334  -0.208  1.00  0.00     0.234 C 
BRANCH  33  34
HETATM   34  N1  UNL     1      22.530  -0.257  -0.986  1.00  0.00    -0.079 N 
ATOM     35  H13 UNL     1      22.514   0.630  -0.483  1.00  0.00     0.274 HD
ATOM     36  H12 UNL     1      23.540  -0.337  -1.108  1.00  0.00     0.274 HD
ATOM     37  H11 UNL     1      22.037  -0.204  -1.878  1.00  0.00     0.274 HD
ENDBRANCH  33  34
ENDBRANCH  31  33
ENDBRANCH  30  31
ENDBRANCH  28  30
ENDBRANCH  27  28
ENDBRANCH   1  27
BRANCH  11  38
HETATM   38  O6  UNL     1      21.822   3.444  -0.321  1.00  0.00    -0.389 OA
ATOM     39  H6  UNL     1      22.472   2.751  -0.314  1.00  0.00     0.210 HD
ENDBRANCH  11  38
BRANCH  12  40
HETATM   40  O7  UNL     1      20.406   1.510   0.299  1.00  0.00    -0.386 OA
ATOM     41  H7  UNL     1      20.391   2.037  -0.491  1.00  0.00     0.210 HD
ENDBRANCH  12  40
TORSDOF 13
ENDMDL
MODEL 5
REMARK VINA RESULT: -8.431021677      3.039      5.156
REMARK  13 active torsions:
REMARK  status: ('A' for Active; 'I' for Inactive)
REMARK    1  A    between atoms: C2_2  and  C3_3 
REMARK    2  A    between atoms: C2_2  and  C4_8 
REMARK    3  A    between atoms: C3_3  and  N1_4 
REMARK    4  A    between atoms: C4_8  and  C5_9 
REMARK    5  A    between atoms: C5_9  and  O2_11 
REMARK    6  A    between atoms: O2_11  and  C6_12 
REMARK    7  A    between atoms: C12_18  and  O3_19 
REMARK    8  A    between atoms: O3_19  and  C13_20 
REMARK    9  A    between atoms: C13_20  and  C14_22 
REMARK   10  A    between atoms: C15_23  and  C16_24 
REMARK   11  A    between atoms: C24_33  and  O5_34 
REMARK   12  A    between atoms: C25_36  and  O6_37 
REMARK   13  A    between atoms: C26_39  and  O7_40 
ROOT
HETATM    1  C6  UNL     1      21.455   3.649   2.410  1.00  0.00     0.085 C 
HETATM    2  C7  UNL     1      22.399   4.111   1.633  1.00  0.00     0.018 C 
HETATM    3  C8  UNL     1      23.440   3.280   1.012  1.00  0.00     0.062 C 
HETATM    4  C9  UNL     1      24.827   3.621   1.512  1.00  0.00    -0.007 C 
HETATM    5  C10 UNL     1      25.013   5.116   1.220  1.00  0.00     0.018 C 
HETATM    6  C11 UNL     1      25.043   3.401   2.963  1.00  0.00     0.018 C 
HETATM    7  C12 UNL     1      25.814   2.904   0.620  1.00  0.00     0.163 C 
HETATM    8  C22 UNL     1      25.573   1.456   0.661  1.00  0.00     0.005 C 
HETATM    9  C23 UNL     1      24.350   1.009   0.818  1.00  0.00     0.012 C 
HETATM   10  C24 UNL     1      23.122   1.833   0.965  1.00  0.00     0.112 C 
HETATM   11  C25 UNL     1      22.360   1.318   2.141  1.00  0.00     0.192 C 
HETATM   12  C26 UNL     1      21.363   2.228   2.729  1.00  0.00     0.207 C 
ENDROOT
BRANCH   7  13
HETATM   13  O3  UNL     1      27.142   3.273   0.887  1.00  0.00    -0.308 OA
BRANCH  13  14
HETATM   14  C13 UNL     1      28.126   3.413  -0.065  1.00  0.00     0.283 C 
HETATM   15  O4  UNL     1      28.582   4.578  -0.246  1.00  0.00    -0.260 OA
BRANCH  14  16
HETATM   16  C14 UNL     1      28.653   2.286  -0.857  1.00  0.00     0.083 C 
HETATM   17  C15 UNL     1      28.892   1.146  -0.268  1.00  0.00     0.017 C 
BRANCH  17  18
HETATM   18  C16 UNL     1      29.413  -0.011  -0.982  1.00  0.00    -0.036 A 
HETATM   19  C17 UNL     1      30.263  -0.914  -0.362  1.00  0.00     0.014 A 
HETATM   20  C18 UNL     1      30.795  -2.019  -0.954  1.00  0.00     0.043 A 
HETATM   21  C19 UNL     1      30.453  -2.254  -2.286  1.00  0.00     0.116 A 
HETATM   22  F1  UNL     1      30.979  -3.353  -2.882  1.00  0.00    -0.206 F 
HETATM   23  C20 UNL     1      29.616  -1.388  -2.935  1.00  0.00     0.043 A 
HETATM   24  C21 UNL     1      29.098  -0.277  -2.295  1.00  0.00     0.014 A 
ENDBRANCH  17  18
ENDBRANCH  14  16
ENDBRANCH  13  14
ENDBRANCH   7  13
BRANCH  10  25
HETATM   25  O5  UNL     1      22.345   1.542  -0.185  1.00  0.00    -0.382 OA
ATOM     26  H5  UNL     1      21.882   0.721  -0.068  1.00  0.00     0.211 HD
ENDBRANCH  10  25
BRANCH   1  27
HETATM   27  O2  UNL     1      20.490   4.540   2.965  1.00  0.00    -0.281 OA
BRANCH  27  28
HETATM   28  C5  UNL     1      19.219   4.469   2.372  1.00  0.00     0.264 C 
HETATM   29  O1  UNL     1      19.160   4.358   1.141  1.00  0.00    -0.265 OA
BRANCH  28  30
HETATM   30  C4  UNL     1      17.984   4.522   3.173  1.00  0.00     0.117 C 
BRANCH  30  31
HETATM   31  C2  UNL     1      18.251   5.324   4.420  1.00  0.00     0.016 C 
HETATM   32  C1  UNL     1      17.268   6.467   4.470  1.00  0.00     0.012 C 
BRANCH  31  33
HETATM   33  C3  UNL     1      18.173   4.465   5.668  1.00  0.00     0.234 C 
BRANCH  33  34
HETATM   34  N1  UNL     1      19.396   3.732   5.818  1.00  0.00    -0.079 N 
ATOM     35  H13 UNL     1      20.218   4.314   5.652  1.00  0.00     0.274 HD
ATOM     36  H12 UNL     1      19.584   3.489   6.791  1.00  0.00     0.274 HD
ATOM     37  H11 UNL     1      19.376   2.913   5.211  1.00  0.00     0.274 HD
ENDBRANCH  33  34
ENDBRANCH  31  33
ENDBRANCH  30  31
ENDBRANCH  28  30
ENDBRANCH  27  28
ENDBRANCH   1  27
BRANCH  11  38
HETATM   38  O6  UNL     1      23.217   0.804   3.145  1.00  0.00    -0.389 OA
ATOM     39  H6  UNL     1      23.058   1.208   3.990  1.00  0.00     0.210 HD
ENDBRANCH  11  38
BRANCH  12  40
HETATM   40  O7  UNL     1      21.389   2.142   4.146  1.00  0.00    -0.386 OA
ATOM     41  H7  UNL     1      20.932   1.339   4.368  1.00  0.00     0.210 HD
ENDBRANCH  12  40
TORSDOF 13
ENDMDL
