MODEL 1
REMARK VINA RESULT: -9.691564399      0.000      0.000
REMARK  9 active torsions:
REMARK  status: ('A' for Active; 'I' for Inactive)
REMARK    1  A    between atoms: C1_2  and  C2_4 
REMARK    2  A    between atoms: C2_4  and  C3_5 
REMARK    3  A    between atoms: C3_5  and  N1_6 
REMARK    4  A    between atoms: C3_5  and  C23_33 
REMARK       I    between atoms: N1_6  and  C4_8 
REMARK    5  A    between atoms: C4_8  and  C5_10 
REMARK    6  A    between atoms: C8_13  and  N2_14 
REMARK    7  A    between atoms: N2_14  and  C9_16 
REMARK    8  A    between atoms: N4_27  and  C18_28 
REMARK    9  A    between atoms: C23_33  and  C24_35 
ROOT
HETATM    1  C5  UNL     1      17.657  17.777   5.810  1.00  0.00     0.104 A 
HETATM    2  C6  UNL     1      17.004  18.930   5.411  1.00  0.00     0.053 A 
HETATM    3  C7  UNL     1      15.729  18.563   5.058  1.00  0.00     0.037 A 
HETATM    4  C8  UNL     1      14.636  19.292   4.582  1.00  0.00     0.114 A 
HETATM    5  N3  UNL     1      13.476  18.689   4.302  1.00  0.00    -0.352 N 
ATOM      6  H3  UNL     1      12.679  19.222   3.954  1.00  0.00     0.166 HD
HETATM    7  C15 UNL     1      13.390  17.377   4.491  1.00  0.00     0.092 A 
HETATM    8  C16 UNL     1      14.440  16.593   4.961  1.00  0.00     0.048 A 
HETATM    9  C17 UNL     1      15.629  17.217   5.246  1.00  0.00     0.050 A 
HETATM   10  N4  UNL     1      16.824  16.735   5.711  1.00  0.00    -0.337 N 
ENDROOT
BRANCH   1  11
HETATM   11  C4  UNL     1      19.060  17.820   6.249  1.00  0.00     0.269 C 
HETATM   12  N1  UNL     1      19.374  18.398   7.501  1.00  0.00    -0.344 N 
ATOM     13  H1  UNL     1      18.635  18.777   8.094  1.00  0.00     0.163 HD
HETATM   14  O3  UNL     1      19.946  17.347   5.505  1.00  0.00    -0.266 OA
BRANCH  12  15
HETATM   15  C3  UNL     1      20.780  18.445   7.939  1.00  0.00     0.170 C 
BRANCH  15  16
HETATM   16  C2  UNL     1      20.793  17.777   9.277  1.00  0.00     0.146 C 
BRANCH  16  17
HETATM   17  C1  UNL     1      20.781  16.321   9.297  1.00  0.00     0.174 C 
HETATM   18  O1  UNL     1      21.035  15.662   8.225  1.00  0.00    -0.648 OA
HETATM   19  O2  UNL     1      20.500  15.626  10.448  1.00  0.00    -0.648 OA
ENDBRANCH  16  17
ENDBRANCH  15  16
BRANCH  15  20
HETATM   20  C23 UNL     1      21.203  19.855   7.924  1.00  0.00     0.213 C 
HETATM   21  O4  UNL     1      21.510  20.350   8.999  1.00  0.00    -0.290 OA
BRANCH  20  22
HETATM   22  C24 UNL     1      21.269  20.686   6.713  1.00  0.00     0.424 C 
HETATM   23  F1  UNL     1      21.808  19.943   5.652  1.00  0.00    -0.206 F 
HETATM   24  F2  UNL     1      20.094  21.229   6.324  1.00  0.00    -0.206 F 
ENDBRANCH  20  22
ENDBRANCH  15  20
ENDBRANCH  12  15
ENDBRANCH   1  11
BRANCH  10  25
HETATM   25  C18 UNL     1      17.086  15.366   6.002  1.00  0.00     0.090 C 
HETATM   26  C19 UNL     1      16.001  14.403   5.567  1.00  0.00     0.026 C 
HETATM   27  C20 UNL     1      15.944  13.355   6.656  1.00  0.00     0.002 C 
HETATM   28  C21 UNL     1      17.187  13.564   7.493  1.00  0.00     0.002 C 
HETATM   29  C22 UNL     1      17.321  15.076   7.487  1.00  0.00     0.026 C 
ENDBRANCH  10  25
BRANCH   4  30
HETATM   30  N2  UNL     1      14.817  20.541   4.435  1.00  0.00    -0.371 N 
ATOM     31  H2  UNL     1      15.218  21.023   5.240  1.00  0.00     0.161 HD
BRANCH  30  32
HETATM   32  C9  UNL     1      14.540  21.363   3.310  1.00  0.00     0.083 C 
HETATM   33  C10 UNL     1      13.655  22.552   3.610  1.00  0.00     0.025 C 
HETATM   34  C11 UNL     1      13.343  23.257   2.311  1.00  0.00     0.002 C 
HETATM   35  C12 UNL     1      14.582  23.669   1.574  1.00  0.00     0.000 C 
HETATM   36  C13 UNL     1      15.766  23.379   2.440  1.00  0.00     0.002 C 
HETATM   37  C14 UNL     1      15.890  21.952   2.868  1.00  0.00     0.025 C 
ENDBRANCH  30  32
ENDBRANCH   4  30
TORSDOF 9
ENDMDL
MODEL 2
REMARK VINA RESULT: -9.558993777      3.960      8.066
REMARK  9 active torsions:
REMARK  status: ('A' for Active; 'I' for Inactive)
REMARK    1  A    between atoms: C1_2  and  C2_4 
REMARK    2  A    between atoms: C2_4  and  C3_5 
REMARK    3  A    between atoms: C3_5  and  N1_6 
REMARK    4  A    between atoms: C3_5  and  C23_33 
REMARK       I    between atoms: N1_6  and  C4_8 
REMARK    5  A    between atoms: C4_8  and  C5_10 
REMARK    6  A    between atoms: C8_13  and  N2_14 
REMARK    7  A    between atoms: N2_14  and  C9_16 
REMARK    8  A    between atoms: N4_27  and  C18_28 
REMARK    9  A    between atoms: C23_33  and  C24_35 
ROOT
HETATM    1  C5  UNL     1      16.493  16.887   5.380  1.00  0.00     0.104 A 
HETATM    2  C6  UNL     1      17.706  16.632   5.995  1.00  0.00     0.053 A 
HETATM    3  C7  UNL     1      18.430  17.797   5.945  1.00  0.00     0.037 A 
HETATM    4  C8  UNL     1      19.708  18.133   6.398  1.00  0.00     0.114 A 
HETATM    5  N3  UNL     1      20.200  19.364   6.221  1.00  0.00    -0.352 N 
ATOM      6  H3  UNL     1      21.134  19.608   6.551  1.00  0.00     0.166 HD
HETATM    7  C15 UNL     1      19.438  20.260   5.603  1.00  0.00     0.092 A 
HETATM    8  C16 UNL     1      18.159  19.990   5.128  1.00  0.00     0.048 A 
HETATM    9  C17 UNL     1      17.659  18.725   5.310  1.00  0.00     0.050 A 
HETATM   10  N4  UNL     1      16.462  18.157   4.963  1.00  0.00    -0.337 N 
ENDROOT
BRANCH   1  11
HETATM   11  C4  UNL     1      15.475  15.832   5.256  1.00  0.00     0.269 C 
HETATM   12  N1  UNL     1      14.959  15.231   6.428  1.00  0.00    -0.344 N 
ATOM     13  H1  UNL     1      15.287  15.528   7.348  1.00  0.00     0.163 HD
HETATM   14  O3  UNL     1      15.089  15.487   4.120  1.00  0.00    -0.266 OA
BRANCH  12  15
HETATM   15  C3  UNL     1      13.943  14.171   6.306  1.00  0.00     0.170 C 
BRANCH  15  16
HETATM   16  C2  UNL     1      12.637  14.854   6.557  1.00  0.00     0.146 C 
BRANCH  16  17
HETATM   17  C1  UNL     1      12.568  15.769   7.687  1.00  0.00     0.174 C 
HETATM   18  O1  UNL     1      12.868  17.007   7.531  1.00  0.00    -0.648 OA
HETATM   19  O2  UNL     1      12.185  15.335   8.933  1.00  0.00    -0.648 OA
ENDBRANCH  16  17
ENDBRANCH  15  16
BRANCH  15  20
HETATM   20  C23 UNL     1      14.299  13.102   7.253  1.00  0.00     0.213 C 
HETATM   21  O4  UNL     1      13.471  12.219   7.425  1.00  0.00    -0.290 OA
BRANCH  20  22
HETATM   22  C24 UNL     1      15.568  13.042   7.994  1.00  0.00     0.424 C 
HETATM   23  F1  UNL     1      15.323  13.140   9.372  1.00  0.00    -0.206 F 
HETATM   24  F2  UNL     1      16.322  11.946   7.752  1.00  0.00    -0.206 F 
ENDBRANCH  20  22
ENDBRANCH  15  20
ENDBRANCH  12  15
ENDBRANCH   1  11
BRANCH  10  25
HETATM   25  C18 UNL     1      15.417  18.832   4.270  1.00  0.00     0.090 C 
HETATM   26  C19 UNL     1      15.868  20.001   3.419  1.00  0.00     0.026 C 
HETATM   27  C20 UNL     1      14.779  21.040   3.567  1.00  0.00     0.002 C 
HETATM   28  C21 UNL     1      13.615  20.326   4.217  1.00  0.00     0.002 C 
HETATM   29  C22 UNL     1      14.319  19.388   5.181  1.00  0.00     0.026 C 
ENDBRANCH  10  25
BRANCH   4  30
HETATM   30  N2  UNL     1      20.359  17.207   6.976  1.00  0.00    -0.371 N 
ATOM     31  H2  UNL     1      21.254  16.969   6.549  1.00  0.00     0.161 HD
BRANCH  30  32
HETATM   32  C9  UNL     1      20.017  16.456   8.133  1.00  0.00     0.083 C 
HETATM   33  C10 UNL     1      20.303  14.975   8.021  1.00  0.00     0.025 C 
HETATM   34  C11 UNL     1      19.779  14.290   9.260  1.00  0.00     0.002 C 
HETATM   35  C12 UNL     1      20.357  14.866  10.518  1.00  0.00     0.000 C 
HETATM   36  C13 UNL     1      21.407  15.863  10.143  1.00  0.00     0.002 C 
HETATM   37  C14 UNL     1      20.928  16.970   9.261  1.00  0.00     0.025 C 
ENDBRANCH  30  32
ENDBRANCH   4  30
TORSDOF 9
ENDMDL
MODEL 3
REMARK VINA RESULT: -9.511710031      1.008      1.316
REMARK  9 active torsions:
REMARK  status: ('A' for Active; 'I' for Inactive)
REMARK    1  A    between atoms: C1_2  and  C2_4 
REMARK    2  A    between atoms: C2_4  and  C3_5 
REMARK    3  A    between atoms: C3_5  and  N1_6 
REMARK    4  A    between atoms: C3_5  and  C23_33 
REMARK       I    between atoms: N1_6  and  C4_8 
REMARK    5  A    between atoms: C4_8  and  C5_10 
REMARK    6  A    between atoms: C8_13  and  N2_14 
REMARK    7  A    between atoms: N2_14  and  C9_16 
REMARK    8  A    between atoms: N4_27  and  C18_28 
REMARK    9  A    between atoms: C23_33  and  C24_35 
ROOT
HETATM    1  C5  UNL     1      17.521  18.184   5.712  1.00  0.00     0.104 A 
HETATM    2  C6  UNL     1      17.115  19.239   4.915  1.00  0.00     0.053 A 
HETATM    3  C7  UNL     1      15.780  19.050   4.654  1.00  0.00     0.037 A 
HETATM    4  C8  UNL     1      14.852  19.783   3.910  1.00  0.00     0.114 A 
HETATM    5  N3  UNL     1      13.582  19.378   3.804  1.00  0.00    -0.352 N 
ATOM      6  H3  UNL     1      12.905  19.914   3.259  1.00  0.00     0.166 HD
HETATM    7  C15 UNL     1      13.227  18.260   4.425  1.00  0.00     0.092 A 
HETATM    8  C16 UNL     1      14.101  17.484   5.180  1.00  0.00     0.048 A 
HETATM    9  C17 UNL     1      15.404  17.903   5.286  1.00  0.00     0.050 A 
HETATM   10  N4  UNL     1      16.483  17.371   5.939  1.00  0.00    -0.337 N 
ENDROOT
BRANCH   1  11
HETATM   11  C4  UNL     1      18.915  18.079   6.170  1.00  0.00     0.269 C 
HETATM   12  N1  UNL     1      19.320  18.798   7.318  1.00  0.00    -0.344 N 
ATOM     13  H1  UNL     1      18.652  19.380   7.825  1.00  0.00     0.163 HD
HETATM   14  O3  UNL     1      19.713  17.359   5.533  1.00  0.00    -0.266 OA
BRANCH  12  15
HETATM   15  C3  UNL     1      20.717  18.698   7.775  1.00  0.00     0.170 C 
BRANCH  15  16
HETATM   16  C2  UNL     1      20.636  18.115   9.150  1.00  0.00     0.146 C 
BRANCH  16  17
HETATM   17  C1  UNL     1      20.875  16.686   9.285  1.00  0.00     0.174 C 
HETATM   18  O1  UNL     1      21.265  16.001   8.272  1.00  0.00    -0.648 OA
HETATM   19  O2  UNL     1      20.691  16.043  10.486  1.00  0.00    -0.648 OA
ENDBRANCH  16  17
ENDBRANCH  15  16
BRANCH  15  20
HETATM   20  C23 UNL     1      21.312  20.041   7.683  1.00  0.00     0.213 C 
HETATM   21  O4  UNL     1      21.597  20.591   8.736  1.00  0.00    -0.290 OA
BRANCH  20  22
HETATM   22  C24 UNL     1      21.575  20.744   6.419  1.00  0.00     0.424 C 
HETATM   23  F1  UNL     1      22.766  21.478   6.518  1.00  0.00    -0.206 F 
HETATM   24  F2  UNL     1      21.627  19.955   5.323  1.00  0.00    -0.206 F 
ENDBRANCH  20  22
ENDBRANCH  15  20
ENDBRANCH  12  15
ENDBRANCH   1  11
BRANCH  10  25
HETATM   25  C18 UNL     1      16.459  16.162   6.692  1.00  0.00     0.090 C 
HETATM   26  C19 UNL     1      16.707  14.904   5.886  1.00  0.00     0.026 C 
HETATM   27  C20 UNL     1      15.793  13.862   6.491  1.00  0.00     0.002 C 
HETATM   28  C21 UNL     1      15.306  14.451   7.796  1.00  0.00     0.002 C 
HETATM   29  C22 UNL     1      15.146  15.918   7.441  1.00  0.00     0.026 C 
ENDBRANCH  10  25
BRANCH   4  30
HETATM   30  N2  UNL     1      15.289  20.838   3.352  1.00  0.00    -0.371 N 
ATOM     31  H2  UNL     1      15.958  20.689   2.597  1.00  0.00     0.161 HD
BRANCH  30  32
HETATM   32  C9  UNL     1      14.978  22.196   3.631  1.00  0.00     0.083 C 
HETATM   33  C10 UNL     1      16.146  23.145   3.482  1.00  0.00     0.025 C 
HETATM   34  C11 UNL     1      15.708  24.520   3.927  1.00  0.00     0.002 C 
HETATM   35  C12 UNL     1      14.507  25.007   3.174  1.00  0.00     0.000 C 
HETATM   36  C13 UNL     1      14.197  24.024   2.090  1.00  0.00     0.002 C 
HETATM   37  C14 UNL     1      13.955  22.628   2.566  1.00  0.00     0.025 C 
ENDBRANCH  30  32
ENDBRANCH   4  30
TORSDOF 9
ENDMDL
MODEL 4
REMARK VINA RESULT: -9.424728525      3.035      6.007
REMARK  9 active torsions:
REMARK  status: ('A' for Active; 'I' for Inactive)
REMARK    1  A    between atoms: C1_2  and  C2_4 
REMARK    2  A    between atoms: C2_4  and  C3_5 
REMARK    3  A    between atoms: C3_5  and  N1_6 
REMARK    4  A    between atoms: C3_5  and  C23_33 
REMARK       I    between atoms: N1_6  and  C4_8 
REMARK    5  A    between atoms: C4_8  and  C5_10 
REMARK    6  A    between atoms: C8_13  and  N2_14 
REMARK    7  A    between atoms: N2_14  and  C9_16 
REMARK    8  A    between atoms: N4_27  and  C18_28 
REMARK    9  A    between atoms: C23_33  and  C24_35 
ROOT
HETATM    1  C5  UNL     1      17.602  15.745   6.386  1.00  0.00     0.104 A 
HETATM    2  C6  UNL     1      16.381  15.214   6.011  1.00  0.00     0.053 A 
HETATM    3  C7  UNL     1      15.649  16.242   5.470  1.00  0.00     0.037 A 
HETATM    4  C8  UNL     1      14.361  16.302   4.932  1.00  0.00     0.114 A 
HETATM    5  N3  UNL     1      13.865  17.451   4.461  1.00  0.00    -0.352 N 
ATOM      6  H3  UNL     1      12.923  17.494   4.069  1.00  0.00     0.166 HD
HETATM    7  C15 UNL     1      14.630  18.534   4.517  1.00  0.00     0.092 A 
HETATM    8  C16 UNL     1      15.920  18.543   5.040  1.00  0.00     0.048 A 
HETATM    9  C17 UNL     1      16.425  17.362   5.524  1.00  0.00     0.050 A 
HETATM   10  N4  UNL     1      17.631  17.049   6.091  1.00  0.00    -0.337 N 
ENDROOT
BRANCH   1  11
HETATM   11  C4  UNL     1      18.629  14.900   7.015  1.00  0.00     0.269 C 
HETATM   12  N1  UNL     1      18.327  14.232   8.225  1.00  0.00    -0.344 N 
ATOM     13  H1  UNL     1      17.407  14.334   8.654  1.00  0.00     0.163 HD
HETATM   14  O3  UNL     1      19.746  14.790   6.468  1.00  0.00    -0.266 OA
BRANCH  12  15
HETATM   15  C3  UNL     1      19.356  13.389   8.857  1.00  0.00     0.170 C 
BRANCH  15  16
HETATM   16  C2  UNL     1      18.639  12.142   9.267  1.00  0.00     0.146 C 
BRANCH  16  17
HETATM   17  C1  UNL     1      17.187  12.139   9.155  1.00  0.00     0.174 C 
HETATM   18  O1  UNL     1      16.464  12.359  10.192  1.00  0.00    -0.648 OA
HETATM   19  O2  UNL     1      16.565  11.903   7.954  1.00  0.00    -0.648 OA
ENDBRANCH  16  17
ENDBRANCH  15  16
BRANCH  15  20
HETATM   20  C23 UNL     1      19.960  14.168   9.950  1.00  0.00     0.213 C 
HETATM   21  O4  UNL     1      20.047  13.617  11.037  1.00  0.00    -0.290 OA
BRANCH  20  22
HETATM   22  C24 UNL     1      20.450  15.547   9.809  1.00  0.00     0.424 C 
HETATM   23  F1  UNL     1      20.775  16.071  11.069  1.00  0.00    -0.206 F 
HETATM   24  F2  UNL     1      21.506  15.700   8.978  1.00  0.00    -0.206 F 
ENDBRANCH  20  22
ENDBRANCH  15  20
ENDBRANCH  12  15
ENDBRANCH   1  11
BRANCH  10  25
HETATM   25  C18 UNL     1      18.684  17.981   6.320  1.00  0.00     0.090 C 
HETATM   26  C19 UNL     1      19.915  17.773   5.463  1.00  0.00     0.026 C 
HETATM   27  C20 UNL     1      21.084  18.095   6.367  1.00  0.00     0.002 C 
HETATM   28  C21 UNL     1      20.490  18.773   7.581  1.00  0.00     0.002 C 
HETATM   29  C22 UNL     1      19.190  18.011   7.765  1.00  0.00     0.026 C 
ENDBRANCH  10  25
BRANCH   4  30
HETATM   30  N2  UNL     1      13.707  15.212   4.923  1.00  0.00    -0.371 N 
ATOM     31  H2  UNL     1      13.861  14.617   4.109  1.00  0.00     0.161 HD
BRANCH  30  32
HETATM   32  C9  UNL     1      12.791  14.706   5.883  1.00  0.00     0.083 C 
HETATM   33  C10 UNL     1      13.301  13.515   6.663  1.00  0.00     0.025 C 
HETATM   34  C11 UNL     1      12.188  13.009   7.548  1.00  0.00     0.002 C 
HETATM   35  C12 UNL     1      11.655  14.073   8.461  1.00  0.00     0.000 C 
HETATM   36  C13 UNL     1      12.508  15.293   8.312  1.00  0.00     0.002 C 
HETATM   37  C14 UNL     1      12.594  15.827   6.918  1.00  0.00     0.025 C 
ENDBRANCH  30  32
ENDBRANCH   4  30
TORSDOF 9
ENDMDL
MODEL 5
REMARK VINA RESULT: -9.353939567      3.638      5.270
REMARK  9 active torsions:
REMARK  status: ('A' for Active; 'I' for Inactive)
REMARK    1  A    between atoms: C1_2  and  C2_4 
REMARK    2  A    between atoms: C2_4  and  C3_5 
REMARK    3  A    between atoms: C3_5  and  N1_6 
REMARK    4  A    between atoms: C3_5  and  C23_33 
REMARK       I    between atoms: N1_6  and  C4_8 
REMARK    5  A    between atoms: C4_8  and  C5_10 
REMARK    6  A    between atoms: C8_13  and  N2_14 
REMARK    7  A    between atoms: N2_14  and  C9_16 
REMARK    8  A    between atoms: N4_27  and  C18_28 
REMARK    9  A    between atoms: C23_33  and  C24_35 
ROOT
HETATM    1  C5  UNL     1      18.322  16.425   6.503  1.00  0.00     0.104 A 
HETATM    2  C6  UNL     1      17.116  15.937   6.032  1.00  0.00     0.053 A 
HETATM    3  C7  UNL     1      16.888  14.747   6.676  1.00  0.00     0.037 A 
HETATM    4  C8  UNL     1      15.846  13.819   6.603  1.00  0.00     0.114 A 
HETATM    5  N3  UNL     1      15.860  12.709   7.349  1.00  0.00    -0.352 N 
ATOM      6  H3  UNL     1      15.099  12.031   7.294  1.00  0.00     0.166 HD
HETATM    7  C15 UNL     1      16.890  12.513   8.163  1.00  0.00     0.092 A 
HETATM    8  C16 UNL     1      17.958  13.397   8.284  1.00  0.00     0.048 A 
HETATM    9  C17 UNL     1      17.942  14.534   7.515  1.00  0.00     0.050 A 
HETATM   10  N4  UNL     1      18.825  15.574   7.405  1.00  0.00    -0.337 N 
ENDROOT
BRANCH   1  11
HETATM   11  C4  UNL     1      18.866  17.696   6.003  1.00  0.00     0.269 C 
HETATM   12  N1  UNL     1      20.257  17.935   6.097  1.00  0.00    -0.344 N 
ATOM     13  H1  UNL     1      20.875  17.233   6.504  1.00  0.00     0.163 HD
HETATM   14  O3  UNL     1      18.089  18.539   5.508  1.00  0.00    -0.266 OA
BRANCH  12  15
HETATM   15  C3  UNL     1      20.803  19.210   5.600  1.00  0.00     0.170 C 
BRANCH  15  16
HETATM   16  C2  UNL     1      21.917  18.824   4.681  1.00  0.00     0.146 C 
BRANCH  16  17
HETATM   17  C1  UNL     1      22.297  17.419   4.644  1.00  0.00     0.174 C 
HETATM   18  O1  UNL     1      23.402  17.039   5.174  1.00  0.00    -0.648 OA
HETATM   19  O2  UNL     1      21.492  16.479   4.048  1.00  0.00    -0.648 OA
ENDBRANCH  16  17
ENDBRANCH  15  16
BRANCH  15  20
HETATM   20  C23 UNL     1      21.189  20.015   6.771  1.00  0.00     0.213 C 
HETATM   21  O4  UNL     1      20.989  19.520   7.871  1.00  0.00    -0.290 OA
BRANCH  20  22
HETATM   22  C24 UNL     1      21.786  21.356   6.692  1.00  0.00     0.424 C 
HETATM   23  F1  UNL     1      21.628  22.023   7.916  1.00  0.00    -0.206 F 
HETATM   24  F2  UNL     1      23.090  21.384   6.335  1.00  0.00    -0.206 F 
ENDBRANCH  20  22
ENDBRANCH  15  20
ENDBRANCH  12  15
ENDBRANCH   1  11
BRANCH  10  25
HETATM   25  C18 UNL     1      20.050  15.676   8.124  1.00  0.00     0.090 C 
HETATM   26  C19 UNL     1      20.551  14.375   8.715  1.00  0.00     0.026 C 
HETATM   27  C20 UNL     1      21.153  14.755  10.050  1.00  0.00     0.002 C 
HETATM   28  C21 UNL     1      21.268  16.262  10.035  1.00  0.00     0.002 C 
HETATM   29  C22 UNL     1      20.009  16.668   9.290  1.00  0.00     0.026 C 
ENDBRANCH  10  25
BRANCH   4  30
HETATM   30  N2  UNL     1      14.906  14.095   5.794  1.00  0.00    -0.371 N 
ATOM     31  H2  UNL     1      15.108  13.914   4.811  1.00  0.00     0.161 HD
BRANCH  30  32
HETATM   32  C9  UNL     1      13.614  14.619   6.064  1.00  0.00     0.083 C 
HETATM   33  C10 UNL     1      13.499  15.343   7.387  1.00  0.00     0.025 C 
HETATM   34  C11 UNL     1      12.056  15.732   7.597  1.00  0.00     0.002 C 
HETATM   35  C12 UNL     1      11.520  16.564   6.471  1.00  0.00     0.000 C 
HETATM   36  C13 UNL     1      12.645  16.880   5.539  1.00  0.00     0.002 C 
HETATM   37  C14 UNL     1      13.351  15.684   4.985  1.00  0.00     0.025 C 
ENDBRANCH  30  32
ENDBRANCH   4  30
TORSDOF 9
ENDMDL
