MODEL 1
REMARK VINA RESULT: -9.834508417      0.000      0.000
REMARK  11 active torsions:
REMARK  status: ('A' for Active; 'I' for Inactive)
REMARK    1  A    between atoms: N1_2  and  N2_4 
REMARK       I    between atoms: N2_4  and  C3_6 
REMARK    2  A    between atoms: C3_6  and  C4_8 
REMARK    3  A    between atoms: C4_8  and  N3_9 
REMARK    4  A    between atoms: N3_9  and  C5_11 
REMARK    5  A    between atoms: C5_11  and  C6_12 
REMARK    6  A    between atoms: C5_11  and  C8_17 
REMARK    7  A    between atoms: C6_12  and  O2_13 
REMARK    8  A    between atoms: O2_13  and  C7_14 
REMARK    9  A    between atoms: C8_17  and  C9_19 
REMARK   10  A    between atoms: C23_33  and  O5_34 
REMARK   11  A    between atoms: O5_34  and  C24_35 
ROOT
HETATM    1  C9  UNL     1       7.813  -0.100  -1.210  1.00  0.00     0.062 C 
HETATM    2  C10 UNL     1       7.460   1.356  -1.376  1.00  0.00     0.013 C 
HETATM    3  C11 UNL     1       5.956   1.309  -0.962  1.00  0.00     0.006 C 
HETATM    4  C12 UNL     1       5.512   0.249  -1.883  1.00  0.00    -0.005 C 
HETATM    5  C13 UNL     1       6.628  -0.809  -1.719  1.00  0.00     0.001 C 
HETATM    6  C14 UNL     1       6.670  -1.470  -3.044  1.00  0.00     0.006 C 
HETATM    7  C15 UNL     1       5.256  -1.513  -3.642  1.00  0.00     0.006 C 
HETATM    8  C16 UNL     1       4.169  -1.587  -2.569  1.00  0.00    -0.003 C 
HETATM    9  C17 UNL     1       4.281  -0.526  -1.527  1.00  0.00    -0.005 C 
HETATM   10  C18 UNL     1       3.097   0.317  -1.271  1.00  0.00     0.006 C 
HETATM   11  C19 UNL     1       2.283   0.613  -2.479  1.00  0.00     0.016 C 
HETATM   12  C20 UNL     1       1.957  -0.575  -3.295  1.00  0.00     0.031 A 
HETATM   13  C21 UNL     1       1.518  -0.126  -4.687  1.00  0.00     0.022 C 
HETATM   14  C22 UNL     1       2.867  -1.729  -3.252  1.00  0.00     0.039 A 
HETATM   15  C23 UNL     1       1.837  -2.607  -2.579  1.00  0.00     0.200 A 
HETATM   16  C27 UNL     1       0.891  -1.427  -2.593  1.00  0.00     0.277 A 
HETATM   17  F1  UNL     1       0.481  -0.979  -1.374  1.00  0.00    -0.203 F 
HETATM   18  F2  UNL     1      -0.234  -1.611  -3.393  1.00  0.00    -0.203 F 
ENDROOT
BRANCH   1  19
HETATM   19  C8  UNL     1       9.124  -0.538  -1.623  1.00  0.00     0.156 C 
HETATM   20  O4  UNL     1       9.740   0.165  -2.404  1.00  0.00    -0.295 OA
BRANCH  19  21
HETATM   21  C5  UNL     1       9.804  -1.790  -1.184  1.00  0.00     0.175 C 
BRANCH  21  22
HETATM   22  N3  UNL     1      11.232  -1.675  -1.254  1.00  0.00    -0.381 N 
ATOM     23  H3  UNL     1      11.684  -0.762  -1.296  1.00  0.00     0.160 HD
BRANCH  22  24
HETATM   24  C4  UNL     1      11.990  -2.860  -1.262  1.00  0.00     0.160 C 
BRANCH  24  25
HETATM   25  C3  UNL     1      13.390  -2.573  -1.678  1.00  0.00     0.270 C 
HETATM   26  N2  UNL     1      14.023  -1.336  -1.278  1.00  0.00    -0.285 N 
ATOM     27  H2  UNL     1      13.509  -0.665  -0.708  1.00  0.00     0.184 HD
HETATM   28  O1  UNL     1      14.093  -3.347  -2.375  1.00  0.00    -0.266 OA
BRANCH  26  29
HETATM   29  N1  UNL     1      15.316  -1.060  -1.663  1.00  0.00    -0.237 NA
HETATM   30  C1  UNL     1      15.289  -0.044  -2.690  1.00  0.00     0.135 C 
HETATM   31  C2  UNL     1      16.152  -0.680  -0.546  1.00  0.00     0.135 C 
ENDBRANCH  26  29
ENDBRANCH  24  25
ENDBRANCH  22  24
ENDBRANCH  21  22
BRANCH  21  32
HETATM   32  C6  UNL     1       9.384  -3.001  -1.928  1.00  0.00     0.213 C 
BRANCH  32  33
HETATM   33  O2  UNL     1       8.485  -3.825  -1.214  1.00  0.00    -0.304 OA
BRANCH  33  34
HETATM   34  C7  UNL     1       8.862  -5.141  -1.010  1.00  0.00     0.372 C 
HETATM   35  N4  UNL     1       9.843  -5.722  -1.816  1.00  0.00    -0.032 NA
HETATM   36  O3  UNL     1       8.313  -5.807  -0.099  1.00  0.00    -0.242 OA
ENDBRANCH  33  34
ENDBRANCH  32  33
ENDBRANCH  21  32
ENDBRANCH  19  21
ENDBRANCH   1  19
BRANCH  15  37
HETATM   37  O5  UNL     1       1.310  -3.623  -3.354  1.00  0.00    -0.374 OA
BRANCH  37  38
HETATM   38  C24 UNL     1       1.524  -4.899  -2.840  1.00  0.00     0.122 A 
HETATM   39  C25 UNL     1       2.905  -5.453  -2.784  1.00  0.00     0.034 A 
HETATM   40  C26 UNL     1       2.262  -4.920  -1.523  1.00  0.00     0.034 A 
ENDBRANCH  37  38
ENDBRANCH  15  37
TORSDOF 11
ENDMDL
MODEL 2
REMARK VINA RESULT: -9.794096022      3.961      7.690
REMARK  11 active torsions:
REMARK  status: ('A' for Active; 'I' for Inactive)
REMARK    1  A    between atoms: N1_2  and  N2_4 
REMARK       I    between atoms: N2_4  and  C3_6 
REMARK    2  A    between atoms: C3_6  and  C4_8 
REMARK    3  A    between atoms: C4_8  and  N3_9 
REMARK    4  A    between atoms: N3_9  and  C5_11 
REMARK    5  A    between atoms: C5_11  and  C6_12 
REMARK    6  A    between atoms: C5_11  and  C8_17 
REMARK    7  A    between atoms: C6_12  and  O2_13 
REMARK    8  A    between atoms: O2_13  and  C7_14 
REMARK    9  A    between atoms: C8_17  and  C9_19 
REMARK   10  A    between atoms: C23_33  and  O5_34 
REMARK   11  A    between atoms: O5_34  and  C24_35 
ROOT
HETATM    1  C9  UNL     1       5.291  -2.094  -3.085  1.00  0.00     0.062 C 
HETATM    2  C10 UNL     1       6.510  -2.706  -2.444  1.00  0.00     0.013 C 
HETATM    3  C11 UNL     1       6.194  -4.217  -2.671  1.00  0.00     0.006 C 
HETATM    4  C12 UNL     1       4.850  -4.249  -2.070  1.00  0.00    -0.005 C 
HETATM    5  C13 UNL     1       4.195  -2.988  -2.680  1.00  0.00     0.001 C 
HETATM    6  C14 UNL     1       3.237  -2.561  -1.633  1.00  0.00     0.006 C 
HETATM    7  C15 UNL     1       2.677  -3.797  -0.914  1.00  0.00     0.006 C 
HETATM    8  C16 UNL     1       2.618  -5.026  -1.821  1.00  0.00    -0.003 C 
HETATM    9  C17 UNL     1       3.911  -5.336  -2.497  1.00  0.00    -0.005 C 
HETATM   10  C18 UNL     1       4.462  -6.696  -2.342  1.00  0.00     0.006 C 
HETATM   11  C19 UNL     1       4.207  -7.313  -1.013  1.00  0.00     0.016 C 
HETATM   12  C20 UNL     1       2.802  -7.225  -0.564  1.00  0.00     0.031 A 
HETATM   13  C21 UNL     1       2.736  -7.478   0.940  1.00  0.00     0.022 C 
HETATM   14  C22 UNL     1       1.973  -6.118  -1.064  1.00  0.00     0.039 A 
HETATM   15  C23 UNL     1       1.075  -7.049  -1.845  1.00  0.00     0.200 A 
HETATM   16  C27 UNL     1       1.927  -8.201  -1.361  1.00  0.00     0.277 A 
HETATM   17  F1  UNL     1       2.565  -8.917  -2.328  1.00  0.00    -0.203 F 
HETATM   18  F2  UNL     1       1.256  -9.092  -0.527  1.00  0.00    -0.203 F 
ENDROOT
BRANCH   1  19
HETATM   19  C8  UNL     1       5.106  -0.667  -2.984  1.00  0.00     0.156 C 
HETATM   20  O4  UNL     1       4.597  -0.090  -3.929  1.00  0.00    -0.295 OA
BRANCH  19  21
HETATM   21  C5  UNL     1       5.489   0.182  -1.820  1.00  0.00     0.175 C 
BRANCH  21  22
HETATM   22  N3  UNL     1       4.559   1.255  -1.614  1.00  0.00    -0.381 N 
ATOM     23  H3  UNL     1       4.603   2.104  -2.177  1.00  0.00     0.160 HD
BRANCH  22  24
HETATM   24  C4  UNL     1       3.586   1.102  -0.610  1.00  0.00     0.160 C 
BRANCH  24  25
HETATM   25  C3  UNL     1       2.223   1.113  -1.208  1.00  0.00     0.270 C 
HETATM   26  N2  UNL     1       1.939   0.303  -2.371  1.00  0.00    -0.285 N 
ATOM     27  H2  UNL     1       2.672  -0.278  -2.777  1.00  0.00     0.184 HD
HETATM   28  O1  UNL     1       1.263   1.795  -0.769  1.00  0.00    -0.266 OA
BRANCH  26  29
HETATM   29  N1  UNL     1       0.682   0.310  -2.935  1.00  0.00    -0.237 NA
HETATM   30  C1  UNL     1       0.809   0.565  -4.352  1.00  0.00     0.135 C 
HETATM   31  C2  UNL     1      -0.048  -0.907  -2.666  1.00  0.00     0.135 C 
ENDBRANCH  26  29
ENDBRANCH  24  25
ENDBRANCH  22  24
ENDBRANCH  21  22
BRANCH  21  32
HETATM   32  C6  UNL     1       6.858   0.744  -1.904  1.00  0.00     0.213 C 
BRANCH  32  33
HETATM   33  O2  UNL     1       7.751   0.209  -0.949  1.00  0.00    -0.304 OA
BRANCH  33  34
HETATM   34  C7  UNL     1       8.963  -0.268  -1.418  1.00  0.00     0.372 C 
HETATM   35  N4  UNL     1       9.464  -1.486  -0.954  1.00  0.00    -0.032 NA
HETATM   36  O3  UNL     1       9.607   0.403  -2.261  1.00  0.00    -0.242 OA
ENDBRANCH  33  34
ENDBRANCH  32  33
ENDBRANCH  21  32
ENDBRANCH  19  21
ENDBRANCH   1  19
BRANCH  15  37
HETATM   37  O5  UNL     1      -0.211  -7.198  -1.359  1.00  0.00    -0.374 OA
BRANCH  37  38
HETATM   38  C24 UNL     1      -1.204  -7.047  -2.323  1.00  0.00     0.122 A 
HETATM   39  C25 UNL     1      -2.192  -5.941  -2.202  1.00  0.00     0.034 A 
HETATM   40  C26 UNL     1      -1.049  -5.816  -3.184  1.00  0.00     0.034 A 
ENDBRANCH  37  38
ENDBRANCH  15  37
TORSDOF 11
ENDMDL
MODEL 3
REMARK VINA RESULT: -9.495657204      1.390      1.712
REMARK  11 active torsions:
REMARK  status: ('A' for Active; 'I' for Inactive)
REMARK    1  A    between atoms: N1_2  and  N2_4 
REMARK       I    between atoms: N2_4  and  C3_6 
REMARK    2  A    between atoms: C3_6  and  C4_8 
REMARK    3  A    between atoms: C4_8  and  N3_9 
REMARK    4  A    between atoms: N3_9  and  C5_11 
REMARK    5  A    between atoms: C5_11  and  C6_12 
REMARK    6  A    between atoms: C5_11  and  C8_17 
REMARK    7  A    between atoms: C6_12  and  O2_13 
REMARK    8  A    between atoms: O2_13  and  C7_14 
REMARK    9  A    between atoms: C8_17  and  C9_19 
REMARK   10  A    between atoms: C23_33  and  O5_34 
REMARK   11  A    between atoms: O5_34  and  C24_35 
ROOT
HETATM    1  C9  UNL     1       7.960  -0.206  -1.161  1.00  0.00     0.062 C 
HETATM    2  C10 UNL     1       7.654   1.250  -1.402  1.00  0.00     0.013 C 
HETATM    3  C11 UNL     1       6.143   1.269  -1.014  1.00  0.00     0.006 C 
HETATM    4  C12 UNL     1       5.682   0.179  -1.892  1.00  0.00    -0.005 C 
HETATM    5  C13 UNL     1       6.762  -0.902  -1.657  1.00  0.00     0.001 C 
HETATM    6  C14 UNL     1       6.806  -1.627  -2.948  1.00  0.00     0.006 C 
HETATM    7  C15 UNL     1       5.402  -1.656  -3.569  1.00  0.00     0.006 C 
HETATM    8  C16 UNL     1       4.294  -1.646  -2.515  1.00  0.00    -0.003 C 
HETATM    9  C17 UNL     1       4.421  -0.540  -1.522  1.00  0.00    -0.005 C 
HETATM   10  C18 UNL     1       3.260   0.350  -1.328  1.00  0.00     0.006 C 
HETATM   11  C19 UNL     1       2.476   0.612  -2.564  1.00  0.00     0.016 C 
HETATM   12  C20 UNL     1       2.127  -0.603  -3.329  1.00  0.00     0.031 A 
HETATM   13  C21 UNL     1       1.727  -0.208  -4.748  1.00  0.00     0.022 C 
HETATM   14  C22 UNL     1       3.000  -1.780  -3.214  1.00  0.00     0.039 A 
HETATM   15  C23 UNL     1       1.932  -2.593  -2.519  1.00  0.00     0.200 A 
HETATM   16  C27 UNL     1       1.024  -1.388  -2.606  1.00  0.00     0.277 A 
HETATM   17  F1  UNL     1       0.607  -0.869  -1.418  1.00  0.00    -0.203 F 
HETATM   18  F2  UNL     1      -0.092  -1.575  -3.418  1.00  0.00    -0.203 F 
ENDROOT
BRANCH   1  19
HETATM   19  C8  UNL     1       9.263  -0.704  -1.528  1.00  0.00     0.156 C 
HETATM   20  O4  UNL     1       9.868  -0.119  -2.409  1.00  0.00    -0.295 OA
BRANCH  19  21
HETATM   21  C5  UNL     1       9.947  -1.884  -0.928  1.00  0.00     0.175 C 
BRANCH  21  22
HETATM   22  N3  UNL     1      11.358  -1.871  -1.185  1.00  0.00    -0.381 N 
ATOM     23  H3  UNL     1      11.935  -1.076  -0.911  1.00  0.00     0.160 HD
BRANCH  22  24
HETATM   24  C4  UNL     1      11.922  -2.989  -1.827  1.00  0.00     0.160 C 
BRANCH  24  25
HETATM   25  C3  UNL     1      13.260  -3.294  -1.249  1.00  0.00     0.270 C 
HETATM   26  N2  UNL     1      13.695  -4.666  -1.121  1.00  0.00    -0.285 N 
ATOM     27  H2  UNL     1      13.086  -5.423  -1.432  1.00  0.00     0.184 HD
HETATM   28  O1  UNL     1      14.072  -2.423  -0.847  1.00  0.00    -0.266 OA
BRANCH  26  29
HETATM   29  N1  UNL     1      14.929  -4.958  -0.583  1.00  0.00    -0.237 NA
HETATM   30  C1  UNL     1      14.785  -6.063   0.337  1.00  0.00     0.135 C 
HETATM   31  C2  UNL     1      15.923  -5.223  -1.598  1.00  0.00     0.135 C 
ENDBRANCH  26  29
ENDBRANCH  24  25
ENDBRANCH  22  24
ENDBRANCH  21  22
BRANCH  21  32
HETATM   32  C6  UNL     1       9.393  -3.190  -1.360  1.00  0.00     0.213 C 
BRANCH  32  33
HETATM   33  O2  UNL     1       9.109  -4.068  -0.290  1.00  0.00    -0.304 OA
BRANCH  33  34
HETATM   34  C7  UNL     1       8.180  -5.067  -0.525  1.00  0.00     0.372 C 
HETATM   35  N4  UNL     1       7.115  -4.842  -1.400  1.00  0.00    -0.032 NA
HETATM   36  O3  UNL     1       8.301  -6.172   0.056  1.00  0.00    -0.242 OA
ENDBRANCH  33  34
ENDBRANCH  32  33
ENDBRANCH  21  32
ENDBRANCH  19  21
ENDBRANCH   1  19
BRANCH  15  37
HETATM   37  O5  UNL     1       1.387  -3.629  -3.255  1.00  0.00    -0.374 OA
BRANCH  37  38
HETATM   38  C24 UNL     1       1.525  -4.881  -2.662  1.00  0.00     0.122 A 
HETATM   39  C25 UNL     1       2.830  -5.594  -2.730  1.00  0.00     0.034 A 
HETATM   40  C26 UNL     1       2.425  -4.897  -1.450  1.00  0.00     0.034 A 
ENDBRANCH  37  38
ENDBRANCH  15  37
TORSDOF 11
ENDMDL
MODEL 4
REMARK VINA RESULT: -9.411053896      1.733      4.623
REMARK  11 active torsions:
REMARK  status: ('A' for Active; 'I' for Inactive)
REMARK    1  A    between atoms: N1_2  and  N2_4 
REMARK       I    between atoms: N2_4  and  C3_6 
REMARK    2  A    between atoms: C3_6  and  C4_8 
REMARK    3  A    between atoms: C4_8  and  N3_9 
REMARK    4  A    between atoms: N3_9  and  C5_11 
REMARK    5  A    between atoms: C5_11  and  C6_12 
REMARK    6  A    between atoms: C5_11  and  C8_17 
REMARK    7  A    between atoms: C6_12  and  O2_13 
REMARK    8  A    between atoms: O2_13  and  C7_14 
REMARK    9  A    between atoms: C8_17  and  C9_19 
REMARK   10  A    between atoms: C23_33  and  O5_34 
REMARK   11  A    between atoms: O5_34  and  C24_35 
ROOT
HETATM    1  C9  UNL     1       8.813  -1.202  -1.425  1.00  0.00     0.062 C 
HETATM    2  C10 UNL     1       8.757   0.296  -1.589  1.00  0.00     0.013 C 
HETATM    3  C11 UNL     1       7.289   0.555  -1.127  1.00  0.00     0.006 C 
HETATM    4  C12 UNL     1       6.609  -0.393  -2.026  1.00  0.00    -0.005 C 
HETATM    5  C13 UNL     1       7.493  -1.655  -1.891  1.00  0.00     0.001 C 
HETATM    6  C14 UNL     1       7.357  -2.311  -3.213  1.00  0.00     0.006 C 
HETATM    7  C15 UNL     1       5.945  -2.067  -3.765  1.00  0.00     0.006 C 
HETATM    8  C16 UNL     1       4.900  -1.918  -2.657  1.00  0.00    -0.003 C 
HETATM    9  C17 UNL     1       5.259  -0.903  -1.626  1.00  0.00    -0.005 C 
HETATM   10  C18 UNL     1       4.279   0.163  -1.337  1.00  0.00     0.006 C 
HETATM   11  C19 UNL     1       3.503   0.618  -2.521  1.00  0.00     0.016 C 
HETATM   12  C20 UNL     1       2.917  -0.479  -3.319  1.00  0.00     0.031 A 
HETATM   13  C21 UNL     1       2.533   0.050  -4.699  1.00  0.00     0.022 C 
HETATM   14  C22 UNL     1       3.575  -1.793  -3.297  1.00  0.00     0.039 A 
HETATM   15  C23 UNL     1       2.411  -2.444  -2.586  1.00  0.00     0.200 A 
HETATM   16  C27 UNL     1       1.724  -1.097  -2.577  1.00  0.00     0.277 A 
HETATM   17  F1  UNL     1       1.453  -0.575  -1.349  1.00  0.00    -0.203 F 
HETATM   18  F2  UNL     1       0.560  -1.049  -3.340  1.00  0.00    -0.203 F 
ENDROOT
BRANCH   1  19
HETATM   19  C8  UNL     1       9.993  -1.897  -1.877  1.00  0.00     0.156 C 
HETATM   20  O4  UNL     1      10.764  -1.296  -2.604  1.00  0.00    -0.295 OA
BRANCH  19  21
HETATM   21  C5  UNL     1      10.362  -3.300  -1.538  1.00  0.00     0.175 C 
BRANCH  21  22
HETATM   22  N3  UNL     1       9.314  -3.972  -0.827  1.00  0.00    -0.381 N 
ATOM     23  H3  UNL     1       8.935  -3.586   0.038  1.00  0.00     0.160 HD
BRANCH  22  24
HETATM   24  C4  UNL     1       8.825  -5.180  -1.357  1.00  0.00     0.160 C 
BRANCH  24  25
HETATM   25  C3  UNL     1       7.646  -5.645  -0.576  1.00  0.00     0.270 C 
HETATM   26  N2  UNL     1       6.321  -5.554  -1.146  1.00  0.00    -0.285 N 
ATOM     27  H2  UNL     1       6.197  -5.176  -2.085  1.00  0.00     0.184 HD
HETATM   28  O1  UNL     1       7.711  -6.127   0.583  1.00  0.00    -0.266 OA
BRANCH  26  29
HETATM   29  N1  UNL     1       5.223  -5.977  -0.429  1.00  0.00    -0.237 NA
HETATM   30  C1  UNL     1       4.208  -4.951  -0.482  1.00  0.00     0.135 C 
HETATM   31  C2  UNL     1       4.727  -7.256  -0.886  1.00  0.00     0.135 C 
ENDBRANCH  26  29
ENDBRANCH  24  25
ENDBRANCH  22  24
ENDBRANCH  21  22
BRANCH  21  32
HETATM   32  C6  UNL     1      11.622  -3.427  -0.767  1.00  0.00     0.213 C 
BRANCH  32  33
HETATM   33  O2  UNL     1      12.610  -4.203  -1.413  1.00  0.00    -0.304 OA
BRANCH  33  34
HETATM   34  C7  UNL     1      13.823  -4.348  -0.764  1.00  0.00     0.372 C 
HETATM   35  N4  UNL     1      14.709  -3.271  -0.683  1.00  0.00    -0.032 NA
HETATM   36  O3  UNL     1      14.121  -5.454  -0.251  1.00  0.00    -0.242 OA
ENDBRANCH  33  34
ENDBRANCH  32  33
ENDBRANCH  21  32
ENDBRANCH  19  21
ENDBRANCH   1  19
BRANCH  15  37
HETATM   37  O5  UNL     1       1.664  -3.332  -3.338  1.00  0.00    -0.374 OA
BRANCH  37  38
HETATM   38  C24 UNL     1       1.143  -4.397  -2.607  1.00  0.00     0.122 A 
HETATM   39  C25 UNL     1       0.266  -5.395  -3.277  1.00  0.00     0.034 A 
HETATM   40  C26 UNL     1       1.709  -5.744  -2.988  1.00  0.00     0.034 A 
ENDBRANCH  37  38
ENDBRANCH  15  37
TORSDOF 11
ENDMDL
MODEL 5
REMARK VINA RESULT: -9.234911396      4.232      7.938
REMARK  11 active torsions:
REMARK  status: ('A' for Active; 'I' for Inactive)
REMARK    1  A    between atoms: N1_2  and  N2_4 
REMARK       I    between atoms: N2_4  and  C3_6 
REMARK    2  A    between atoms: C3_6  and  C4_8 
REMARK    3  A    between atoms: C4_8  and  N3_9 
REMARK    4  A    between atoms: N3_9  and  C5_11 
REMARK    5  A    between atoms: C5_11  and  C6_12 
REMARK    6  A    between atoms: C5_11  and  C8_17 
REMARK    7  A    between atoms: C6_12  and  O2_13 
REMARK    8  A    between atoms: O2_13  and  C7_14 
REMARK    9  A    between atoms: C8_17  and  C9_19 
REMARK   10  A    between atoms: C23_33  and  O5_34 
REMARK   11  A    between atoms: O5_34  and  C24_35 
ROOT
HETATM    1  C9  UNL     1       1.376  -6.754  -2.184  1.00  0.00     0.062 C 
HETATM    2  C10 UNL     1       0.037  -6.145  -2.514  1.00  0.00     0.013 C 
HETATM    3  C11 UNL     1       0.506  -4.939  -3.387  1.00  0.00     0.006 C 
HETATM    4  C12 UNL     1       1.464  -4.346  -2.438  1.00  0.00    -0.005 C 
HETATM    5  C13 UNL     1       2.243  -5.589  -1.948  1.00  0.00     0.001 C 
HETATM    6  C14 UNL     1       2.635  -5.223  -0.566  1.00  0.00     0.006 C 
HETATM    7  C15 UNL     1       2.903  -3.713  -0.491  1.00  0.00     0.006 C 
HETATM    8  C16 UNL     1       3.414  -3.142  -1.814  1.00  0.00    -0.003 C 
HETATM    9  C17 UNL     1       2.554  -3.478  -2.985  1.00  0.00    -0.005 C 
HETATM   10  C18 UNL     1       2.070  -2.367  -3.827  1.00  0.00     0.006 C 
HETATM   11  C19 UNL     1       1.766  -1.119  -3.078  1.00  0.00     0.016 C 
HETATM   12  C20 UNL     1       2.837  -0.693  -2.153  1.00  0.00     0.031 A 
HETATM   13  C21 UNL     1       2.267   0.306  -1.148  1.00  0.00     0.022 C 
HETATM   14  C22 UNL     1       3.735  -1.716  -1.599  1.00  0.00     0.039 A 
HETATM   15  C23 UNL     1       4.933  -1.169  -2.341  1.00  0.00     0.200 A 
HETATM   16  C27 UNL     1       4.023  -0.120  -2.940  1.00  0.00     0.277 A 
HETATM   17  F1  UNL     1       3.902  -0.142  -4.296  1.00  0.00    -0.203 F 
HETATM   18  F2  UNL     1       4.322   1.182  -2.547  1.00  0.00    -0.203 F 
ENDROOT
BRANCH   1  19
HETATM   19  C8  UNL     1       1.418  -7.859  -1.258  1.00  0.00     0.156 C 
HETATM   20  O4  UNL     1       0.443  -8.047  -0.552  1.00  0.00    -0.295 OA
BRANCH  19  21
HETATM   21  C5  UNL     1       2.557  -8.802  -1.076  1.00  0.00     0.175 C 
BRANCH  21  22
HETATM   22  N3  UNL     1       3.299  -8.986  -2.289  1.00  0.00    -0.381 N 
ATOM     23  H3  UNL     1       2.932  -8.662  -3.184  1.00  0.00     0.160 HD
BRANCH  22  24
HETATM   24  C4  UNL     1       4.550  -9.626  -2.208  1.00  0.00     0.160 C 
BRANCH  24  25
HETATM   25  C3  UNL     1       5.628  -8.623  -1.991  1.00  0.00     0.270 C 
HETATM   26  N2  UNL     1       5.374  -7.223  -2.248  1.00  0.00    -0.285 N 
ATOM     27  H2  UNL     1       4.455  -6.925  -2.573  1.00  0.00     0.184 HD
HETATM   28  O1  UNL     1       6.785  -8.904  -1.589  1.00  0.00    -0.266 OA
BRANCH  26  29
HETATM   29  N1  UNL     1       6.368  -6.289  -2.055  1.00  0.00    -0.237 NA
HETATM   30  C1  UNL     1       6.334  -5.341  -3.145  1.00  0.00     0.135 C 
HETATM   31  C2  UNL     1       6.268  -5.639  -0.768  1.00  0.00     0.135 C 
ENDBRANCH  26  29
ENDBRANCH  24  25
ENDBRANCH  22  24
ENDBRANCH  21  22
BRANCH  21  32
HETATM   32  C6  UNL     1       2.165 -10.132  -0.549  1.00  0.00     0.213 C 
BRANCH  32  33
HETATM   33  O2  UNL     1       2.615 -10.376   0.768  1.00  0.00    -0.304 OA
BRANCH  33  34
HETATM   34  C7  UNL     1       1.650 -10.650   1.722  1.00  0.00     0.372 C 
HETATM   35  N4  UNL     1       2.022 -10.882   3.048  1.00  0.00    -0.032 NA
HETATM   36  O3  UNL     1       0.442 -10.690   1.386  1.00  0.00    -0.242 OA
ENDBRANCH  33  34
ENDBRANCH  32  33
ENDBRANCH  21  32
ENDBRANCH  19  21
ENDBRANCH   1  19
BRANCH  15  37
HETATM   37  O5  UNL     1       5.893  -0.548  -1.563  1.00  0.00    -0.374 OA
BRANCH  37  38
HETATM   38  C24 UNL     1       7.201  -0.797  -1.970  1.00  0.00     0.122 A 
HETATM   39  C25 UNL     1       7.776  -2.163  -1.825  1.00  0.00     0.034 A 
HETATM   40  C26 UNL     1       7.313  -1.688  -3.184  1.00  0.00     0.034 A 
ENDBRANCH  37  38
ENDBRANCH  15  37
TORSDOF 11
ENDMDL
