MODEL 1
REMARK VINA RESULT: -7.842159209      0.000      0.000
REMARK  3 active torsions:
REMARK  status: ('A' for Active; 'I' for Inactive)
REMARK    1  A    between atoms: N1_2  and  C3_4 
REMARK    2  A    between atoms: C3_4  and  C4_5 
REMARK    3  A    between atoms: C4_5  and  N2_6 
ROOT
HETATM    1  N2  UNL     1       2.665  -4.424  -1.258  1.00  0.00    -0.387 N 
HETATM    2  C5  UNL     1       3.954  -4.632  -1.791  1.00  0.00     0.149 C 
HETATM    3  C6  UNL     1       4.231  -6.011  -2.274  1.00  0.00    -0.011 C 
HETATM    4  C7  UNL     1       5.391  -6.626  -2.122  1.00  0.00    -0.029 C 
HETATM    5  C8  UNL     1       6.577  -6.059  -1.463  1.00  0.00     0.027 C 
HETATM    6  C9  UNL     1       6.791  -6.561  -0.073  1.00  0.00     0.005 C 
HETATM    7  C10 UNL     1       5.946  -7.753   0.309  1.00  0.00     0.028 C 
HETATM    8  C11 UNL     1       6.492  -9.062  -0.198  1.00  0.00     0.232 C 
HETATM    9  N3  UNL     1       5.388 -10.007  -0.157  1.00  0.00    -0.073 N 
ATOM     10  H31 UNL     1       4.950 -10.100  -1.074  1.00  0.00     0.277 HD
ATOM     11  H32 UNL     1       4.599  -9.627   0.364  1.00  0.00     0.277 HD
HETATM   12  C12 UNL     1       5.781 -11.289   0.361  1.00  0.00     0.258 C 
HETATM   13  C13 UNL     1       4.597 -11.813   1.181  1.00  0.00     0.195 C 
HETATM   14  O1  UNL     1       3.675 -12.423   0.301  1.00  0.00    -0.389 OA
HETATM   15  C14 UNL     1       2.414 -11.889   0.422  1.00  0.00     0.167 C 
HETATM   16  C15 UNL     1       1.514 -12.903   1.108  1.00  0.00     0.028 C 
HETATM   17  C16 UNL     1       0.119 -12.379   1.314  1.00  0.00     0.032 C 
HETATM   18  C17 UNL     1      -0.843 -12.912   0.277  1.00  0.00     0.272 C 
HETATM   19  N4  UNL     1      -0.884 -12.069  -0.892  1.00  0.00     0.084 N 
HETATM   20  C18 UNL     1      -1.623 -12.786  -1.915  1.00  0.00     0.309 C 
HETATM   21  C19 UNL     1      -1.538 -10.794  -0.608  1.00  0.00     0.273 C 
HETATM   22  C20 UNL     1      -1.953 -10.211  -1.927  1.00  0.00     0.057 C 
HETATM   23  C21 UNL     1      -2.642  -8.884  -1.809  1.00  0.00     0.234 C 
HETATM   24  N5  UNL     1      -1.764  -7.790  -1.520  1.00  0.00    -0.073 N 
ATOM     25  H51 UNL     1      -0.832  -7.919  -1.915  1.00  0.00     0.277 HD
ATOM     26  H52 UNL     1      -1.492  -7.753  -0.537  1.00  0.00     0.277 HD
HETATM   27  C22 UNL     1      -2.404  -6.559  -1.974  1.00  0.00     0.259 C 
HETATM   28  C23 UNL     1      -1.515  -5.799  -2.932  1.00  0.00     0.260 C 
HETATM   29  N6  UNL     1      -0.483  -5.040  -2.265  1.00  0.00    -0.069 N 
ATOM     30  H61 UNL     1      -0.695  -4.920  -1.275  1.00  0.00     0.277 HD
ATOM     31  H62 UNL     1      -0.499  -4.062  -2.554  1.00  0.00     0.277 HD
HETATM   32  C24 UNL     1       0.854  -5.629  -2.454  1.00  0.00     0.276 C 
HETATM   33  C25 UNL     1       1.713  -5.443  -1.239  1.00  0.00     0.085 C 
ENDROOT
BRANCH   1  34
HETATM   34  C4  UNL     1       2.188  -3.112  -1.473  1.00  0.00     0.152 C 
BRANCH  34  35
HETATM   35  C3  UNL     1       3.063  -2.447  -2.538  1.00  0.00     0.291 C 
BRANCH  35  36
HETATM   36  N1  UNL     1       2.351  -1.413  -3.264  1.00  0.00     0.081 N 
HETATM   37  C1  UNL     1       1.778  -0.436  -2.336  1.00  0.00     0.309 C 
HETATM   38  C2  UNL     1       3.263  -0.712  -4.174  1.00  0.00     0.309 C 
ENDBRANCH  35  36
ENDBRANCH  34  35
ENDBRANCH   1  34
TORSDOF 3
ENDMDL
MODEL 2
REMARK VINA RESULT: -7.164653657      4.880      9.582
REMARK  3 active torsions:
REMARK  status: ('A' for Active; 'I' for Inactive)
REMARK    1  A    between atoms: N1_2  and  C3_4 
REMARK    2  A    between atoms: C3_4  and  C4_5 
REMARK    3  A    between atoms: C4_5  and  N2_6 
ROOT
HETATM    1  N2  UNL     1       5.895  -7.533  -1.618  1.00  0.00    -0.387 N 
HETATM    2  C5  UNL     1       5.156  -8.124  -0.572  1.00  0.00     0.149 C 
HETATM    3  C6  UNL     1       5.965  -8.723   0.522  1.00  0.00    -0.011 C 
HETATM    4  C7  UNL     1       5.650  -9.850   1.139  1.00  0.00    -0.029 C 
HETATM    5  C8  UNL     1       4.471 -10.679   0.849  1.00  0.00     0.027 C 
HETATM    6  C9  UNL     1       4.774 -11.893   0.034  1.00  0.00     0.005 C 
HETATM    7  C10 UNL     1       6.243 -12.213  -0.108  1.00  0.00     0.028 C 
HETATM    8  C11 UNL     1       6.818 -12.929   1.086  1.00  0.00     0.232 C 
HETATM    9  N3  UNL     1       8.260 -12.759   1.008  1.00  0.00    -0.073 N 
ATOM     10  H31 UNL     1       8.573 -11.995   1.606  1.00  0.00     0.277 HD
ATOM     11  H32 UNL     1       8.536 -12.382   0.102  1.00  0.00     0.277 HD
HETATM   12  C12 UNL     1       8.973 -13.972   1.302  1.00  0.00     0.258 C 
HETATM   13  C13 UNL     1      10.198 -13.995   0.382  1.00  0.00     0.195 C 
HETATM   14  O1  UNL     1      11.221 -13.220   0.975  1.00  0.00    -0.389 OA
HETATM   15  C14 UNL     1      11.678 -12.235   0.133  1.00  0.00     0.167 C 
HETATM   16  C15 UNL     1      13.069 -12.608  -0.352  1.00  0.00     0.028 C 
HETATM   17  C16 UNL     1      13.627 -11.595  -1.314  1.00  0.00     0.032 C 
HETATM   18  C17 UNL     1      14.611 -10.663  -0.643  1.00  0.00     0.272 C 
HETATM   19  N4  UNL     1      13.951  -9.511  -0.081  1.00  0.00     0.084 N 
HETATM   20  C18 UNL     1      14.921  -8.820   0.748  1.00  0.00     0.309 C 
HETATM   21  C19 UNL     1      13.461  -8.614  -1.125  1.00  0.00     0.273 C 
HETATM   22  C20 UNL     1      13.237  -7.276  -0.483  1.00  0.00     0.057 C 
HETATM   23  C21 UNL     1      12.724  -6.232  -1.430  1.00  0.00     0.234 C 
HETATM   24  N5  UNL     1      11.342  -6.380  -1.774  1.00  0.00    -0.073 N 
ATOM     25  H51 UNL     1      10.790  -6.790  -1.019  1.00  0.00     0.277 HD
ATOM     26  H52 UNL     1      11.185  -7.110  -2.470  1.00  0.00     0.277 HD
HETATM   27  C22 UNL     1      10.835  -5.079  -2.198  1.00  0.00     0.259 C 
HETATM   28  C23 UNL     1       9.625  -4.669  -1.391  1.00  0.00     0.260 C 
HETATM   29  N6  UNL     1       8.407  -5.309  -1.831  1.00  0.00    -0.069 N 
ATOM     30  H61 UNL     1       8.514  -5.700  -2.767  1.00  0.00     0.277 HD
ATOM     31  H62 UNL     1       7.678  -4.622  -2.025  1.00  0.00     0.277 HD
HETATM   32  C24 UNL     1       7.936  -6.329  -0.879  1.00  0.00     0.276 C 
HETATM   33  C25 UNL     1       7.288  -7.483  -1.586  1.00  0.00     0.085 C 
ENDROOT
BRANCH   1  34
HETATM   34  C4  UNL     1       5.232  -6.432  -2.204  1.00  0.00     0.152 C 
BRANCH  34  35
HETATM   35  C3  UNL     1       4.159  -5.939  -1.230  1.00  0.00     0.291 C 
BRANCH  35  36
HETATM   36  N1  UNL     1       3.579  -4.677  -1.649  1.00  0.00     0.081 N 
HETATM   37  C1  UNL     1       4.585  -3.840  -2.305  1.00  0.00     0.309 C 
HETATM   38  C2  UNL     1       2.481  -4.913  -2.594  1.00  0.00     0.309 C 
ENDBRANCH  35  36
ENDBRANCH  34  35
ENDBRANCH   1  34
TORSDOF 3
ENDMDL
MODEL 3
REMARK VINA RESULT: -7.114037673      4.597      8.934
REMARK  3 active torsions:
REMARK  status: ('A' for Active; 'I' for Inactive)
REMARK    1  A    between atoms: N1_2  and  C3_4 
REMARK    2  A    between atoms: C3_4  and  C4_5 
REMARK    3  A    between atoms: C4_5  and  N2_6 
ROOT
HETATM    1  N2  UNL     1       6.066  -5.014  -2.373  1.00  0.00    -0.387 N 
HETATM    2  C5  UNL     1       5.090  -5.569  -1.519  1.00  0.00     0.149 C 
HETATM    3  C6  UNL     1       5.552  -6.701  -0.672  1.00  0.00    -0.011 C 
HETATM    4  C7  UNL     1       4.816  -7.764  -0.397  1.00  0.00    -0.029 C 
HETATM    5  C8  UNL     1       3.445  -7.998  -0.875  1.00  0.00     0.027 C 
HETATM    6  C9  UNL     1       3.360  -8.957  -2.016  1.00  0.00     0.005 C 
HETATM    7  C10 UNL     1       4.627  -9.729  -2.293  1.00  0.00     0.028 C 
HETATM    8  C11 UNL     1       4.823 -10.909  -1.377  1.00  0.00     0.232 C 
HETATM    9  N3  UNL     1       6.233 -11.254  -1.451  1.00  0.00    -0.073 N 
ATOM     10  H31 UNL     1       6.750 -10.854  -0.668  1.00  0.00     0.277 HD
ATOM     11  H32 UNL     1       6.691 -10.762  -2.218  1.00  0.00     0.277 HD
HETATM   12  C12 UNL     1       6.449 -12.672  -1.544  1.00  0.00     0.258 C 
HETATM   13  C13 UNL     1       7.652 -12.873  -2.471  1.00  0.00     0.195 C 
HETATM   14  O1  UNL     1       8.835 -12.718  -1.714  1.00  0.00    -0.389 OA
HETATM   15  C14 UNL     1       9.671 -11.768  -2.250  1.00  0.00     0.167 C 
HETATM   16  C15 UNL     1      10.873 -12.463  -2.868  1.00  0.00     0.028 C 
HETATM   17  C16 UNL     1      11.822 -11.491  -3.515  1.00  0.00     0.032 C 
HETATM   18  C17 UNL     1      13.020 -11.203  -2.636  1.00  0.00     0.272 C 
HETATM   19  N4  UNL     1      12.768 -10.099  -1.743  1.00  0.00     0.084 N 
HETATM   20  C18 UNL     1      13.856 -10.066  -0.783  1.00  0.00     0.309 C 
HETATM   21  C19 UNL     1      12.705  -8.831  -2.466  1.00  0.00     0.273 C 
HETATM   22  C20 UNL     1      12.921  -7.741  -1.458  1.00  0.00     0.057 C 
HETATM   23  C21 UNL     1      12.881  -6.361  -2.045  1.00  0.00     0.234 C 
HETATM   24  N5  UNL     1      11.565  -5.900  -2.370  1.00  0.00    -0.073 N 
ATOM     25  H51 UNL     1      10.850  -6.279  -1.749  1.00  0.00     0.277 HD
ATOM     26  H52 UNL     1      11.213  -6.298  -3.242  1.00  0.00     0.277 HD
HETATM   27  C22 UNL     1      11.583  -4.441  -2.384  1.00  0.00     0.259 C 
HETATM   28  C23 UNL     1      10.539  -3.869  -1.452  1.00  0.00     0.260 C 
HETATM   29  N6  UNL     1       9.209  -3.878  -2.018  1.00  0.00    -0.069 N 
ATOM     30  H61 UNL     1       9.241  -4.001  -3.030  1.00  0.00     0.277 HD
ATOM     31  H62 UNL     1       8.787  -2.950  -1.981  1.00  0.00     0.277 HD
HETATM   32  C24 UNL     1       8.340  -4.884  -1.386  1.00  0.00     0.276 C 
HETATM   33  C25 UNL     1       7.381  -5.479  -2.374  1.00  0.00     0.085 C 
ENDROOT
BRANCH   1  34
HETATM   34  C4  UNL     1       5.880  -3.632  -2.593  1.00  0.00     0.152 C 
BRANCH  34  35
HETATM   35  C3  UNL     1       4.405  -3.299  -2.359  1.00  0.00     0.291 C 
BRANCH  35  36
HETATM   36  N1  UNL     1       4.173  -1.870  -2.275  1.00  0.00     0.081 N 
HETATM   37  C1  UNL     1       5.415  -1.165  -1.953  1.00  0.00     0.309 C 
HETATM   38  C2  UNL     1       3.667  -1.362  -3.556  1.00  0.00     0.309 C 
ENDBRANCH  35  36
ENDBRANCH  34  35
ENDBRANCH   1  34
TORSDOF 3
ENDMDL
MODEL 4
REMARK VINA RESULT: -7.022539952      4.885      9.436
REMARK  3 active torsions:
REMARK  status: ('A' for Active; 'I' for Inactive)
REMARK    1  A    between atoms: N1_2  and  C3_4 
REMARK    2  A    between atoms: C3_4  and  C4_5 
REMARK    3  A    between atoms: C4_5  and  N2_6 
ROOT
HETATM    1  N2  UNL     1       6.750  -5.957  -1.856  1.00  0.00    -0.387 N 
HETATM    2  C5  UNL     1       5.770  -6.305  -0.903  1.00  0.00     0.149 C 
HETATM    3  C6  UNL     1       6.255  -7.121   0.242  1.00  0.00    -0.011 C 
HETATM    4  C7  UNL     1       5.563  -8.106   0.790  1.00  0.00    -0.029 C 
HETATM    5  C8  UNL     1       4.226  -8.547   0.366  1.00  0.00     0.027 C 
HETATM    6  C9  UNL     1       4.236  -9.793  -0.457  1.00  0.00     0.005 C 
HETATM    7  C10 UNL     1       5.552 -10.534  -0.472  1.00  0.00     0.028 C 
HETATM    8  C11 UNL     1       5.771 -11.392   0.747  1.00  0.00     0.232 C 
HETATM    9  N3  UNL     1       7.198 -11.658   0.808  1.00  0.00    -0.073 N 
ATOM     10  H31 UNL     1       7.662 -11.023   1.457  1.00  0.00     0.277 HD
ATOM     11  H32 UNL     1       7.661 -11.376  -0.056  1.00  0.00     0.277 HD
HETATM   12  C12 UNL     1       7.490 -13.029   1.127  1.00  0.00     0.258 C 
HETATM   13  C13 UNL     1       8.738 -13.411   0.325  1.00  0.00     0.195 C 
HETATM   14  O1  UNL     1       9.880 -12.977   1.035  1.00  0.00    -0.389 OA
HETATM   15  C14 UNL     1      10.687 -12.169   0.271  1.00  0.00     0.167 C 
HETATM   16  C15 UNL     1      11.947 -12.936  -0.095  1.00  0.00     0.028 C 
HETATM   17  C16 UNL     1      12.871 -12.132  -0.968  1.00  0.00     0.032 C 
HETATM   18  C17 UNL     1      14.015 -11.536  -0.180  1.00  0.00     0.272 C 
HETATM   19  N4  UNL     1      13.672 -10.241   0.356  1.00  0.00     0.084 N 
HETATM   20  C18 UNL     1      14.717  -9.873   1.293  1.00  0.00     0.309 C 
HETATM   21  C19 UNL     1      13.574  -9.236  -0.700  1.00  0.00     0.273 C 
HETATM   22  C20 UNL     1      13.693  -7.894  -0.038  1.00  0.00     0.057 C 
HETATM   23  C21 UNL     1      13.606  -6.741  -0.995  1.00  0.00     0.234 C 
HETATM   24  N5  UNL     1      12.282  -6.472  -1.470  1.00  0.00    -0.073 N 
ATOM     25  H51 UNL     1      11.563  -6.702  -0.783  1.00  0.00     0.277 HD
ATOM     26  H52 UNL     1      11.986  -7.120  -2.200  1.00  0.00     0.277 HD
HETATM   27  C22 UNL     1      12.226  -5.077  -1.897  1.00  0.00     0.259 C 
HETATM   28  C23 UNL     1      11.118  -4.330  -1.192  1.00  0.00     0.260 C 
HETATM   29  N6  UNL     1       9.814  -4.578  -1.764  1.00  0.00    -0.069 N 
ATOM     30  H61 UNL     1       9.893  -4.980  -2.698  1.00  0.00     0.277 HD
ATOM     31  H62 UNL     1       9.344  -3.705  -2.003  1.00  0.00     0.277 HD
HETATM   32  C24 UNL     1       8.973  -5.415  -0.893  1.00  0.00     0.276 C 
HETATM   33  C25 UNL     1       8.086  -6.322  -1.693  1.00  0.00     0.085 C 
ENDROOT
BRANCH   1  34
HETATM   34  C4  UNL     1       6.502  -4.707  -2.465  1.00  0.00     0.152 C 
BRANCH  34  35
HETATM   35  C3  UNL     1       5.020  -4.369  -2.292  1.00  0.00     0.291 C 
BRANCH  35  36
HETATM   36  N1  UNL     1       4.716  -3.012  -2.703  1.00  0.00     0.081 N 
HETATM   37  C1  UNL     1       3.567  -2.494  -1.959  1.00  0.00     0.309 C 
HETATM   38  C2  UNL     1       5.867  -2.137  -2.453  1.00  0.00     0.309 C 
ENDBRANCH  35  36
ENDBRANCH  34  35
ENDBRANCH   1  34
TORSDOF 3
ENDMDL
MODEL 5
REMARK VINA RESULT: -7.006076373      2.385      6.334
REMARK  3 active torsions:
REMARK  status: ('A' for Active; 'I' for Inactive)
REMARK    1  A    between atoms: N1_2  and  C3_4 
REMARK    2  A    between atoms: C3_4  and  C4_5 
REMARK    3  A    between atoms: C4_5  and  N2_6 
ROOT
HETATM    1  N2  UNL     1       5.484  -6.503  -1.325  1.00  0.00    -0.387 N 
HETATM    2  C5  UNL     1       4.673  -5.361  -1.165  1.00  0.00     0.149 C 
HETATM    3  C6  UNL     1       3.436  -5.562  -0.364  1.00  0.00    -0.011 C 
HETATM    4  C7  UNL     1       2.275  -4.996  -0.646  1.00  0.00    -0.029 C 
HETATM    5  C8  UNL     1       2.019  -4.093  -1.777  1.00  0.00     0.027 C 
HETATM    6  C9  UNL     1       1.318  -4.746  -2.923  1.00  0.00     0.005 C 
HETATM    7  C10 UNL     1       0.744  -6.109  -2.623  1.00  0.00     0.028 C 
HETATM    8  C11 UNL     1      -0.578  -6.058  -1.903  1.00  0.00     0.232 C 
HETATM    9  N3  UNL     1      -0.766  -7.367  -1.300  1.00  0.00    -0.073 N 
ATOM     10  H31 UNL     1      -0.493  -7.361  -0.317  1.00  0.00     0.277 HD
ATOM     11  H32 UNL     1      -0.083  -8.036  -1.655  1.00  0.00     0.277 HD
HETATM   12  C12 UNL     1      -2.106  -7.861  -1.462  1.00  0.00     0.258 C 
HETATM   13  C13 UNL     1      -1.994  -9.375  -1.671  1.00  0.00     0.195 C 
HETATM   14  O1  UNL     1      -1.891  -9.998  -0.407  1.00  0.00    -0.389 OA
HETATM   15  C14 UNL     1      -0.775 -10.795  -0.313  1.00  0.00     0.167 C 
HETATM   16  C15 UNL     1      -1.208 -12.252  -0.326  1.00  0.00     0.028 C 
HETATM   17  C16 UNL     1      -0.038 -13.194  -0.265  1.00  0.00     0.032 C 
HETATM   18  C17 UNL     1       0.170 -13.747   1.127  1.00  0.00     0.272 C 
HETATM   19  N4  UNL     1       1.033 -12.898   1.911  1.00  0.00     0.084 N 
HETATM   20  C18 UNL     1       0.965 -13.364   3.283  1.00  0.00     0.309 C 
HETATM   21  C19 UNL     1       2.413 -12.954   1.434  1.00  0.00     0.273 C 
HETATM   22  C20 UNL     1       3.282 -12.453   2.551  1.00  0.00     0.057 C 
HETATM   23  C21 UNL     1       4.744 -12.442   2.217  1.00  0.00     0.234 C 
HETATM   24  N5  UNL     1       5.137 -11.383   1.336  1.00  0.00    -0.073 N 
ATOM     25  H51 UNL     1       4.571 -10.543   1.454  1.00  0.00     0.277 HD
ATOM     26  H52 UNL     1       4.901 -11.573   0.362  1.00  0.00     0.277 HD
HETATM   27  C22 UNL     1       6.562 -11.133   1.532  1.00  0.00     0.259 C 
HETATM   28  C23 UNL     1       6.825  -9.685   1.876  1.00  0.00     0.260 C 
HETATM   29  N6  UNL     1       6.810  -8.818   0.720  1.00  0.00    -0.069 N 
ATOM     30  H61 UNL     1       6.907  -9.352  -0.143  1.00  0.00     0.277 HD
ATOM     31  H62 UNL     1       7.666  -8.264   0.664  1.00  0.00     0.277 HD
HETATM   32  C24 UNL     1       5.617  -7.957   0.683  1.00  0.00     0.276 C 
HETATM   33  C25 UNL     1       5.155  -7.718  -0.724  1.00  0.00     0.085 C 
ENDROOT
BRANCH   1  34
HETATM   34  C4  UNL     1       6.858  -6.191  -1.420  1.00  0.00     0.152 C 
BRANCH  34  35
HETATM   35  C3  UNL     1       7.018  -4.985  -2.347  1.00  0.00     0.291 C 
BRANCH  35  36
HETATM   36  N1  UNL     1       8.369  -4.457  -2.331  1.00  0.00     0.081 N 
HETATM   37  C1  UNL     1       8.349  -2.995  -2.281  1.00  0.00     0.309 C 
HETATM   38  C2  UNL     1       9.093  -4.955  -1.156  1.00  0.00     0.309 C 
ENDBRANCH  35  36
ENDBRANCH  34  35
ENDBRANCH   1  34
TORSDOF 3
ENDMDL
