MODEL 1
REMARK VINA RESULT: -9.558728758      0.000      0.000
REMARK  10 active torsions:
REMARK  status: ('A' for Active; 'I' for Inactive)
REMARK    1  A    between atoms: C2_2  and  C3_3 
REMARK    2  A    between atoms: C3_3  and  N1_4 
REMARK       I    between atoms: N1_4  and  C4_6 
REMARK    3  A    between atoms: C4_6  and  C5_8 
REMARK    4  A    between atoms: C7_10  and  C8_11 
REMARK       I    between atoms: C8_11  and  N2_13 
REMARK    5  A    between atoms: N2_13  and  C9_15 
REMARK    6  A    between atoms: C9_15  and  C10_16 
REMARK    7  A    between atoms: C9_15  and  C20_33 
REMARK    8  A    between atoms: C10_16  and  O4_18 
REMARK    9  A    between atoms: O4_18  and  C11_19 
REMARK   10  A    between atoms: C12_20  and  O5_21 
ROOT
HETATM    1  C9  UNL     1     -21.466   5.418   1.078  1.00  0.00     0.207 C 
ENDROOT
BRANCH   1   2
HETATM    2  N2  UNL     1     -20.919   4.142   1.385  1.00  0.00    -0.345 N 
HETATM    3  C8  UNL     1     -21.402   3.145   2.253  1.00  0.00     0.223 C 
HETATM    4  O2  UNL     1     -22.485   3.360   2.868  1.00  0.00    -0.273 OA
ATOM      5  H2  UNL     1     -20.047   3.916   0.906  1.00  0.00     0.163 HD
BRANCH   3   6
HETATM    6  C7  UNL     1     -20.734   1.863   2.495  1.00  0.00     0.084 C 
HETATM    7  C6  UNL     1     -19.295   1.822   1.991  1.00  0.00     0.029 C 
HETATM    8  C5  UNL     1     -18.911   0.424   2.451  1.00  0.00     0.084 C 
HETATM    9  C24 UNL     1     -19.370   0.470   3.889  1.00  0.00     0.012 A 
HETATM   10  C23 UNL     1     -20.601   1.430   3.906  1.00  0.00     0.012 A 
HETATM   11  C25 UNL     1     -20.707  -0.021   4.285  1.00  0.00    -0.038 A 
HETATM   12  C26 UNL     1     -20.845  -0.329   5.776  1.00  0.00     0.015 C 
HETATM   13  C27 UNL     1     -21.532  -0.890   3.413  1.00  0.00     0.015 C 
BRANCH   8  14
HETATM   14  C4  UNL     1     -17.445   0.197   2.354  1.00  0.00     0.222 C 
HETATM   15  N1  UNL     1     -16.602   1.113   3.030  1.00  0.00    -0.357 N 
ATOM     16  H1  UNL     1     -17.008   1.887   3.557  1.00  0.00     0.162 HD
HETATM   17  O1  UNL     1     -16.959  -0.746   1.716  1.00  0.00    -0.273 OA
BRANCH  15  18
HETATM   18  C3  UNL     1     -15.161   0.950   2.972  1.00  0.00     0.149 C 
BRANCH  18  19
HETATM   19  C2  UNL     1     -14.495   2.097   2.253  1.00  0.00    -0.018 C 
HETATM   20  C1  UNL     1     -15.028   3.302   2.294  1.00  0.00     0.008 C 
ENDBRANCH  18  19
ENDBRANCH  15  18
ENDBRANCH   8  14
ENDBRANCH   3   6
ENDBRANCH   1   2
BRANCH   1  21
HETATM   21  C10 UNL     1     -21.766   6.172   2.324  1.00  0.00     0.284 C 
HETATM   22  O3  UNL     1     -20.826   6.355   3.168  1.00  0.00    -0.263 OA
BRANCH  21  23
HETATM   23  O4  UNL     1     -22.965   6.708   2.688  1.00  0.00    -0.310 OA
BRANCH  23  24
HETATM   24  C11 UNL     1     -24.227   6.316   2.126  1.00  0.00     0.179 C 
HETATM   25  C12 UNL     1     -24.434   7.205   0.916  1.00  0.00     0.217 C 
HETATM   26  C13 UNL     1     -24.906   8.548   1.280  1.00  0.00     0.160 C 
HETATM   27  O6  UNL     1     -24.343   9.542   0.896  1.00  0.00    -0.295 OA
HETATM   28  C14 UNL     1     -26.118   8.682   2.156  1.00  0.00     0.114 C 
HETATM   29  C15 UNL     1     -26.531   7.296   2.483  1.00  0.00     0.150 C 
HETATM   30  O7  UNL     1     -27.476   7.153   3.532  1.00  0.00    -0.311 OA
HETATM   31  C19 UNL     1     -25.358   6.509   3.093  1.00  0.00     0.086 C 
HETATM   32  C16 UNL     1     -27.411   5.769   3.823  1.00  0.00     0.289 C 
HETATM   33  O8  UNL     1     -28.333   5.094   4.396  1.00  0.00    -0.260 OA
HETATM   34  C17 UNL     1     -26.129   5.250   3.360  1.00  0.00     0.017 C 
HETATM   35  C18 UNL     1     -25.812   3.993   3.223  1.00  0.00     0.025 C 
BRANCH  25  36
HETATM   36  O5  UNL     1     -25.204   6.587  -0.065  1.00  0.00    -0.385 OA
ATOM     37  H5  UNL     1     -25.066   6.969  -0.923  1.00  0.00     0.210 HD
ENDBRANCH  25  36
ENDBRANCH  23  24
ENDBRANCH  21  23
ENDBRANCH   1  21
BRANCH   1  38
HETATM   38  C20 UNL     1     -20.834   6.245   0.044  1.00  0.00     0.059 C 
HETATM   39  C21 UNL     1     -19.317   6.056   0.140  1.00  0.00     0.035 C 
HETATM   40  C22 UNL     1     -21.216   6.018  -1.376  1.00  0.00     0.035 C 
HETATM   41 CL1  UNL     1     -21.075   8.005   0.354  1.00  0.00    -0.117 Cl
ENDBRANCH   1  38
TORSDOF 10
ENDMDL
MODEL 2
REMARK VINA RESULT: -9.522814246      3.420      6.236
REMARK  10 active torsions:
REMARK  status: ('A' for Active; 'I' for Inactive)
REMARK    1  A    between atoms: C2_2  and  C3_3 
REMARK    2  A    between atoms: C3_3  and  N1_4 
REMARK       I    between atoms: N1_4  and  C4_6 
REMARK    3  A    between atoms: C4_6  and  C5_8 
REMARK    4  A    between atoms: C7_10  and  C8_11 
REMARK       I    between atoms: C8_11  and  N2_13 
REMARK    5  A    between atoms: N2_13  and  C9_15 
REMARK    6  A    between atoms: C9_15  and  C10_16 
REMARK    7  A    between atoms: C9_15  and  C20_33 
REMARK    8  A    between atoms: C10_16  and  O4_18 
REMARK    9  A    between atoms: O4_18  and  C11_19 
REMARK   10  A    between atoms: C12_20  and  O5_21 
ROOT
HETATM    1  C9  UNL     1     -20.385   6.124   2.139  1.00  0.00     0.207 C 
ENDROOT
BRANCH   1   2
HETATM    2  N2  UNL     1     -19.986   4.762   2.224  1.00  0.00    -0.345 N 
HETATM    3  C8  UNL     1     -20.606   3.687   2.888  1.00  0.00     0.223 C 
HETATM    4  O2  UNL     1     -21.685   3.907   3.508  1.00  0.00    -0.273 OA
ATOM      5  H2  UNL     1     -19.124   4.529   1.731  1.00  0.00     0.163 HD
BRANCH   3   6
HETATM    6  C7  UNL     1     -20.085   2.316   2.911  1.00  0.00     0.084 C 
HETATM    7  C6  UNL     1     -18.685   2.188   2.319  1.00  0.00     0.029 C 
HETATM    8  C5  UNL     1     -18.451   0.704   2.558  1.00  0.00     0.084 C 
HETATM    9  C24 UNL     1     -18.837   0.594   4.014  1.00  0.00     0.012 A 
HETATM   10  C23 UNL     1     -19.943   1.673   4.238  1.00  0.00     0.012 A 
HETATM   11  C25 UNL     1     -20.204   0.203   4.419  1.00  0.00    -0.038 A 
HETATM   12  C26 UNL     1     -20.311  -0.299   5.859  1.00  0.00     0.015 C 
HETATM   13  C27 UNL     1     -21.164  -0.433   3.487  1.00  0.00     0.015 C 
BRANCH   8  14
HETATM   14  C4  UNL     1     -17.028   0.331   2.341  1.00  0.00     0.222 C 
HETATM   15  N1  UNL     1     -16.043   1.182   2.903  1.00  0.00    -0.357 N 
ATOM     16  H1  UNL     1     -16.324   2.008   3.432  1.00  0.00     0.162 HD
HETATM   17  O1  UNL     1     -16.694  -0.675   1.703  1.00  0.00    -0.273 OA
BRANCH  15  18
HETATM   18  C3  UNL     1     -14.636   0.876   2.726  1.00  0.00     0.149 C 
BRANCH  18  19
HETATM   19  C2  UNL     1     -13.897   2.005   2.051  1.00  0.00    -0.018 C 
HETATM   20  C1  UNL     1     -14.367   3.235   2.118  1.00  0.00     0.008 C 
ENDBRANCH  18  19
ENDBRANCH  15  18
ENDBRANCH   8  14
ENDBRANCH   3   6
ENDBRANCH   1   2
BRANCH   1  21
HETATM   21  C10 UNL     1     -19.207   7.022   2.267  1.00  0.00     0.284 C 
HETATM   22  O3  UNL     1     -18.975   7.570   3.397  1.00  0.00    -0.263 OA
BRANCH  21  23
HETATM   23  O4  UNL     1     -18.313   7.344   1.290  1.00  0.00    -0.310 OA
BRANCH  23  24
HETATM   24  C11 UNL     1     -18.055   8.685   0.845  1.00  0.00     0.179 C 
HETATM   25  C12 UNL     1     -17.855   8.590  -0.655  1.00  0.00     0.217 C 
HETATM   26  C13 UNL     1     -16.513   8.111  -1.014  1.00  0.00     0.160 C 
HETATM   27  O6  UNL     1     -16.353   7.174  -1.755  1.00  0.00    -0.295 OA
HETATM   28  C14 UNL     1     -15.313   8.806  -0.438  1.00  0.00     0.114 C 
HETATM   29  C15 UNL     1     -15.851   9.862   0.453  1.00  0.00     0.150 C 
HETATM   30  O7  UNL     1     -14.923  10.470   1.338  1.00  0.00    -0.311 OA
HETATM   31  C19 UNL     1     -16.824   9.262   1.481  1.00  0.00     0.086 C 
HETATM   32  C16 UNL     1     -15.765  11.156   2.247  1.00  0.00     0.289 C 
HETATM   33  O8  UNL     1     -15.412  12.151   2.967  1.00  0.00    -0.260 OA
HETATM   34  C17 UNL     1     -17.087  10.540   2.221  1.00  0.00     0.017 C 
HETATM   35  C18 UNL     1     -18.180  11.044   2.723  1.00  0.00     0.025 C 
BRANCH  25  36
HETATM   36  O5  UNL     1     -18.226   9.761  -1.310  1.00  0.00    -0.385 OA
ATOM     37  H5  UNL     1     -18.730   9.588  -2.096  1.00  0.00     0.210 HD
ENDBRANCH  25  36
ENDBRANCH  23  24
ENDBRANCH  21  23
ENDBRANCH   1  21
BRANCH   1  38
HETATM   38  C20 UNL     1     -21.314   6.540   1.083  1.00  0.00     0.059 C 
HETATM   39  C21 UNL     1     -20.826   5.950  -0.243  1.00  0.00     0.035 C 
HETATM   40  C22 UNL     1     -22.751   6.182   1.222  1.00  0.00     0.035 C 
HETATM   41 CL1  UNL     1     -21.264   8.322   0.811  1.00  0.00    -0.117 Cl
ENDBRANCH   1  38
TORSDOF 10
ENDMDL
MODEL 3
REMARK VINA RESULT: -9.444994332      3.315      5.617
REMARK  10 active torsions:
REMARK  status: ('A' for Active; 'I' for Inactive)
REMARK    1  A    between atoms: C2_2  and  C3_3 
REMARK    2  A    between atoms: C3_3  and  N1_4 
REMARK       I    between atoms: N1_4  and  C4_6 
REMARK    3  A    between atoms: C4_6  and  C5_8 
REMARK    4  A    between atoms: C7_10  and  C8_11 
REMARK       I    between atoms: C8_11  and  N2_13 
REMARK    5  A    between atoms: N2_13  and  C9_15 
REMARK    6  A    between atoms: C9_15  and  C10_16 
REMARK    7  A    between atoms: C9_15  and  C20_33 
REMARK    8  A    between atoms: C10_16  and  O4_18 
REMARK    9  A    between atoms: O4_18  and  C11_19 
REMARK   10  A    between atoms: C12_20  and  O5_21 
ROOT
HETATM    1  C9  UNL     1     -20.166   5.835   1.732  1.00  0.00     0.207 C 
ENDROOT
BRANCH   1   2
HETATM    2  N2  UNL     1     -19.856   4.466   1.959  1.00  0.00    -0.345 N 
HETATM    3  C8  UNL     1     -20.554   3.502   2.710  1.00  0.00     0.223 C 
HETATM    4  O2  UNL     1     -21.627   3.849   3.281  1.00  0.00    -0.273 OA
ATOM      5  H2  UNL     1     -19.002   4.133   1.511  1.00  0.00     0.163 HD
BRANCH   3   6
HETATM    6  C7  UNL     1     -20.122   2.111   2.879  1.00  0.00     0.084 C 
HETATM    7  C6  UNL     1     -18.694   1.857   2.408  1.00  0.00     0.029 C 
HETATM    8  C5  UNL     1     -18.569   0.387   2.779  1.00  0.00     0.084 C 
HETATM    9  C24 UNL     1     -19.064   0.418   4.205  1.00  0.00     0.012 A 
HETATM   10  C23 UNL     1     -20.115   1.572   4.259  1.00  0.00     0.012 A 
HETATM   11  C25 UNL     1     -20.478   0.139   4.533  1.00  0.00    -0.038 A 
HETATM   12  C26 UNL     1     -20.719  -0.236   5.996  1.00  0.00     0.015 C 
HETATM   13  C27 UNL     1     -21.407  -0.517   3.583  1.00  0.00     0.015 C 
BRANCH   8  14
HETATM   14  C4  UNL     1     -17.159  -0.082   2.701  1.00  0.00     0.222 C 
HETATM   15  N1  UNL     1     -16.156   0.908   2.552  1.00  0.00    -0.357 N 
ATOM     16  H1  UNL     1     -16.414   1.894   2.505  1.00  0.00     0.162 HD
HETATM   17  O1  UNL     1     -16.852  -1.279   2.763  1.00  0.00    -0.273 OA
BRANCH  15  18
HETATM   18  C3  UNL     1     -14.761   0.517   2.467  1.00  0.00     0.149 C 
BRANCH  18  19
HETATM   19  C2  UNL     1     -13.868   1.691   2.144  1.00  0.00    -0.018 C 
HETATM   20  C1  UNL     1     -14.362   2.913   2.135  1.00  0.00     0.008 C 
ENDBRANCH  18  19
ENDBRANCH  15  18
ENDBRANCH   8  14
ENDBRANCH   3   6
ENDBRANCH   1   2
BRANCH   1  21
HETATM   21  C10 UNL     1     -19.214   6.714   2.462  1.00  0.00     0.284 C 
HETATM   22  O3  UNL     1     -18.105   6.219   2.855  1.00  0.00    -0.263 OA
BRANCH  21  23
HETATM   23  O4  UNL     1     -19.388   8.029   2.773  1.00  0.00    -0.310 OA
BRANCH  23  24
HETATM   24  C11 UNL     1     -18.430   9.059   2.481  1.00  0.00     0.179 C 
HETATM   25  C12 UNL     1     -19.087  10.361   2.894  1.00  0.00     0.217 C 
HETATM   26  C13 UNL     1     -20.052  10.845   1.897  1.00  0.00     0.160 C 
HETATM   27  O6  UNL     1     -21.186  11.124   2.197  1.00  0.00    -0.295 OA
HETATM   28  C14 UNL     1     -19.614  10.988   0.468  1.00  0.00     0.114 C 
HETATM   29  C15 UNL     1     -18.206  10.524   0.432  1.00  0.00     0.150 C 
HETATM   30  O7  UNL     1     -17.655  10.287  -0.854  1.00  0.00    -0.311 OA
HETATM   31  C19 UNL     1     -18.085   9.109   1.022  1.00  0.00     0.086 C 
HETATM   32  C16 UNL     1     -16.475   9.563  -0.558  1.00  0.00     0.289 C 
HETATM   33  O8  UNL     1     -15.457   9.472  -1.325  1.00  0.00    -0.260 OA
HETATM   34  C17 UNL     1     -16.618   8.947   0.756  1.00  0.00     0.017 C 
HETATM   35  C18 UNL     1     -15.659   8.423   1.468  1.00  0.00     0.025 C 
BRANCH  25  36
HETATM   36  O5  UNL     1     -18.155  11.320   3.281  1.00  0.00    -0.385 OA
ATOM     37  H5  UNL     1     -17.282  10.957   3.371  1.00  0.00     0.210 HD
ENDBRANCH  25  36
ENDBRANCH  23  24
ENDBRANCH  21  23
ENDBRANCH   1  21
BRANCH   1  38
HETATM   38  C20 UNL     1     -20.444   6.296   0.367  1.00  0.00     0.059 C 
HETATM   39  C21 UNL     1     -21.007   5.116  -0.431  1.00  0.00     0.035 C 
HETATM   40  C22 UNL     1     -21.378   7.438   0.181  1.00  0.00     0.035 C 
HETATM   41 CL1  UNL     1     -18.932   6.735  -0.512  1.00  0.00    -0.117 Cl
ENDBRANCH   1  38
TORSDOF 10
ENDMDL
MODEL 4
REMARK VINA RESULT: -9.427647262      2.505      8.773
REMARK  10 active torsions:
REMARK  status: ('A' for Active; 'I' for Inactive)
REMARK    1  A    between atoms: C2_2  and  C3_3 
REMARK    2  A    between atoms: C3_3  and  N1_4 
REMARK       I    between atoms: N1_4  and  C4_6 
REMARK    3  A    between atoms: C4_6  and  C5_8 
REMARK    4  A    between atoms: C7_10  and  C8_11 
REMARK       I    between atoms: C8_11  and  N2_13 
REMARK    5  A    between atoms: N2_13  and  C9_15 
REMARK    6  A    between atoms: C9_15  and  C10_16 
REMARK    7  A    between atoms: C9_15  and  C20_33 
REMARK    8  A    between atoms: C10_16  and  O4_18 
REMARK    9  A    between atoms: O4_18  and  C11_19 
REMARK   10  A    between atoms: C12_20  and  O5_21 
ROOT
HETATM    1  C9  UNL     1     -20.302   4.900   1.785  1.00  0.00     0.207 C 
ENDROOT
BRANCH   1   2
HETATM    2  N2  UNL     1     -21.675   5.239   1.636  1.00  0.00    -0.345 N 
HETATM    3  C8  UNL     1     -22.597   5.688   2.599  1.00  0.00     0.223 C 
HETATM    4  O2  UNL     1     -22.195   5.839   3.788  1.00  0.00    -0.273 OA
ATOM      5  H2  UNL     1     -22.047   5.142   0.691  1.00  0.00     0.163 HD
BRANCH   3   6
HETATM    6  C7  UNL     1     -24.003   5.996   2.320  1.00  0.00     0.084 C 
HETATM    7  C6  UNL     1     -24.950   5.587   3.443  1.00  0.00     0.029 C 
HETATM    8  C5  UNL     1     -26.260   6.097   2.861  1.00  0.00     0.084 C 
HETATM    9  C24 UNL     1     -25.862   7.501   2.472  1.00  0.00     0.012 A 
HETATM   10  C23 UNL     1     -24.348   7.421   2.100  1.00  0.00     0.012 A 
HETATM   11  C25 UNL     1     -25.401   7.819   1.104  1.00  0.00    -0.038 A 
HETATM   12  C26 UNL     1     -25.477   9.303   0.746  1.00  0.00     0.015 C 
HETATM   13  C27 UNL     1     -25.622   6.911  -0.046  1.00  0.00     0.015 C 
BRANCH   8  14
HETATM   14  C4  UNL     1     -27.348   6.099   3.874  1.00  0.00     0.222 C 
HETATM   15  N1  UNL     1     -27.294   5.106   4.883  1.00  0.00    -0.357 N 
ATOM     16  H1  UNL     1     -26.529   4.430   4.895  1.00  0.00     0.162 HD
HETATM   17  O1  UNL     1     -28.271   6.923   3.857  1.00  0.00    -0.273 OA
BRANCH  15  18
HETATM   18  C3  UNL     1     -28.327   5.050   5.901  1.00  0.00     0.149 C 
BRANCH  18  19
HETATM   19  C2  UNL     1     -27.775   4.628   7.240  1.00  0.00    -0.018 C 
HETATM   20  C1  UNL     1     -26.746   5.268   7.761  1.00  0.00     0.008 C 
ENDBRANCH  18  19
ENDBRANCH  15  18
ENDBRANCH   8  14
ENDBRANCH   3   6
ENDBRANCH   1   2
BRANCH   1  21
HETATM   21  C10 UNL     1     -20.022   3.574   1.174  1.00  0.00     0.284 C 
HETATM   22  O3  UNL     1     -20.517   3.313   0.027  1.00  0.00    -0.263 OA
BRANCH  21  23
HETATM   23  O4  UNL     1     -19.275   2.567   1.709  1.00  0.00    -0.310 OA
BRANCH  23  24
HETATM   24  C11 UNL     1     -19.782   1.593   2.634  1.00  0.00     0.179 C 
HETATM   25  C12 UNL     1     -18.564   0.929   3.243  1.00  0.00     0.217 C 
HETATM   26  C13 UNL     1     -17.972  -0.083   2.356  1.00  0.00     0.160 C 
HETATM   27  O6  UNL     1     -16.803  -0.061   2.062  1.00  0.00    -0.295 OA
HETATM   28  C14 UNL     1     -18.850  -1.165   1.798  1.00  0.00     0.114 C 
HETATM   29  C15 UNL     1     -20.213  -0.878   2.306  1.00  0.00     0.150 C 
HETATM   30  O7  UNL     1     -21.276  -1.587   1.690  1.00  0.00    -0.311 OA
HETATM   31  C19 UNL     1     -20.632   0.559   1.954  1.00  0.00     0.086 C 
HETATM   32  C16 UNL     1     -22.419  -0.879   2.131  1.00  0.00     0.289 C 
HETATM   33  O8  UNL     1     -23.605  -1.353   2.176  1.00  0.00    -0.260 OA
HETATM   34  C17 UNL     1     -22.018   0.468   2.521  1.00  0.00     0.017 C 
HETATM   35  C18 UNL     1     -22.733   1.316   3.206  1.00  0.00     0.025 C 
BRANCH  25  36
HETATM   36  O5  UNL     1     -18.805   0.468   4.534  1.00  0.00    -0.385 OA
ATOM     37  H5  UNL     1     -18.761   1.165   5.178  1.00  0.00     0.210 HD
ENDBRANCH  25  36
ENDBRANCH  23  24
ENDBRANCH  21  23
ENDBRANCH   1  21
BRANCH   1  38
HETATM   38  C20 UNL     1     -19.275   5.902   1.482  1.00  0.00     0.059 C 
HETATM   39  C21 UNL     1     -19.805   6.811   0.369  1.00  0.00     0.035 C 
HETATM   40  C22 UNL     1     -18.798   6.784   2.581  1.00  0.00     0.035 C 
HETATM   41 CL1  UNL     1     -17.799   5.152   0.764  1.00  0.00    -0.117 Cl
ENDBRANCH   1  38
TORSDOF 10
ENDMDL
MODEL 5
REMARK VINA RESULT: -9.404301587      3.099      5.934
REMARK  10 active torsions:
REMARK  status: ('A' for Active; 'I' for Inactive)
REMARK    1  A    between atoms: C2_2  and  C3_3 
REMARK    2  A    between atoms: C3_3  and  N1_4 
REMARK       I    between atoms: N1_4  and  C4_6 
REMARK    3  A    between atoms: C4_6  and  C5_8 
REMARK    4  A    between atoms: C7_10  and  C8_11 
REMARK       I    between atoms: C8_11  and  N2_13 
REMARK    5  A    between atoms: N2_13  and  C9_15 
REMARK    6  A    between atoms: C9_15  and  C10_16 
REMARK    7  A    between atoms: C9_15  and  C20_33 
REMARK    8  A    between atoms: C10_16  and  O4_18 
REMARK    9  A    between atoms: O4_18  and  C11_19 
REMARK   10  A    between atoms: C12_20  and  O5_21 
ROOT
HETATM    1  C9  UNL     1     -20.925   6.301   1.341  1.00  0.00     0.207 C 
ENDROOT
BRANCH   1   2
HETATM    2  N2  UNL     1     -20.817   4.889   1.479  1.00  0.00    -0.345 N 
HETATM    3  C8  UNL     1     -20.749   4.105   2.646  1.00  0.00     0.223 C 
HETATM    4  O2  UNL     1     -20.798   4.691   3.765  1.00  0.00    -0.273 OA
ATOM      5  H2  UNL     1     -20.783   4.368   0.603  1.00  0.00     0.163 HD
BRANCH   3   6
HETATM    6  C7  UNL     1     -20.627   2.644   2.656  1.00  0.00     0.084 C 
HETATM    7  C6  UNL     1     -19.346   2.137   2.003  1.00  0.00     0.029 C 
HETATM    8  C5  UNL     1     -19.520   0.645   2.243  1.00  0.00     0.084 C 
HETATM    9  C24 UNL     1     -19.853   0.639   3.717  1.00  0.00     0.012 A 
HETATM   10  C23 UNL     1     -20.606   1.981   3.981  1.00  0.00     0.012 A 
HETATM   11  C25 UNL     1     -21.254   0.640   4.187  1.00  0.00    -0.038 A 
HETATM   12  C26 UNL     1     -21.429   0.181   5.635  1.00  0.00     0.015 C 
HETATM   13  C27 UNL     1     -22.395   0.298   3.306  1.00  0.00     0.015 C 
BRANCH   8  14
HETATM   14  C4  UNL     1     -18.267  -0.106   1.965  1.00  0.00     0.222 C 
HETATM   15  N1  UNL     1     -17.046   0.512   2.335  1.00  0.00    -0.357 N 
ATOM     16  H1  UNL     1     -17.053   1.433   2.774  1.00  0.00     0.162 HD
HETATM   17  O1  UNL     1     -18.265  -1.225   1.436  1.00  0.00    -0.273 OA
BRANCH  15  18
HETATM   18  C3  UNL     1     -15.787  -0.166   2.088  1.00  0.00     0.149 C 
BRANCH  18  19
HETATM   19  C2  UNL     1     -14.616   0.600   2.654  1.00  0.00    -0.018 C 
HETATM   20  C1  UNL     1     -13.875   1.352   1.864  1.00  0.00     0.008 C 
ENDBRANCH  18  19
ENDBRANCH  15  18
ENDBRANCH   8  14
ENDBRANCH   3   6
ENDBRANCH   1   2
BRANCH   1  21
HETATM   21  C10 UNL     1     -20.035   6.789   0.255  1.00  0.00     0.284 C 
HETATM   22  O3  UNL     1     -20.186   6.310  -0.920  1.00  0.00    -0.263 OA
BRANCH  21  23
HETATM   23  O4  UNL     1     -19.044   7.718   0.363  1.00  0.00    -0.310 OA
BRANCH  23  24
HETATM   24  C11 UNL     1     -17.808   7.498   1.061  1.00  0.00     0.179 C 
HETATM   25  C12 UNL     1     -16.741   8.192   0.238  1.00  0.00     0.217 C 
HETATM   26  C13 UNL     1     -16.330   7.402  -0.931  1.00  0.00     0.160 C 
HETATM   27  O6  UNL     1     -16.336   7.868  -2.043  1.00  0.00    -0.295 OA
HETATM   28  C14 UNL     1     -15.898   5.978  -0.733  1.00  0.00     0.114 C 
HETATM   29  C15 UNL     1     -16.052   5.710   0.717  1.00  0.00     0.150 C 
HETATM   30  O7  UNL     1     -15.985   4.350   1.115  1.00  0.00    -0.311 OA
HETATM   31  C19 UNL     1     -17.481   6.038   1.181  1.00  0.00     0.086 C 
HETATM   32  C16 UNL     1     -16.485   4.389   2.440  1.00  0.00     0.289 C 
HETATM   33  O8  UNL     1     -16.255   3.510   3.338  1.00  0.00    -0.260 OA
HETATM   34  C17 UNL     1     -17.298   5.590   2.601  1.00  0.00     0.017 C 
HETATM   35  C18 UNL     1     -17.708   6.094   3.731  1.00  0.00     0.025 C 
BRANCH  25  36
HETATM   36  O5  UNL     1     -15.676   8.630   1.020  1.00  0.00    -0.385 OA
ATOM     37  H5  UNL     1     -15.118   7.914   1.301  1.00  0.00     0.210 HD
ENDBRANCH  25  36
ENDBRANCH  23  24
ENDBRANCH  21  23
ENDBRANCH   1  21
BRANCH   1  38
HETATM   38  C20 UNL     1     -22.252   6.924   1.323  1.00  0.00     0.059 C 
HETATM   39  C21 UNL     1     -22.079   8.428   1.558  1.00  0.00     0.035 C 
HETATM   40  C22 UNL     1     -23.093   6.764   0.106  1.00  0.00     0.035 C 
HETATM   41 CL1  UNL     1     -23.267   6.381   2.711  1.00  0.00    -0.117 Cl
ENDBRANCH   1  38
TORSDOF 10
ENDMDL
