MODEL 1
REMARK VINA RESULT: -6.805961239      0.000      0.000
REMARK  6 active torsions:
REMARK  status: ('A' for Active; 'I' for Inactive)
REMARK    1  A    between atoms: C2_2  and  O1_3 
REMARK    2  A    between atoms: O1_3  and  C3_4 
REMARK    3  A    between atoms: C3_4  and  C4_6 
REMARK    4  A    between atoms: C5_7  and  O3_8 
REMARK    5  A    between atoms: C7_11  and  N1_12 
REMARK    6  A    between atoms: C9_16  and  C10_17 
ROOT
HETATM    1  C4  UNL     1     -24.691  -9.857  51.888  1.00  0.00     0.125 C 
HETATM    2  C5  UNL     1     -24.571 -10.198  53.358  1.00  0.00     0.134 C 
HETATM    3  C6  UNL     1     -25.625 -11.128  53.839  1.00  0.00     0.058 C 
HETATM    4  C7  UNL     1     -27.002 -10.626  53.910  1.00  0.00     0.100 C 
HETATM    5  C12 UNL     1     -27.431  -9.656  52.876  1.00  0.00     0.050 C 
HETATM    6  C13 UNL     1     -26.592  -8.432  52.737  1.00  0.00     0.023 C 
HETATM    7  C14 UNL     1     -25.916  -9.049  51.566  1.00  0.00     0.008 C 
HETATM    8  C15 UNL     1     -25.808  -8.218  50.322  1.00  0.00     0.020 C 
HETATM    9  C16 UNL     1     -27.091 -10.029  51.475  1.00  0.00     0.113 C 
HETATM   10  C17 UNL     1     -28.173  -9.573  50.522  1.00  0.00     0.053 C 
HETATM   11  F1  UNL     1     -26.748 -11.321  51.220  1.00  0.00    -0.242 F 
ENDROOT
BRANCH   4  12
HETATM   12  N1  UNL     1     -27.373 -10.092  55.214  1.00  0.00    -0.345 N 
HETATM   13  C8  UNL     1     -28.564 -10.228  55.826  1.00  0.00     0.183 A 
HETATM   14  N2  UNL     1     -28.535  -9.594  57.030  1.00  0.00    -0.346 N 
HETATM   15  C9  UNL     1     -27.335  -9.051  57.192  1.00  0.00     0.126 A 
ATOM     16  H2  UNL     1     -29.306  -9.544  57.696  1.00  0.00     0.167 HD
HETATM   17  C11 UNL     1     -26.615  -9.366  56.056  1.00  0.00     0.129 A 
BRANCH  15  18
HETATM   18  C10 UNL     1     -26.799  -8.268  58.310  1.00  0.00     0.228 C 
HETATM   19  O4  UNL     1     -25.580  -7.998  58.394  1.00  0.00    -0.643 OA
HETATM   20  O5  UNL     1     -27.632  -7.799  59.318  1.00  0.00    -0.643 OA
ENDBRANCH  15  18
ENDBRANCH   4  12
BRANCH   2  21
HETATM   21  O3  UNL     1     -23.351 -10.919  53.456  1.00  0.00    -0.395 OA
ATOM     22  H3  UNL     1     -23.495 -11.700  52.935  1.00  0.00     0.210 HD
ENDBRANCH   2  21
BRANCH   1  23
HETATM   23  C3  UNL     1     -23.475  -9.086  51.530  1.00  0.00     0.266 C 
HETATM   24  O2  UNL     1     -23.080  -8.172  52.290  1.00  0.00    -0.265 OA
BRANCH  23  25
HETATM   25  O1  UNL     1     -22.738  -9.323  50.386  1.00  0.00    -0.321 OA
BRANCH  25  26
HETATM   26  C2  UNL     1     -21.307  -9.301  50.451  1.00  0.00     0.174 C 
HETATM   27  C1  UNL     1     -20.800 -10.333  51.428  1.00  0.00     0.034 C 
ENDBRANCH  25  26
ENDBRANCH  23  25
ENDBRANCH   1  23
TORSDOF 6
ENDMDL
MODEL 2
REMARK VINA RESULT: -6.729819085      3.153      6.085
REMARK  6 active torsions:
REMARK  status: ('A' for Active; 'I' for Inactive)
REMARK    1  A    between atoms: C2_2  and  O1_3 
REMARK    2  A    between atoms: O1_3  and  C3_4 
REMARK    3  A    between atoms: C3_4  and  C4_6 
REMARK    4  A    between atoms: C5_7  and  O3_8 
REMARK    5  A    between atoms: C7_11  and  N1_12 
REMARK    6  A    between atoms: C9_16  and  C10_17 
ROOT
HETATM    1  C4  UNL     1     -23.304 -10.307  54.552  1.00  0.00     0.125 C 
HETATM    2  C5  UNL     1     -24.746 -10.169  54.112  1.00  0.00     0.134 C 
HETATM    3  C6  UNL     1     -25.048 -10.871  52.838  1.00  0.00     0.058 C 
HETATM    4  C7  UNL     1     -24.460 -10.337  51.605  1.00  0.00     0.100 C 
HETATM    5  C12 UNL     1     -23.110  -9.733  51.696  1.00  0.00     0.050 C 
HETATM    6  C13 UNL     1     -22.947  -8.639  52.694  1.00  0.00     0.023 C 
HETATM    7  C14 UNL     1     -22.337  -9.612  53.637  1.00  0.00     0.008 C 
HETATM    8  C15 UNL     1     -21.039  -9.221  54.279  1.00  0.00     0.020 C 
HETATM    9  C16 UNL     1     -22.103 -10.540  52.440  1.00  0.00     0.113 C 
HETATM   10  C17 UNL     1     -20.730 -10.382  51.824  1.00  0.00     0.053 C 
HETATM   11  F1  UNL     1     -22.372 -11.855  52.665  1.00  0.00    -0.242 F 
ENDROOT
BRANCH   4  12
HETATM   12  N1  UNL     1     -25.324  -9.408  50.888  1.00  0.00    -0.345 N 
HETATM   13  C8  UNL     1     -24.939  -8.290  50.245  1.00  0.00     0.183 A 
HETATM   14  N2  UNL     1     -26.026  -7.682  49.694  1.00  0.00    -0.346 N 
HETATM   15  C9  UNL     1     -27.103  -8.403  49.982  1.00  0.00     0.126 A 
ATOM     16  H2  UNL     1     -26.014  -6.819  49.152  1.00  0.00     0.167 HD
HETATM   17  C11 UNL     1     -26.657  -9.478  50.726  1.00  0.00     0.129 A 
BRANCH  15  18
HETATM   18  C10 UNL     1     -28.507  -8.180  49.624  1.00  0.00     0.228 C 
HETATM   19  O4  UNL     1     -29.354  -9.097  49.700  1.00  0.00    -0.643 OA
HETATM   20  O5  UNL     1     -28.944  -6.936  49.186  1.00  0.00    -0.643 OA
ENDBRANCH  15  18
ENDBRANCH   4  12
BRANCH   2  21
HETATM   21  O3  UNL     1     -25.489 -10.853  55.111  1.00  0.00    -0.395 OA
ATOM     22  H3  UNL     1     -26.382 -10.844  54.790  1.00  0.00     0.210 HD
ENDBRANCH   2  21
BRANCH   1  23
HETATM   23  C3  UNL     1     -23.216  -9.722  55.912  1.00  0.00     0.266 C 
HETATM   24  O2  UNL     1     -22.572 -10.327  56.802  1.00  0.00    -0.265 OA
BRANCH  23  25
HETATM   25  O1  UNL     1     -23.811  -8.526  56.263  1.00  0.00    -0.321 OA
BRANCH  25  26
HETATM   26  C2  UNL     1     -24.365  -8.371  57.575  1.00  0.00     0.174 C 
HETATM   27  C1  UNL     1     -25.871  -8.299  57.514  1.00  0.00     0.034 C 
ENDBRANCH  25  26
ENDBRANCH  23  25
ENDBRANCH   1  23
TORSDOF 6
ENDMDL
MODEL 3
REMARK VINA RESULT: -6.723212099      4.365      5.438
REMARK  6 active torsions:
REMARK  status: ('A' for Active; 'I' for Inactive)
REMARK    1  A    between atoms: C2_2  and  O1_3 
REMARK    2  A    between atoms: O1_3  and  C3_4 
REMARK    3  A    between atoms: C3_4  and  C4_6 
REMARK    4  A    between atoms: C5_7  and  O3_8 
REMARK    5  A    between atoms: C7_11  and  N1_12 
REMARK    6  A    between atoms: C9_16  and  C10_17 
ROOT
HETATM    1  C4  UNL     1     -23.073 -10.350  53.166  1.00  0.00     0.125 C 
HETATM    2  C5  UNL     1     -21.707 -10.000  53.716  1.00  0.00     0.134 C 
HETATM    3  C6  UNL     1     -21.256 -10.904  54.805  1.00  0.00     0.058 C 
HETATM    4  C7  UNL     1     -21.961 -10.833  56.090  1.00  0.00     0.100 C 
HETATM    5  C12 UNL     1     -23.415 -10.547  56.058  1.00  0.00     0.050 C 
HETATM    6  C13 UNL     1     -23.824  -9.309  55.338  1.00  0.00     0.023 C 
HETATM    7  C14 UNL     1     -24.183 -10.136  54.156  1.00  0.00     0.008 C 
HETATM    8  C15 UNL     1     -25.532  -9.904  53.542  1.00  0.00     0.020 C 
HETATM    9  C16 UNL     1     -24.199 -11.355  55.084  1.00  0.00     0.113 C 
HETATM   10  C17 UNL     1     -25.575 -11.667  55.631  1.00  0.00     0.053 C 
HETATM   11  F1  UNL     1     -23.627 -12.479  54.572  1.00  0.00    -0.242 F 
ENDROOT
BRANCH   4  12
HETATM   12  N1  UNL     1     -21.345  -9.936  57.058  1.00  0.00    -0.345 N 
HETATM   13  C8  UNL     1     -21.983  -9.085  57.882  1.00  0.00     0.183 A 
HETATM   14  N2  UNL     1     -21.075  -8.414  58.642  1.00  0.00    -0.346 N 
HETATM   15  C9  UNL     1     -19.859  -8.830  58.309  1.00  0.00     0.126 A 
ATOM     16  H2  UNL     1     -21.291  -7.711  59.348  1.00  0.00     0.167 HD
HETATM   17  C11 UNL     1     -20.035  -9.780  57.321  1.00  0.00     0.129 A 
BRANCH  15  18
HETATM   18  C10 UNL     1     -18.550  -8.423  58.830  1.00  0.00     0.228 C 
HETATM   19  O4  UNL     1     -18.433  -7.466  59.628  1.00  0.00    -0.643 OA
HETATM   20  O5  UNL     1     -17.391  -9.089  58.453  1.00  0.00    -0.643 OA
ENDBRANCH  15  18
ENDBRANCH   4  12
BRANCH   2  21
HETATM   21  O3  UNL     1     -20.818 -10.233  52.633  1.00  0.00    -0.395 OA
ATOM     22  H3  UNL     1     -20.742 -11.179  52.588  1.00  0.00     0.210 HD
ENDBRANCH   2  21
BRANCH   1  23
HETATM   23  C3  UNL     1     -23.288  -9.486  51.978  1.00  0.00     0.266 C 
HETATM   24  O2  UNL     1     -22.888  -8.298  52.001  1.00  0.00    -0.265 OA
BRANCH  23  25
HETATM   25  O1  UNL     1     -23.913  -9.923  50.827  1.00  0.00    -0.321 OA
BRANCH  25  26
HETATM   26  C2  UNL     1     -24.237  -8.980  49.798  1.00  0.00     0.174 C 
HETATM   27  C1  UNL     1     -25.611  -8.397  50.020  1.00  0.00     0.034 C 
ENDBRANCH  25  26
ENDBRANCH  23  25
ENDBRANCH   1  23
TORSDOF 6
ENDMDL
MODEL 4
REMARK VINA RESULT: -6.654897101      3.236      4.618
REMARK  6 active torsions:
REMARK  status: ('A' for Active; 'I' for Inactive)
REMARK    1  A    between atoms: C2_2  and  O1_3 
REMARK    2  A    between atoms: O1_3  and  C3_4 
REMARK    3  A    between atoms: C3_4  and  C4_6 
REMARK    4  A    between atoms: C5_7  and  O3_8 
REMARK    5  A    between atoms: C7_11  and  N1_12 
REMARK    6  A    between atoms: C9_16  and  C10_17 
ROOT
HETATM    1  C4  UNL     1     -25.363  -9.809  53.916  1.00  0.00     0.125 C 
HETATM    2  C5  UNL     1     -26.860  -9.604  53.834  1.00  0.00     0.134 C 
HETATM    3  C6  UNL     1     -27.454  -9.055  55.080  1.00  0.00     0.058 C 
HETATM    4  C7  UNL     1     -27.483  -9.921  56.264  1.00  0.00     0.100 C 
HETATM    5  C12 UNL     1     -26.351 -10.858  56.455  1.00  0.00     0.050 C 
HETATM    6  C13 UNL     1     -26.067 -11.782  55.321  1.00  0.00     0.023 C 
HETATM    7  C14 UNL     1     -24.965 -10.884  54.887  1.00  0.00     0.008 C 
HETATM    8  C15 UNL     1     -23.635 -11.518  54.608  1.00  0.00     0.020 C 
HETATM    9  C16 UNL     1     -24.998 -10.261  56.287  1.00  0.00     0.113 C 
HETATM   10  C17 UNL     1     -24.011 -10.893  57.243  1.00  0.00     0.053 C 
HETATM   11  F1  UNL     1     -24.885  -8.904  56.319  1.00  0.00    -0.242 F 
ENDROOT
BRANCH   4  12
HETATM   12  N1  UNL     1     -28.723 -10.670  56.422  1.00  0.00    -0.345 N 
HETATM   13  C8  UNL     1     -29.157 -11.271  57.545  1.00  0.00     0.183 A 
HETATM   14  N2  UNL     1     -30.356 -11.872  57.309  1.00  0.00    -0.346 N 
HETATM   15  C9  UNL     1     -30.691 -11.659  56.042  1.00  0.00     0.126 A 
ATOM     16  H2  UNL     1     -30.905 -12.396  57.990  1.00  0.00     0.167 HD
HETATM   17  C11 UNL     1     -29.667 -10.909  55.495  1.00  0.00     0.129 A 
BRANCH  15  18
HETATM   18  C10 UNL     1     -31.878 -12.091  55.297  1.00  0.00     0.228 C 
HETATM   19  O4  UNL     1     -32.009 -11.847  54.077  1.00  0.00    -0.643 OA
HETATM   20  O5  UNL     1     -32.901 -12.790  55.926  1.00  0.00    -0.643 OA
ENDBRANCH  15  18
ENDBRANCH   4  12
BRANCH   2  21
HETATM   21  O3  UNL     1     -27.026  -8.590  52.853  1.00  0.00    -0.395 OA
ATOM     22  H3  UNL     1     -26.517  -7.858  53.180  1.00  0.00     0.210 HD
ENDBRANCH   2  21
BRANCH   1  23
HETATM   23  C3  UNL     1     -24.908 -10.174  52.552  1.00  0.00     0.266 C 
HETATM   24  O2  UNL     1     -25.648 -10.875  51.823  1.00  0.00    -0.265 OA
BRANCH  23  25
HETATM   25  O1  UNL     1     -23.693  -9.777  52.027  1.00  0.00    -0.321 OA
BRANCH  25  26
HETATM   26  C2  UNL     1     -23.646  -8.683  51.104  1.00  0.00     0.174 C 
HETATM   27  C1  UNL     1     -23.755  -9.177  49.683  1.00  0.00     0.034 C 
ENDBRANCH  25  26
ENDBRANCH  23  25
ENDBRANCH   1  23
TORSDOF 6
ENDMDL
MODEL 5
REMARK VINA RESULT: -6.633423127      3.204      7.039
REMARK  6 active torsions:
REMARK  status: ('A' for Active; 'I' for Inactive)
REMARK    1  A    between atoms: C2_2  and  O1_3 
REMARK    2  A    between atoms: O1_3  and  C3_4 
REMARK    3  A    between atoms: C3_4  and  C4_6 
REMARK    4  A    between atoms: C5_7  and  O3_8 
REMARK    5  A    between atoms: C7_11  and  N1_12 
REMARK    6  A    between atoms: C9_16  and  C10_17 
ROOT
HETATM    1  C4  UNL     1     -26.121 -10.771  58.376  1.00  0.00     0.125 C 
HETATM    2  C5  UNL     1     -27.114 -11.384  57.412  1.00  0.00     0.134 C 
HETATM    3  C6  UNL     1     -26.494 -11.884  56.158  1.00  0.00     0.058 C 
HETATM    4  C7  UNL     1     -25.958 -10.894  55.217  1.00  0.00     0.100 C 
HETATM    5  C12 UNL     1     -25.349  -9.669  55.786  1.00  0.00     0.050 C 
HETATM    6  C13 UNL     1     -26.209  -8.878  56.711  1.00  0.00     0.023 C 
HETATM    7  C14 UNL     1     -25.508  -9.499  57.865  1.00  0.00     0.008 C 
HETATM    8  C15 UNL     1     -25.000  -8.577  58.934  1.00  0.00     0.020 C 
HETATM    9  C16 UNL     1     -24.387  -9.895  56.899  1.00  0.00     0.113 C 
HETATM   10  C17 UNL     1     -23.261  -8.886  56.848  1.00  0.00     0.053 C 
HETATM   11  F1  UNL     1     -23.890 -11.150  57.073  1.00  0.00    -0.242 F 
ENDROOT
BRANCH   4  12
HETATM   12  N1  UNL     1     -26.896 -10.493  54.177  1.00  0.00    -0.345 N 
HETATM   13  C8  UNL     1     -28.230 -10.662  54.193  1.00  0.00     0.183 A 
HETATM   14  N2  UNL     1     -28.769 -10.161  53.048  1.00  0.00    -0.346 N 
HETATM   15  C9  UNL     1     -27.788  -9.672  52.299  1.00  0.00     0.126 A 
ATOM     16  H2  UNL     1     -29.760 -10.160  52.806  1.00  0.00     0.167 HD
HETATM   17  C11 UNL     1     -26.622  -9.882  53.010  1.00  0.00     0.129 A 
BRANCH  15  18
HETATM   18  C10 UNL     1     -27.841  -9.027  50.983  1.00  0.00     0.228 C 
HETATM   19  O4  UNL     1     -28.735  -9.308  50.153  1.00  0.00    -0.643 OA
HETATM   20  O5  UNL     1     -26.896  -8.079  50.613  1.00  0.00    -0.643 OA
ENDBRANCH  15  18
ENDBRANCH   4  12
BRANCH   2  21
HETATM   21  O3  UNL     1     -27.597 -12.537  58.085  1.00  0.00    -0.395 OA
ATOM     22  H3  UNL     1     -28.487 -12.642  57.769  1.00  0.00     0.210 HD
ENDBRANCH   2  21
BRANCH   1  23
HETATM   23  C3  UNL     1     -26.860 -10.502  59.634  1.00  0.00     0.266 C 
HETATM   24  O2  UNL     1     -26.321 -10.771  60.734  1.00  0.00    -0.265 OA
BRANCH  23  25
HETATM   25  O1  UNL     1     -28.130  -9.960  59.666  1.00  0.00    -0.321 OA
BRANCH  25  26
HETATM   26  C2  UNL     1     -28.367  -8.759  60.410  1.00  0.00     0.174 C 
HETATM   27  C1  UNL     1     -28.466  -7.570  59.487  1.00  0.00     0.034 C 
ENDBRANCH  25  26
ENDBRANCH  23  25
ENDBRANCH   1  23
TORSDOF 6
ENDMDL
