MODEL 1
REMARK VINA RESULT: -8.976591562      0.000      0.000
REMARK  14 active torsions:
REMARK  status: ('A' for Active; 'I' for Inactive)
REMARK    1  A    between atoms: C2_2  and  O1_4 
REMARK    2  A    between atoms: C2_2  and  C4_6 
REMARK    3  A    between atoms: C4_6  and  O3_8 
REMARK    4  A    between atoms: O3_8  and  C5_9 
REMARK    5  A    between atoms: C5_9  and  N1_10 
REMARK    6  A    between atoms: C7_12  and  C8_13 
REMARK    7  A    between atoms: N3_16  and  C9_17 
REMARK    8  A    between atoms: C10_19  and  C11_20 
REMARK    9  A    between atoms: C11_20  and  O5_21 
REMARK   10  A    between atoms: C12_23  and  O6_24 
REMARK   11  A    between atoms: C12_23  and  C13_26 
REMARK   12  A    between atoms: C14_29  and  O8_30 
REMARK   13  A    between atoms: C15_32  and  O9_33 
REMARK   14  A    between atoms: C17_38  and  N6_39 
ROOT
HETATM    1  C8  UNL     1      20.260 -10.796  25.144  1.00  0.00     0.095 A 
HETATM    2  N2  UNL     1      19.660 -11.329  24.037  1.00  0.00    -0.291 N 
ATOM      3  H2  UNL     1      18.669 -11.236  23.816  1.00  0.00     0.187 HD
HETATM    4  N3  UNL     1      20.518 -11.968  23.306  1.00  0.00    -0.242 N 
HETATM    5  C16 UNL     1      21.727 -11.882  23.904  1.00  0.00     0.156 A 
HETATM    6  N5  UNL     1      22.941 -12.353  23.583  1.00  0.00    -0.174 N 
ATOM      7  H5  UNL     1      23.028 -12.893  22.722  1.00  0.00     0.186 HD
HETATM    8  C17 UNL     1      24.045 -12.163  24.315  1.00  0.00     0.679 A 
HETATM    9  N7  UNL     1      23.900 -11.450  25.435  1.00  0.00    -0.176 N 
ATOM     10  H7  UNL     1      24.720 -11.283  26.019  1.00  0.00     0.186 HD
HETATM   11  C18 UNL     1      22.696 -10.935  25.832  1.00  0.00     0.131 A 
HETATM   12  N8  UNL     1      22.613 -10.263  26.910  1.00  0.00    -0.384 N 
ATOM     13  H81 UNL     1      21.716  -9.880  27.206  1.00  0.00     0.157 HD
ATOM     14  H82 UNL     1      23.449 -10.113  27.474  1.00  0.00     0.157 HD
HETATM   15  C19 UNL     1      21.571 -11.137  25.073  1.00  0.00     0.085 A 
ENDROOT
BRANCH   4  16
HETATM   16  C9  UNL     1      20.282 -12.663  22.066  1.00  0.00     0.277 C 
HETATM   17  O4  UNL     1      19.503 -13.808  22.218  1.00  0.00    -0.351 OA
HETATM   18  C10 UNL     1      19.755 -14.549  21.038  1.00  0.00     0.194 C 
HETATM   19  C12 UNL     1      18.878 -13.952  19.986  1.00  0.00     0.192 C 
HETATM   20  C14 UNL     1      18.933 -12.465  19.937  1.00  0.00     0.197 C 
HETATM   21  C15 UNL     1      19.774 -11.795  20.961  1.00  0.00     0.201 C 
BRANCH  18  22
HETATM   22  C11 UNL     1      19.527 -16.012  21.254  1.00  0.00     0.199 C 
BRANCH  22  23
HETATM   23  O5  UNL     1      18.603 -16.128  22.317  1.00  0.00    -0.398 OA
ATOM     24  H5  UNL     1      19.110 -16.161  23.119  1.00  0.00     0.209 HD
ENDBRANCH  22  23
ENDBRANCH  18  22
BRANCH  19  25
HETATM   25  O6  UNL     1      17.552 -14.382  20.230  1.00  0.00    -0.376 OA
ATOM     26  H6  UNL     1      17.315 -14.108  21.108  1.00  0.00     0.211 HD
ENDBRANCH  19  25
BRANCH  19  27
HETATM   27  C13 UNL     1      19.269 -14.580  18.681  1.00  0.00     0.271 C 
HETATM   28  N4  UNL     1      18.250 -15.040  17.784  1.00  0.00    -0.059 NA
HETATM   29  O7  UNL     1      20.458 -14.731  18.319  1.00  0.00    -0.273 OA
ENDBRANCH  19  27
BRANCH  20  30
HETATM   30  O8  UNL     1      19.377 -12.108  18.649  1.00  0.00    -0.389 OA
ATOM     31  H8  UNL     1      20.239 -11.721  18.747  1.00  0.00     0.210 HD
ENDBRANCH  20  30
BRANCH  21  32
HETATM   32  O9  UNL     1      20.854 -11.169  20.296  1.00  0.00    -0.388 OA
ATOM     33  H9  UNL     1      20.866 -11.421  19.379  1.00  0.00     0.210 HD
ENDBRANCH  21  32
ENDBRANCH   4  16
BRANCH   1  34
HETATM   34  C7  UNL     1      19.578 -10.021  26.165  1.00  0.00     0.096 A 
HETATM   35  C6  UNL     1      18.312 -10.342  26.693  1.00  0.00     0.152 A 
HETATM   36  N1  UNL     1      17.958  -9.446  27.610  1.00  0.00    -0.240 N 
HETATM   37  N10 UNL     1      18.972  -8.567  27.673  1.00  0.00    -0.235 N 
HETATM   38  N9  UNL     1      19.906  -8.923  26.821  1.00  0.00    -0.282 N 
ATOM     39  H10 UNL     1      19.010  -7.752  28.286  1.00  0.00     0.209 HD
ATOM     40  H9  UNL     1      20.778  -8.413  26.682  1.00  0.00     0.188 HD
BRANCH  36  41
HETATM   41  C5  UNL     1      16.760  -9.344  28.415  1.00  0.00     0.262 C 
BRANCH  41  42
HETATM   42  O3  UNL     1      15.607  -9.873  27.849  1.00  0.00    -0.270 OA
BRANCH  42  43
HETATM   43  C4  UNL     1      14.693 -10.727  28.386  1.00  0.00     0.298 C 
HETATM   44  O2  UNL     1      13.747 -10.232  29.044  1.00  0.00    -0.261 OA
BRANCH  43  45
HETATM   45  C2  UNL     1      14.767 -12.219  28.224  1.00  0.00     0.138 C 
HETATM   46  C1  UNL     1      15.157 -12.611  26.834  1.00  0.00     0.056 C 
HETATM   47  C3  UNL     1      13.408 -12.838  28.553  1.00  0.00     0.056 C 
BRANCH  45  48
HETATM   48  O1  UNL     1      15.665 -12.730  29.138  1.00  0.00    -0.380 OA
ATOM     49  H1  UNL     1      16.258 -12.050  29.436  1.00  0.00     0.211 HD
ENDBRANCH  45  48
ENDBRANCH  43  45
ENDBRANCH  42  43
ENDBRANCH  41  42
ENDBRANCH  36  41
ENDBRANCH   1  34
BRANCH   8  50
HETATM   50  N6  UNL     1      25.180 -12.649  23.941  1.00  0.00    -0.234 N 
ATOM     51  H62 UNL     1      25.673 -12.319  23.110  1.00  0.00     0.174 HD
ATOM     52  H61 UNL     1      25.632 -13.394  24.470  1.00  0.00     0.174 HD
ENDBRANCH   8  50
TORSDOF 14
ENDMDL
MODEL 2
REMARK VINA RESULT: -8.892442448      0.950      1.959
REMARK  14 active torsions:
REMARK  status: ('A' for Active; 'I' for Inactive)
REMARK    1  A    between atoms: C2_2  and  O1_4 
REMARK    2  A    between atoms: C2_2  and  C4_6 
REMARK    3  A    between atoms: C4_6  and  O3_8 
REMARK    4  A    between atoms: O3_8  and  C5_9 
REMARK    5  A    between atoms: C5_9  and  N1_10 
REMARK    6  A    between atoms: C7_12  and  C8_13 
REMARK    7  A    between atoms: N3_16  and  C9_17 
REMARK    8  A    between atoms: C10_19  and  C11_20 
REMARK    9  A    between atoms: C11_20  and  O5_21 
REMARK   10  A    between atoms: C12_23  and  O6_24 
REMARK   11  A    between atoms: C12_23  and  C13_26 
REMARK   12  A    between atoms: C14_29  and  O8_30 
REMARK   13  A    between atoms: C15_32  and  O9_33 
REMARK   14  A    between atoms: C17_38  and  N6_39 
ROOT
HETATM    1  C8  UNL     1      20.072 -10.597  25.186  1.00  0.00     0.095 A 
HETATM    2  N2  UNL     1      19.423 -11.037  24.066  1.00  0.00    -0.291 N 
ATOM      3  H2  UNL     1      18.426 -10.911  23.889  1.00  0.00     0.187 HD
HETATM    4  N3  UNL     1      20.241 -11.636  23.260  1.00  0.00    -0.242 N 
HETATM    5  C16 UNL     1      21.472 -11.615  23.818  1.00  0.00     0.156 A 
HETATM    6  N5  UNL     1      22.664 -12.082  23.419  1.00  0.00    -0.174 N 
ATOM      7  H5  UNL     1      22.711 -12.559  22.519  1.00  0.00     0.186 HD
HETATM    8  C17 UNL     1      23.797 -11.965  24.122  1.00  0.00     0.679 A 
HETATM    9  N7  UNL     1      23.706 -11.334  25.296  1.00  0.00    -0.176 N 
ATOM     10  H7  UNL     1      24.549 -11.225  25.860  1.00  0.00     0.186 HD
HETATM   11  C18 UNL     1      22.527 -10.829  25.773  1.00  0.00     0.131 A 
HETATM   12  N8  UNL     1      22.495 -10.237  26.899  1.00  0.00    -0.384 N 
ATOM     13  H81 UNL     1      21.616  -9.861  27.255  1.00  0.00     0.157 HD
ATOM     14  H82 UNL     1      23.353 -10.143  27.442  1.00  0.00     0.157 HD
HETATM   15  C19 UNL     1      21.372 -10.955  25.043  1.00  0.00     0.085 A 
ENDROOT
BRANCH   4  16
HETATM   16  C9  UNL     1      19.949 -12.234  21.981  1.00  0.00     0.277 C 
HETATM   17  O4  UNL     1      21.056 -12.299  21.139  1.00  0.00    -0.351 OA
HETATM   18  C10 UNL     1      20.495 -12.484  19.853  1.00  0.00     0.194 C 
HETATM   19  C12 UNL     1      20.186 -13.942  19.749  1.00  0.00     0.192 C 
HETATM   20  C14 UNL     1      19.478 -14.489  20.939  1.00  0.00     0.197 C 
HETATM   21  C15 UNL     1      19.245 -13.549  22.065  1.00  0.00     0.201 C 
BRANCH  18  22
HETATM   22  C11 UNL     1      21.409 -11.983  18.780  1.00  0.00     0.199 C 
BRANCH  22  23
HETATM   23  O5  UNL     1      22.701 -11.906  19.349  1.00  0.00    -0.398 OA
ATOM     24  H5  UNL     1      23.262 -12.473  18.833  1.00  0.00     0.209 HD
ENDBRANCH  22  23
ENDBRANCH  18  22
BRANCH  19  25
HETATM   25  O6  UNL     1      21.406 -14.631  19.551  1.00  0.00    -0.376 OA
ATOM     26  H6  UNL     1      21.838 -14.706  20.394  1.00  0.00     0.211 HD
ENDBRANCH  19  25
BRANCH  19  27
HETATM   27  C13 UNL     1      19.407 -14.136  18.482  1.00  0.00     0.271 C 
HETATM   28  N4  UNL     1      18.290 -13.283  18.201  1.00  0.00    -0.059 NA
HETATM   29  O7  UNL     1      19.678 -15.018  17.635  1.00  0.00    -0.273 OA
ENDBRANCH  19  27
BRANCH  20  30
HETATM   30  O8  UNL     1      18.247 -15.005  20.488  1.00  0.00    -0.389 OA
ATOM     31  H8  UNL     1      17.732 -15.214  21.259  1.00  0.00     0.210 HD
ENDBRANCH  20  30
BRANCH  21  32
HETATM   32  O9  UNL     1      17.850 -13.350  22.185  1.00  0.00    -0.388 OA
ATOM     33  H9  UNL     1      17.488 -13.050  21.359  1.00  0.00     0.210 HD
ENDBRANCH  21  32
ENDBRANCH   4  16
BRANCH   1  34
HETATM   34  C7  UNL     1      19.441  -9.888  26.285  1.00  0.00     0.096 A 
HETATM   35  C6  UNL     1      18.196 -10.235  26.845  1.00  0.00     0.152 A 
HETATM   36  N1  UNL     1      17.890  -9.400  27.834  1.00  0.00    -0.240 N 
HETATM   37  N10 UNL     1      18.914  -8.534  27.911  1.00  0.00    -0.235 N 
HETATM   38  N9  UNL     1      19.807  -8.839  26.997  1.00  0.00    -0.282 N 
ATOM     39  H10 UNL     1      18.986  -7.763  28.575  1.00  0.00     0.209 HD
ATOM     40  H9  UNL     1      20.678  -8.327  26.855  1.00  0.00     0.188 HD
BRANCH  36  41
HETATM   41  C5  UNL     1      16.729  -9.344  28.695  1.00  0.00     0.262 C 
BRANCH  41  42
HETATM   42  O3  UNL     1      15.530  -9.741  28.116  1.00  0.00    -0.270 OA
BRANCH  42  43
HETATM   43  C4  UNL     1      14.647 -10.693  28.522  1.00  0.00     0.298 C 
HETATM   44  O2  UNL     1      13.643 -10.319  29.176  1.00  0.00    -0.261 OA
BRANCH  43  45
HETATM   45  C2  UNL     1      14.818 -12.155  28.222  1.00  0.00     0.138 C 
HETATM   46  C1  UNL     1      15.302 -12.386  26.826  1.00  0.00     0.056 C 
HETATM   47  C3  UNL     1      13.484 -12.877  28.412  1.00  0.00     0.056 C 
BRANCH  45  48
HETATM   48  O1  UNL     1      15.697 -12.704  29.133  1.00  0.00    -0.380 OA
ATOM     49  H1  UNL     1      16.316 -13.275  28.694  1.00  0.00     0.211 HD
ENDBRANCH  45  48
ENDBRANCH  43  45
ENDBRANCH  42  43
ENDBRANCH  41  42
ENDBRANCH  36  41
ENDBRANCH   1  34
BRANCH   8  50
HETATM   50  N6  UNL     1      24.908 -12.442  23.672  1.00  0.00    -0.234 N 
ATOM     51  H62 UNL     1      25.450 -11.979  22.942  1.00  0.00     0.174 HD
ATOM     52  H61 UNL     1      25.291 -13.314  24.037  1.00  0.00     0.174 HD
ENDBRANCH   8  50
TORSDOF 14
ENDMDL
MODEL 3
REMARK VINA RESULT: -8.885136364      4.135      7.976
REMARK  14 active torsions:
REMARK  status: ('A' for Active; 'I' for Inactive)
REMARK    1  A    between atoms: C2_2  and  O1_4 
REMARK    2  A    between atoms: C2_2  and  C4_6 
REMARK    3  A    between atoms: C4_6  and  O3_8 
REMARK    4  A    between atoms: O3_8  and  C5_9 
REMARK    5  A    between atoms: C5_9  and  N1_10 
REMARK    6  A    between atoms: C7_12  and  C8_13 
REMARK    7  A    between atoms: N3_16  and  C9_17 
REMARK    8  A    between atoms: C10_19  and  C11_20 
REMARK    9  A    between atoms: C11_20  and  O5_21 
REMARK   10  A    between atoms: C12_23  and  O6_24 
REMARK   11  A    between atoms: C12_23  and  C13_26 
REMARK   12  A    between atoms: C14_29  and  O8_30 
REMARK   13  A    between atoms: C15_32  and  O9_33 
REMARK   14  A    between atoms: C17_38  and  N6_39 
ROOT
HETATM    1  C8  UNL     1      22.400 -11.899  24.971  1.00  0.00     0.095 A 
HETATM    2  N2  UNL     1      21.329 -11.357  25.626  1.00  0.00    -0.291 N 
ATOM      3  H2  UNL     1      21.303 -11.158  26.626  1.00  0.00     0.187 HD
HETATM    4  N3  UNL     1      20.350 -11.131  24.808  1.00  0.00    -0.242 N 
HETATM    5  C16 UNL     1      20.738 -11.517  23.571  1.00  0.00     0.156 A 
HETATM    6  N5  UNL     1      20.128 -11.505  22.377  1.00  0.00    -0.174 N 
ATOM      7  H5  UNL     1      19.176 -11.141  22.333  1.00  0.00     0.186 HD
HETATM    8  C17 UNL     1      20.682 -11.938  21.239  1.00  0.00     0.679 A 
HETATM    9  N7  UNL     1      21.931 -12.407  21.326  1.00  0.00    -0.176 N 
ATOM     10  H7  UNL     1      22.387 -12.744  20.479  1.00  0.00     0.186 HD
HETATM   11  C18 UNL     1      22.621 -12.452  22.507  1.00  0.00     0.131 A 
HETATM   12  N8  UNL     1      23.808 -12.910  22.535  1.00  0.00    -0.384 N 
ATOM     13  H81 UNL     1      24.322 -12.944  23.415  1.00  0.00     0.157 HD
ATOM     14  H82 UNL     1      24.239 -13.241  21.673  1.00  0.00     0.157 HD
HETATM   15  C19 UNL     1      22.041 -12.005  23.668  1.00  0.00     0.085 A 
ENDROOT
BRANCH   4  16
HETATM   16  C9  UNL     1      19.057 -10.569  25.105  1.00  0.00     0.277 C 
HETATM   17  O4  UNL     1      18.493 -11.078  26.273  1.00  0.00    -0.351 OA
HETATM   18  C10 UNL     1      17.118 -10.762  26.151  1.00  0.00     0.194 C 
HETATM   19  C12 UNL     1      16.988  -9.335  26.574  1.00  0.00     0.192 C 
HETATM   20  C14 UNL     1      18.000  -8.436  25.955  1.00  0.00     0.197 C 
HETATM   21  C15 UNL     1      19.016  -9.076  25.081  1.00  0.00     0.201 C 
BRANCH  18  22
HETATM   22  C11 UNL     1      16.269 -11.706  26.943  1.00  0.00     0.199 C 
BRANCH  22  23
HETATM   23  O5  UNL     1      15.314 -12.243  26.049  1.00  0.00    -0.398 OA
ATOM     24  H5  UNL     1      14.680 -12.714  26.576  1.00  0.00     0.209 HD
ENDBRANCH  22  23
ENDBRANCH  18  22
BRANCH  19  25
HETATM   25  O6  UNL     1      17.094  -9.289  27.984  1.00  0.00    -0.376 OA
ATOM     26  H6  UNL     1      17.907  -9.715  28.228  1.00  0.00     0.211 HD
ENDBRANCH  19  25
BRANCH  19  27
HETATM   27  C13 UNL     1      15.583  -8.912  26.264  1.00  0.00     0.271 C 
HETATM   28  N4  UNL     1      15.057  -9.116  24.946  1.00  0.00    -0.059 NA
HETATM   29  O7  UNL     1      14.823  -8.380  27.105  1.00  0.00    -0.273 OA
ENDBRANCH  19  27
BRANCH  20  30
HETATM   30  O8  UNL     1      17.295  -7.457  25.227  1.00  0.00    -0.389 OA
ATOM     31  H8  UNL     1      17.543  -6.612  25.581  1.00  0.00     0.210 HD
ENDBRANCH  20  30
BRANCH  21  32
HETATM   32  O9  UNL     1      18.808  -8.614  23.761  1.00  0.00    -0.388 OA
ATOM     33  H9  UNL     1      17.885  -8.440  23.615  1.00  0.00     0.210 HD
ENDBRANCH  21  32
ENDBRANCH   4  16
BRANCH   1  34
HETATM   34  C7  UNL     1      23.655 -12.269  25.600  1.00  0.00     0.096 A 
HETATM   35  C6  UNL     1      24.017 -11.926  26.917  1.00  0.00     0.152 A 
HETATM   36  N1  UNL     1      25.223 -12.409  27.203  1.00  0.00    -0.240 N 
HETATM   37  N10 UNL     1      25.631 -13.051  26.095  1.00  0.00    -0.235 N 
HETATM   38  N9  UNL     1      24.700 -12.955  25.173  1.00  0.00    -0.282 N 
ATOM     39  H10 UNL     1      26.522 -13.535  25.987  1.00  0.00     0.209 HD
ATOM     40  H9  UNL     1      24.774 -13.362  24.241  1.00  0.00     0.188 HD
BRANCH  36  41
HETATM   41  C5  UNL     1      26.015 -12.314  28.408  1.00  0.00     0.262 C 
BRANCH  41  42
HETATM   42  O3  UNL     1      26.953 -13.322  28.595  1.00  0.00    -0.270 OA
BRANCH  42  43
HETATM   43  C4  UNL     1      26.883 -14.434  29.377  1.00  0.00     0.298 C 
HETATM   44  O2  UNL     1      27.519 -14.428  30.459  1.00  0.00    -0.261 OA
BRANCH  43  45
HETATM   45  C2  UNL     1      26.086 -15.652  29.006  1.00  0.00     0.138 C 
HETATM   46  C1  UNL     1      24.801 -15.731  29.767  1.00  0.00     0.056 C 
HETATM   47  C3  UNL     1      26.909 -16.909  29.289  1.00  0.00     0.056 C 
BRANCH  45  48
HETATM   48  O1  UNL     1      25.841 -15.637  27.648  1.00  0.00    -0.380 OA
ATOM     49  H1  UNL     1      25.437 -16.452  27.375  1.00  0.00     0.211 HD
ENDBRANCH  45  48
ENDBRANCH  43  45
ENDBRANCH  42  43
ENDBRANCH  41  42
ENDBRANCH  36  41
ENDBRANCH   1  34
BRANCH   8  50
HETATM   50  N6  UNL     1      20.032 -11.895  20.126  1.00  0.00    -0.234 N 
ATOM     51  H62 UNL     1      20.338 -11.334  19.330  1.00  0.00     0.174 HD
ATOM     52  H61 UNL     1      19.172 -12.429  20.000  1.00  0.00     0.174 HD
ENDBRANCH   8  50
TORSDOF 14
ENDMDL
MODEL 4
REMARK VINA RESULT: -8.811265088      0.966      1.183
REMARK  14 active torsions:
REMARK  status: ('A' for Active; 'I' for Inactive)
REMARK    1  A    between atoms: C2_2  and  O1_4 
REMARK    2  A    between atoms: C2_2  and  C4_6 
REMARK    3  A    between atoms: C4_6  and  O3_8 
REMARK    4  A    between atoms: O3_8  and  C5_9 
REMARK    5  A    between atoms: C5_9  and  N1_10 
REMARK    6  A    between atoms: C7_12  and  C8_13 
REMARK    7  A    between atoms: N3_16  and  C9_17 
REMARK    8  A    between atoms: C10_19  and  C11_20 
REMARK    9  A    between atoms: C11_20  and  O5_21 
REMARK   10  A    between atoms: C12_23  and  O6_24 
REMARK   11  A    between atoms: C12_23  and  C13_26 
REMARK   12  A    between atoms: C14_29  and  O8_30 
REMARK   13  A    between atoms: C15_32  and  O9_33 
REMARK   14  A    between atoms: C17_38  and  N6_39 
ROOT
HETATM    1  C8  UNL     1      20.226 -10.871  25.111  1.00  0.00     0.095 A 
HETATM    2  N2  UNL     1      19.600 -11.556  24.108  1.00  0.00    -0.291 N 
ATOM      3  H2  UNL     1      18.590 -11.571  23.961  1.00  0.00     0.187 HD
HETATM    4  N3  UNL     1      20.458 -12.185  23.369  1.00  0.00    -0.242 N 
HETATM    5  C16 UNL     1      21.694 -11.938  23.857  1.00  0.00     0.156 A 
HETATM    6  N5  UNL     1      22.920 -12.330  23.481  1.00  0.00    -0.174 N 
ATOM      7  H5  UNL     1      22.995 -12.940  22.666  1.00  0.00     0.186 HD
HETATM    8  C17 UNL     1      24.052 -11.977  24.102  1.00  0.00     0.679 A 
HETATM    9  N7  UNL     1      23.922 -11.177  25.164  1.00  0.00    -0.176 N 
ATOM     10  H7  UNL     1      24.763 -10.885  25.662  1.00  0.00     0.186 HD
HETATM   11  C18 UNL     1      22.708 -10.733  25.610  1.00  0.00     0.131 A 
HETATM   12  N8  UNL     1      22.640  -9.972  26.629  1.00  0.00    -0.384 N 
ATOM     13  H81 UNL     1      21.735  -9.642  26.961  1.00  0.00     0.157 HD
ATOM     14  H82 UNL     1      23.497  -9.697  27.107  1.00  0.00     0.157 HD
HETATM   15  C19 UNL     1      21.553 -11.102  24.966  1.00  0.00     0.085 A 
ENDROOT
BRANCH   4  16
HETATM   16  C9  UNL     1      20.199 -13.012  22.217  1.00  0.00     0.277 C 
HETATM   17  O4  UNL     1      20.613 -14.331  22.385  1.00  0.00    -0.351 OA
HETATM   18  C10 UNL     1      20.686 -14.835  21.064  1.00  0.00     0.194 C 
HETATM   19  C12 UNL     1      19.287 -15.201  20.689  1.00  0.00     0.192 C 
HETATM   20  C14 UNL     1      18.287 -14.146  21.013  1.00  0.00     0.197 C 
HETATM   21  C15 UNL     1      18.796 -12.938  21.710  1.00  0.00     0.201 C 
BRANCH  18  22
HETATM   22  C11 UNL     1      21.654 -15.971  20.965  1.00  0.00     0.199 C 
BRANCH  22  23
HETATM   23  O5  UNL     1      21.746 -16.542  22.255  1.00  0.00    -0.398 OA
ATOM     24  H5  UNL     1      21.670 -17.482  22.144  1.00  0.00     0.209 HD
ENDBRANCH  22  23
ENDBRANCH  18  22
BRANCH  19  25
HETATM   25  O6  UNL     1      18.959 -16.403  21.359  1.00  0.00    -0.376 OA
ATOM     26  H6  UNL     1      18.284 -16.843  20.855  1.00  0.00     0.211 HD
ENDBRANCH  19  25
BRANCH  19  27
HETATM   27  C13 UNL     1      19.299 -15.546  19.230  1.00  0.00     0.271 C 
HETATM   28  N4  UNL     1      18.647 -16.740  18.779  1.00  0.00    -0.059 NA
HETATM   29  O7  UNL     1      19.858 -14.839  18.360  1.00  0.00    -0.273 OA
ENDBRANCH  19  27
BRANCH  20  30
HETATM   30  O8  UNL     1      17.670 -13.774  19.803  1.00  0.00    -0.389 OA
ATOM     31  H8  UNL     1      16.769 -14.071  19.845  1.00  0.00     0.210 HD
ENDBRANCH  20  30
BRANCH  21  32
HETATM   32  O9  UNL     1      18.650 -11.837  20.834  1.00  0.00    -0.388 OA
ATOM     33  H9  UNL     1      17.845 -11.369  21.023  1.00  0.00     0.210 HD
ENDBRANCH  21  32
ENDBRANCH   4  16
BRANCH   1  34
HETATM   34  C7  UNL     1      19.550 -10.066  26.113  1.00  0.00     0.096 A 
HETATM   35  C6  UNL     1      18.278 -10.359  26.644  1.00  0.00     0.152 A 
HETATM   36  N1  UNL     1      17.932  -9.438  27.539  1.00  0.00    -0.240 N 
HETATM   37  N10 UNL     1      18.957  -8.571  27.587  1.00  0.00    -0.235 N 
HETATM   38  N9  UNL     1      19.889  -8.958  26.746  1.00  0.00    -0.282 N 
ATOM     39  H10 UNL     1      19.003  -7.744  28.182  1.00  0.00     0.209 HD
ATOM     40  H9  UNL     1      20.769  -8.463  26.600  1.00  0.00     0.188 HD
BRANCH  36  41
HETATM   41  C5  UNL     1      16.733  -9.304  28.337  1.00  0.00     0.262 C 
BRANCH  41  42
HETATM   42  O3  UNL     1      15.585  -9.876  27.802  1.00  0.00    -0.270 OA
BRANCH  42  43
HETATM   43  C4  UNL     1      14.695 -10.729  28.379  1.00  0.00     0.298 C 
HETATM   44  O2  UNL     1      13.771 -10.231  29.067  1.00  0.00    -0.261 OA
BRANCH  43  45
HETATM   45  C2  UNL     1      14.769 -12.222  28.226  1.00  0.00     0.138 C 
HETATM   46  C1  UNL     1      15.165 -12.623  26.841  1.00  0.00     0.056 C 
HETATM   47  C3  UNL     1      13.408 -12.838  28.552  1.00  0.00     0.056 C 
BRANCH  45  48
HETATM   48  O1  UNL     1      15.662 -12.728  29.148  1.00  0.00    -0.380 OA
ATOM     49  H1  UNL     1      15.278 -13.460  29.615  1.00  0.00     0.211 HD
ENDBRANCH  45  48
ENDBRANCH  43  45
ENDBRANCH  42  43
ENDBRANCH  41  42
ENDBRANCH  36  41
ENDBRANCH   1  34
BRANCH   8  50
HETATM   50  N6  UNL     1      25.197 -12.395  23.681  1.00  0.00    -0.234 N 
ATOM     51  H62 UNL     1      25.317 -12.855  22.777  1.00  0.00     0.174 HD
ATOM     52  H61 UNL     1      26.037 -12.281  24.247  1.00  0.00     0.174 HD
ENDBRANCH   8  50
TORSDOF 14
ENDMDL
MODEL 5
REMARK VINA RESULT: -8.730141264      2.298      3.138
REMARK  14 active torsions:
REMARK  status: ('A' for Active; 'I' for Inactive)
REMARK    1  A    between atoms: C2_2  and  O1_4 
REMARK    2  A    between atoms: C2_2  and  C4_6 
REMARK    3  A    between atoms: C4_6  and  O3_8 
REMARK    4  A    between atoms: O3_8  and  C5_9 
REMARK    5  A    between atoms: C5_9  and  N1_10 
REMARK    6  A    between atoms: C7_12  and  C8_13 
REMARK    7  A    between atoms: N3_16  and  C9_17 
REMARK    8  A    between atoms: C10_19  and  C11_20 
REMARK    9  A    between atoms: C11_20  and  O5_21 
REMARK   10  A    between atoms: C12_23  and  O6_24 
REMARK   11  A    between atoms: C12_23  and  C13_26 
REMARK   12  A    between atoms: C14_29  and  O8_30 
REMARK   13  A    between atoms: C15_32  and  O9_33 
REMARK   14  A    between atoms: C17_38  and  N6_39 
ROOT
HETATM    1  C8  UNL     1      19.961 -10.709  24.175  1.00  0.00     0.095 A 
HETATM    2  N2  UNL     1      20.031 -11.366  22.979  1.00  0.00    -0.291 N 
ATOM      3  H2  UNL     1      19.301 -11.350  22.267  1.00  0.00     0.187 HD
HETATM    4  N3  UNL     1      21.149 -12.011  22.868  1.00  0.00    -0.242 N 
HETATM    5  C16 UNL     1      21.867 -11.804  23.994  1.00  0.00     0.156 A 
HETATM    6  N5  UNL     1      23.073 -12.228  24.400  1.00  0.00    -0.174 N 
ATOM      7  H5  UNL     1      23.602 -12.831  23.769  1.00  0.00     0.186 HD
HETATM    8  C17 UNL     1      23.631 -11.913  25.575  1.00  0.00     0.679 A 
HETATM    9  N7  UNL     1      22.917 -11.120  26.379  1.00  0.00    -0.176 N 
ATOM     10  H7  UNL     1      23.310 -10.857  27.282  1.00  0.00     0.186 HD
HETATM   11  C18 UNL     1      21.679 -10.646  26.038  1.00  0.00     0.131 A 
HETATM   12  N8  UNL     1      21.040  -9.894  26.842  1.00  0.00    -0.384 N 
ATOM     13  H81 UNL     1      20.117  -9.542  26.588  1.00  0.00     0.157 HD
ATOM     14  H82 UNL     1      21.457  -9.649  27.739  1.00  0.00     0.157 HD
HETATM   15  C19 UNL     1      21.117 -10.976  24.830  1.00  0.00     0.085 A 
ENDROOT
BRANCH   4  16
HETATM   16  C9  UNL     1      21.602 -12.819  21.764  1.00  0.00     0.277 C 
HETATM   17  O4  UNL     1      22.727 -12.299  21.128  1.00  0.00    -0.351 OA
HETATM   18  C10 UNL     1      22.738 -12.950  19.871  1.00  0.00     0.194 C 
HETATM   19  C12 UNL     1      23.351 -14.291  20.111  1.00  0.00     0.192 C 
HETATM   20  C14 UNL     1      22.791 -15.000  21.294  1.00  0.00     0.197 C 
HETATM   21  C15 UNL     1      21.776 -14.266  22.092  1.00  0.00     0.201 C 
BRANCH  18  22
HETATM   22  C11 UNL     1      23.453 -12.135  18.840  1.00  0.00     0.199 C 
BRANCH  22  23
HETATM   23  O5  UNL     1      24.384 -11.328  19.533  1.00  0.00    -0.398 OA
ATOM     24  H5  UNL     1      23.954 -10.498  19.701  1.00  0.00     0.209 HD
ENDBRANCH  22  23
ENDBRANCH  18  22
BRANCH  19  25
HETATM   25  O6  UNL     1      24.745 -14.109  20.269  1.00  0.00    -0.376 OA
ATOM     26  H6  UNL     1      25.049 -14.735  20.916  1.00  0.00     0.211 HD
ENDBRANCH  19  25
BRANCH  19  27
HETATM   27  C13 UNL     1      23.192 -15.079  18.845  1.00  0.00     0.271 C 
HETATM   28  N4  UNL     1      21.917 -15.116  18.190  1.00  0.00    -0.059 NA
HETATM   29  O7  UNL     1      24.126 -15.721  18.312  1.00  0.00    -0.273 OA
ENDBRANCH  19  27
BRANCH  20  30
HETATM   30  O8  UNL     1      22.244 -16.213  20.830  1.00  0.00    -0.389 OA
ATOM     31  H8  UNL     1      22.785 -16.913  21.176  1.00  0.00     0.210 HD
ENDBRANCH  20  30
BRANCH  21  32
HETATM   32  O9  UNL     1      20.544 -14.948  21.963  1.00  0.00    -0.388 OA
ATOM     33  H9  UNL     1      19.906 -14.396  21.526  1.00  0.00     0.210 HD
ENDBRANCH  21  32
ENDBRANCH   4  16
BRANCH   1  34
HETATM   34  C7  UNL     1      18.840  -9.895  24.610  1.00  0.00     0.096 A 
HETATM   35  C6  UNL     1      17.872 -10.309  25.546  1.00  0.00     0.152 A 
HETATM   36  N1  UNL     1      16.976  -9.344  25.737  1.00  0.00    -0.240 N 
HETATM   37  N10 UNL     1      17.357  -8.330  24.942  1.00  0.00    -0.235 N 
HETATM   38  N9  UNL     1      18.447  -8.675  24.294  1.00  0.00    -0.282 N 
ATOM     39  H10 UNL     1      16.876  -7.434  24.856  1.00  0.00     0.209 HD
ATOM     40  H9  UNL     1      18.931  -8.072  23.628  1.00  0.00     0.188 HD
BRANCH  36  41
HETATM   41  C5  UNL     1      15.806  -9.299  26.585  1.00  0.00     0.262 C 
BRANCH  41  42
HETATM   42  O3  UNL     1      15.848 -10.107  27.714  1.00  0.00    -0.270 OA
BRANCH  42  43
HETATM   43  C4  UNL     1      14.842 -10.781  28.333  1.00  0.00     0.298 C 
HETATM   44  O2  UNL     1      13.965 -10.108  28.926  1.00  0.00    -0.261 OA
BRANCH  43  45
HETATM   45  C2  UNL     1      14.736 -12.280  28.336  1.00  0.00     0.138 C 
HETATM   46  C1  UNL     1      14.921 -12.856  26.968  1.00  0.00     0.056 C 
HETATM   47  C3  UNL     1      13.364 -12.696  28.869  1.00  0.00     0.056 C 
BRANCH  45  48
HETATM   48  O1  UNL     1      15.671 -12.799  29.207  1.00  0.00    -0.380 OA
ATOM     49  H1  UNL     1      16.117 -12.100  29.670  1.00  0.00     0.211 HD
ENDBRANCH  45  48
ENDBRANCH  43  45
ENDBRANCH  42  43
ENDBRANCH  41  42
ENDBRANCH  36  41
ENDBRANCH   1  34
BRANCH   8  50
HETATM   50  N6  UNL     1      24.798 -12.360  25.896  1.00  0.00    -0.234 N 
ATOM     51  H62 UNL     1      25.610 -12.268  25.285  1.00  0.00     0.174 HD
ATOM     52  H61 UNL     1      24.952 -12.830  26.787  1.00  0.00     0.174 HD
ENDBRANCH   8  50
TORSDOF 14
ENDMDL
