MODEL 1
REMARK VINA RESULT: -9.024417504      0.000      0.000
REMARK  18 active torsions:
REMARK  status: ('A' for Active; 'I' for Inactive)
REMARK    1  A    between atoms: C3_4  and  O2_5 
REMARK    2  A    between atoms: O2_5  and  N1_6 
REMARK    3  A    between atoms: N1_6  and  C4_8 
REMARK    4  A    between atoms: C4_8  and  C5_9 
REMARK    5  A    between atoms: C5_9  and  O3_10 
REMARK    6  A    between atoms: C5_9  and  N2_12 
REMARK    7  A    between atoms: N2_12  and  N3_14 
REMARK    8  A    between atoms: N3_14  and  C6_16 
REMARK    9  A    between atoms: C6_16  and  C7_17 
REMARK       I    between atoms: C7_17  and  N4_19 
REMARK   10  A    between atoms: N4_19  and  C8_21 
REMARK   11  A    between atoms: C9_23  and  N5_24 
REMARK   12  A    between atoms: C12_29  and  N7_30 
REMARK   13  A    between atoms: N7_30  and  O6_32 
REMARK   14  A    between atoms: C15_40  and  O7_41 
REMARK   15  A    between atoms: C16_43  and  O8_44 
REMARK   16  A    between atoms: C16_43  and  C17_46 
REMARK   17  A    between atoms: C17_46  and  O9_48 
REMARK   18  A    between atoms: C19_53  and  N11_54 
ROOT
HETATM    1  C8  UNL     1      24.254 -12.290  25.587  1.00  0.00     0.266 C 
HETATM    2  O5  UNL     1      24.839 -12.178  26.873  1.00  0.00    -0.336 OA
HETATM    3  C9  UNL     1      24.686 -13.395  27.493  1.00  0.00     0.265 C 
HETATM    4  C15 UNL     1      24.591 -14.455  26.386  1.00  0.00     0.208 C 
HETATM    5  C16 UNL     1      24.791 -13.637  25.174  1.00  0.00     0.156 C 
ENDROOT
BRANCH   1   6
HETATM    6  N4  UNL     1      22.847 -12.221  25.774  1.00  0.00    -0.327 N 
HETATM    7  C7  UNL     1      22.146 -10.965  25.825  1.00  0.00     0.260 C 
HETATM    8  O4  UNL     1      22.768  -9.875  25.704  1.00  0.00    -0.267 OA
ATOM      9  H4  UNL     1      22.318 -13.087  25.875  1.00  0.00     0.165 HD
BRANCH   7  10
HETATM   10  C6  UNL     1      20.712 -10.919  26.017  1.00  0.00     0.180 C 
BRANCH  10  11
HETATM   11  N3  UNL     1      20.160 -10.013  26.732  1.00  0.00    -0.308 N 
ATOM     12  H3  UNL     1      20.758  -9.308  27.165  1.00  0.00     0.185 HD
BRANCH  11  13
HETATM   13  N2  UNL     1      18.795  -9.937  26.949  1.00  0.00    -0.303 N 
ATOM     14  H2  UNL     1      18.288 -10.702  27.394  1.00  0.00     0.183 HD
BRANCH  13  15
HETATM   15  C5  UNL     1      18.104  -8.719  26.519  1.00  0.00     0.274 C 
BRANCH  15  16
HETATM   16  C4  UNL     1      16.967  -9.037  25.640  1.00  0.00     0.141 C 
BRANCH  16  17
HETATM   17  N1  UNL     1      15.871  -9.446  26.134  1.00  0.00    -0.273 N 
ATOM     18  H1  UNL     1      15.241  -9.961  25.519  1.00  0.00     0.193 HD
BRANCH  17  19
HETATM   19  O2  UNL     1      15.467  -9.252  27.428  1.00  0.00    -0.218 OA
BRANCH  19  20
HETATM   20  C3  UNL     1      15.342 -10.343  28.348  1.00  0.00     0.494 C 
HETATM   21  O1  UNL     1      15.968 -11.431  27.801  1.00  0.00    -0.329 OA
HETATM   22  C2  UNL     1      15.144 -12.522  27.904  1.00  0.00     0.180 C 
HETATM   23  C1  UNL     1      14.918 -13.059  26.500  1.00  0.00     0.043 C 
HETATM   24  C19 UNL     1      13.876 -12.115  28.579  1.00  0.00     0.414 C 
HETATM   25  N10 UNL     1      13.943 -10.659  28.499  1.00  0.00     0.008 N 
ATOM     26 2H10 UNL     1      13.499 -10.185  29.286  1.00  0.00     0.285 HD
ATOM     27 1H10 UNL     1      13.353 -10.261  27.769  1.00  0.00     0.285 HD
BRANCH  24  28
HETATM   28  N11 UNL     1      13.844 -12.482  29.970  1.00  0.00    -0.047 N 
ATOM     29 3H11 UNL     1      14.563 -13.172  30.183  1.00  0.00     0.276 HD
ATOM     30 2H11 UNL     1      14.172 -11.715  30.558  1.00  0.00     0.276 HD
ATOM     31 1H11 UNL     1      12.925 -12.806  30.271  1.00  0.00     0.276 HD
ENDBRANCH  24  28
ENDBRANCH  19  20
ENDBRANCH  17  19
ENDBRANCH  16  17
ENDBRANCH  15  16
BRANCH  15  32
HETATM   32  O3  UNL     1      19.021  -7.882  25.905  1.00  0.00    -0.371 OA
ATOM     33  H3  UNL     1      18.625  -7.071  25.609  1.00  0.00     0.212 HD
ENDBRANCH  15  32
ENDBRANCH  13  15
ENDBRANCH  11  13
ENDBRANCH  10  11
ENDBRANCH   7  10
ENDBRANCH   1   6
BRANCH   5  34
HETATM   34  O8  UNL     1      26.191 -13.419  25.052  1.00  0.00    -0.380 OA
ATOM     35  H8  UNL     1      26.298 -12.505  25.288  1.00  0.00     0.211 HD
ENDBRANCH   5  34
BRANCH   5  36
HETATM   36  C17 UNL     1      24.334 -14.163  23.892  1.00  0.00     0.155 C 
HETATM   37  C18 UNL     1      24.967 -15.365  23.317  1.00  0.00     0.042 C 
BRANCH  36  38
HETATM   38  O9  UNL     1      22.930 -14.313  23.953  1.00  0.00    -0.393 OA
ATOM     39  H9  UNL     1      22.721 -14.821  24.728  1.00  0.00     0.210 HD
ENDBRANCH  36  38
ENDBRANCH   5  36
BRANCH   3  40
HETATM   40  N5  UNL     1      25.794 -13.711  28.376  1.00  0.00    -0.297 N 
HETATM   41  C10 UNL     1      26.871 -12.919  28.503  1.00  0.00     0.188 A 
HETATM   42  N6  UNL     1      27.729 -13.450  29.378  1.00  0.00    -0.346 N 
HETATM   43  C11 UNL     1      27.207 -14.608  29.832  1.00  0.00     0.124 A 
ATOM     44  H6  UNL     1      28.625 -13.049  29.655  1.00  0.00     0.167 HD
HETATM   45  C12 UNL     1      27.628 -15.564  30.727  1.00  0.00     0.157 A 
HETATM   46  C14 UNL     1      25.988 -14.746  29.184  1.00  0.00     0.142 A 
HETATM   47  N8  UNL     1      26.854 -16.636  30.970  1.00  0.00    -0.335 N 
HETATM   48  C13 UNL     1      25.675 -16.736  30.321  1.00  0.00     0.183 A 
ATOM     49  H8  UNL     1      27.151 -17.355  31.629  1.00  0.00     0.168 HD
HETATM   50  N9  UNL     1      25.240 -15.817  29.444  1.00  0.00    -0.336 N 
ATOM     51  H9  UNL     1      24.341 -15.939  28.978  1.00  0.00     0.168 HD
BRANCH  45  52
HETATM   52  N7  UNL     1      28.760 -15.452  31.341  1.00  0.00    -0.251 N 
ATOM     53  H7  UNL     1      29.365 -16.272  31.388  1.00  0.00     0.196 HD
BRANCH  52  54
HETATM   54  O6  UNL     1      29.188 -14.308  31.924  1.00  0.00    -0.288 OA
ATOM     55  H6  UNL     1      29.229 -13.471  31.475  1.00  0.00     0.244 HD
ENDBRANCH  52  54
ENDBRANCH  45  52
ENDBRANCH   3  40
BRANCH   4  56
HETATM   56  O7  UNL     1      23.418 -15.146  26.473  1.00  0.00    -0.388 OA
ATOM     57  H7  UNL     1      22.940 -14.906  27.257  1.00  0.00     0.210 HD
ENDBRANCH   4  56
TORSDOF 18
ENDMDL
MODEL 2
REMARK VINA RESULT: -8.887212724      1.360      1.759
REMARK  18 active torsions:
REMARK  status: ('A' for Active; 'I' for Inactive)
REMARK    1  A    between atoms: C3_4  and  O2_5 
REMARK    2  A    between atoms: O2_5  and  N1_6 
REMARK    3  A    between atoms: N1_6  and  C4_8 
REMARK    4  A    between atoms: C4_8  and  C5_9 
REMARK    5  A    between atoms: C5_9  and  O3_10 
REMARK    6  A    between atoms: C5_9  and  N2_12 
REMARK    7  A    between atoms: N2_12  and  N3_14 
REMARK    8  A    between atoms: N3_14  and  C6_16 
REMARK    9  A    between atoms: C6_16  and  C7_17 
REMARK       I    between atoms: C7_17  and  N4_19 
REMARK   10  A    between atoms: N4_19  and  C8_21 
REMARK   11  A    between atoms: C9_23  and  N5_24 
REMARK   12  A    between atoms: C12_29  and  N7_30 
REMARK   13  A    between atoms: N7_30  and  O6_32 
REMARK   14  A    between atoms: C15_40  and  O7_41 
REMARK   15  A    between atoms: C16_43  and  O8_44 
REMARK   16  A    between atoms: C16_43  and  C17_46 
REMARK   17  A    between atoms: C17_46  and  O9_48 
REMARK   18  A    between atoms: C19_53  and  N11_54 
ROOT
HETATM    1  C8  UNL     1      24.426 -12.527  25.519  1.00  0.00     0.266 C 
HETATM    2  O5  UNL     1      24.933 -12.394  26.835  1.00  0.00    -0.336 OA
HETATM    3  C9  UNL     1      24.730 -13.595  27.470  1.00  0.00     0.265 C 
HETATM    4  C15 UNL     1      24.691 -14.678  26.382  1.00  0.00     0.208 C 
HETATM    5  C16 UNL     1      24.972 -13.888  25.167  1.00  0.00     0.156 C 
ENDROOT
BRANCH   1   6
HETATM    6  N4  UNL     1      23.011 -12.441  25.619  1.00  0.00    -0.327 N 
HETATM    7  C7  UNL     1      22.285 -11.276  25.185  1.00  0.00     0.260 C 
HETATM    8  O4  UNL     1      22.892 -10.285  24.697  1.00  0.00    -0.267 OA
ATOM      9  H4  UNL     1      22.493 -13.229  26.010  1.00  0.00     0.165 HD
BRANCH   7  10
HETATM   10  C6  UNL     1      20.844 -11.211  25.297  1.00  0.00     0.180 C 
BRANCH  10  11
HETATM   11  N3  UNL     1      20.229 -10.093  25.398  1.00  0.00    -0.308 N 
ATOM     12  H3  UNL     1      19.586  -9.827  24.651  1.00  0.00     0.185 HD
BRANCH  11  13
HETATM   13  N2  UNL     1      20.390  -9.225  26.464  1.00  0.00    -0.303 N 
ATOM     14  H2  UNL     1      21.240  -9.234  27.029  1.00  0.00     0.183 HD
BRANCH  13  15
HETATM   15  C5  UNL     1      19.298  -8.294  26.755  1.00  0.00     0.274 C 
BRANCH  15  16
HETATM   16  C4  UNL     1      18.496  -8.758  27.898  1.00  0.00     0.141 C 
BRANCH  16  17
HETATM   17  N1  UNL     1      17.874  -9.864  27.838  1.00  0.00    -0.273 N 
ATOM     18  H1  UNL     1      17.427 -10.199  28.691  1.00  0.00     0.193 HD
BRANCH  17  19
HETATM   19  O2  UNL     1      17.755 -10.642  26.718  1.00  0.00    -0.218 OA
BRANCH  19  20
HETATM   20  C3  UNL     1      16.480 -10.912  26.122  1.00  0.00     0.494 C 
HETATM   21  O1  UNL     1      16.179  -9.875  25.281  1.00  0.00    -0.329 OA
HETATM   22  C2  UNL     1      14.892  -9.465  25.517  1.00  0.00     0.180 C 
HETATM   23  C1  UNL     1      14.942  -7.989  25.879  1.00  0.00     0.043 C 
HETATM   24  C19 UNL     1      14.301 -10.306  26.600  1.00  0.00     0.414 C 
HETATM   25  N10 UNL     1      15.484 -10.949  27.164  1.00  0.00     0.008 N 
ATOM     26 2H10 UNL     1      15.307 -11.885  27.528  1.00  0.00     0.285 HD
ATOM     27 1H10 UNL     1      15.796 -10.534  28.042  1.00  0.00     0.285 HD
BRANCH  24  28
HETATM   28  N11 UNL     1      13.436 -11.338  26.092  1.00  0.00    -0.047 N 
ATOM     29 3H11 UNL     1      12.527 -10.958  25.830  1.00  0.00     0.276 HD
ATOM     30 2H11 UNL     1      13.750 -11.661  25.177  1.00  0.00     0.276 HD
ATOM     31 1H11 UNL     1      13.333 -12.119  26.740  1.00  0.00     0.276 HD
ENDBRANCH  24  28
ENDBRANCH  19  20
ENDBRANCH  17  19
ENDBRANCH  16  17
ENDBRANCH  15  16
BRANCH  15  32
HETATM   32  O3  UNL     1      18.534  -8.136  25.610  1.00  0.00    -0.371 OA
ATOM     33  H3  UNL     1      19.034  -8.303  24.819  1.00  0.00     0.212 HD
ENDBRANCH  15  32
ENDBRANCH  13  15
ENDBRANCH  11  13
ENDBRANCH  10  11
ENDBRANCH   7  10
ENDBRANCH   1   6
BRANCH   5  34
HETATM   34  O8  UNL     1      26.379 -13.686  25.125  1.00  0.00    -0.380 OA
ATOM     35  H8  UNL     1      26.697 -14.153  25.890  1.00  0.00     0.211 HD
ENDBRANCH   5  34
BRANCH   5  36
HETATM   36  C17 UNL     1      24.588 -14.437  23.871  1.00  0.00     0.155 C 
HETATM   37  C18 UNL     1      25.268 -15.635  23.343  1.00  0.00     0.042 C 
BRANCH  36  38
HETATM   38  O9  UNL     1      23.185 -14.611  23.866  1.00  0.00    -0.393 OA
ATOM     39  H9  UNL     1      22.963 -15.201  23.156  1.00  0.00     0.210 HD
ENDBRANCH  36  38
ENDBRANCH   5  36
BRANCH   3  40
HETATM   40  N5  UNL     1      25.780 -13.903  28.425  1.00  0.00    -0.297 N 
HETATM   41  C10 UNL     1      26.844 -13.106  28.616  1.00  0.00     0.188 A 
HETATM   42  N6  UNL     1      27.645 -13.629  29.548  1.00  0.00    -0.346 N 
HETATM   43  C11 UNL     1      27.098 -14.786  29.975  1.00  0.00     0.124 A 
ATOM     44  H6  UNL     1      28.520 -13.223  29.880  1.00  0.00     0.167 HD
HETATM   45  C12 UNL     1      27.463 -15.735  30.901  1.00  0.00     0.157 A 
HETATM   46  C14 UNL     1      25.924 -14.932  29.250  1.00  0.00     0.142 A 
HETATM   47  N8  UNL     1      26.678 -16.808  31.100  1.00  0.00    -0.335 N 
HETATM   48  C13 UNL     1      25.544 -16.916  30.377  1.00  0.00     0.183 A 
ATOM     49  H8  UNL     1      26.934 -17.523  31.781  1.00  0.00     0.168 HD
HETATM   50  N9  UNL     1      25.165 -16.003  29.467  1.00  0.00    -0.336 N 
ATOM     51  H9  UNL     1      24.298 -16.131  28.945  1.00  0.00     0.168 HD
BRANCH  45  52
HETATM   52  N7  UNL     1      28.553 -15.616  31.586  1.00  0.00    -0.251 N 
ATOM     53  H7  UNL     1      28.488 -15.650  32.603  1.00  0.00     0.196 HD
BRANCH  52  54
HETATM   54  O6  UNL     1      29.775 -15.447  31.029  1.00  0.00    -0.288 OA
ATOM     55  H6  UNL     1      30.379 -14.758  31.280  1.00  0.00     0.244 HD
ENDBRANCH  52  54
ENDBRANCH  45  52
ENDBRANCH   3  40
BRANCH   4  56
HETATM   56  O7  UNL     1      23.508 -15.356  26.412  1.00  0.00    -0.388 OA
ATOM     57  H7  UNL     1      22.874 -14.907  26.957  1.00  0.00     0.210 HD
ENDBRANCH   4  56
TORSDOF 18
ENDMDL
MODEL 3
REMARK VINA RESULT: -8.880011823      1.131      1.456
REMARK  18 active torsions:
REMARK  status: ('A' for Active; 'I' for Inactive)
REMARK    1  A    between atoms: C3_4  and  O2_5 
REMARK    2  A    between atoms: O2_5  and  N1_6 
REMARK    3  A    between atoms: N1_6  and  C4_8 
REMARK    4  A    between atoms: C4_8  and  C5_9 
REMARK    5  A    between atoms: C5_9  and  O3_10 
REMARK    6  A    between atoms: C5_9  and  N2_12 
REMARK    7  A    between atoms: N2_12  and  N3_14 
REMARK    8  A    between atoms: N3_14  and  C6_16 
REMARK    9  A    between atoms: C6_16  and  C7_17 
REMARK       I    between atoms: C7_17  and  N4_19 
REMARK   10  A    between atoms: N4_19  and  C8_21 
REMARK   11  A    between atoms: C9_23  and  N5_24 
REMARK   12  A    between atoms: C12_29  and  N7_30 
REMARK   13  A    between atoms: N7_30  and  O6_32 
REMARK   14  A    between atoms: C15_40  and  O7_41 
REMARK   15  A    between atoms: C16_43  and  O8_44 
REMARK   16  A    between atoms: C16_43  and  C17_46 
REMARK   17  A    between atoms: C17_46  and  O9_48 
REMARK   18  A    between atoms: C19_53  and  N11_54 
ROOT
HETATM    1  C8  UNL     1      24.394 -12.302  25.707  1.00  0.00     0.266 C 
HETATM    2  O5  UNL     1      24.960 -12.225  27.004  1.00  0.00    -0.336 OA
HETATM    3  C9  UNL     1      24.766 -13.446  27.602  1.00  0.00     0.265 C 
HETATM    4  C15 UNL     1      24.662 -14.487  26.478  1.00  0.00     0.208 C 
HETATM    5  C16 UNL     1      24.903 -13.656  25.282  1.00  0.00     0.156 C 
ENDROOT
BRANCH   1   6
HETATM    6  N4  UNL     1      22.986 -12.199  25.872  1.00  0.00    -0.327 N 
HETATM    7  C7  UNL     1      22.308 -10.930  25.861  1.00  0.00     0.260 C 
HETATM    8  O4  UNL     1      22.952  -9.858  25.703  1.00  0.00    -0.267 OA
ATOM      9  H4  UNL     1      22.440 -13.051  26.001  1.00  0.00     0.165 HD
BRANCH   7  10
HETATM   10  C6  UNL     1      20.874 -10.850  26.031  1.00  0.00     0.180 C 
BRANCH  10  11
HETATM   11  N3  UNL     1      20.332  -9.929  26.736  1.00  0.00    -0.308 N 
ATOM     12  H3  UNL     1      20.907  -9.450  27.429  1.00  0.00     0.185 HD
BRANCH  11  13
HETATM   13  N2  UNL     1      19.008  -9.546  26.606  1.00  0.00    -0.303 N 
ATOM     14  H2  UNL     1      18.489  -9.165  27.397  1.00  0.00     0.183 HD
BRANCH  13  15
HETATM   15  C5  UNL     1      18.378  -9.708  25.294  1.00  0.00     0.274 C 
BRANCH  15  16
HETATM   16  C4  UNL     1      17.732  -8.459  24.858  1.00  0.00     0.141 C 
BRANCH  16  17
HETATM   17  N1  UNL     1      16.561  -8.172  25.255  1.00  0.00    -0.273 N 
ATOM     18  H1  UNL     1      16.463  -7.391  25.904  1.00  0.00     0.193 HD
BRANCH  17  19
HETATM   19  O2  UNL     1      15.418  -8.826  24.880  1.00  0.00    -0.218 OA
BRANCH  19  20
HETATM   20  C3  UNL     1      14.470  -9.297  25.847  1.00  0.00     0.494 C 
HETATM   21  O1  UNL     1      14.863  -8.845  27.078  1.00  0.00    -0.329 OA
HETATM   22  C2  UNL     1      14.824  -9.884  27.972  1.00  0.00     0.180 C 
HETATM   23  C1  UNL     1      16.216 -10.030  28.564  1.00  0.00     0.043 C 
HETATM   24  C19 UNL     1      14.363 -11.118  27.267  1.00  0.00     0.414 C 
HETATM   25  N10 UNL     1      14.508 -10.738  25.864  1.00  0.00     0.008 N 
ATOM     26 2H10 UNL     1      13.821 -11.174  25.249  1.00  0.00     0.285 HD
ATOM     27 1H10 UNL     1      15.337 -11.131  25.418  1.00  0.00     0.285 HD
BRANCH  24  28
HETATM   28  N11 UNL     1      12.974 -11.408  27.506  1.00  0.00    -0.047 N 
ATOM     29 3H11 UNL     1      12.753 -12.371  27.252  1.00  0.00     0.276 HD
ATOM     30 2H11 UNL     1      12.776 -11.451  28.505  1.00  0.00     0.276 HD
ATOM     31 1H11 UNL     1      12.349 -10.753  27.036  1.00  0.00     0.276 HD
ENDBRANCH  24  28
ENDBRANCH  19  20
ENDBRANCH  17  19
ENDBRANCH  16  17
ENDBRANCH  15  16
BRANCH  15  32
HETATM   32  O3  UNL     1      17.485 -10.764  25.358  1.00  0.00    -0.371 OA
ATOM     33  H3  UNL     1      17.418 -11.230  24.532  1.00  0.00     0.212 HD
ENDBRANCH  15  32
ENDBRANCH  13  15
ENDBRANCH  11  13
ENDBRANCH  10  11
ENDBRANCH   7  10
ENDBRANCH   1   6
BRANCH   5  34
HETATM   34  O8  UNL     1      26.310 -13.473  25.186  1.00  0.00    -0.380 OA
ATOM     35  H8  UNL     1      26.667 -14.202  25.681  1.00  0.00     0.211 HD
ENDBRANCH   5  34
BRANCH   5  36
HETATM   36  C17 UNL     1      24.454 -14.151  23.985  1.00  0.00     0.155 C 
HETATM   37  C18 UNL     1      25.069 -15.358  23.400  1.00  0.00     0.042 C 
BRANCH  36  38
HETATM   38  O9  UNL     1      23.047 -14.269  24.022  1.00  0.00    -0.393 OA
ATOM     39  H9  UNL     1      22.709 -14.056  23.161  1.00  0.00     0.210 HD
ENDBRANCH  36  38
ENDBRANCH   5  36
BRANCH   3  40
HETATM   40  N5  UNL     1      25.851 -13.804  28.499  1.00  0.00    -0.297 N 
HETATM   41  C10 UNL     1      26.947 -13.045  28.651  1.00  0.00     0.188 A 
HETATM   42  N6  UNL     1      27.776 -13.609  29.532  1.00  0.00    -0.346 N 
HETATM   43  C11 UNL     1      27.214 -14.757  29.966  1.00  0.00     0.124 A 
ATOM     44  H6  UNL     1      28.679 -13.237  29.827  1.00  0.00     0.167 HD
HETATM   45  C12 UNL     1      27.593 -15.734  30.856  1.00  0.00     0.157 A 
HETATM   46  C14 UNL     1      26.002 -14.852  29.298  1.00  0.00     0.142 A 
HETATM   47  N8  UNL     1      26.785 -16.785  31.076  1.00  0.00    -0.335 N 
HETATM   48  C13 UNL     1      25.614 -16.845  30.408  1.00  0.00     0.183 A 
ATOM     49  H8  UNL     1      27.051 -17.521  31.731  1.00  0.00     0.168 HD
HETATM   50  N9  UNL     1      25.220 -15.904  29.534  1.00  0.00    -0.336 N 
ATOM     51  H9  UNL     1      24.325 -15.994  29.053  1.00  0.00     0.168 HD
BRANCH  45  52
HETATM   52  N7  UNL     1      28.719 -15.662  31.488  1.00  0.00    -0.251 N 
ATOM     53  H7  UNL     1      29.200 -16.532  31.716  1.00  0.00     0.196 HD
BRANCH  52  54
HETATM   54  O6  UNL     1      29.294 -14.496  31.865  1.00  0.00    -0.288 OA
ATOM     55  H6  UNL     1      29.020 -13.644  31.543  1.00  0.00     0.244 HD
ENDBRANCH  52  54
ENDBRANCH  45  52
ENDBRANCH   3  40
BRANCH   4  56
HETATM   56  O7  UNL     1      23.471 -15.149  26.535  1.00  0.00    -0.388 OA
ATOM     57  H7  UNL     1      23.597 -16.085  26.435  1.00  0.00     0.210 HD
ENDBRANCH   4  56
TORSDOF 18
ENDMDL
MODEL 4
REMARK VINA RESULT: -8.837770652      1.354      1.882
REMARK  18 active torsions:
REMARK  status: ('A' for Active; 'I' for Inactive)
REMARK    1  A    between atoms: C3_4  and  O2_5 
REMARK    2  A    between atoms: O2_5  and  N1_6 
REMARK    3  A    between atoms: N1_6  and  C4_8 
REMARK    4  A    between atoms: C4_8  and  C5_9 
REMARK    5  A    between atoms: C5_9  and  O3_10 
REMARK    6  A    between atoms: C5_9  and  N2_12 
REMARK    7  A    between atoms: N2_12  and  N3_14 
REMARK    8  A    between atoms: N3_14  and  C6_16 
REMARK    9  A    between atoms: C6_16  and  C7_17 
REMARK       I    between atoms: C7_17  and  N4_19 
REMARK   10  A    between atoms: N4_19  and  C8_21 
REMARK   11  A    between atoms: C9_23  and  N5_24 
REMARK   12  A    between atoms: C12_29  and  N7_30 
REMARK   13  A    between atoms: N7_30  and  O6_32 
REMARK   14  A    between atoms: C15_40  and  O7_41 
REMARK   15  A    between atoms: C16_43  and  O8_44 
REMARK   16  A    between atoms: C16_43  and  C17_46 
REMARK   17  A    between atoms: C17_46  and  O9_48 
REMARK   18  A    between atoms: C19_53  and  N11_54 
ROOT
HETATM    1  C8  UNL     1      24.253 -12.415  25.897  1.00  0.00     0.266 C 
HETATM    2  O5  UNL     1      24.371 -12.772  27.263  1.00  0.00    -0.336 OA
HETATM    3  C9  UNL     1      24.165 -14.127  27.346  1.00  0.00     0.265 C 
HETATM    4  C15 UNL     1      24.556 -14.727  25.988  1.00  0.00     0.208 C 
HETATM    5  C16 UNL     1      25.045 -13.534  25.268  1.00  0.00     0.156 C 
ENDROOT
BRANCH   1   6
HETATM    6  N4  UNL     1      22.864 -12.404  25.599  1.00  0.00    -0.327 N 
HETATM    7  C7  UNL     1      22.189 -11.212  25.157  1.00  0.00     0.260 C 
HETATM    8  O4  UNL     1      22.820 -10.129  25.018  1.00  0.00    -0.267 OA
ATOM      9  H4  UNL     1      22.329 -13.266  25.701  1.00  0.00     0.165 HD
BRANCH   7  10
HETATM   10  C6  UNL     1      20.773 -11.224  24.860  1.00  0.00     0.180 C 
BRANCH  10  11
HETATM   11  N3  UNL     1      19.906 -10.820  25.710  1.00  0.00    -0.308 N 
ATOM     12  H3  UNL     1      18.966 -11.213  25.665  1.00  0.00     0.185 HD
BRANCH  11  13
HETATM   13  N2  UNL     1      20.176  -9.878  26.688  1.00  0.00    -0.303 N 
ATOM     14  H2  UNL     1      20.947 -10.005  27.345  1.00  0.00     0.183 HD
BRANCH  13  15
HETATM   15  C5  UNL     1      19.318  -8.693  26.747  1.00  0.00     0.274 C 
BRANCH  15  16
HETATM   16  C4  UNL     1      18.618  -8.482  25.470  1.00  0.00     0.141 C 
BRANCH  16  17
HETATM   17  N1  UNL     1      17.362  -8.293  25.452  1.00  0.00    -0.273 N 
ATOM     18  H1  UNL     1      17.028  -7.338  25.583  1.00  0.00     0.193 HD
BRANCH  17  19
HETATM   19  O2  UNL     1      16.421  -9.270  25.270  1.00  0.00    -0.218 OA
BRANCH  19  20
HETATM   20  C3  UNL     1      15.730  -9.864  26.376  1.00  0.00     0.494 C 
HETATM   21  O1  UNL     1      16.176 -11.151  26.511  1.00  0.00    -0.329 OA
HETATM   22  C2  UNL     1      15.099 -11.989  26.644  1.00  0.00     0.180 C 
HETATM   23  C1  UNL     1      15.179 -13.018  25.528  1.00  0.00     0.043 C 
HETATM   24  C19 UNL     1      13.844 -11.182  26.597  1.00  0.00     0.414 C 
HETATM   25  N10 UNL     1      14.322  -9.907  26.070  1.00  0.00     0.008 N 
ATOM     26 2H10 UNL     1      13.802  -9.100  26.416  1.00  0.00     0.285 HD
ATOM     27 1H10 UNL     1      14.114  -9.770  25.081  1.00  0.00     0.285 HD
BRANCH  24  28
HETATM   28  N11 UNL     1      13.289 -10.940  27.903  1.00  0.00    -0.047 N 
ATOM     29 3H11 UNL     1      13.317 -11.785  28.474  1.00  0.00     0.276 HD
ATOM     30 2H11 UNL     1      13.905 -10.346  28.458  1.00  0.00     0.276 HD
ATOM     31 1H11 UNL     1      12.345 -10.555  27.865  1.00  0.00     0.276 HD
ENDBRANCH  24  28
ENDBRANCH  19  20
ENDBRANCH  17  19
ENDBRANCH  16  17
ENDBRANCH  15  16
BRANCH  15  32
HETATM   32  O3  UNL     1      20.092  -7.602  27.107  1.00  0.00    -0.371 OA
ATOM     33  H3  UNL     1      19.736  -7.141  27.858  1.00  0.00     0.212 HD
ENDBRANCH  15  32
ENDBRANCH  13  15
ENDBRANCH  11  13
ENDBRANCH  10  11
ENDBRANCH   7  10
ENDBRANCH   1   6
BRANCH   5  34
HETATM   34  O8  UNL     1      26.374 -13.301  25.716  1.00  0.00    -0.380 OA
ATOM     35  H8  UNL     1      26.863 -13.165  24.912  1.00  0.00     0.211 HD
ENDBRANCH   5  34
BRANCH   5  36
HETATM   36  C17 UNL     1      25.093 -13.569  23.810  1.00  0.00     0.155 C 
HETATM   37  C18 UNL     1      26.023 -14.483  23.121  1.00  0.00     0.042 C 
BRANCH  36  38
HETATM   38  O9  UNL     1      23.774 -13.735  23.330  1.00  0.00    -0.393 OA
ATOM     39  H9  UNL     1      23.763 -14.487  22.751  1.00  0.00     0.210 HD
ENDBRANCH  36  38
ENDBRANCH   5  36
BRANCH   3  40
HETATM   40  N5  UNL     1      24.953 -14.746  28.397  1.00  0.00    -0.297 N 
HETATM   41  C10 UNL     1      24.604 -15.903  28.981  1.00  0.00     0.188 A 
HETATM   42  N6  UNL     1      25.505 -16.238  29.908  1.00  0.00    -0.346 N 
HETATM   43  C11 UNL     1      26.460 -15.286  29.932  1.00  0.00     0.124 A 
ATOM     44  H6  UNL     1      25.476 -17.071  30.497  1.00  0.00     0.167 HD
HETATM   45  C12 UNL     1      27.611 -15.099  30.663  1.00  0.00     0.157 A 
HETATM   46  C14 UNL     1      26.086 -14.360  28.969  1.00  0.00     0.142 A 
HETATM   47  N8  UNL     1      28.371 -14.013  30.443  1.00  0.00    -0.335 N 
HETATM   48  C13 UNL     1      27.976 -13.134  29.498  1.00  0.00     0.183 A 
ATOM     49  H8  UNL     1      29.226 -13.857  30.976  1.00  0.00     0.168 HD
HETATM   50  N9  UNL     1      26.858 -13.293  28.770  1.00  0.00    -0.336 N 
ATOM     51  H9  UNL     1      26.601 -12.599  28.068  1.00  0.00     0.168 HD
BRANCH  45  52
HETATM   52  N7  UNL     1      27.975 -15.952  31.564  1.00  0.00    -0.251 N 
ATOM     53  H7  UNL     1      28.967 -16.010  31.798  1.00  0.00     0.196 HD
BRANCH  52  54
HETATM   54  O6  UNL     1      27.116 -16.771  32.213  1.00  0.00    -0.288 OA
ATOM     55  H6  UNL     1      26.833 -17.613  31.876  1.00  0.00     0.244 HD
ENDBRANCH  52  54
ENDBRANCH  45  52
ENDBRANCH   3  40
BRANCH   4  56
HETATM   56  O7  UNL     1      23.506 -15.393  25.428  1.00  0.00    -0.388 OA
ATOM     57  H7  UNL     1      23.370 -16.231  25.854  1.00  0.00     0.210 HD
ENDBRANCH   4  56
TORSDOF 18
ENDMDL
MODEL 5
REMARK VINA RESULT: -8.831807350      1.152      1.373
REMARK  18 active torsions:
REMARK  status: ('A' for Active; 'I' for Inactive)
REMARK    1  A    between atoms: C3_4  and  O2_5 
REMARK    2  A    between atoms: O2_5  and  N1_6 
REMARK    3  A    between atoms: N1_6  and  C4_8 
REMARK    4  A    between atoms: C4_8  and  C5_9 
REMARK    5  A    between atoms: C5_9  and  O3_10 
REMARK    6  A    between atoms: C5_9  and  N2_12 
REMARK    7  A    between atoms: N2_12  and  N3_14 
REMARK    8  A    between atoms: N3_14  and  C6_16 
REMARK    9  A    between atoms: C6_16  and  C7_17 
REMARK       I    between atoms: C7_17  and  N4_19 
REMARK   10  A    between atoms: N4_19  and  C8_21 
REMARK   11  A    between atoms: C9_23  and  N5_24 
REMARK   12  A    between atoms: C12_29  and  N7_30 
REMARK   13  A    between atoms: N7_30  and  O6_32 
REMARK   14  A    between atoms: C15_40  and  O7_41 
REMARK   15  A    between atoms: C16_43  and  O8_44 
REMARK   16  A    between atoms: C16_43  and  C17_46 
REMARK   17  A    between atoms: C17_46  and  O9_48 
REMARK   18  A    between atoms: C19_53  and  N11_54 
ROOT
HETATM    1  C8  UNL     1      24.245 -12.337  25.582  1.00  0.00     0.266 C 
HETATM    2  O5  UNL     1      24.829 -12.205  26.866  1.00  0.00    -0.336 OA
HETATM    3  C9  UNL     1      24.700 -13.420  27.495  1.00  0.00     0.265 C 
HETATM    4  C15 UNL     1      24.624 -14.490  26.396  1.00  0.00     0.208 C 
HETATM    5  C16 UNL     1      24.806 -13.677  25.178  1.00  0.00     0.156 C 
ENDROOT
BRANCH   1   6
HETATM    6  N4  UNL     1      22.837 -12.293  25.771  1.00  0.00    -0.327 N 
HETATM    7  C7  UNL     1      22.053 -11.146  25.394  1.00  0.00     0.260 C 
HETATM    8  O4  UNL     1      22.600 -10.134  24.877  1.00  0.00    -0.267 OA
ATOM      9  H4  UNL     1      22.368 -13.098  26.186  1.00  0.00     0.165 HD
BRANCH   7  10
HETATM   10  C6  UNL     1      20.621 -11.124  25.596  1.00  0.00     0.180 C 
BRANCH  10  11
HETATM   11  N3  UNL     1      19.833 -10.573  24.750  1.00  0.00    -0.308 N 
ATOM     12  H3  UNL     1      20.074 -10.624  23.760  1.00  0.00     0.185 HD
BRANCH  11  13
HETATM   13  N2  UNL     1      18.670  -9.912  25.108  1.00  0.00    -0.303 N 
ATOM     14  H2  UNL     1      17.753 -10.284  24.858  1.00  0.00     0.183 HD
BRANCH  13  15
HETATM   15  C5  UNL     1      18.802  -8.660  25.857  1.00  0.00     0.274 C 
BRANCH  15  16
HETATM   16  C4  UNL     1      18.621  -8.885  27.300  1.00  0.00     0.141 C 
BRANCH  16  17
HETATM   17  N1  UNL     1      17.782  -9.744  27.714  1.00  0.00    -0.273 N 
ATOM     18  H1  UNL     1      17.949 -10.720  27.469  1.00  0.00     0.193 HD
BRANCH  17  19
HETATM   19  O2  UNL     1      16.672  -9.465  28.464  1.00  0.00    -0.218 OA
BRANCH  19  20
HETATM   20  C3  UNL     1      15.351  -9.558  27.916  1.00  0.00     0.494 C 
HETATM   21  O1  UNL     1      14.503  -9.940  28.921  1.00  0.00    -0.329 OA
HETATM   22  C2  UNL     1      13.710 -10.965  28.474  1.00  0.00     0.180 C 
HETATM   23  C1  UNL     1      13.920 -12.146  29.408  1.00  0.00     0.043 C 
HETATM   24  C19 UNL     1      14.066 -11.277  27.058  1.00  0.00     0.414 C 
HETATM   25  N10 UNL     1      15.345 -10.589  26.907  1.00  0.00     0.008 N 
ATOM     26 2H10 UNL     1      15.513 -10.239  25.964  1.00  0.00     0.285 HD
ATOM     27 1H10 UNL     1      16.152 -11.211  26.952  1.00  0.00     0.285 HD
BRANCH  24  28
HETATM   28  N11 UNL     1      13.142 -10.706  26.114  1.00  0.00    -0.047 N 
ATOM     29 3H11 UNL     1      13.570 -10.615  25.193  1.00  0.00     0.276 HD
ATOM     30 2H11 UNL     1      12.398 -11.365  25.886  1.00  0.00     0.276 HD
ATOM     31 1H11 UNL     1      12.758  -9.815  26.428  1.00  0.00     0.276 HD
ENDBRANCH  24  28
ENDBRANCH  19  20
ENDBRANCH  17  19
ENDBRANCH  16  17
ENDBRANCH  15  16
BRANCH  15  32
HETATM   32  O3  UNL     1      17.895  -7.744  25.352  1.00  0.00    -0.371 OA
ATOM     33  H3  UNL     1      17.676  -7.917  24.444  1.00  0.00     0.212 HD
ENDBRANCH  15  32
ENDBRANCH  13  15
ENDBRANCH  11  13
ENDBRANCH  10  11
ENDBRANCH   7  10
ENDBRANCH   1   6
BRANCH   5  34
HETATM   34  O8  UNL     1      26.202 -13.434  25.052  1.00  0.00    -0.380 OA
ATOM     35  H8  UNL     1      26.407 -13.744  24.177  1.00  0.00     0.211 HD
ENDBRANCH   5  34
BRANCH   5  36
HETATM   36  C17 UNL     1      24.357 -14.220  23.900  1.00  0.00     0.155 C 
HETATM   37  C18 UNL     1      25.014 -15.413  23.331  1.00  0.00     0.042 C 
BRANCH  36  38
HETATM   38  O9  UNL     1      22.957 -14.398  23.966  1.00  0.00    -0.393 OA
ATOM     39  H9  UNL     1      22.630 -14.493  23.079  1.00  0.00     0.210 HD
ENDBRANCH  36  38
ENDBRANCH   5  36
BRANCH   3  40
HETATM   40  N5  UNL     1      25.816 -13.709  28.379  1.00  0.00    -0.297 N 
HETATM   41  C10 UNL     1      26.884 -12.904  28.488  1.00  0.00     0.188 A 
HETATM   42  N6  UNL     1      27.752 -13.410  29.368  1.00  0.00    -0.346 N 
HETATM   43  C11 UNL     1      27.244 -14.566  29.844  1.00  0.00     0.124 A 
ATOM     44  H6  UNL     1      28.644 -12.994  29.634  1.00  0.00     0.167 HD
HETATM   45  C12 UNL     1      27.679 -15.502  30.752  1.00  0.00     0.157 A 
HETATM   46  C14 UNL     1      26.024 -14.728  29.203  1.00  0.00     0.142 A 
HETATM   47  N8  UNL     1      26.918 -16.578  31.017  1.00  0.00    -0.335 N 
HETATM   48  C13 UNL     1      25.738 -16.702  30.375  1.00  0.00     0.183 A 
ATOM     49  H8  UNL     1      27.226 -17.283  31.687  1.00  0.00     0.168 HD
HETATM   50  N9  UNL     1      25.290 -15.802  29.484  1.00  0.00    -0.336 N 
ATOM     51  H9  UNL     1      24.390 -15.942  29.024  1.00  0.00     0.168 HD
BRANCH  45  52
HETATM   52  N7  UNL     1      28.812 -15.367  31.359  1.00  0.00    -0.251 N 
ATOM     53  H7  UNL     1      29.460 -16.156  31.351  1.00  0.00     0.196 HD
BRANCH  52  54
HETATM   54  O6  UNL     1      29.188 -14.239  32.006  1.00  0.00    -0.288 OA
ATOM     55  H6  UNL     1      29.618 -13.505  31.580  1.00  0.00     0.244 HD
ENDBRANCH  52  54
ENDBRANCH  45  52
ENDBRANCH   3  40
BRANCH   4  56
HETATM   56  O7  UNL     1      23.464 -15.202  26.489  1.00  0.00    -0.388 OA
ATOM     57  H7  UNL     1      23.370 -15.794  25.753  1.00  0.00     0.210 HD
ENDBRANCH   4  56
TORSDOF 18
ENDMDL
