MODEL 1
REMARK VINA RESULT: -8.523765512      0.000      0.000
REMARK  14 active torsions:
REMARK  status: ('A' for Active; 'I' for Inactive)
REMARK       I    between atoms: C2_2  and  N1_4 
REMARK    1  A    between atoms: N1_4  and  C3_6 
REMARK    2  A    between atoms: C3_6  and  C4_7 
REMARK    3  A    between atoms: C4_7  and  O2_8 
REMARK    4  A    between atoms: C4_7  and  C5_10 
REMARK    5  A    between atoms: C5_10  and  N2_11 
REMARK    6  A    between atoms: C5_10  and  C14_39 
REMARK    7  A    between atoms: N2_11  and  C6_14 
REMARK    8  A    between atoms: C6_14  and  O3_15 
REMARK    9  A    between atoms: C6_14  and  C7_17 
REMARK   10  A    between atoms: C8_19  and  O5_20 
REMARK   11  A    between atoms: C11_30  and  N5_31 
REMARK   12  A    between atoms: N5_31  and  N6_32 
REMARK   13  A    between atoms: C12_35  and  C13_36 
REMARK   14  A    between atoms: C14_39  and  O8_41 
ROOT
HETATM    1  C7  UNL     1      24.381 -33.334 283.908  1.00  0.00     0.273 C 
HETATM    2  O4  UNL     1      24.830 -34.165 284.949  1.00  0.00    -0.332 OA
HETATM    3  C8  UNL     1      24.318 -33.846 286.174  1.00  0.00     0.225 C 
HETATM    4  C9  UNL     1      24.099 -32.402 286.467  1.00  0.00     0.352 C 
HETATM    5  N3  UNL     1      24.663 -31.495 285.488  1.00  0.00    -0.327 N 
ATOM      6  H3  UNL     1      24.810 -30.509 285.708  1.00  0.00     0.164 HD
HETATM    7  C10 UNL     1      25.010 -32.028 284.195  1.00  0.00     0.253 C 
HETATM    8  O6  UNL     1      25.772 -31.365 283.481  1.00  0.00    -0.270 OA
HETATM    9  N4  UNL     1      24.584 -32.139 287.821  1.00  0.00    -0.028 N 
ATOM     10  H41 UNL     1      23.950 -31.567 288.380  1.00  0.00     0.281 HD
ATOM     11  H42 UNL     1      25.380 -31.504 287.857  1.00  0.00     0.281 HD
HETATM   12  C11 UNL     1      24.855 -33.460 288.399  1.00  0.00     0.318 C 
HETATM   13  C12 UNL     1      25.390 -34.196 287.219  1.00  0.00     0.189 C 
ENDROOT
BRANCH   1  14
HETATM   14  C6  UNL     1      24.692 -33.946 282.594  1.00  0.00     0.358 C 
BRANCH  14  15
HETATM   15  N2  UNL     1      24.516 -33.006 281.495  1.00  0.00    -0.037 N 
ATOM     16  H22 UNL     1      24.441 -32.054 281.852  1.00  0.00     0.281 HD
ATOM     17  H21 UNL     1      23.589 -33.113 281.082  1.00  0.00     0.281 HD
BRANCH  15  18
HETATM   18  C5  UNL     1      25.517 -33.081 280.489  1.00  0.00     0.247 C 
BRANCH  18  19
HETATM   19  C4  UNL     1      25.987 -31.706 280.105  1.00  0.00     0.169 C 
BRANCH  19  20
HETATM   20  C3  UNL     1      27.462 -31.499 280.040  1.00  0.00     0.156 C 
BRANCH  20  21
HETATM   21  N1  UNL     1      28.211 -31.824 281.203  1.00  0.00    -0.359 N 
HETATM   22  C2  UNL     1      28.524 -30.793 282.120  1.00  0.00     0.213 C 
HETATM   23  C1  UNL     1      29.303 -31.038 283.366  1.00  0.00     0.117 C 
HETATM   24  O1  UNL     1      28.155 -29.612 281.927  1.00  0.00    -0.274 OA
ATOM     25  H1  UNL     1      28.516 -32.783 281.373  1.00  0.00     0.162 HD
ENDBRANCH  20  21
ENDBRANCH  19  20
BRANCH  19  26
HETATM   26  O2  UNL     1      25.365 -30.669 280.788  1.00  0.00    -0.392 OA
ATOM     27  H2  UNL     1      24.787 -30.180 280.213  1.00  0.00     0.210 HD
ENDBRANCH  19  26
ENDBRANCH  18  19
BRANCH  18  28
HETATM   28  C14 UNL     1      25.047 -33.728 279.194  1.00  0.00     0.147 C 
HETATM   29  C15 UNL     1      24.542 -32.684 278.259  1.00  0.00     0.041 C 
BRANCH  28  30
HETATM   30  O8  UNL     1      23.975 -34.560 279.538  1.00  0.00    -0.394 OA
ATOM     31  H8  UNL     1      23.588 -34.848 278.719  1.00  0.00     0.210 HD
ENDBRANCH  28  30
ENDBRANCH  18  28
ENDBRANCH  15  18
ENDBRANCH  14  15
BRANCH  14  32
HETATM   32  O3  UNL     1      23.754 -34.967 282.407  1.00  0.00    -0.367 OA
ATOM     33  H3  UNL     1      24.173 -35.777 282.676  1.00  0.00     0.212 HD
ENDBRANCH  14  32
ENDBRANCH   1  14
BRANCH   3  34
HETATM   34  O5  UNL     1      23.160 -34.592 286.390  1.00  0.00    -0.362 OA
ATOM     35  H5  UNL     1      22.455 -34.005 286.634  1.00  0.00     0.213 HD
ENDBRANCH   3  34
BRANCH  13  36
HETATM   36  C13 UNL     1      25.535 -35.633 287.363  1.00  0.00     0.244 C 
HETATM   37  N7  UNL     1      24.569 -36.392 288.060  1.00  0.00    -0.062 NA
HETATM   38  O7  UNL     1      26.518 -36.220 286.871  1.00  0.00    -0.276 OA
ENDBRANCH  13  36
BRANCH  12  39
HETATM   39  N5  UNL     1      25.737 -33.399 289.519  1.00  0.00    -0.114 NA
BRANCH  39  40
HETATM   40  N6  UNL     1      25.550 -34.474 290.396  1.00  0.00    -0.346 N 
ATOM     41  H62 UNL     1      24.782 -35.140 290.307  1.00  0.00     0.172 HD
ATOM     42  H61 UNL     1      26.266 -34.507 291.121  1.00  0.00     0.172 HD
ENDBRANCH  39  40
ENDBRANCH  12  39
TORSDOF 14
ENDMDL
MODEL 2
REMARK VINA RESULT: -8.322455766      1.983      3.636
REMARK  14 active torsions:
REMARK  status: ('A' for Active; 'I' for Inactive)
REMARK       I    between atoms: C2_2  and  N1_4 
REMARK    1  A    between atoms: N1_4  and  C3_6 
REMARK    2  A    between atoms: C3_6  and  C4_7 
REMARK    3  A    between atoms: C4_7  and  O2_8 
REMARK    4  A    between atoms: C4_7  and  C5_10 
REMARK    5  A    between atoms: C5_10  and  N2_11 
REMARK    6  A    between atoms: C5_10  and  C14_39 
REMARK    7  A    between atoms: N2_11  and  C6_14 
REMARK    8  A    between atoms: C6_14  and  O3_15 
REMARK    9  A    between atoms: C6_14  and  C7_17 
REMARK   10  A    between atoms: C8_19  and  O5_20 
REMARK   11  A    between atoms: C11_30  and  N5_31 
REMARK   12  A    between atoms: N5_31  and  N6_32 
REMARK   13  A    between atoms: C12_35  and  C13_36 
REMARK   14  A    between atoms: C14_39  and  O8_41 
ROOT
HETATM    1  C7  UNL     1      24.406 -31.388 283.428  1.00  0.00     0.273 C 
HETATM    2  O4  UNL     1      25.093 -32.182 284.362  1.00  0.00    -0.332 OA
HETATM    3  C8  UNL     1      24.279 -32.946 285.148  1.00  0.00     0.225 C 
HETATM    4  C9  UNL     1      22.970 -32.359 285.547  1.00  0.00     0.352 C 
HETATM    5  N3  UNL     1      22.814 -30.955 285.227  1.00  0.00    -0.327 N 
ATOM      6  H3  UNL     1      22.092 -30.390 285.676  1.00  0.00     0.164 HD
HETATM    7  C10 UNL     1      23.710 -30.381 284.255  1.00  0.00     0.253 C 
HETATM    8  O6  UNL     1      23.805 -29.148 284.212  1.00  0.00    -0.270 OA
HETATM    9  N4  UNL     1      22.766 -32.638 286.968  1.00  0.00    -0.028 N 
ATOM     10  H41 UNL     1      21.827 -32.965 287.192  1.00  0.00     0.281 HD
ATOM     11  H42 UNL     1      22.743 -31.802 287.552  1.00  0.00     0.281 HD
HETATM   12  C11 UNL     1      23.826 -33.584 287.332  1.00  0.00     0.318 C 
HETATM   13  C12 UNL     1      24.967 -33.082 286.516  1.00  0.00     0.189 C 
ENDROOT
BRANCH   1  14
HETATM   14  C6  UNL     1      25.345 -30.872 282.403  1.00  0.00     0.358 C 
BRANCH  14  15
HETATM   15  N2  UNL     1      25.905 -31.938 281.585  1.00  0.00    -0.037 N 
ATOM     16  H22 UNL     1      25.399 -32.810 281.743  1.00  0.00     0.281 HD
ATOM     17  H21 UNL     1      26.827 -32.205 281.931  1.00  0.00     0.281 HD
BRANCH  15  18
HETATM   18  C5  UNL     1      25.965 -31.647 280.195  1.00  0.00     0.247 C 
BRANCH  18  19
HETATM   19  C4  UNL     1      24.916 -32.418 279.445  1.00  0.00     0.169 C 
BRANCH  19  20
HETATM   20  C3  UNL     1      25.195 -33.863 279.202  1.00  0.00     0.156 C 
BRANCH  20  21
HETATM   21  N1  UNL     1      24.578 -34.794 280.080  1.00  0.00    -0.359 N 
HETATM   22  C2  UNL     1      24.733 -36.177 279.822  1.00  0.00     0.213 C 
HETATM   23  C1  UNL     1      24.124 -37.227 280.686  1.00  0.00     0.117 C 
HETATM   24  O1  UNL     1      25.400 -36.589 278.845  1.00  0.00    -0.274 OA
ATOM     25  H1  UNL     1      24.033 -34.472 280.881  1.00  0.00     0.162 HD
ENDBRANCH  20  21
ENDBRANCH  19  20
BRANCH  19  26
HETATM   26  O2  UNL     1      24.452 -31.797 278.293  1.00  0.00    -0.392 OA
ATOM     27  H2  UNL     1      24.849 -30.940 278.183  1.00  0.00     0.210 HD
ENDBRANCH  19  26
ENDBRANCH  18  19
BRANCH  18  28
HETATM   28  C14 UNL     1      27.288 -32.015 279.541  1.00  0.00     0.147 C 
HETATM   29  C15 UNL     1      28.420 -31.543 280.385  1.00  0.00     0.041 C 
BRANCH  28  30
HETATM   30  O8  UNL     1      27.332 -31.321 278.326  1.00  0.00    -0.394 OA
ATOM     31  H8  UNL     1      26.984 -31.912 277.669  1.00  0.00     0.210 HD
ENDBRANCH  28  30
ENDBRANCH  18  28
ENDBRANCH  15  18
ENDBRANCH  14  15
BRANCH  14  32
HETATM   32  O3  UNL     1      26.411 -30.298 283.104  1.00  0.00    -0.367 OA
ATOM     33  H3  UNL     1      26.207 -29.375 283.206  1.00  0.00     0.212 HD
ENDBRANCH  14  32
ENDBRANCH   1  14
BRANCH   3  34
HETATM   34  O5  UNL     1      24.118 -34.197 284.553  1.00  0.00    -0.362 OA
ATOM     35  H5  UNL     1      23.520 -34.116 283.820  1.00  0.00     0.213 HD
ENDBRANCH   3  34
BRANCH  13  36
HETATM   36  C13 UNL     1      26.133 -33.941 286.436  1.00  0.00     0.244 C 
HETATM   37  N7  UNL     1      26.030 -35.328 286.685  1.00  0.00    -0.062 NA
HETATM   38  O7  UNL     1      27.249 -33.466 286.145  1.00  0.00    -0.276 OA
ENDBRANCH  13  36
BRANCH  12  39
HETATM   39  N5  UNL     1      24.066 -33.625 288.739  1.00  0.00    -0.114 NA
BRANCH  39  40
HETATM   40  N6  UNL     1      24.033 -34.931 289.242  1.00  0.00    -0.346 N 
ATOM     41  H62 UNL     1      23.272 -35.285 289.822  1.00  0.00     0.172 HD
ATOM     42  H61 UNL     1      24.850 -35.471 288.960  1.00  0.00     0.172 HD
ENDBRANCH  39  40
ENDBRANCH  12  39
TORSDOF 14
ENDMDL
MODEL 3
REMARK VINA RESULT: -8.283639674      2.596      7.068
REMARK  14 active torsions:
REMARK  status: ('A' for Active; 'I' for Inactive)
REMARK       I    between atoms: C2_2  and  N1_4 
REMARK    1  A    between atoms: N1_4  and  C3_6 
REMARK    2  A    between atoms: C3_6  and  C4_7 
REMARK    3  A    between atoms: C4_7  and  O2_8 
REMARK    4  A    between atoms: C4_7  and  C5_10 
REMARK    5  A    between atoms: C5_10  and  N2_11 
REMARK    6  A    between atoms: C5_10  and  C14_39 
REMARK    7  A    between atoms: N2_11  and  C6_14 
REMARK    8  A    between atoms: C6_14  and  O3_15 
REMARK    9  A    between atoms: C6_14  and  C7_17 
REMARK   10  A    between atoms: C8_19  and  O5_20 
REMARK   11  A    between atoms: C11_30  and  N5_31 
REMARK   12  A    between atoms: N5_31  and  N6_32 
REMARK   13  A    between atoms: C12_35  and  C13_36 
REMARK   14  A    between atoms: C14_39  and  O8_41 
ROOT
HETATM    1  C7  UNL     1      24.471 -33.724 281.288  1.00  0.00     0.273 C 
HETATM    2  O4  UNL     1      25.642 -32.954 281.395  1.00  0.00    -0.332 OA
HETATM    3  C8  UNL     1      25.822 -32.070 280.369  1.00  0.00     0.225 C 
HETATM    4  C9  UNL     1      25.381 -32.500 279.014  1.00  0.00     0.352 C 
HETATM    5  N3  UNL     1      25.010 -33.897 278.913  1.00  0.00    -0.327 N 
ATOM      6  H3  UNL     1      24.950 -34.362 278.007  1.00  0.00     0.164 HD
HETATM    7  C10 UNL     1      24.728 -34.611 280.134  1.00  0.00     0.253 C 
HETATM    8  O6  UNL     1      24.732 -35.847 280.096  1.00  0.00    -0.270 OA
HETATM    9  N4  UNL     1      26.425 -32.126 278.061  1.00  0.00    -0.028 N 
ATOM     10  H41 UNL     1      26.068 -31.694 277.209  1.00  0.00     0.281 HD
ATOM     11  H42 UNL     1      26.875 -32.923 277.611  1.00  0.00     0.281 HD
HETATM   12  C11 UNL     1      27.349 -31.272 278.815  1.00  0.00     0.318 C 
HETATM   13  C12 UNL     1      27.337 -31.930 280.152  1.00  0.00     0.189 C 
ENDROOT
BRANCH   1  14
HETATM   14  C6  UNL     1      24.173 -34.386 282.580  1.00  0.00     0.358 C 
BRANCH  14  15
HETATM   15  N2  UNL     1      25.185 -34.103 283.589  1.00  0.00    -0.037 N 
ATOM     16  H22 UNL     1      25.977 -33.617 283.170  1.00  0.00     0.281 HD
ATOM     17  H21 UNL     1      25.644 -34.966 283.883  1.00  0.00     0.281 HD
BRANCH  15  18
HETATM   18  C5  UNL     1      24.707 -33.388 284.719  1.00  0.00     0.247 C 
BRANCH  18  19
HETATM   19  C4  UNL     1      25.345 -32.030 284.797  1.00  0.00     0.169 C 
BRANCH  19  20
HETATM   20  C3  UNL     1      24.467 -30.861 284.497  1.00  0.00     0.156 C 
BRANCH  20  21
HETATM   21  N1  UNL     1      23.706 -30.918 283.299  1.00  0.00    -0.359 N 
HETATM   22  C2  UNL     1      23.113 -29.728 282.813  1.00  0.00     0.213 C 
HETATM   23  C1  UNL     1      22.298 -29.690 281.567  1.00  0.00     0.117 C 
HETATM   24  O1  UNL     1      23.249 -28.638 283.414  1.00  0.00    -0.274 OA
ATOM     25  H1  UNL     1      23.589 -31.800 282.799  1.00  0.00     0.162 HD
ENDBRANCH  20  21
ENDBRANCH  19  20
BRANCH  19  26
HETATM   26  O2  UNL     1      26.563 -31.923 284.139  1.00  0.00    -0.392 OA
ATOM     27  H2  UNL     1      26.499 -32.243 283.247  1.00  0.00     0.210 HD
ENDBRANCH  19  26
ENDBRANCH  18  19
BRANCH  18  28
HETATM   28  C14 UNL     1      25.011 -34.058 286.051  1.00  0.00     0.147 C 
HETATM   29  C15 UNL     1      24.167 -33.463 287.124  1.00  0.00     0.041 C 
BRANCH  28  30
HETATM   30  O8  UNL     1      26.350 -33.768 286.340  1.00  0.00    -0.394 OA
ATOM     31  H8  UNL     1      26.639 -34.428 286.958  1.00  0.00     0.210 HD
ENDBRANCH  28  30
ENDBRANCH  18  28
ENDBRANCH  15  18
ENDBRANCH  14  15
BRANCH  14  32
HETATM   32  O3  UNL     1      24.221 -35.763 282.334  1.00  0.00    -0.367 OA
ATOM     33  H3  UNL     1      23.430 -35.984 281.857  1.00  0.00     0.212 HD
ENDBRANCH  14  32
ENDBRANCH   1  14
BRANCH   3  34
HETATM   34  O5  UNL     1      25.261 -30.844 280.724  1.00  0.00    -0.362 OA
ATOM     35  H5  UNL     1      24.415 -30.757 280.301  1.00  0.00     0.213 HD
ENDBRANCH   3  34
BRANCH  13  36
HETATM   36  C13 UNL     1      27.960 -31.198 281.239  1.00  0.00     0.244 C 
HETATM   37  N7  UNL     1      27.781 -29.803 281.368  1.00  0.00    -0.062 NA
HETATM   38  O7  UNL     1      28.663 -31.792 282.079  1.00  0.00    -0.276 OA
ENDBRANCH  13  36
BRANCH  12  39
HETATM   39  N5  UNL     1      28.635 -31.180 278.202  1.00  0.00    -0.114 NA
BRANCH  39  40
HETATM   40  N6  UNL     1      28.548 -30.898 276.834  1.00  0.00    -0.346 N 
ATOM     41  H62 UNL     1      27.663 -30.866 276.327  1.00  0.00     0.172 HD
ATOM     42  H61 UNL     1      29.463 -30.732 276.417  1.00  0.00     0.172 HD
ENDBRANCH  39  40
ENDBRANCH  12  39
TORSDOF 14
ENDMDL
MODEL 4
REMARK VINA RESULT: -8.105047361      2.148      7.621
REMARK  14 active torsions:
REMARK  status: ('A' for Active; 'I' for Inactive)
REMARK       I    between atoms: C2_2  and  N1_4 
REMARK    1  A    between atoms: N1_4  and  C3_6 
REMARK    2  A    between atoms: C3_6  and  C4_7 
REMARK    3  A    between atoms: C4_7  and  O2_8 
REMARK    4  A    between atoms: C4_7  and  C5_10 
REMARK    5  A    between atoms: C5_10  and  N2_11 
REMARK    6  A    between atoms: C5_10  and  C14_39 
REMARK    7  A    between atoms: N2_11  and  C6_14 
REMARK    8  A    between atoms: C6_14  and  O3_15 
REMARK    9  A    between atoms: C6_14  and  C7_17 
REMARK   10  A    between atoms: C8_19  and  O5_20 
REMARK   11  A    between atoms: C11_30  and  N5_31 
REMARK   12  A    between atoms: N5_31  and  N6_32 
REMARK   13  A    between atoms: C12_35  and  C13_36 
REMARK   14  A    between atoms: C14_39  and  O8_41 
ROOT
HETATM    1  C7  UNL     1      24.355 -33.562 281.591  1.00  0.00     0.273 C 
HETATM    2  O4  UNL     1      25.560 -32.838 281.599  1.00  0.00    -0.332 OA
HETATM    3  C8  UNL     1      25.758 -32.078 280.483  1.00  0.00     0.225 C 
HETATM    4  C9  UNL     1      25.275 -32.629 279.187  1.00  0.00     0.352 C 
HETATM    5  N3  UNL     1      24.842 -34.011 279.241  1.00  0.00    -0.327 N 
ATOM      6  H3  UNL     1      24.746 -34.566 278.390  1.00  0.00     0.164 HD
HETATM    7  C10 UNL     1      24.552 -34.577 280.535  1.00  0.00     0.253 C 
HETATM    8  O6  UNL     1      24.502 -35.809 280.629  1.00  0.00    -0.270 OA
HETATM    9  N4  UNL     1      26.316 -32.405 278.186  1.00  0.00    -0.028 N 
ATOM     10  H41 UNL     1      25.963 -32.051 277.297  1.00  0.00     0.281 HD
ATOM     11  H42 UNL     1      26.724 -33.264 277.817  1.00  0.00     0.281 HD
HETATM   12  C11 UNL     1      27.290 -31.518 278.832  1.00  0.00     0.318 C 
HETATM   13  C12 UNL     1      27.274 -32.029 280.231  1.00  0.00     0.189 C 
ENDROOT
BRANCH   1  14
HETATM   14  C6  UNL     1      24.052 -34.070 282.950  1.00  0.00     0.358 C 
BRANCH  14  15
HETATM   15  N2  UNL     1      23.671 -33.001 283.863  1.00  0.00    -0.037 N 
ATOM     16  H22 UNL     1      22.867 -33.284 284.424  1.00  0.00     0.281 HD
ATOM     17  H21 UNL     1      23.260 -32.223 283.347  1.00  0.00     0.281 HD
BRANCH  15  18
HETATM   18  C5  UNL     1      24.720 -32.539 284.702  1.00  0.00     0.247 C 
BRANCH  18  19
HETATM   19  C4  UNL     1      24.402 -32.804 286.146  1.00  0.00     0.169 C 
BRANCH  19  20
HETATM   20  C3  UNL     1      23.003 -33.217 286.457  1.00  0.00     0.156 C 
BRANCH  20  21
HETATM   21  N1  UNL     1      22.743 -33.669 287.779  1.00  0.00    -0.359 N 
HETATM   22  C2  UNL     1      21.735 -34.642 287.979  1.00  0.00     0.213 C 
HETATM   23  C1  UNL     1      21.393 -35.177 289.327  1.00  0.00     0.117 C 
HETATM   24  O1  UNL     1      21.077 -35.107 287.021  1.00  0.00    -0.274 OA
ATOM     25  H1  UNL     1      23.274 -33.300 288.568  1.00  0.00     0.162 HD
ENDBRANCH  20  21
ENDBRANCH  19  20
BRANCH  19  26
HETATM   26  O2  UNL     1      24.842 -31.824 287.026  1.00  0.00    -0.392 OA
ATOM     27  H2  UNL     1      25.791 -31.781 287.043  1.00  0.00     0.210 HD
ENDBRANCH  19  26
ENDBRANCH  18  19
BRANCH  18  28
HETATM   28  C14 UNL     1      24.974 -31.041 284.608  1.00  0.00     0.147 C 
HETATM   29  C15 UNL     1      23.792 -30.362 284.009  1.00  0.00     0.041 C 
BRANCH  28  30
HETATM   30  O8  UNL     1      26.057 -30.881 283.736  1.00  0.00    -0.394 OA
ATOM     31  H8  UNL     1      26.795 -30.619 284.273  1.00  0.00     0.210 HD
ENDBRANCH  28  30
ENDBRANCH  18  28
ENDBRANCH  15  18
ENDBRANCH  14  15
BRANCH  14  32
HETATM   32  O3  UNL     1      25.244 -34.614 283.439  1.00  0.00    -0.367 OA
ATOM     33  H3  UNL     1      25.056 -35.512 283.687  1.00  0.00     0.212 HD
ENDBRANCH  14  32
ENDBRANCH   1  14
BRANCH   3  34
HETATM   34  O5  UNL     1      25.257 -30.797 280.712  1.00  0.00    -0.362 OA
ATOM     35  H5  UNL     1      25.092 -30.375 279.877  1.00  0.00     0.213 HD
ENDBRANCH   3  34
BRANCH  13  36
HETATM   36  C13 UNL     1      27.947 -31.214 281.226  1.00  0.00     0.244 C 
HETATM   37  N7  UNL     1      27.835 -29.806 281.204  1.00  0.00    -0.062 NA
HETATM   38  O7  UNL     1      28.636 -31.747 282.118  1.00  0.00    -0.276 OA
ENDBRANCH  13  36
BRANCH  12  39
HETATM   39  N5  UNL     1      28.567 -31.549 278.196  1.00  0.00    -0.114 NA
BRANCH  39  40
HETATM   40  N6  UNL     1      28.554 -30.900 276.955  1.00  0.00    -0.346 N 
ATOM     41  H62 UNL     1      29.113 -30.071 276.754  1.00  0.00     0.172 HD
ATOM     42  H61 UNL     1      27.926 -31.352 276.292  1.00  0.00     0.172 HD
ENDBRANCH  39  40
ENDBRANCH  12  39
TORSDOF 14
ENDMDL
MODEL 5
REMARK VINA RESULT: -8.100151118      1.985      7.846
REMARK  14 active torsions:
REMARK  status: ('A' for Active; 'I' for Inactive)
REMARK       I    between atoms: C2_2  and  N1_4 
REMARK    1  A    between atoms: N1_4  and  C3_6 
REMARK    2  A    between atoms: C3_6  and  C4_7 
REMARK    3  A    between atoms: C4_7  and  O2_8 
REMARK    4  A    between atoms: C4_7  and  C5_10 
REMARK    5  A    between atoms: C5_10  and  N2_11 
REMARK    6  A    between atoms: C5_10  and  C14_39 
REMARK    7  A    between atoms: N2_11  and  C6_14 
REMARK    8  A    between atoms: C6_14  and  O3_15 
REMARK    9  A    between atoms: C6_14  and  C7_17 
REMARK   10  A    between atoms: C8_19  and  O5_20 
REMARK   11  A    between atoms: C11_30  and  N5_31 
REMARK   12  A    between atoms: N5_31  and  N6_32 
REMARK   13  A    between atoms: C12_35  and  C13_36 
REMARK   14  A    between atoms: C14_39  and  O8_41 
ROOT
HETATM    1  C7  UNL     1      24.728 -32.610 283.654  1.00  0.00     0.273 C 
HETATM    2  O4  UNL     1      25.906 -32.051 283.129  1.00  0.00    -0.332 OA
HETATM    3  C8  UNL     1      25.827 -31.736 281.802  1.00  0.00     0.225 C 
HETATM    4  C9  UNL     1      25.025 -32.640 280.933  1.00  0.00     0.352 C 
HETATM    5  N3  UNL     1      24.602 -33.871 281.568  1.00  0.00    -0.327 N 
ATOM      6  H3  UNL     1      24.287 -34.668 281.014  1.00  0.00     0.164 HD
HETATM    7  C10 UNL     1      24.640 -33.936 283.008  1.00  0.00     0.253 C 
HETATM    8  O6  UNL     1      24.598 -35.052 283.539  1.00  0.00    -0.270 OA
HETATM    9  N4  UNL     1      25.784 -32.873 279.705  1.00  0.00    -0.028 N 
ATOM     10  H41 UNL     1      25.223 -32.806 278.856  1.00  0.00     0.281 HD
ATOM     11  H42 UNL     1      26.074 -33.843 279.579  1.00  0.00     0.281 HD
HETATM   12  C11 UNL     1      26.901 -31.923 279.754  1.00  0.00     0.318 C 
HETATM   13  C12 UNL     1      27.231 -31.927 281.207  1.00  0.00     0.189 C 
ENDROOT
BRANCH   1  14
HETATM   14  C6  UNL     1      24.770 -32.595 285.136  1.00  0.00     0.358 C 
BRANCH  14  15
HETATM   15  N2  UNL     1      23.774 -33.480 285.723  1.00  0.00    -0.037 N 
ATOM     16  H22 UNL     1      24.016 -34.455 285.545  1.00  0.00     0.281 HD
ATOM     17  H21 UNL     1      22.897 -33.420 285.205  1.00  0.00     0.281 HD
BRANCH  15  18
HETATM   18  C5  UNL     1      23.544 -33.273 287.110  1.00  0.00     0.247 C 
BRANCH  18  19
HETATM   19  C4  UNL     1      24.032 -34.447 287.910  1.00  0.00     0.169 C 
BRANCH  19  20
HETATM   20  C3  UNL     1      24.779 -34.137 289.163  1.00  0.00     0.156 C 
BRANCH  20  21
HETATM   21  N1  UNL     1      24.698 -35.090 290.214  1.00  0.00    -0.359 N 
HETATM   22  C2  UNL     1      25.684 -36.102 290.292  1.00  0.00     0.213 C 
HETATM   23  C1  UNL     1      25.682 -37.144 291.357  1.00  0.00     0.117 C 
HETATM   24  O1  UNL     1      26.618 -36.170 289.461  1.00  0.00    -0.274 OA
ATOM     25  H1  UNL     1      23.943 -35.046 290.899  1.00  0.00     0.162 HD
ENDBRANCH  20  21
ENDBRANCH  19  20
BRANCH  19  26
HETATM   26  O2  UNL     1      24.681 -35.425 287.168  1.00  0.00    -0.392 OA
ATOM     27  H2  UNL     1      24.241 -35.574 286.339  1.00  0.00     0.210 HD
ENDBRANCH  19  26
ENDBRANCH  18  19
BRANCH  18  28
HETATM   28  C14 UNL     1      22.076 -33.110 287.477  1.00  0.00     0.147 C 
HETATM   29  C15 UNL     1      21.349 -34.388 287.240  1.00  0.00     0.041 C 
BRANCH  28  30
HETATM   30  O8  UNL     1      21.558 -32.146 286.604  1.00  0.00    -0.394 OA
ATOM     31  H8  UNL     1      21.561 -31.325 287.082  1.00  0.00     0.210 HD
ENDBRANCH  28  30
ENDBRANCH  18  28
ENDBRANCH  15  18
ENDBRANCH  14  15
BRANCH  14  32
HETATM   32  O3  UNL     1      24.435 -31.294 285.524  1.00  0.00    -0.367 OA
ATOM     33  H3  UNL     1      25.233 -30.780 285.481  1.00  0.00     0.212 HD
ENDBRANCH  14  32
ENDBRANCH   1  14
BRANCH   3  34
HETATM   34  O5  UNL     1      25.417 -30.409 281.675  1.00  0.00    -0.362 OA
ATOM     35  H5  UNL     1      26.036 -29.946 281.123  1.00  0.00     0.213 HD
ENDBRANCH   3  34
BRANCH  13  36
HETATM   36  C13 UNL     1      28.144 -30.897 281.666  1.00  0.00     0.244 C 
HETATM   37  N7  UNL     1      29.209 -31.210 282.539  1.00  0.00    -0.062 NA
HETATM   38  O7  UNL     1      28.001 -29.716 281.294  1.00  0.00    -0.276 OA
ENDBRANCH  13  36
BRANCH  12  39
HETATM   39  N5  UNL     1      27.976 -32.296 278.892  1.00  0.00    -0.114 NA
BRANCH  39  40
HETATM   40  N6  UNL     1      27.732 -31.940 277.561  1.00  0.00    -0.346 N 
ATOM     41  H62 UNL     1      27.479 -30.994 277.274  1.00  0.00     0.172 HD
ATOM     42  H61 UNL     1      27.837 -32.732 276.927  1.00  0.00     0.172 HD
ENDBRANCH  39  40
ENDBRANCH  12  39
TORSDOF 14
ENDMDL
