MODEL 1
REMARK VINA RESULT: -8.785871456      0.000      0.000
REMARK  7 active torsions:
REMARK  status: ('A' for Active; 'I' for Inactive)
REMARK    1  A    between atoms: C2_2  and  C3_3 
REMARK    2  A    between atoms: C7_7  and  C8_8 
REMARK    3  A    between atoms: C8_8  and  N1_10 
REMARK    4  A    between atoms: C11_14  and  C12_15 
REMARK    5  A    between atoms: C12_15  and  C13_20 
REMARK    6  A    between atoms: N2_16  and  O1_18 
REMARK    7  A    between atoms: C16_26  and  N4_27 
ROOT
HETATM    1  C12 UNL     1      -3.792 -35.062   4.012  1.00  0.00     0.081 C 
HETATM    2  N2  UNL     1      -5.075 -35.174   3.943  1.00  0.00    -0.269 N 
ATOM      3  H2  UNL     1      -5.497 -35.962   4.435  1.00  0.00     0.194 HD
ENDROOT
BRANCH   1   4
HETATM    4  C11 UNL     1      -2.944 -36.025   4.768  1.00  0.00     0.055 C 
HETATM    5  C3  UNL     1      -2.834 -37.258   3.945  1.00  0.00     0.018 C 
HETATM    6  C4  UNL     1      -3.766 -38.366   4.456  1.00  0.00     0.009 C 
HETATM    7  C5  UNL     1      -3.336 -38.834   5.809  1.00  0.00     0.001 C 
HETATM    8  C6  UNL     1      -3.003 -37.622   6.641  1.00  0.00     0.007 C 
HETATM    9  C7  UNL     1      -3.507 -36.325   6.108  1.00  0.00     0.026 C 
BRANCH   5  10
HETATM   10  C2  UNL     1      -1.489 -37.818   3.730  1.00  0.00    -0.031 C 
HETATM   11  C1  UNL     1      -0.401 -37.226   3.285  1.00  0.00     0.007 C 
ENDBRANCH   5  10
BRANCH   9  12
HETATM   12  C8  UNL     1      -3.207 -35.280   7.160  1.00  0.00     0.186 C 
HETATM   13  C9  UNL     1      -2.327 -35.797   8.264  1.00  0.00     0.040 C 
BRANCH  12  14
HETATM   14  N1  UNL     1      -4.476 -34.904   7.761  1.00  0.00    -0.075 N 
HETATM   15  C10 UNL     1      -5.129 -33.822   7.090  1.00  0.00     0.267 C 
ATOM     16  H12 UNL     1      -5.095 -35.711   7.831  1.00  0.00     0.277 HD
ATOM     17  H11 UNL     1      -4.357 -34.694   8.753  1.00  0.00     0.277 HD
ENDBRANCH  12  14
ENDBRANCH   9  12
ENDBRANCH   1   4
BRANCH   1  18
HETATM   18  C13 UNL     1      -3.186 -33.974   3.312  1.00  0.00     0.132 A 
HETATM   19  N3  UNL     1      -3.797 -33.368   2.301  1.00  0.00    -0.348 N 
HETATM   20  C14 UNL     1      -3.337 -32.352   1.576  1.00  0.00     0.136 A 
ATOM     21  H3  UNL     1      -4.721 -33.721   2.053  1.00  0.00     0.167 HD
HETATM   22  C15 UNL     1      -2.071 -31.863   1.909  1.00  0.00     0.175 A 
HETATM   23  F1  UNL     1      -1.531 -30.827   1.217  1.00  0.00    -0.201 F 
HETATM   24  C16 UNL     1      -1.409 -32.468   2.952  1.00  0.00     0.145 A 
HETATM   25  N5  UNL     1      -1.950 -33.494   3.633  1.00  0.00    -0.325 N 
ATOM     26  H5  UNL     1      -1.430 -33.919   4.400  1.00  0.00     0.169 HD
BRANCH  24  27
HETATM   27  N4  UNL     1      -0.088 -32.000   3.334  1.00  0.00    -0.365 N 
HETATM   28  C17 UNL     1       1.026 -32.898   3.468  1.00  0.00     0.124 C 
HETATM   29  C18 UNL     1       2.188 -32.420   2.674  1.00  0.00     0.020 C 
HETATM   30  C19 UNL     1       2.469 -30.977   2.928  1.00  0.00     0.003 C 
HETATM   31  C20 UNL     1       1.245 -30.106   2.731  1.00  0.00     0.020 C 
HETATM   32  C21 UNL     1       0.114 -30.594   3.604  1.00  0.00     0.124 C 
ENDBRANCH  24  27
ENDBRANCH   1  18
BRANCH   2  33
HETATM   33  O1  UNL     1      -5.912 -34.347   3.282  1.00  0.00    -0.290 OA
ATOM     34  H1  UNL     1      -6.825 -34.516   3.083  1.00  0.00     0.244 HD
ENDBRANCH   2  33
TORSDOF 7
ENDMDL
MODEL 2
REMARK VINA RESULT: -8.720193558      3.111      4.459
REMARK  7 active torsions:
REMARK  status: ('A' for Active; 'I' for Inactive)
REMARK    1  A    between atoms: C2_2  and  C3_3 
REMARK    2  A    between atoms: C7_7  and  C8_8 
REMARK    3  A    between atoms: C8_8  and  N1_10 
REMARK    4  A    between atoms: C11_14  and  C12_15 
REMARK    5  A    between atoms: C12_15  and  C13_20 
REMARK    6  A    between atoms: N2_16  and  O1_18 
REMARK    7  A    between atoms: C16_26  and  N4_27 
ROOT
HETATM    1  C12 UNL     1       0.889 -37.215   2.546  1.00  0.00     0.081 C 
HETATM    2  N2  UNL     1       0.780 -37.924   1.475  1.00  0.00    -0.269 N 
ATOM      3  H2  UNL     1       0.234 -38.784   1.543  1.00  0.00     0.194 HD
ENDROOT
BRANCH   1   4
HETATM    4  C11 UNL     1       0.257 -37.611   3.835  1.00  0.00     0.055 C 
HETATM    5  C3  UNL     1       0.899 -38.880   4.271  1.00  0.00     0.018 C 
HETATM    6  C4  UNL     1       0.008 -40.095   3.976  1.00  0.00     0.009 C 
HETATM    7  C5  UNL     1      -1.234 -40.052   4.806  1.00  0.00     0.001 C 
HETATM    8  C6  UNL     1      -1.769 -38.643   4.778  1.00  0.00     0.007 C 
HETATM    9  C7  UNL     1      -1.212 -37.771   3.706  1.00  0.00     0.026 C 
BRANCH   5  10
HETATM   10  C2  UNL     1       1.382 -38.959   5.660  1.00  0.00    -0.031 C 
HETATM   11  C1  UNL     1       1.534 -37.998   6.546  1.00  0.00     0.007 C 
ENDBRANCH   5  10
BRANCH   9  12
HETATM   12  C8  UNL     1      -1.988 -36.474   3.757  1.00  0.00     0.186 C 
HETATM   13  C9  UNL     1      -1.586 -35.595   4.910  1.00  0.00     0.040 C 
BRANCH  12  14
HETATM   14  N1  UNL     1      -3.387 -36.822   3.951  1.00  0.00    -0.075 N 
HETATM   15  C10 UNL     1      -4.206 -35.711   4.327  1.00  0.00     0.267 C 
ATOM     16  H12 UNL     1      -3.761 -37.282   3.121  1.00  0.00     0.277 HD
ATOM     17  H11 UNL     1      -3.479 -37.583   4.624  1.00  0.00     0.277 HD
ENDBRANCH  12  14
ENDBRANCH   9  12
ENDBRANCH   1   4
BRANCH   1  18
HETATM   18  C13 UNL     1       1.667 -36.019   2.470  1.00  0.00     0.132 A 
HETATM   19  N3  UNL     1       2.877 -36.008   1.925  1.00  0.00    -0.348 N 
HETATM   20  C14 UNL     1       3.692 -34.965   1.797  1.00  0.00     0.136 A 
ATOM     21  H3  UNL     1       3.220 -36.898   1.564  1.00  0.00     0.167 HD
HETATM   22  C15 UNL     1       3.230 -33.740   2.289  1.00  0.00     0.175 A 
HETATM   23  F1  UNL     1       4.003 -32.628   2.196  1.00  0.00    -0.201 F 
HETATM   24  C16 UNL     1       1.979 -33.716   2.861  1.00  0.00     0.145 A 
HETATM   25  N5  UNL     1       1.220 -34.823   2.949  1.00  0.00    -0.325 N 
ATOM     26  H5  UNL     1       0.298 -34.767   3.380  1.00  0.00     0.169 HD
BRANCH  24  27
HETATM   27  N4  UNL     1       1.456 -32.470   3.391  1.00  0.00    -0.365 N 
HETATM   28  C17 UNL     1       1.469 -32.178   4.798  1.00  0.00     0.124 C 
HETATM   29  C18 UNL     1       2.099 -30.858   5.059  1.00  0.00     0.020 C 
HETATM   30  C19 UNL     1       1.536 -29.798   4.171  1.00  0.00     0.003 C 
HETATM   31  C20 UNL     1       1.595 -30.181   2.706  1.00  0.00     0.020 C 
HETATM   32  C21 UNL     1       0.888 -31.497   2.484  1.00  0.00     0.124 C 
ENDBRANCH  24  27
ENDBRANCH   1  18
BRANCH   2  33
HETATM   33  O1  UNL     1       1.319 -37.637   0.271  1.00  0.00    -0.290 OA
ATOM     34  H1  UNL     1       1.320 -38.203  -0.492  1.00  0.00     0.244 HD
ENDBRANCH   2  33
TORSDOF 7
ENDMDL
MODEL 3
REMARK VINA RESULT: -8.711683745      1.619      2.411
REMARK  7 active torsions:
REMARK  status: ('A' for Active; 'I' for Inactive)
REMARK    1  A    between atoms: C2_2  and  C3_3 
REMARK    2  A    between atoms: C7_7  and  C8_8 
REMARK    3  A    between atoms: C8_8  and  N1_10 
REMARK    4  A    between atoms: C11_14  and  C12_15 
REMARK    5  A    between atoms: C12_15  and  C13_20 
REMARK    6  A    between atoms: N2_16  and  O1_18 
REMARK    7  A    between atoms: C16_26  and  N4_27 
ROOT
HETATM    1  C12 UNL     1      -4.030 -34.819   6.110  1.00  0.00     0.081 C 
HETATM    2  N2  UNL     1      -4.828 -34.335   6.999  1.00  0.00    -0.269 N 
ATOM      3  H2  UNL     1      -4.841 -34.797   7.909  1.00  0.00     0.194 HD
ENDROOT
BRANCH   1   4
HETATM    4  C11 UNL     1      -3.158 -35.997   6.374  1.00  0.00     0.055 C 
HETATM    5  C3  UNL     1      -3.463 -37.015   5.333  1.00  0.00     0.018 C 
HETATM    6  C4  UNL     1      -4.370 -38.127   5.877  1.00  0.00     0.009 C 
HETATM    7  C5  UNL     1      -3.658 -38.926   6.920  1.00  0.00     0.001 C 
HETATM    8  C6  UNL     1      -2.933 -37.969   7.831  1.00  0.00     0.007 C 
HETATM    9  C7  UNL     1      -3.367 -36.546   7.736  1.00  0.00     0.026 C 
BRANCH   5  10
HETATM   10  C2  UNL     1      -2.327 -37.623   4.619  1.00  0.00    -0.031 C 
HETATM   11  C1  UNL     1      -1.551 -37.102   3.693  1.00  0.00     0.007 C 
ENDBRANCH   5  10
BRANCH   9  12
HETATM   12  C8  UNL     1      -2.636 -35.798   8.830  1.00  0.00     0.186 C 
HETATM   13  C9  UNL     1      -1.438 -36.544   9.349  1.00  0.00     0.040 C 
BRANCH  12  14
HETATM   14  N1  UNL     1      -3.565 -35.652   9.938  1.00  0.00    -0.075 N 
HETATM   15  C10 UNL     1      -3.005 -36.013  11.205  1.00  0.00     0.267 C 
ATOM     16  H12 UNL     1      -3.943 -34.705   9.969  1.00  0.00     0.277 HD
ATOM     17  H11 UNL     1      -4.423 -36.173   9.761  1.00  0.00     0.277 HD
ENDBRANCH  12  14
ENDBRANCH   9  12
ENDBRANCH   1   4
BRANCH   1  18
HETATM   18  C13 UNL     1      -4.015 -34.194   4.826  1.00  0.00     0.132 A 
HETATM   19  N3  UNL     1      -5.123 -34.046   4.109  1.00  0.00    -0.348 N 
HETATM   20  C14 UNL     1      -5.236 -33.485   2.909  1.00  0.00     0.136 A 
ATOM     21  H3  UNL     1      -5.983 -34.402   4.526  1.00  0.00     0.167 HD
HETATM   22  C15 UNL     1      -4.061 -32.993   2.330  1.00  0.00     0.175 A 
HETATM   23  F1  UNL     1      -4.093 -32.406   1.106  1.00  0.00    -0.201 F 
HETATM   24  C16 UNL     1      -2.895 -33.130   3.045  1.00  0.00     0.145 A 
HETATM   25  N5  UNL     1      -2.872 -33.714   4.257  1.00  0.00    -0.325 N 
ATOM     26  H5  UNL     1      -1.988 -33.799   4.758  1.00  0.00     0.169 HD
BRANCH  24  27
HETATM   27  N4  UNL     1      -1.647 -32.641   2.486  1.00  0.00    -0.365 N 
HETATM   28  C17 UNL     1      -1.365 -31.236   2.374  1.00  0.00     0.124 C 
HETATM   29  C18 UNL     1      -0.053 -30.909   2.988  1.00  0.00     0.020 C 
HETATM   30  C19 UNL     1       1.018 -31.836   2.518  1.00  0.00     0.003 C 
HETATM   31  C20 UNL     1       0.645 -33.293   2.706  1.00  0.00     0.020 C 
HETATM   32  C21 UNL     1      -0.663 -33.588   2.012  1.00  0.00     0.124 C 
ENDBRANCH  24  27
ENDBRANCH   1  18
BRANCH   2  33
HETATM   33  O1  UNL     1      -5.647 -33.274   6.841  1.00  0.00    -0.290 OA
ATOM     34  H1  UNL     1      -6.257 -32.935   7.486  1.00  0.00     0.244 HD
ENDBRANCH   2  33
TORSDOF 7
ENDMDL
MODEL 4
REMARK VINA RESULT: -8.665624047      3.625      5.130
REMARK  7 active torsions:
REMARK  status: ('A' for Active; 'I' for Inactive)
REMARK    1  A    between atoms: C2_2  and  C3_3 
REMARK    2  A    between atoms: C7_7  and  C8_8 
REMARK    3  A    between atoms: C8_8  and  N1_10 
REMARK    4  A    between atoms: C11_14  and  C12_15 
REMARK    5  A    between atoms: C12_15  and  C13_20 
REMARK    6  A    between atoms: N2_16  and  O1_18 
REMARK    7  A    between atoms: C16_26  and  N4_27 
ROOT
HETATM    1  C12 UNL     1       0.920 -37.203   2.483  1.00  0.00     0.081 C 
HETATM    2  N2  UNL     1       0.879 -37.929   1.419  1.00  0.00    -0.269 N 
ATOM      3  H2  UNL     1       0.333 -38.790   1.468  1.00  0.00     0.194 HD
ENDROOT
BRANCH   1   4
HETATM    4  C11 UNL     1       0.213 -37.582   3.738  1.00  0.00     0.055 C 
HETATM    5  C3  UNL     1      -1.159 -37.015   3.661  1.00  0.00     0.018 C 
HETATM    6  C4  UNL     1      -1.293 -35.737   4.500  1.00  0.00     0.009 C 
HETATM    7  C5  UNL     1      -1.145 -36.043   5.955  1.00  0.00     0.001 C 
HETATM    8  C6  UNL     1       0.016 -36.990   6.120  1.00  0.00     0.007 C 
HETATM    9  C7  UNL     1       0.927 -37.093   4.944  1.00  0.00     0.026 C 
BRANCH   5  10
HETATM   10  C2  UNL     1      -2.287 -37.913   3.964  1.00  0.00    -0.031 C 
HETATM   11  C1  UNL     1      -2.492 -39.153   3.577  1.00  0.00     0.007 C 
ENDBRANCH   5  10
BRANCH   9  12
HETATM   12  C8  UNL     1       2.091 -37.958   5.374  1.00  0.00     0.186 C 
HETATM   13  C9  UNL     1       2.017 -38.362   6.821  1.00  0.00     0.040 C 
BRANCH  12  14
HETATM   14  N1  UNL     1       3.296 -37.161   5.211  1.00  0.00    -0.075 N 
HETATM   15  C10 UNL     1       4.372 -37.871   4.592  1.00  0.00     0.267 C 
ATOM     16  H12 UNL     1       3.093 -36.300   4.704  1.00  0.00     0.277 HD
ATOM     17  H11 UNL     1       3.591 -36.766   6.105  1.00  0.00     0.277 HD
ENDBRANCH  12  14
ENDBRANCH   9  12
ENDBRANCH   1   4
BRANCH   1  18
HETATM   18  C13 UNL     1       1.697 -36.005   2.435  1.00  0.00     0.132 A 
HETATM   19  N3  UNL     1       2.919 -35.986   1.918  1.00  0.00    -0.348 N 
HETATM   20  C14 UNL     1       3.734 -34.940   1.818  1.00  0.00     0.136 A 
ATOM     21  H3  UNL     1       3.272 -36.872   1.558  1.00  0.00     0.167 HD
HETATM   22  C15 UNL     1       3.258 -33.721   2.310  1.00  0.00     0.175 A 
HETATM   23  F1  UNL     1       4.030 -32.606   2.244  1.00  0.00    -0.201 F 
HETATM   24  C16 UNL     1       1.995 -33.704   2.853  1.00  0.00     0.145 A 
HETATM   25  N5  UNL     1       1.236 -34.814   2.915  1.00  0.00    -0.325 N 
ATOM     26  H5  UNL     1       0.304 -34.764   3.325  1.00  0.00     0.169 HD
BRANCH  24  27
HETATM   27  N4  UNL     1       1.456 -32.464   3.382  1.00  0.00    -0.365 N 
HETATM   28  C17 UNL     1       1.475 -32.166   4.789  1.00  0.00     0.124 C 
HETATM   29  C18 UNL     1       2.087 -30.836   5.039  1.00  0.00     0.020 C 
HETATM   30  C19 UNL     1       1.502 -29.789   4.152  1.00  0.00     0.003 C 
HETATM   31  C20 UNL     1       1.555 -30.176   2.688  1.00  0.00     0.020 C 
HETATM   32  C21 UNL     1       0.868 -31.504   2.476  1.00  0.00     0.124 C 
ENDBRANCH  24  27
ENDBRANCH   1  18
BRANCH   2  33
HETATM   33  O1  UNL     1       1.488 -37.659   0.246  1.00  0.00    -0.290 OA
ATOM     34  H1  UNL     1       1.091 -37.240  -0.509  1.00  0.00     0.244 HD
ENDBRANCH   2  33
TORSDOF 7
ENDMDL
MODEL 5
REMARK VINA RESULT: -8.627931188      3.994      6.917
REMARK  7 active torsions:
REMARK  status: ('A' for Active; 'I' for Inactive)
REMARK    1  A    between atoms: C2_2  and  C3_3 
REMARK    2  A    between atoms: C7_7  and  C8_8 
REMARK    3  A    between atoms: C8_8  and  N1_10 
REMARK    4  A    between atoms: C11_14  and  C12_15 
REMARK    5  A    between atoms: C12_15  and  C13_20 
REMARK    6  A    between atoms: N2_16  and  O1_18 
REMARK    7  A    between atoms: C16_26  and  N4_27 
ROOT
HETATM    1  C12 UNL     1       0.868 -37.565   2.344  1.00  0.00     0.081 C 
HETATM    2  N2  UNL     1       1.045 -38.181   1.225  1.00  0.00    -0.269 N 
ATOM      3  H2  UNL     1       1.979 -38.137   0.817  1.00  0.00     0.194 HD
ENDROOT
BRANCH   1   4
HETATM    4  C11 UNL     1       1.959 -36.817   3.028  1.00  0.00     0.055 C 
HETATM    5  C3  UNL     1       2.383 -35.721   2.116  1.00  0.00     0.018 C 
HETATM    6  C4  UNL     1       3.687 -36.066   1.383  1.00  0.00     0.009 C 
HETATM    7  C5  UNL     1       4.827 -36.153   2.346  1.00  0.00     0.001 C 
HETATM    8  C6  UNL     1       4.361 -36.922   3.556  1.00  0.00     0.007 C 
HETATM    9  C7  UNL     1       3.102 -37.698   3.372  1.00  0.00     0.026 C 
BRANCH   5  10
HETATM   10  C2  UNL     1       2.490 -34.365   2.682  1.00  0.00    -0.031 C 
HETATM   11  C1  UNL     1       1.602 -33.395   2.696  1.00  0.00     0.007 C 
ENDBRANCH   5  10
BRANCH   9  12
HETATM   12  C8  UNL     1       2.907 -38.509   4.635  1.00  0.00     0.186 C 
HETATM   13  C9  UNL     1       3.957 -38.235   5.675  1.00  0.00     0.040 C 
BRANCH  12  14
HETATM   14  N1  UNL     1       3.024 -39.910   4.263  1.00  0.00    -0.075 N 
HETATM   15  C10 UNL     1       1.783 -40.619   4.308  1.00  0.00     0.267 C 
ATOM     16  H12 UNL     1       3.461 -40.004   3.346  1.00  0.00     0.277 HD
ATOM     17  H11 UNL     1       3.728 -40.377   4.835  1.00  0.00     0.277 HD
ENDBRANCH  12  14
ENDBRANCH   9  12
ENDBRANCH   1   4
BRANCH   1  18
HETATM   18  C13 UNL     1      -0.441 -37.600   2.916  1.00  0.00     0.132 A 
HETATM   19  N3  UNL     1      -1.107 -38.739   3.062  1.00  0.00    -0.348 N 
HETATM   20  C14 UNL     1      -2.323 -38.899   3.578  1.00  0.00     0.136 A 
ATOM     21  H3  UNL     1      -0.635 -39.584   2.744  1.00  0.00     0.167 HD
HETATM   22  C15 UNL     1      -2.978 -37.744   4.017  1.00  0.00     0.175 A 
HETATM   23  F1  UNL     1      -4.221 -37.823   4.556  1.00  0.00    -0.201 F 
HETATM   24  C16 UNL     1      -2.316 -36.546   3.881  1.00  0.00     0.145 A 
HETATM   25  N5  UNL     1      -1.083 -36.476   3.346  1.00  0.00    -0.325 N 
ATOM     26  H5  UNL     1      -0.623 -35.571   3.259  1.00  0.00     0.169 HD
BRANCH  24  27
HETATM   27  N4  UNL     1      -2.955 -35.318   4.317  1.00  0.00    -0.365 N 
HETATM   28  C17 UNL     1      -3.714 -34.495   3.415  1.00  0.00     0.124 C 
HETATM   29  C18 UNL     1      -5.063 -34.210   3.968  1.00  0.00     0.020 C 
HETATM   30  C19 UNL     1      -4.987 -33.742   5.383  1.00  0.00     0.003 C 
HETATM   31  C20 UNL     1      -4.196 -34.688   6.264  1.00  0.00     0.020 C 
HETATM   32  C21 UNL     1      -2.814 -34.896   5.692  1.00  0.00     0.124 C 
ENDBRANCH  24  27
ENDBRANCH   1  18
BRANCH   2  33
HETATM   33  O1  UNL     1       0.113 -38.879   0.544  1.00  0.00    -0.290 OA
ATOM     34  H1  UNL     1       0.247 -39.343  -0.275  1.00  0.00     0.244 HD
ENDBRANCH   2  33
TORSDOF 7
ENDMDL
