MODEL 1
REMARK VINA RESULT: -8.280132675      0.000      0.000
REMARK  8 active torsions:
REMARK  status: ('A' for Active; 'I' for Inactive)
REMARK    1  A    between atoms: C2_2  and  C3_3 
REMARK    2  A    between atoms: C8_9  and  N1_10 
REMARK    3  A    between atoms: N1_10  and  C9_12 
REMARK    4  A    between atoms: C9_12  and  C10_13 
REMARK    5  A    between atoms: C10_13  and  S1_14 
REMARK    6  A    between atoms: S1_14  and  C11_15 
REMARK    7  A    between atoms: C12_20  and  C13_21 
REMARK    8  A    between atoms: N4_25  and  O2_27 
ROOT
HETATM    1  C9  UNL     1      -5.088 -33.665   2.741  1.00  0.00     0.111 C 
HETATM    2  N4  UNL     1      -6.024 -33.603   1.896  1.00  0.00    -0.256 N 
ATOM      3  H4  UNL     1      -6.751 -34.313   1.978  1.00  0.00     0.195 HD
ENDROOT
BRANCH   1   4
HETATM    4  N1  UNL     1      -5.190 -34.740   3.703  1.00  0.00    -0.343 N 
ATOM      5  H1  UNL     1      -6.099 -35.154   3.908  1.00  0.00     0.167 HD
BRANCH   4   6
HETATM    6  C8  UNL     1      -4.028 -35.221   4.363  1.00  0.00     0.043 A 
HETATM    7  C3  UNL     1      -3.657 -34.778   5.602  1.00  0.00    -0.009 A 
HETATM    8  C4  UNL     1      -2.534 -35.339   6.228  1.00  0.00     0.032 A 
HETATM    9  C5  UNL     1      -1.812 -36.319   5.610  1.00  0.00     0.011 A 
HETATM   10 BR1  UNL     1      -0.270 -37.124   6.417  1.00  0.00    -0.051 Br
HETATM   11  C6  UNL     1      -2.176 -36.777   4.352  1.00  0.00     0.021 A 
HETATM   12  C7  UNL     1      -3.274 -36.224   3.748  1.00  0.00     0.031 A 
BRANCH   7  13
HETATM   13  C2  UNL     1      -4.333 -33.748   6.364  1.00  0.00     0.003 C 
HETATM   14  C1  UNL     1      -5.385 -33.874   7.112  1.00  0.00     0.012 C 
ENDBRANCH   7  13
ENDBRANCH   4   6
ENDBRANCH   1   4
BRANCH   1  15
HETATM   15  C10 UNL     1      -3.961 -32.724   2.768  1.00  0.00     0.161 C 
BRANCH  15  16
HETATM   16  S1  UNL     1      -2.728 -33.125   1.549  1.00  0.00    -0.077 SA
BRANCH  16  17
HETATM   17  C11 UNL     1      -1.089 -32.611   2.034  1.00  0.00     0.203 A 
HETATM   18  N2  UNL     1      -0.015 -33.374   2.305  1.00  0.00    -0.272 N 
HETATM   19  N3  UNL     1       0.977 -32.579   2.618  1.00  0.00    -0.281 N 
ATOM     20  H2  UNL     1       0.021 -34.394   2.273  1.00  0.00     0.189 HD
HETATM   21  C12 UNL     1       0.541 -31.303   2.547  1.00  0.00     0.145 A 
ATOM     22  H3  UNL     1       1.920 -32.873   2.872  1.00  0.00     0.189 HD
HETATM   23  O1  UNL     1      -0.713 -31.377   2.191  1.00  0.00    -0.272 OA
BRANCH  21  24
HETATM   24  C13 UNL     1       1.352 -30.078   2.827  1.00  0.00     0.062 A 
HETATM   25  C14 UNL     1       2.339 -30.089   3.934  1.00  0.00     0.013 A 
HETATM   26  C15 UNL     1       1.068 -29.367   4.165  1.00  0.00     0.013 A 
ENDBRANCH  21  24
ENDBRANCH  16  17
ENDBRANCH  15  16
ENDBRANCH   1  15
BRANCH   2  27
HETATM   27  O2  UNL     1      -6.178 -32.708   0.895  1.00  0.00    -0.288 OA
ATOM     28  H2  UNL     1      -6.433 -32.878  -0.004  1.00  0.00     0.244 HD
ENDBRANCH   2  27
TORSDOF 8
ENDMDL
MODEL 2
REMARK VINA RESULT: -8.067710233      1.081      2.143
REMARK  8 active torsions:
REMARK  status: ('A' for Active; 'I' for Inactive)
REMARK    1  A    between atoms: C2_2  and  C3_3 
REMARK    2  A    between atoms: C8_9  and  N1_10 
REMARK    3  A    between atoms: N1_10  and  C9_12 
REMARK    4  A    between atoms: C9_12  and  C10_13 
REMARK    5  A    between atoms: C10_13  and  S1_14 
REMARK    6  A    between atoms: S1_14  and  C11_15 
REMARK    7  A    between atoms: C12_20  and  C13_21 
REMARK    8  A    between atoms: N4_25  and  O2_27 
ROOT
HETATM    1  C9  UNL     1      -4.974 -33.806   3.001  1.00  0.00     0.111 C 
HETATM    2  N4  UNL     1      -5.934 -33.440   2.268  1.00  0.00    -0.256 N 
ATOM      3  H4  UNL     1      -6.740 -34.063   2.240  1.00  0.00     0.195 HD
ENDROOT
BRANCH   1   4
HETATM    4  N1  UNL     1      -5.165 -35.061   3.695  1.00  0.00    -0.343 N 
ATOM      5  H1  UNL     1      -5.782 -35.771   3.300  1.00  0.00     0.167 HD
BRANCH   4   6
HETATM    6  C8  UNL     1      -4.497 -35.308   4.923  1.00  0.00     0.043 A 
HETATM    7  C3  UNL     1      -3.494 -36.230   5.036  1.00  0.00    -0.009 A 
HETATM    8  C4  UNL     1      -2.830 -36.382   6.262  1.00  0.00     0.032 A 
HETATM    9  C5  UNL     1      -3.178 -35.618   7.339  1.00  0.00     0.011 A 
HETATM   10 BR1  UNL     1      -2.306 -35.780   9.039  1.00  0.00    -0.051 Br
HETATM   11  C6  UNL     1      -4.195 -34.679   7.240  1.00  0.00     0.021 A 
HETATM   12  C7  UNL     1      -4.838 -34.538   6.039  1.00  0.00     0.031 A 
BRANCH   7  13
HETATM   13  C2  UNL     1      -3.029 -37.101   3.976  1.00  0.00     0.003 C 
HETATM   14  C1  UNL     1      -3.165 -38.388   3.887  1.00  0.00     0.012 C 
ENDBRANCH   7  13
ENDBRANCH   4   6
ENDBRANCH   1   4
BRANCH   1  15
HETATM   15  C10 UNL     1      -3.737 -33.031   3.159  1.00  0.00     0.161 C 
BRANCH  15  16
HETATM   16  S1  UNL     1      -2.590 -33.329   1.830  1.00  0.00    -0.077 SA
BRANCH  16  17
HETATM   17  C11 UNL     1      -0.945 -32.744   2.197  1.00  0.00     0.203 A 
HETATM   18  N2  UNL     1       0.177 -33.461   2.398  1.00  0.00    -0.272 N 
HETATM   19  N3  UNL     1       1.154 -32.622   2.637  1.00  0.00    -0.281 N 
ATOM     20  H2  UNL     1       0.252 -34.478   2.369  1.00  0.00     0.189 HD
HETATM   21  C12 UNL     1       0.662 -31.366   2.589  1.00  0.00     0.145 A 
ATOM     22  H3  UNL     1       2.124 -32.876   2.827  1.00  0.00     0.189 HD
HETATM   23  O1  UNL     1      -0.610 -31.495   2.321  1.00  0.00    -0.272 OA
BRANCH  21  24
HETATM   24  C13 UNL     1       1.439 -30.107   2.805  1.00  0.00     0.062 A 
HETATM   25  C14 UNL     1       2.432 -30.038   3.904  1.00  0.00     0.013 A 
HETATM   26  C15 UNL     1       1.142 -29.341   4.109  1.00  0.00     0.013 A 
ENDBRANCH  21  24
ENDBRANCH  16  17
ENDBRANCH  15  16
ENDBRANCH   1  15
BRANCH   2  27
HETATM   27  O2  UNL     1      -6.021 -32.320   1.516  1.00  0.00    -0.288 OA
ATOM     28  H2  UNL     1      -5.341 -31.920   0.986  1.00  0.00     0.244 HD
ENDBRANCH   2  27
TORSDOF 8
ENDMDL
MODEL 3
REMARK VINA RESULT: -8.020925206      2.871      6.197
REMARK  8 active torsions:
REMARK  status: ('A' for Active; 'I' for Inactive)
REMARK    1  A    between atoms: C2_2  and  C3_3 
REMARK    2  A    between atoms: C8_9  and  N1_10 
REMARK    3  A    between atoms: N1_10  and  C9_12 
REMARK    4  A    between atoms: C9_12  and  C10_13 
REMARK    5  A    between atoms: C10_13  and  S1_14 
REMARK    6  A    between atoms: S1_14  and  C11_15 
REMARK    7  A    between atoms: C12_20  and  C13_21 
REMARK    8  A    between atoms: N4_25  and  O2_27 
ROOT
HETATM    1  C9  UNL     1      -2.588 -33.109   2.057  1.00  0.00     0.111 C 
HETATM    2  N4  UNL     1      -2.815 -32.738   0.872  1.00  0.00    -0.256 N 
ATOM      3  H4  UNL     1      -2.227 -31.984   0.518  1.00  0.00     0.195 HD
ENDROOT
BRANCH   1   4
HETATM    4  N1  UNL     1      -1.522 -32.405   2.736  1.00  0.00    -0.343 N 
ATOM      5  H1  UNL     1      -1.729 -31.559   3.266  1.00  0.00     0.167 HD
BRANCH   4   6
HETATM    6  C8  UNL     1      -0.188 -32.888   2.666  1.00  0.00     0.043 A 
HETATM    7  C3  UNL     1       0.892 -32.052   2.693  1.00  0.00    -0.009 A 
HETATM    8  C4  UNL     1       2.185 -32.595   2.685  1.00  0.00     0.032 A 
HETATM    9  C5  UNL     1       2.370 -33.948   2.651  1.00  0.00     0.011 A 
HETATM   10 BR1  UNL     1       4.113 -34.747   2.640  1.00  0.00    -0.051 Br
HETATM   11  C6  UNL     1       1.282 -34.808   2.621  1.00  0.00     0.021 A 
HETATM   12  C7  UNL     1       0.023 -34.269   2.629  1.00  0.00     0.031 A 
BRANCH   7  13
HETATM   13  C2  UNL     1       0.836 -30.605   2.730  1.00  0.00     0.003 C 
HETATM   14  C1  UNL     1       1.764 -29.783   3.113  1.00  0.00     0.012 C 
ENDBRANCH   7  13
ENDBRANCH   4   6
ENDBRANCH   1   4
BRANCH   1  15
HETATM   15  C10 UNL     1      -3.339 -34.179   2.726  1.00  0.00     0.161 C 
BRANCH  15  16
HETATM   16  S1  UNL     1      -4.744 -33.548   3.620  1.00  0.00    -0.077 SA
BRANCH  16  17
HETATM   17  C11 UNL     1      -4.713 -33.989   5.349  1.00  0.00     0.203 A 
HETATM   18  N2  UNL     1      -5.286 -33.355   6.389  1.00  0.00    -0.272 N 
HETATM   19  N3  UNL     1      -5.006 -34.029   7.477  1.00  0.00    -0.281 N 
ATOM     20  H2  UNL     1      -5.842 -32.501   6.338  1.00  0.00     0.189 HD
HETATM   21  C12 UNL     1      -4.252 -35.096   7.137  1.00  0.00     0.145 A 
ATOM     22  H3  UNL     1      -5.307 -33.788   8.421  1.00  0.00     0.189 HD
HETATM   23  O1  UNL     1      -4.103 -35.026   5.841  1.00  0.00    -0.272 OA
BRANCH  21  24
HETATM   24  C13 UNL     1      -3.713 -36.128   8.075  1.00  0.00     0.062 A 
HETATM   25  C14 UNL     1      -3.270 -35.725   9.432  1.00  0.00     0.013 A 
HETATM   26  C15 UNL     1      -2.218 -36.009   8.430  1.00  0.00     0.013 A 
ENDBRANCH  21  24
ENDBRANCH  16  17
ENDBRANCH  15  16
ENDBRANCH   1  15
BRANCH   2  27
HETATM   27  O2  UNL     1      -3.744 -33.220   0.017  1.00  0.00    -0.288 OA
ATOM     28  H2  UNL     1      -3.611 -33.811  -0.715  1.00  0.00     0.244 HD
ENDBRANCH   2  27
TORSDOF 8
ENDMDL
MODEL 4
REMARK VINA RESULT: -8.005908055      3.239      6.313
REMARK  8 active torsions:
REMARK  status: ('A' for Active; 'I' for Inactive)
REMARK    1  A    between atoms: C2_2  and  C3_3 
REMARK    2  A    between atoms: C8_9  and  N1_10 
REMARK    3  A    between atoms: N1_10  and  C9_12 
REMARK    4  A    between atoms: C9_12  and  C10_13 
REMARK    5  A    between atoms: C10_13  and  S1_14 
REMARK    6  A    between atoms: S1_14  and  C11_15 
REMARK    7  A    between atoms: C12_20  and  C13_21 
REMARK    8  A    between atoms: N4_25  and  O2_27 
ROOT
HETATM    1  C9  UNL     1      -1.429 -35.827   4.340  1.00  0.00     0.111 C 
HETATM    2  N4  UNL     1      -0.705 -35.493   5.318  1.00  0.00    -0.256 N 
ATOM      3  H4  UNL     1       0.045 -34.832   5.115  1.00  0.00     0.195 HD
ENDROOT
BRANCH   1   4
HETATM    4  N1  UNL     1      -1.085 -35.219   3.074  1.00  0.00    -0.343 N 
ATOM      5  H1  UNL     1      -1.388 -35.654   2.203  1.00  0.00     0.167 HD
BRANCH   4   6
HETATM    6  C8  UNL     1      -0.329 -34.017   3.040  1.00  0.00     0.043 A 
HETATM    7  C3  UNL     1       1.015 -34.009   2.788  1.00  0.00    -0.009 A 
HETATM    8  C4  UNL     1       1.693 -32.784   2.704  1.00  0.00     0.032 A 
HETATM    9  C5  UNL     1       1.023 -31.606   2.872  1.00  0.00     0.011 A 
HETATM   10 BR1  UNL     1       1.897 -29.902   2.767  1.00  0.00    -0.051 Br
HETATM   11  C6  UNL     1      -0.340 -31.600   3.130  1.00  0.00     0.021 A 
HETATM   12  C7  UNL     1      -0.994 -32.801   3.210  1.00  0.00     0.031 A 
BRANCH   7  13
HETATM   13  C2  UNL     1       1.842 -35.181   2.591  1.00  0.00     0.003 C 
HETATM   14  C1  UNL     1       3.116 -35.225   2.352  1.00  0.00     0.012 C 
ENDBRANCH   7  13
ENDBRANCH   4   6
ENDBRANCH   1   4
BRANCH   1  15
HETATM   15  C10 UNL     1      -2.553 -36.767   4.452  1.00  0.00     0.161 C 
BRANCH  15  16
HETATM   16  S1  UNL     1      -4.029 -35.972   5.049  1.00  0.00    -0.077 SA
BRANCH  16  17
HETATM   17  C11 UNL     1      -4.730 -34.840   3.861  1.00  0.00     0.203 A 
HETATM   18  N2  UNL     1      -6.010 -34.445   3.729  1.00  0.00    -0.272 N 
HETATM   19  N3  UNL     1      -6.072 -33.606   2.725  1.00  0.00    -0.281 N 
ATOM     20  H2  UNL     1      -6.793 -34.746   4.309  1.00  0.00     0.189 HD
HETATM   21  C12 UNL     1      -4.832 -33.461   2.211  1.00  0.00     0.145 A 
ATOM     22  H3  UNL     1      -6.915 -33.141   2.389  1.00  0.00     0.189 HD
HETATM   23  O1  UNL     1      -4.058 -34.228   2.932  1.00  0.00    -0.272 OA
BRANCH  21  24
HETATM   24  C13 UNL     1      -4.455 -32.594   1.053  1.00  0.00     0.062 A 
HETATM   25  C14 UNL     1      -4.494 -33.149  -0.322  1.00  0.00     0.013 A 
HETATM   26  C15 UNL     1      -3.164 -32.983   0.306  1.00  0.00     0.013 A 
ENDBRANCH  21  24
ENDBRANCH  16  17
ENDBRANCH  15  16
ENDBRANCH   1  15
BRANCH   2  27
HETATM   27  O2  UNL     1      -0.803 -35.906   6.601  1.00  0.00    -0.288 OA
ATOM     28  H2  UNL     1      -0.097 -36.099   7.207  1.00  0.00     0.244 HD
ENDBRANCH   2  27
TORSDOF 8
ENDMDL
MODEL 5
REMARK VINA RESULT: -7.956915464      4.616      7.417
REMARK  8 active torsions:
REMARK  status: ('A' for Active; 'I' for Inactive)
REMARK    1  A    between atoms: C2_2  and  C3_3 
REMARK    2  A    between atoms: C8_9  and  N1_10 
REMARK    3  A    between atoms: N1_10  and  C9_12 
REMARK    4  A    between atoms: C9_12  and  C10_13 
REMARK    5  A    between atoms: C10_13  and  S1_14 
REMARK    6  A    between atoms: S1_14  and  C11_15 
REMARK    7  A    between atoms: C12_20  and  C13_21 
REMARK    8  A    between atoms: N4_25  and  O2_27 
ROOT
HETATM    1  C9  UNL     1       3.385 -34.645   3.181  1.00  0.00     0.111 C 
HETATM    2  N4  UNL     1       2.902 -35.035   4.280  1.00  0.00    -0.256 N 
ATOM      3  H4  UNL     1       2.294 -34.374   4.763  1.00  0.00     0.195 HD
ENDROOT
BRANCH   1   4
HETATM    4  N1  UNL     1       3.000 -33.313   2.771  1.00  0.00    -0.343 N 
ATOM      5  H1  UNL     1       3.717 -32.624   2.546  1.00  0.00     0.167 HD
BRANCH   4   6
HETATM    6  C8  UNL     1       1.627 -32.962   2.679  1.00  0.00     0.043 A 
HETATM    7  C3  UNL     1       1.200 -31.665   2.742  1.00  0.00    -0.009 A 
HETATM    8  C4  UNL     1      -0.163 -31.378   2.581  1.00  0.00     0.032 A 
HETATM    9  C5  UNL     1      -1.063 -32.382   2.363  1.00  0.00     0.011 A 
HETATM   10 BR1  UNL     1      -2.938 -32.051   2.134  1.00  0.00    -0.051 Br
HETATM   11  C6  UNL     1      -0.644 -33.703   2.299  1.00  0.00     0.021 A 
HETATM   12  C7  UNL     1       0.689 -33.974   2.457  1.00  0.00     0.031 A 
BRANCH   7  13
HETATM   13  C2  UNL     1       2.046 -30.511   2.966  1.00  0.00     0.003 C 
HETATM   14  C1  UNL     1       2.232 -29.865   4.076  1.00  0.00     0.012 C 
ENDBRANCH   7  13
ENDBRANCH   4   6
ENDBRANCH   1   4
BRANCH   1  15
HETATM   15  C10 UNL     1       4.279 -35.467   2.355  1.00  0.00     0.161 C 
BRANCH  15  16
HETATM   16  S1  UNL     1       3.443 -36.136   0.932  1.00  0.00    -0.077 SA
BRANCH  16  17
HETATM   17  C11 UNL     1       2.044 -37.153   1.372  1.00  0.00     0.203 A 
HETATM   18  N2  UNL     1       1.360 -38.020   0.603  1.00  0.00    -0.272 N 
HETATM   19  N3  UNL     1       0.411 -38.548   1.335  1.00  0.00    -0.281 N 
ATOM     20  H2  UNL     1       1.549 -38.230  -0.378  1.00  0.00     0.189 HD
HETATM   21  C12 UNL     1       0.485 -38.021   2.575  1.00  0.00     0.145 A 
ATOM     22  H3  UNL     1      -0.268 -39.241   1.021  1.00  0.00     0.189 HD
HETATM   23  O1  UNL     1       1.486 -37.183   2.545  1.00  0.00    -0.272 OA
BRANCH  21  24
HETATM   24  C13 UNL     1      -0.413 -38.348   3.726  1.00  0.00     0.062 A 
HETATM   25  C14 UNL     1      -1.765 -38.899   3.467  1.00  0.00     0.013 A 
HETATM   26  C15 UNL     1      -1.677 -37.478   3.869  1.00  0.00     0.013 A 
ENDBRANCH  21  24
ENDBRANCH  16  17
ENDBRANCH  15  16
ENDBRANCH   1  15
BRANCH   2  27
HETATM   27  O2  UNL     1       3.095 -36.224   4.894  1.00  0.00    -0.288 OA
ATOM     28  H2  UNL     1       2.477 -36.940   4.984  1.00  0.00     0.244 HD
ENDBRANCH   2  27
TORSDOF 8
ENDMDL
