MODEL 1
REMARK VINA RESULT: -8.613197204      0.000      0.000
REMARK  10 active torsions:
REMARK  status: ('A' for Active; 'I' for Inactive)
REMARK    1  A    between atoms: C2_3  and  O1_4 
REMARK    2  A    between atoms: C5_8  and  O2_9 
REMARK    3  A    between atoms: C6_11  and  N2_12 
REMARK    4  A    between atoms: N2_12  and  C7_15 
REMARK    5  A    between atoms: C7_15  and  C8_16 
REMARK    6  A    between atoms: C8_16  and  C9_17 
REMARK    7  A    between atoms: C9_17  and  N3_18 
REMARK    8  A    between atoms: C10_23  and  N6_24 
REMARK    9  A    between atoms: N6_24  and  N7_26 
REMARK   10  A    between atoms: C13_36  and  C14_37 
ROOT
HETATM    1  C1  UNL     1     -31.441  10.507 -27.863  1.00  0.00     0.160 C 
HETATM    2  N1  UNL     1     -31.102   9.113 -27.602  1.00  0.00    -0.312 N 
HETATM    3  C2  UNL     1     -31.262   8.474 -26.406  1.00  0.00     0.157 A 
HETATM    4  C3  UNL     1     -30.830   7.203 -26.581  1.00  0.00     0.057 A 
HETATM    5  C4  UNL     1     -30.408   7.054 -27.880  1.00  0.00     0.042 A 
HETATM    6  C5  UNL     1     -30.591   8.276 -28.499  1.00  0.00     0.153 A 
HETATM    7  C6  UNL     1     -29.894   5.826 -28.477  1.00  0.00     0.243 A 
HETATM    8  C11 UNL     1     -29.798   4.679 -27.573  1.00  0.00     0.187 A 
HETATM    9  N9  UNL     1     -30.314   4.882 -26.263  1.00  0.00    -0.288 N 
HETATM   10  N10 UNL     1     -30.402   3.928 -25.332  1.00  0.00    -0.308 N 
ATOM     11  H10 UNL     1     -30.127   2.955 -25.468  1.00  0.00     0.186 HD
HETATM   12  C12 UNL     1     -30.887   4.415 -24.228  1.00  0.00     0.125 A 
HETATM   13  C13 UNL     1     -31.153   5.811 -24.416  1.00  0.00     0.057 A 
HETATM   14  C15 UNL     1     -30.779   6.030 -25.698  1.00  0.00     0.081 A 
ENDROOT
BRANCH   7  15
HETATM   15  N2  UNL     1     -28.607   6.099 -29.078  1.00  0.00    -0.065 N 
ATOM     16  H22 UNL     1     -28.341   7.078 -28.978  1.00  0.00     0.278 HD
ATOM     17  H21 UNL     1     -27.843   5.680 -28.548  1.00  0.00     0.278 HD
BRANCH  15  18
HETATM   18  C7  UNL     1     -28.600   5.679 -30.448  1.00  0.00     0.235 C 
BRANCH  18  19
HETATM   19  C8  UNL     1     -27.307   5.016 -30.837  1.00  0.00     0.051 C 
BRANCH  19  20
HETATM   20  C9  UNL     1     -27.495   4.319 -32.155  1.00  0.00     0.173 C 
BRANCH  20  21
HETATM   21  N3  UNL     1     -26.654   4.782 -33.215  1.00  0.00    -0.205 N 
HETATM   22  N4  UNL     1     -25.421   5.229 -33.101  1.00  0.00    -0.211 N 
HETATM   23  N5  UNL     1     -24.923   5.572 -34.270  1.00  0.00    -0.114 N 
ATOM     24  H4  UNL     1     -24.915   5.299 -32.218  1.00  0.00     0.210 HD
HETATM   25  C10 UNL     1     -25.897   5.328 -35.169  1.00  0.00     0.728 A 
ATOM     26  H5  UNL     1     -23.993   5.945 -34.457  1.00  0.00     0.207 HD
HETATM   27  N8  UNL     1     -26.965   4.839 -34.509  1.00  0.00    -0.112 N 
ATOM     28  H8  UNL     1     -27.854   4.561 -34.927  1.00  0.00     0.207 HD
BRANCH  25  29
HETATM   29  N6  UNL     1     -25.844   5.515 -36.435  1.00  0.00    -0.136 N 
ATOM     30  H6  UNL     1     -26.690   5.463 -37.002  1.00  0.00     0.205 HD
BRANCH  29  31
HETATM   31  N7  UNL     1     -24.608   5.789 -37.028  1.00  0.00    -0.331 N 
ATOM     32  H72 UNL     1     -24.051   5.024 -37.407  1.00  0.00     0.177 HD
ATOM     33  H71 UNL     1     -24.285   6.756 -37.070  1.00  0.00     0.177 HD
ENDBRANCH  29  31
ENDBRANCH  25  29
ENDBRANCH  20  21
ENDBRANCH  19  20
ENDBRANCH  18  19
ENDBRANCH  15  18
ENDBRANCH   7  15
BRANCH   6  34
HETATM   34  O2  UNL     1     -30.298   8.597 -29.829  1.00  0.00    -0.345 OA
ATOM     35  H2  UNL     1     -30.453   8.031 -30.576  1.00  0.00     0.219 HD
ENDBRANCH   6  34
BRANCH   3  36
HETATM   36  O1  UNL     1     -31.768   9.118 -25.346  1.00  0.00    -0.345 OA
ATOM     37  H1  UNL     1     -32.705   9.136 -25.188  1.00  0.00     0.219 HD
ENDBRANCH   3  36
BRANCH  13  38
HETATM   38  C14 UNL     1     -31.701   6.623 -23.360  1.00  0.00     0.151 A 
HETATM   39  N11 UNL     1     -31.469   6.961 -22.118  1.00  0.00    -0.268 N 
HETATM   40  N12 UNL     1     -32.339   7.813 -21.663  1.00  0.00    -0.227 N 
ATOM     41  H11 UNL     1     -30.692   6.596 -21.568  1.00  0.00     0.190 HD
HETATM   42  N13 UNL     1     -33.208   8.084 -22.607  1.00  0.00    -0.227 N 
ATOM     43  H12 UNL     1     -32.345   8.208 -20.723  1.00  0.00     0.210 HD
HETATM   44  N14 UNL     1     -32.850   7.380 -23.648  1.00  0.00    -0.268 N 
ATOM     45  H13 UNL     1     -34.005   8.716 -22.541  1.00  0.00     0.210 HD
ATOM     46  H14 UNL     1     -33.336   7.380 -24.545  1.00  0.00     0.190 HD
ENDBRANCH  13  38
TORSDOF 10
ENDMDL
MODEL 2
REMARK VINA RESULT: -8.561926300      2.634     10.299
REMARK  10 active torsions:
REMARK  status: ('A' for Active; 'I' for Inactive)
REMARK    1  A    between atoms: C2_3  and  O1_4 
REMARK    2  A    between atoms: C5_8  and  O2_9 
REMARK    3  A    between atoms: C6_11  and  N2_12 
REMARK    4  A    between atoms: N2_12  and  C7_15 
REMARK    5  A    between atoms: C7_15  and  C8_16 
REMARK    6  A    between atoms: C8_16  and  C9_17 
REMARK    7  A    between atoms: C9_17  and  N3_18 
REMARK    8  A    between atoms: C10_23  and  N6_24 
REMARK    9  A    between atoms: N6_24  and  N7_26 
REMARK   10  A    between atoms: C13_36  and  C14_37 
ROOT
HETATM    1  C1  UNL     1     -32.743   5.897 -34.282  1.00  0.00     0.160 C 
HETATM    2  N1  UNL     1     -31.430   5.687 -33.682  1.00  0.00    -0.312 N 
HETATM    3  C2  UNL     1     -30.291   5.381 -34.369  1.00  0.00     0.157 A 
HETATM    4  C3  UNL     1     -29.301   5.269 -33.453  1.00  0.00     0.057 A 
HETATM    5  C4  UNL     1     -29.823   5.509 -32.205  1.00  0.00     0.042 A 
HETATM    6  C5  UNL     1     -31.169   5.768 -32.382  1.00  0.00     0.153 A 
HETATM    7  C6  UNL     1     -29.077   5.509 -30.951  1.00  0.00     0.243 A 
HETATM    8  C11 UNL     1     -27.655   5.185 -31.065  1.00  0.00     0.187 A 
HETATM    9  N9  UNL     1     -27.165   5.015 -32.390  1.00  0.00    -0.288 N 
HETATM   10  N10 UNL     1     -25.882   4.813 -32.698  1.00  0.00    -0.308 N 
ATOM     11  H10 UNL     1     -25.119   4.777 -32.022  1.00  0.00     0.186 HD
HETATM   12  C12 UNL     1     -25.742   4.668 -33.983  1.00  0.00     0.125 A 
HETATM   13  C13 UNL     1     -27.028   4.780 -34.605  1.00  0.00     0.057 A 
HETATM   14  C15 UNL     1     -27.861   4.999 -33.561  1.00  0.00     0.081 A 
ENDROOT
BRANCH   7  15
HETATM   15  N2  UNL     1     -29.722   4.609 -30.021  1.00  0.00    -0.065 N 
ATOM     16  H22 UNL     1     -30.510   4.120 -30.447  1.00  0.00     0.278 HD
ATOM     17  H21 UNL     1     -29.140   3.799 -29.808  1.00  0.00     0.278 HD
BRANCH  15  18
HETATM   18  C7  UNL     1     -30.110   5.315 -28.835  1.00  0.00     0.235 C 
BRANCH  18  19
HETATM   19  C8  UNL     1     -29.629   4.635 -27.582  1.00  0.00     0.051 C 
BRANCH  19  20
HETATM   20  C9  UNL     1     -29.760   5.590 -26.430  1.00  0.00     0.173 C 
BRANCH  20  21
HETATM   21  N3  UNL     1     -30.504   5.099 -25.311  1.00  0.00    -0.205 N 
HETATM   22  N4  UNL     1     -31.451   5.736 -24.657  1.00  0.00    -0.211 N 
HETATM   23  N5  UNL     1     -31.940   5.001 -23.680  1.00  0.00    -0.114 N 
ATOM     24  H4  UNL     1     -31.768   6.680 -24.879  1.00  0.00     0.210 HD
HETATM   25  C10 UNL     1     -31.261   3.838 -23.722  1.00  0.00     0.728 A 
ATOM     26  H5  UNL     1     -32.679   5.259 -23.026  1.00  0.00     0.207 HD
HETATM   27  N8  UNL     1     -30.374   3.904 -24.734  1.00  0.00    -0.112 N 
ATOM     28  H8  UNL     1     -29.720   3.171 -25.010  1.00  0.00     0.207 HD
BRANCH  25  29
HETATM   29  N6  UNL     1     -31.413   2.826 -22.951  1.00  0.00    -0.136 N 
ATOM     30  H6  UNL     1     -32.308   2.339 -22.906  1.00  0.00     0.205 HD
BRANCH  29  31
HETATM   31  N7  UNL     1     -30.334   2.401 -22.171  1.00  0.00    -0.331 N 
ATOM     32  H72 UNL     1     -29.613   1.812 -22.587  1.00  0.00     0.177 HD
ATOM     33  H71 UNL     1     -30.287   2.690 -21.193  1.00  0.00     0.177 HD
ENDBRANCH  29  31
ENDBRANCH  25  29
ENDBRANCH  20  21
ENDBRANCH  19  20
ENDBRANCH  18  19
ENDBRANCH  15  18
ENDBRANCH   7  15
BRANCH   6  34
HETATM   34  O2  UNL     1     -32.105   6.065 -31.386  1.00  0.00    -0.345 OA
ATOM     35  H2  UNL     1     -32.045   6.789 -30.774  1.00  0.00     0.219 HD
ENDBRANCH   6  34
BRANCH   3  36
HETATM   36  O1  UNL     1     -30.307   5.251 -35.703  1.00  0.00    -0.345 OA
ATOM     37  H1  UNL     1     -29.635   4.752 -36.152  1.00  0.00     0.219 HD
ENDBRANCH   3  36
BRANCH  13  38
HETATM   38  C14 UNL     1     -27.189   4.663 -36.030  1.00  0.00     0.151 A 
HETATM   39  N11 UNL     1     -27.847   3.968 -36.922  1.00  0.00    -0.268 N 
HETATM   40  N12 UNL     1     -27.603   4.359 -38.138  1.00  0.00    -0.227 N 
ATOM     41  H11 UNL     1     -28.480   3.203 -36.690  1.00  0.00     0.190 HD
HETATM   42  N13 UNL     1     -26.752   5.356 -38.105  1.00  0.00    -0.227 N 
ATOM     43  H12 UNL     1     -28.009   3.956 -38.982  1.00  0.00     0.210 HD
HETATM   44  N14 UNL     1     -26.481   5.565 -36.843  1.00  0.00    -0.268 N 
ATOM     45  H13 UNL     1     -26.375   5.865 -38.904  1.00  0.00     0.210 HD
ATOM     46  H14 UNL     1     -25.846   6.284 -36.497  1.00  0.00     0.190 HD
ENDBRANCH  13  38
TORSDOF 10
ENDMDL
MODEL 3
REMARK VINA RESULT: -8.443114527      1.759      3.342
REMARK  10 active torsions:
REMARK  status: ('A' for Active; 'I' for Inactive)
REMARK    1  A    between atoms: C2_3  and  O1_4 
REMARK    2  A    between atoms: C5_8  and  O2_9 
REMARK    3  A    between atoms: C6_11  and  N2_12 
REMARK    4  A    between atoms: N2_12  and  C7_15 
REMARK    5  A    between atoms: C7_15  and  C8_16 
REMARK    6  A    between atoms: C8_16  and  C9_17 
REMARK    7  A    between atoms: C9_17  and  N3_18 
REMARK    8  A    between atoms: C10_23  and  N6_24 
REMARK    9  A    between atoms: N6_24  and  N7_26 
REMARK   10  A    between atoms: C13_36  and  C14_37 
ROOT
HETATM    1  C1  UNL     1     -31.016   3.161 -23.912  1.00  0.00     0.160 C 
HETATM    2  N1  UNL     1     -30.877   4.358 -24.734  1.00  0.00    -0.312 N 
HETATM    3  C2  UNL     1     -31.537   5.536 -24.530  1.00  0.00     0.157 A 
HETATM    4  C3  UNL     1     -31.133   6.384 -25.504  1.00  0.00     0.057 A 
HETATM    5  C4  UNL     1     -30.223   5.737 -26.305  1.00  0.00     0.042 A 
HETATM    6  C5  UNL     1     -30.083   4.461 -25.795  1.00  0.00     0.153 A 
HETATM    7  C6  UNL     1     -29.532   6.315 -27.453  1.00  0.00     0.243 A 
HETATM    8  C11 UNL     1     -29.891   7.697 -27.773  1.00  0.00     0.187 A 
HETATM    9  N9  UNL     1     -30.785   8.329 -26.864  1.00  0.00    -0.288 N 
HETATM   10  N10 UNL     1     -31.149   9.611 -26.936  1.00  0.00    -0.308 N 
ATOM     11  H10 UNL     1     -30.813  10.274 -27.634  1.00  0.00     0.186 HD
HETATM   12  C12 UNL     1     -31.994   9.896 -25.989  1.00  0.00     0.125 A 
HETATM   13  C13 UNL     1     -32.227   8.718 -25.207  1.00  0.00     0.057 A 
HETATM   14  C15 UNL     1     -31.444   7.789 -25.803  1.00  0.00     0.081 A 
ENDROOT
BRANCH   7  15
HETATM   15  N2  UNL     1     -29.741   5.465 -28.604  1.00  0.00    -0.065 N 
ATOM     16  H22 UNL     1     -29.351   4.533 -28.465  1.00  0.00     0.278 HD
ATOM     17  H21 UNL     1     -30.722   5.203 -28.711  1.00  0.00     0.278 HD
BRANCH  15  18
HETATM   18  C7  UNL     1     -29.223   6.091 -29.784  1.00  0.00     0.235 C 
BRANCH  18  19
HETATM   19  C8  UNL     1     -27.970   5.422 -30.283  1.00  0.00     0.051 C 
BRANCH  19  20
HETATM   20  C9  UNL     1     -28.273   4.732 -31.583  1.00  0.00     0.173 C 
BRANCH  20  21
HETATM   21  N3  UNL     1     -27.239   4.809 -32.569  1.00  0.00    -0.205 N 
HETATM   22  N4  UNL     1     -25.970   5.088 -32.357  1.00  0.00    -0.211 N 
HETATM   23  N5  UNL     1     -25.280   5.074 -33.478  1.00  0.00    -0.114 N 
ATOM     24  H4  UNL     1     -25.572   5.289 -31.439  1.00  0.00     0.210 HD
HETATM   25  C10 UNL     1     -26.164   4.770 -34.448  1.00  0.00     0.728 A 
ATOM     26  H5  UNL     1     -24.283   5.255 -33.588  1.00  0.00     0.207 HD
HETATM   27  N8  UNL     1     -27.374   4.607 -33.879  1.00  0.00    -0.112 N 
ATOM     28  H8  UNL     1     -28.240   4.371 -34.365  1.00  0.00     0.207 HD
BRANCH  25  29
HETATM   29  N6  UNL     1     -25.924   4.646 -35.701  1.00  0.00    -0.136 N 
ATOM     30  H6  UNL     1     -26.467   3.999 -36.271  1.00  0.00     0.205 HD
BRANCH  29  31
HETATM   31  N7  UNL     1     -24.905   5.413 -36.273  1.00  0.00    -0.331 N 
ATOM     32  H72 UNL     1     -25.093   6.380 -36.541  1.00  0.00     0.177 HD
ATOM     33  H71 UNL     1     -23.988   4.990 -36.414  1.00  0.00     0.177 HD
ENDBRANCH  29  31
ENDBRANCH  25  29
ENDBRANCH  20  21
ENDBRANCH  19  20
ENDBRANCH  18  19
ENDBRANCH  15  18
ENDBRANCH   7  15
BRANCH   6  34
HETATM   34  O2  UNL     1     -29.261   3.444 -26.291  1.00  0.00    -0.345 OA
ATOM     35  H2  UNL     1     -29.498   2.832 -26.978  1.00  0.00     0.219 HD
ENDBRANCH   6  34
BRANCH   3  36
HETATM   36  O1  UNL     1     -32.394   5.673 -23.509  1.00  0.00    -0.345 OA
ATOM     37  H1  UNL     1     -32.088   5.650 -22.609  1.00  0.00     0.219 HD
ENDBRANCH   3  36
BRANCH  13  38
HETATM   38  C14 UNL     1     -33.122   8.726 -24.080  1.00  0.00     0.151 A 
HETATM   39  N11 UNL     1     -34.381   8.930 -23.787  1.00  0.00    -0.268 N 
HETATM   40  N12 UNL     1     -34.634   8.747 -22.524  1.00  0.00    -0.227 N 
ATOM     41  H11 UNL     1     -35.085   9.202 -24.472  1.00  0.00     0.190 HD
HETATM   42  N13 UNL     1     -33.527   8.406 -21.910  1.00  0.00    -0.227 N 
ATOM     43  H12 UNL     1     -35.547   8.852 -22.083  1.00  0.00     0.210 HD
HETATM   44  N14 UNL     1     -32.593   8.384 -22.823  1.00  0.00    -0.268 N 
ATOM     45  H13 UNL     1     -33.418   8.201 -20.917  1.00  0.00     0.210 HD
ATOM     46  H14 UNL     1     -31.615   8.150 -22.649  1.00  0.00     0.190 HD
ENDBRANCH  13  38
TORSDOF 10
ENDMDL
MODEL 4
REMARK VINA RESULT: -8.288327807      2.454     10.309
REMARK  10 active torsions:
REMARK  status: ('A' for Active; 'I' for Inactive)
REMARK    1  A    between atoms: C2_3  and  O1_4 
REMARK    2  A    between atoms: C5_8  and  O2_9 
REMARK    3  A    between atoms: C6_11  and  N2_12 
REMARK    4  A    between atoms: N2_12  and  C7_15 
REMARK    5  A    between atoms: C7_15  and  C8_16 
REMARK    6  A    between atoms: C8_16  and  C9_17 
REMARK    7  A    between atoms: C9_17  and  N3_18 
REMARK    8  A    between atoms: C10_23  and  N6_24 
REMARK    9  A    between atoms: N6_24  and  N7_26 
REMARK   10  A    between atoms: C13_36  and  C14_37 
ROOT
HETATM    1  C1  UNL     1     -32.691   5.869 -33.976  1.00  0.00     0.160 C 
HETATM    2  N1  UNL     1     -31.357   5.671 -33.418  1.00  0.00    -0.312 N 
HETATM    3  C2  UNL     1     -30.244   5.342 -34.138  1.00  0.00     0.157 A 
HETATM    4  C3  UNL     1     -29.222   5.252 -33.255  1.00  0.00     0.057 A 
HETATM    5  C4  UNL     1     -29.698   5.528 -31.996  1.00  0.00     0.042 A 
HETATM    6  C5  UNL     1     -31.048   5.787 -32.131  1.00  0.00     0.153 A 
HETATM    7  C6  UNL     1     -28.907   5.560 -30.771  1.00  0.00     0.243 A 
HETATM    8  C11 UNL     1     -27.490   5.228 -30.927  1.00  0.00     0.187 A 
HETATM    9  N9  UNL     1     -27.050   5.020 -32.264  1.00  0.00    -0.288 N 
HETATM   10  N10 UNL     1     -25.779   4.804 -32.612  1.00  0.00    -0.308 N 
ATOM     11  H10 UNL     1     -24.992   4.784 -31.963  1.00  0.00     0.186 HD
HETATM   12  C12 UNL     1     -25.686   4.623 -33.897  1.00  0.00     0.125 A 
HETATM   13  C13 UNL     1     -26.994   4.722 -34.474  1.00  0.00     0.057 A 
HETATM   14  C15 UNL     1     -27.787   4.973 -33.407  1.00  0.00     0.081 A 
ENDROOT
BRANCH   7  15
HETATM   15  N2  UNL     1     -29.520   4.688 -29.793  1.00  0.00    -0.065 N 
ATOM     16  H22 UNL     1     -30.533   4.644 -29.904  1.00  0.00     0.278 HD
ATOM     17  H21 UNL     1     -29.306   3.707 -29.970  1.00  0.00     0.278 HD
BRANCH  15  18
HETATM   18  C7  UNL     1     -29.145   5.087 -28.468  1.00  0.00     0.235 C 
BRANCH  18  19
HETATM   19  C8  UNL     1     -30.190   5.947 -27.812  1.00  0.00     0.051 C 
BRANCH  19  20
HETATM   20  C9  UNL     1     -29.648   6.460 -26.508  1.00  0.00     0.173 C 
BRANCH  20  21
HETATM   21  N3  UNL     1     -30.583   6.481 -25.425  1.00  0.00    -0.205 N 
HETATM   22  N4  UNL     1     -31.225   5.448 -24.922  1.00  0.00    -0.211 N 
HETATM   23  N5  UNL     1     -32.009   5.806 -23.927  1.00  0.00    -0.114 N 
ATOM     24  H4  UNL     1     -31.128   4.490 -25.260  1.00  0.00     0.210 HD
HETATM   25  C10 UNL     1     -31.850   7.138 -23.797  1.00  0.00     0.728 A 
ATOM     26  H5  UNL     1     -32.611   5.201 -23.369  1.00  0.00     0.207 HD
HETATM   27  N8  UNL     1     -30.966   7.549 -24.727  1.00  0.00    -0.112 N 
ATOM     28  H8  UNL     1     -30.647   8.508 -24.871  1.00  0.00     0.207 HD
BRANCH  25  29
HETATM   29  N6  UNL     1     -32.423   7.905 -22.946  1.00  0.00    -0.136 N 
ATOM     30  H6  UNL     1     -32.897   8.755 -23.251  1.00  0.00     0.205 HD
BRANCH  29  31
HETATM   31  N7  UNL     1     -32.389   7.559 -21.592  1.00  0.00    -0.331 N 
ATOM     32  H72 UNL     1     -33.194   7.093 -21.171  1.00  0.00     0.177 HD
ATOM     33  H71 UNL     1     -31.555   7.779 -21.047  1.00  0.00     0.177 HD
ENDBRANCH  29  31
ENDBRANCH  25  29
ENDBRANCH  20  21
ENDBRANCH  19  20
ENDBRANCH  18  19
ENDBRANCH  15  18
ENDBRANCH   7  15
BRANCH   6  34
HETATM   34  O2  UNL     1     -31.947   6.115 -31.111  1.00  0.00    -0.345 OA
ATOM     35  H2  UNL     1     -31.724   6.208 -30.192  1.00  0.00     0.219 HD
ENDBRANCH   6  34
BRANCH   3  36
HETATM   36  O1  UNL     1     -30.309   5.175 -35.466  1.00  0.00    -0.345 OA
ATOM     37  H1  UNL     1     -29.684   4.621 -35.918  1.00  0.00     0.219 HD
ENDBRANCH   3  36
BRANCH  13  38
HETATM   38  C14 UNL     1     -27.207   4.567 -35.889  1.00  0.00     0.151 A 
HETATM   39  N11 UNL     1     -27.860   3.817 -36.739  1.00  0.00    -0.268 N 
HETATM   40  N12 UNL     1     -27.690   4.196 -37.971  1.00  0.00    -0.227 N 
ATOM     41  H11 UNL     1     -28.439   3.023 -36.466  1.00  0.00     0.190 HD
HETATM   42  N13 UNL     1     -26.896   5.239 -37.993  1.00  0.00    -0.227 N 
ATOM     43  H12 UNL     1     -28.107   3.753 -38.790  1.00  0.00     0.210 HD
HETATM   44  N14 UNL     1     -26.586   5.490 -36.748  1.00  0.00    -0.268 N 
ATOM     45  H13 UNL     1     -26.582   5.751 -38.817  1.00  0.00     0.210 HD
ATOM     46  H14 UNL     1     -25.978   6.250 -36.443  1.00  0.00     0.190 HD
ENDBRANCH  13  38
TORSDOF 10
ENDMDL
MODEL 5
REMARK VINA RESULT: -8.208851884      4.308      6.750
REMARK  10 active torsions:
REMARK  status: ('A' for Active; 'I' for Inactive)
REMARK    1  A    between atoms: C2_3  and  O1_4 
REMARK    2  A    between atoms: C5_8  and  O2_9 
REMARK    3  A    between atoms: C6_11  and  N2_12 
REMARK    4  A    between atoms: N2_12  and  C7_15 
REMARK    5  A    between atoms: C7_15  and  C8_16 
REMARK    6  A    between atoms: C8_16  and  C9_17 
REMARK    7  A    between atoms: C9_17  and  N3_18 
REMARK    8  A    between atoms: C10_23  and  N6_24 
REMARK    9  A    between atoms: N6_24  and  N7_26 
REMARK   10  A    between atoms: C13_36  and  C14_37 
ROOT
HETATM    1  C1  UNL     1     -31.109   6.635 -22.682  1.00  0.00     0.160 C 
HETATM    2  N1  UNL     1     -31.859   7.668 -23.388  1.00  0.00    -0.312 N 
HETATM    3  C2  UNL     1     -32.861   8.422 -22.847  1.00  0.00     0.157 A 
HETATM    4  C3  UNL     1     -33.292   9.255 -23.822  1.00  0.00     0.057 A 
HETATM    5  C4  UNL     1     -32.559   9.021 -24.961  1.00  0.00     0.042 A 
HETATM    6  C5  UNL     1     -31.664   8.014 -24.656  1.00  0.00     0.153 A 
HETATM    7  C6  UNL     1     -32.699   9.730 -26.228  1.00  0.00     0.243 A 
HETATM    8  C11 UNL     1     -33.748  10.750 -26.267  1.00  0.00     0.187 A 
HETATM    9  N9  UNL     1     -34.422  10.988 -25.037  1.00  0.00    -0.288 N 
HETATM   10  N10 UNL     1     -35.337  11.943 -24.853  1.00  0.00    -0.308 N 
ATOM     11  H10 UNL     1     -35.634  12.610 -25.565  1.00  0.00     0.186 HD
HETATM   12  C12 UNL     1     -35.796  11.903 -23.637  1.00  0.00     0.125 A 
HETATM   13  C13 UNL     1     -35.145  10.838 -22.932  1.00  0.00     0.057 A 
HETATM   14  C15 UNL     1     -34.306  10.319 -23.857  1.00  0.00     0.081 A 
ENDROOT
BRANCH   7  15
HETATM   15  N2  UNL     1     -32.901   8.765 -27.286  1.00  0.00    -0.065 N 
ATOM     16  H22 UNL     1     -32.500   7.856 -27.054  1.00  0.00     0.278 HD
ATOM     17  H21 UNL     1     -33.878   8.483 -27.364  1.00  0.00     0.278 HD
BRANCH  15  18
HETATM   18  C7  UNL     1     -32.390   9.272 -28.525  1.00  0.00     0.235 C 
BRANCH  18  19
HETATM   19  C8  UNL     1     -31.092   8.622 -28.919  1.00  0.00     0.051 C 
BRANCH  19  20
HETATM   20  C9  UNL     1     -31.326   7.151 -29.116  1.00  0.00     0.173 C 
BRANCH  20  21
HETATM   21  N3  UNL     1     -30.516   6.291 -28.310  1.00  0.00    -0.205 N 
HETATM   22  N4  UNL     1     -29.226   6.414 -28.081  1.00  0.00    -0.211 N 
HETATM   23  N5  UNL     1     -28.783   5.459 -27.291  1.00  0.00    -0.114 N 
ATOM     24  H4  UNL     1     -28.642   7.156 -28.468  1.00  0.00     0.210 HD
HETATM   25  C10 UNL     1     -29.855   4.693 -27.006  1.00  0.00     0.728 A 
ATOM     26  H5  UNL     1     -27.827   5.326 -26.961  1.00  0.00     0.207 HD
HETATM   27  N8  UNL     1     -30.924   5.213 -27.639  1.00  0.00    -0.112 N 
ATOM     28  H8  UNL     1     -31.876   4.848 -27.611  1.00  0.00     0.207 HD
BRANCH  25  29
HETATM   29  N6  UNL     1     -29.883   3.649 -26.264  1.00  0.00    -0.136 N 
ATOM     30  H6  UNL     1     -29.461   2.777 -26.580  1.00  0.00     0.205 HD
BRANCH  29  31
HETATM   31  N7  UNL     1     -30.503   3.725 -25.013  1.00  0.00    -0.331 N 
ATOM     32  H72 UNL     1     -30.416   4.577 -24.459  1.00  0.00     0.177 HD
ATOM     33  H71 UNL     1     -31.032   2.921 -24.675  1.00  0.00     0.177 HD
ENDBRANCH  29  31
ENDBRANCH  25  29
ENDBRANCH  20  21
ENDBRANCH  19  20
ENDBRANCH  18  19
ENDBRANCH  15  18
ENDBRANCH   7  15
BRANCH   6  34
HETATM   34  O2  UNL     1     -30.715   7.446 -25.512  1.00  0.00    -0.345 OA
ATOM     35  H2  UNL     1     -30.230   7.914 -26.181  1.00  0.00     0.219 HD
ENDBRANCH   6  34
BRANCH   3  36
HETATM   36  O1  UNL     1     -33.234   8.255 -21.570  1.00  0.00    -0.345 OA
ATOM     37  H1  UNL     1     -33.466   9.000 -21.029  1.00  0.00     0.219 HD
ENDBRANCH   3  36
BRANCH  13  38
HETATM   38  C14 UNL     1     -35.449  10.550 -21.554  1.00  0.00     0.151 A 
HETATM   39  N11 UNL     1     -35.678   9.538 -20.758  1.00  0.00    -0.268 N 
HETATM   40  N12 UNL     1     -35.865   9.907 -19.525  1.00  0.00    -0.227 N 
ATOM     41  H11 UNL     1     -35.708   8.567 -21.069  1.00  0.00     0.190 HD
HETATM   42  N13 UNL     1     -35.766  11.212 -19.448  1.00  0.00    -0.227 N 
ATOM     43  H12 UNL     1     -36.059   9.282 -18.743  1.00  0.00     0.210 HD
HETATM   44  N14 UNL     1     -35.513  11.632 -20.660  1.00  0.00    -0.268 N 
ATOM     45  H13 UNL     1     -35.866  11.784 -18.611  1.00  0.00     0.210 HD
ATOM     46  H14 UNL     1     -35.381  12.609 -20.920  1.00  0.00     0.190 HD
ENDBRANCH  13  38
TORSDOF 10
ENDMDL
