MODEL 1
REMARK VINA RESULT: -6.921055239      0.000      0.000
REMARK  12 active torsions:
REMARK  status: ('A' for Active; 'I' for Inactive)
REMARK    1  A    between atoms: N1_1  and  C1_4 
REMARK    2  A    between atoms: C2_7  and  N3_8 
REMARK    3  A    between atoms: N4_10  and  C3_12 
REMARK    4  A    between atoms: C3_12  and  O1_13 
REMARK    5  A    between atoms: N5_15  and  O2_17 
REMARK    6  A    between atoms: N7_25  and  N8_26 
REMARK    7  A    between atoms: N9_31  and  C8_32 
REMARK    8  A    between atoms: C8_32  and  O5_33 
REMARK    9  A    between atoms: O5_33  and  C9_34 
REMARK   10  A    between atoms: C9_34  and  C10_35 
REMARK   11  A    between atoms: C10_35  and  O6_36 
REMARK   12  A    between atoms: O6_36  and  S1_37 
ROOT
HETATM    1  C1  UNL     1     -31.831   7.359 -23.196  1.00  0.00     0.134 A 
HETATM    2  N2  UNL     1     -30.943   6.632 -23.895  1.00  0.00    -0.174 N 
ATOM      3  H2  UNL     1     -30.268   6.059 -23.389  1.00  0.00     0.186 HD
HETATM    4  C2  UNL     1     -30.915   6.634 -25.228  1.00  0.00     0.700 A 
HETATM    5  N6  UNL     1     -31.798   7.384 -25.942  1.00  0.00    -0.174 N 
ATOM      6  H6  UNL     1     -31.770   7.380 -26.961  1.00  0.00     0.186 HD
HETATM    7  C4  UNL     1     -32.696   8.121 -25.297  1.00  0.00     0.148 A 
HETATM    8  C5  UNL     1     -32.730   8.123 -23.911  1.00  0.00     0.123 A 
HETATM    9  C6  UNL     1     -33.659   8.884 -23.231  1.00  0.00     0.288 A 
HETATM   10  O3  UNL     1     -33.737   8.924 -21.981  1.00  0.00    -0.265 OA
HETATM   11  N7  UNL     1     -34.506   9.601 -23.980  1.00  0.00    -0.174 N 
HETATM   12  C7  UNL     1     -34.454   9.585 -25.322  1.00  0.00     0.353 A 
HETATM   13  O4  UNL     1     -35.313  10.311 -25.924  1.00  0.00    -0.244 OA
HETATM   14  N9  UNL     1     -33.558   8.853 -26.025  1.00  0.00    -0.260 N 
ENDROOT
BRANCH   4  15
HETATM   15  N3  UNL     1     -29.979   5.869 -25.989  1.00  0.00    -0.129 N 
HETATM   16  N4  UNL     1     -29.813   4.623 -25.883  1.00  0.00    -0.249 N 
ATOM     17  H4  UNL     1     -29.116   4.175 -26.478  1.00  0.00     0.191 HD
ATOM     18  H3  UNL     1     -29.404   6.367 -26.668  1.00  0.00     0.205 HD
BRANCH  16  19
HETATM   19  C3  UNL     1     -30.544   3.819 -24.983  1.00  0.00     0.256 C 
HETATM   20  N5  UNL     1     -31.435   3.003 -25.458  1.00  0.00    -0.232 N 
ATOM     21  H5  UNL     1     -31.588   2.960 -26.465  1.00  0.00     0.198 HD
BRANCH  19  22
HETATM   22  O1  UNL     1     -30.280   3.932 -23.626  1.00  0.00    -0.330 OA
ATOM     23  H1  UNL     1     -30.742   3.361 -23.024  1.00  0.00     0.221 HD
ENDBRANCH  19  22
BRANCH  20  24
HETATM   24  O2  UNL     1     -32.180   2.190 -24.626  1.00  0.00    -0.287 OA
ATOM     25  H2  UNL     1     -33.047   1.891 -24.876  1.00  0.00     0.244 HD
ENDBRANCH  20  24
ENDBRANCH  16  19
ENDBRANCH   4  15
BRANCH   1  26
HETATM   26  N1  UNL     1     -31.869   7.366 -21.896  1.00  0.00    -0.384 N 
ATOM     27  H12 UNL     1     -32.769   7.315 -21.417  1.00  0.00     0.157 HD
ATOM     28  H11 UNL     1     -31.032   7.421 -21.318  1.00  0.00     0.157 HD
ENDBRANCH   1  26
BRANCH  14  29
HETATM   29  C8  UNL     1     -33.594   8.910 -27.444  1.00  0.00     0.305 C 
BRANCH  29  30
HETATM   30  O5  UNL     1     -33.771   7.603 -27.933  1.00  0.00    -0.369 OA
BRANCH  30  31
HETATM   31  C9  UNL     1     -33.607   7.538 -29.308  1.00  0.00     0.197 C 
BRANCH  31  32
HETATM   32  C10 UNL     1     -32.957   6.205 -29.615  1.00  0.00     0.219 C 
BRANCH  32  33
HETATM   33  O6  UNL     1     -32.040   5.899 -28.584  1.00  0.00    -0.255 OA
BRANCH  33  34
HETATM   34  S1  UNL     1     -30.514   6.240 -29.218  1.00  0.00     0.251 S 
HETATM   35  O7  UNL     1     -29.597   5.093 -28.890  1.00  0.00    -0.572 OA
HETATM   36  O8  UNL     1     -30.625   6.376 -30.704  1.00  0.00    -0.572 OA
HETATM   37  O9  UNL     1     -29.988   7.665 -28.495  1.00  0.00    -0.572 OA
ENDBRANCH  33  34
ENDBRANCH  32  33
ENDBRANCH  31  32
ENDBRANCH  30  31
ENDBRANCH  29  30
ENDBRANCH  14  29
BRANCH  11  38
HETATM   38  N8  UNL     1     -35.462  10.386 -23.290  1.00  0.00    -0.332 N 
ATOM     39  H82 UNL     1     -35.612  11.367 -23.526  1.00  0.00     0.177 HD
ATOM     40  H81 UNL     1     -35.988   9.924 -22.549  1.00  0.00     0.177 HD
ENDBRANCH  11  38
TORSDOF 12
ENDMDL
MODEL 2
REMARK VINA RESULT: -6.903342739      2.434      4.657
REMARK  12 active torsions:
REMARK  status: ('A' for Active; 'I' for Inactive)
REMARK    1  A    between atoms: N1_1  and  C1_4 
REMARK    2  A    between atoms: C2_7  and  N3_8 
REMARK    3  A    between atoms: N4_10  and  C3_12 
REMARK    4  A    between atoms: C3_12  and  O1_13 
REMARK    5  A    between atoms: N5_15  and  O2_17 
REMARK    6  A    between atoms: N7_25  and  N8_26 
REMARK    7  A    between atoms: N9_31  and  C8_32 
REMARK    8  A    between atoms: C8_32  and  O5_33 
REMARK    9  A    between atoms: O5_33  and  C9_34 
REMARK   10  A    between atoms: C9_34  and  C10_35 
REMARK   11  A    between atoms: C10_35  and  O6_36 
REMARK   12  A    between atoms: O6_36  and  S1_37 
ROOT
HETATM    1  C1  UNL     1     -33.994  10.198 -24.654  1.00  0.00     0.134 A 
HETATM    2  N2  UNL     1     -33.530   9.980 -25.895  1.00  0.00    -0.174 N 
ATOM      3  H2  UNL     1     -33.874  10.562 -26.659  1.00  0.00     0.186 HD
HETATM    4  C2  UNL     1     -32.634   9.029 -26.164  1.00  0.00     0.700 A 
HETATM    5  N6  UNL     1     -32.149   8.232 -25.173  1.00  0.00    -0.174 N 
ATOM      6  H6  UNL     1     -31.464   7.506 -25.386  1.00  0.00     0.186 HD
HETATM    7  C4  UNL     1     -32.577   8.407 -23.927  1.00  0.00     0.148 A 
HETATM    8  C5  UNL     1     -33.509   9.394 -23.643  1.00  0.00     0.123 A 
HETATM    9  C6  UNL     1     -33.959   9.585 -22.353  1.00  0.00     0.288 A 
HETATM   10  O3  UNL     1     -34.798  10.460 -22.037  1.00  0.00    -0.265 OA
HETATM   11  N7  UNL     1     -33.449   8.775 -21.417  1.00  0.00    -0.174 N 
HETATM   12  C7  UNL     1     -32.548   7.825 -21.716  1.00  0.00     0.353 A 
HETATM   13  O4  UNL     1     -32.137   7.116 -20.737  1.00  0.00    -0.244 OA
HETATM   14  N9  UNL     1     -32.082   7.606 -22.967  1.00  0.00    -0.260 N 
ENDROOT
BRANCH   4  15
HETATM   15  N3  UNL     1     -32.129   8.782 -27.476  1.00  0.00    -0.129 N 
HETATM   16  N4  UNL     1     -30.982   9.114 -27.880  1.00  0.00    -0.249 N 
ATOM     17  H4  UNL     1     -30.721   8.888 -28.840  1.00  0.00     0.191 HD
ATOM     18  H3  UNL     1     -32.741   8.301 -28.135  1.00  0.00     0.205 HD
BRANCH  16  19
HETATM   19  C3  UNL     1     -30.040   9.784 -27.070  1.00  0.00     0.256 C 
HETATM   20  N5  UNL     1     -28.907   9.202 -26.819  1.00  0.00    -0.232 N 
ATOM     21  H5  UNL     1     -28.721   8.279 -27.210  1.00  0.00     0.198 HD
BRANCH  19  22
HETATM   22  O1  UNL     1     -30.363  11.039 -26.574  1.00  0.00    -0.330 OA
ATOM     23  H1  UNL     1     -31.115  11.121 -26.000  1.00  0.00     0.221 HD
ENDBRANCH  19  22
BRANCH  20  24
HETATM   24  O2  UNL     1     -27.947   9.809 -26.033  1.00  0.00    -0.287 OA
ATOM     25  H2  UNL     1     -27.663   9.421 -25.213  1.00  0.00     0.244 HD
ENDBRANCH  20  24
ENDBRANCH  16  19
ENDBRANCH   4  15
BRANCH   1  26
HETATM   26  N1  UNL     1     -34.867  11.121 -24.379  1.00  0.00    -0.384 N 
ATOM     27  H12 UNL     1     -35.826  10.858 -24.146  1.00  0.00     0.157 HD
ATOM     28  H11 UNL     1     -34.642  12.116 -24.383  1.00  0.00     0.157 HD
ENDBRANCH   1  26
BRANCH  14  29
HETATM   29  C8  UNL     1     -31.129   6.572 -23.170  1.00  0.00     0.305 C 
BRANCH  29  30
HETATM   30  O5  UNL     1     -31.691   5.616 -24.033  1.00  0.00    -0.369 OA
BRANCH  30  31
HETATM   31  C9  UNL     1     -31.052   4.390 -23.936  1.00  0.00     0.197 C 
BRANCH  31  32
HETATM   32  C10 UNL     1     -30.226   4.220 -25.194  1.00  0.00     0.219 C 
BRANCH  32  33
HETATM   33  O6  UNL     1     -31.082   4.305 -26.315  1.00  0.00    -0.255 OA
BRANCH  33  34
HETATM   34  S1  UNL     1     -30.389   5.462 -27.329  1.00  0.00     0.251 S 
HETATM   35  O7  UNL     1     -31.461   5.997 -28.239  1.00  0.00    -0.572 OA
HETATM   36  O8  UNL     1     -29.847   6.579 -26.492  1.00  0.00    -0.572 OA
HETATM   37  O9  UNL     1     -29.177   4.690 -28.203  1.00  0.00    -0.572 OA
ENDBRANCH  33  34
ENDBRANCH  32  33
ENDBRANCH  31  32
ENDBRANCH  30  31
ENDBRANCH  29  30
ENDBRANCH  14  29
BRANCH  11  38
HETATM   38  N8  UNL     1     -33.907   8.964 -20.090  1.00  0.00    -0.332 N 
ATOM     39  H82 UNL     1     -33.719   8.276 -19.362  1.00  0.00     0.177 HD
ATOM     40  H81 UNL     1     -34.432   9.818 -19.901  1.00  0.00     0.177 HD
ENDBRANCH  11  38
TORSDOF 12
ENDMDL
MODEL 3
REMARK VINA RESULT: -6.885614443      0.815      1.075
REMARK  12 active torsions:
REMARK  status: ('A' for Active; 'I' for Inactive)
REMARK    1  A    between atoms: N1_1  and  C1_4 
REMARK    2  A    between atoms: C2_7  and  N3_8 
REMARK    3  A    between atoms: N4_10  and  C3_12 
REMARK    4  A    between atoms: C3_12  and  O1_13 
REMARK    5  A    between atoms: N5_15  and  O2_17 
REMARK    6  A    between atoms: N7_25  and  N8_26 
REMARK    7  A    between atoms: N9_31  and  C8_32 
REMARK    8  A    between atoms: C8_32  and  O5_33 
REMARK    9  A    between atoms: O5_33  and  C9_34 
REMARK   10  A    between atoms: C9_34  and  C10_35 
REMARK   11  A    between atoms: C10_35  and  O6_36 
REMARK   12  A    between atoms: O6_36  and  S1_37 
ROOT
HETATM    1  C1  UNL     1     -31.862   7.393 -23.214  1.00  0.00     0.134 A 
HETATM    2  N2  UNL     1     -30.956   6.672 -23.895  1.00  0.00    -0.174 N 
ATOM      3  H2  UNL     1     -30.264   6.131 -23.375  1.00  0.00     0.186 HD
HETATM    4  C2  UNL     1     -30.928   6.638 -25.228  1.00  0.00     0.700 A 
HETATM    5  N6  UNL     1     -31.832   7.345 -25.960  1.00  0.00    -0.174 N 
ATOM      6  H6  UNL     1     -31.805   7.314 -26.979  1.00  0.00     0.186 HD
HETATM    7  C4  UNL     1     -32.750   8.075 -25.333  1.00  0.00     0.148 A 
HETATM    8  C5  UNL     1     -32.782   8.113 -23.948  1.00  0.00     0.123 A 
HETATM    9  C6  UNL     1     -33.730   8.866 -23.288  1.00  0.00     0.288 A 
HETATM   10  O3  UNL     1     -33.809   8.938 -22.039  1.00  0.00    -0.265 OA
HETATM   11  N7  UNL     1     -34.597   9.540 -24.054  1.00  0.00    -0.174 N 
HETATM   12  C7  UNL     1     -34.546   9.489 -25.395  1.00  0.00     0.353 A 
HETATM   13  O4  UNL     1     -35.425  10.175 -26.015  1.00  0.00    -0.244 OA
HETATM   14  N9  UNL     1     -33.631   8.763 -26.080  1.00  0.00    -0.260 N 
ENDROOT
BRANCH   4  15
HETATM   15  N3  UNL     1     -29.973   5.878 -25.969  1.00  0.00    -0.129 N 
HETATM   16  N4  UNL     1     -29.797   4.635 -25.855  1.00  0.00    -0.249 N 
ATOM     17  H4  UNL     1     -29.085   4.191 -26.436  1.00  0.00     0.191 HD
ATOM     18  H3  UNL     1     -29.391   6.379 -26.642  1.00  0.00     0.205 HD
BRANCH  16  19
HETATM   19  C3  UNL     1     -30.535   3.828 -24.963  1.00  0.00     0.256 C 
HETATM   20  N5  UNL     1     -31.400   2.991 -25.450  1.00  0.00    -0.232 N 
ATOM     21  H5  UNL     1     -31.527   2.934 -26.460  1.00  0.00     0.198 HD
BRANCH  19  22
HETATM   22  O1  UNL     1     -30.306   3.961 -23.602  1.00  0.00    -0.330 OA
ATOM     23  H1  UNL     1     -30.958   3.629 -22.996  1.00  0.00     0.221 HD
ENDBRANCH  19  22
BRANCH  20  24
HETATM   24  O2  UNL     1     -32.151   2.175 -24.626  1.00  0.00    -0.287 OA
ATOM     25  H2  UNL     1     -33.095   2.115 -24.718  1.00  0.00     0.244 HD
ENDBRANCH  20  24
ENDBRANCH  16  19
ENDBRANCH   4  15
BRANCH   1  26
HETATM   26  N1  UNL     1     -31.899   7.434 -21.915  1.00  0.00    -0.384 N 
ATOM     27  H12 UNL     1     -31.545   6.644 -21.374  1.00  0.00     0.157 HD
ATOM     28  H11 UNL     1     -32.270   8.230 -21.397  1.00  0.00     0.157 HD
ENDBRANCH   1  26
BRANCH  14  29
HETATM   29  C8  UNL     1     -33.670   8.781 -27.500  1.00  0.00     0.305 C 
BRANCH  29  30
HETATM   30  O5  UNL     1     -32.412   9.199 -27.970  1.00  0.00    -0.369 OA
BRANCH  30  31
HETATM   31  C9  UNL     1     -32.322   9.120 -29.350  1.00  0.00     0.197 C 
BRANCH  31  32
HETATM   32  C10 UNL     1     -30.975   8.508 -29.674  1.00  0.00     0.219 C 
BRANCH  32  33
HETATM   33  O6  UNL     1     -30.560   7.719 -28.577  1.00  0.00    -0.255 OA
BRANCH  33  34
HETATM   34  S1  UNL     1     -30.517   6.133 -29.149  1.00  0.00     0.251 S 
HETATM   35  O7  UNL     1     -31.585   5.344 -28.440  1.00  0.00    -0.572 OA
HETATM   36  O8  UNL     1     -30.801   6.139 -30.619  1.00  0.00    -0.572 OA
HETATM   37  O9  UNL     1     -28.985   5.527 -28.809  1.00  0.00    -0.572 OA
ENDBRANCH  33  34
ENDBRANCH  32  33
ENDBRANCH  31  32
ENDBRANCH  30  31
ENDBRANCH  29  30
ENDBRANCH  14  29
BRANCH  11  38
HETATM   38  N8  UNL     1     -35.574  10.317 -23.384  1.00  0.00    -0.332 N 
ATOM     39  H82 UNL     1     -35.348  11.234 -22.998  1.00  0.00     0.177 HD
ATOM     40  H81 UNL     1     -36.507   9.914 -23.306  1.00  0.00     0.177 HD
ENDBRANCH  11  38
TORSDOF 12
ENDMDL
MODEL 4
REMARK VINA RESULT: -6.743347701      2.488      5.578
REMARK  12 active torsions:
REMARK  status: ('A' for Active; 'I' for Inactive)
REMARK    1  A    between atoms: N1_1  and  C1_4 
REMARK    2  A    between atoms: C2_7  and  N3_8 
REMARK    3  A    between atoms: N4_10  and  C3_12 
REMARK    4  A    between atoms: C3_12  and  O1_13 
REMARK    5  A    between atoms: N5_15  and  O2_17 
REMARK    6  A    between atoms: N7_25  and  N8_26 
REMARK    7  A    between atoms: N9_31  and  C8_32 
REMARK    8  A    between atoms: C8_32  and  O5_33 
REMARK    9  A    between atoms: O5_33  and  C9_34 
REMARK   10  A    between atoms: C9_34  and  C10_35 
REMARK   11  A    between atoms: C10_35  and  O6_36 
REMARK   12  A    between atoms: O6_36  and  S1_37 
ROOT
HETATM    1  C1  UNL     1     -31.782   9.655 -26.542  1.00  0.00     0.134 A 
HETATM    2  N2  UNL     1     -31.579   9.113 -25.329  1.00  0.00    -0.174 N 
ATOM      3  H2  UNL     1     -31.710   9.695 -24.501  1.00  0.00     0.186 HD
HETATM    4  C2  UNL     1     -31.213   7.841 -25.170  1.00  0.00     0.700 A 
HETATM    5  N6  UNL     1     -31.027   7.031 -26.248  1.00  0.00    -0.174 N 
ATOM      6  H6  UNL     1     -30.747   6.059 -26.119  1.00  0.00     0.186 HD
HETATM    7  C4  UNL     1     -31.215   7.520 -27.470  1.00  0.00     0.148 A 
HETATM    8  C5  UNL     1     -31.596   8.842 -27.641  1.00  0.00     0.123 A 
HETATM    9  C6  UNL     1     -31.794   9.359 -28.904  1.00  0.00     0.288 A 
HETATM   10  O3  UNL     1     -32.139  10.544 -29.119  1.00  0.00    -0.265 OA
HETATM   11  N7  UNL     1     -31.601   8.520 -29.929  1.00  0.00    -0.174 N 
HETATM   12  C7  UNL     1     -31.231   7.243 -29.740  1.00  0.00     0.353 A 
HETATM   13  O4  UNL     1     -31.078   6.543 -30.796  1.00  0.00    -0.244 OA
HETATM   14  N9  UNL     1     -31.026   6.698 -28.518  1.00  0.00    -0.260 N 
ENDROOT
BRANCH   4  15
HETATM   15  N3  UNL     1     -30.992   7.247 -23.891  1.00  0.00    -0.129 N 
HETATM   16  N4  UNL     1     -31.818   7.262 -22.938  1.00  0.00    -0.249 N 
ATOM     17  H4  UNL     1     -31.558   6.806 -22.063  1.00  0.00     0.191 HD
ATOM     18  H3  UNL     1     -30.101   6.774 -23.737  1.00  0.00     0.205 HD
BRANCH  16  19
HETATM   19  C3  UNL     1     -33.084   7.882 -23.021  1.00  0.00     0.256 C 
HETATM   20  N5  UNL     1     -33.410   8.757 -22.119  1.00  0.00    -0.232 N 
ATOM     21  H5  UNL     1     -32.750   8.977 -21.374  1.00  0.00     0.198 HD
BRANCH  19  22
HETATM   22  O1  UNL     1     -33.927   7.531 -24.064  1.00  0.00    -0.330 OA
ATOM     23  H1  UNL     1     -34.799   7.908 -24.091  1.00  0.00     0.221 HD
ENDBRANCH  19  22
BRANCH  20  24
HETATM   24  O2  UNL     1     -34.634   9.395 -22.149  1.00  0.00    -0.287 OA
ATOM     25  H2  UNL     1     -34.776  10.167 -22.685  1.00  0.00     0.244 HD
ENDBRANCH  20  24
ENDBRANCH  16  19
ENDBRANCH   4  15
BRANCH   1  26
HETATM   26  N1  UNL     1     -32.139  10.894 -26.710  1.00  0.00    -0.384 N 
ATOM     27  H12 UNL     1     -31.700  11.627 -26.152  1.00  0.00     0.157 HD
ATOM     28  H11 UNL     1     -32.849  11.179 -27.384  1.00  0.00     0.157 HD
ENDBRANCH   1  26
BRANCH  14  29
HETATM   29  C8  UNL     1     -30.637   5.335 -28.435  1.00  0.00     0.305 C 
BRANCH  29  30
HETATM   30  O5  UNL     1     -29.361   5.275 -27.847  1.00  0.00    -0.369 OA
BRANCH  30  31
HETATM   31  C9  UNL     1     -29.132   4.058 -27.225  1.00  0.00     0.197 C 
BRANCH  31  32
HETATM   32  C10 UNL     1     -30.325   3.784 -26.333  1.00  0.00     0.219 C 
BRANCH  32  33
HETATM   33  O6  UNL     1     -30.064   4.317 -25.051  1.00  0.00    -0.255 OA
BRANCH  33  34
HETATM   34  S1  UNL     1     -31.260   3.681 -24.044  1.00  0.00     0.251 S 
HETATM   35  O7  UNL     1     -32.375   4.685 -23.940  1.00  0.00    -0.572 OA
HETATM   36  O8  UNL     1     -31.786   2.418 -24.652  1.00  0.00    -0.572 OA
HETATM   37  O9  UNL     1     -30.547   3.405 -22.546  1.00  0.00    -0.572 OA
ENDBRANCH  33  34
ENDBRANCH  32  33
ENDBRANCH  31  32
ENDBRANCH  30  31
ENDBRANCH  29  30
ENDBRANCH  14  29
BRANCH  11  38
HETATM   38  N8  UNL     1     -31.802   9.043 -31.230  1.00  0.00    -0.332 N 
ATOM     39  H82 UNL     1     -31.090   8.951 -31.954  1.00  0.00     0.177 HD
ATOM     40  H81 UNL     1     -32.689   9.516 -31.404  1.00  0.00     0.177 HD
ENDBRANCH  11  38
TORSDOF 12
ENDMDL
MODEL 5
REMARK VINA RESULT: -6.626318798      3.458      7.085
REMARK  12 active torsions:
REMARK  status: ('A' for Active; 'I' for Inactive)
REMARK    1  A    between atoms: N1_1  and  C1_4 
REMARK    2  A    between atoms: C2_7  and  N3_8 
REMARK    3  A    between atoms: N4_10  and  C3_12 
REMARK    4  A    between atoms: C3_12  and  O1_13 
REMARK    5  A    between atoms: N5_15  and  O2_17 
REMARK    6  A    between atoms: N7_25  and  N8_26 
REMARK    7  A    between atoms: N9_31  and  C8_32 
REMARK    8  A    between atoms: C8_32  and  O5_33 
REMARK    9  A    between atoms: O5_33  and  C9_34 
REMARK   10  A    between atoms: C9_34  and  C10_35 
REMARK   11  A    between atoms: C10_35  and  O6_36 
REMARK   12  A    between atoms: O6_36  and  S1_37 
ROOT
HETATM    1  C1  UNL     1     -29.514   5.698 -27.131  1.00  0.00     0.134 A 
HETATM    2  N2  UNL     1     -29.192   6.977 -27.388  1.00  0.00    -0.174 N 
ATOM      3  H2  UNL     1     -28.732   7.201 -28.271  1.00  0.00     0.186 HD
HETATM    4  C2  UNL     1     -29.451   7.963 -26.529  1.00  0.00     0.700 A 
HETATM    5  N6  UNL     1     -30.063   7.707 -25.341  1.00  0.00    -0.174 N 
ATOM      6  H6  UNL     1     -30.258   8.466 -24.688  1.00  0.00     0.186 HD
HETATM    7  C4  UNL     1     -30.402   6.457 -25.038  1.00  0.00     0.148 A 
HETATM    8  C5  UNL     1     -30.134   5.428 -25.928  1.00  0.00     0.123 A 
HETATM    9  C6  UNL     1     -30.483   4.128 -25.625  1.00  0.00     0.288 A 
HETATM   10  O3  UNL     1     -30.267   3.159 -26.390  1.00  0.00    -0.265 OA
HETATM   11  N7  UNL     1     -31.083   3.931 -24.445  1.00  0.00    -0.174 N 
HETATM   12  C7  UNL     1     -31.332   4.944 -23.599  1.00  0.00     0.353 A 
HETATM   13  O4  UNL     1     -31.909   4.629 -22.504  1.00  0.00    -0.244 OA
HETATM   14  N9  UNL     1     -31.006   6.231 -23.858  1.00  0.00    -0.260 N 
ENDROOT
BRANCH   4  15
HETATM   15  N3  UNL     1     -29.116   9.327 -26.784  1.00  0.00    -0.129 N 
HETATM   16  N4  UNL     1     -29.950  10.236 -27.047  1.00  0.00    -0.249 N 
ATOM     17  H4  UNL     1     -29.602  11.181 -27.212  1.00  0.00     0.191 HD
ATOM     18  H3  UNL     1     -28.130   9.586 -26.750  1.00  0.00     0.205 HD
BRANCH  16  19
HETATM   19  C3  UNL     1     -31.341  10.011 -27.124  1.00  0.00     0.256 C 
HETATM   20  N5  UNL     1     -31.864   9.727 -28.278  1.00  0.00    -0.232 N 
ATOM     21  H5  UNL     1     -31.263   9.674 -29.100  1.00  0.00     0.198 HD
BRANCH  19  22
HETATM   22  O1  UNL     1     -32.094  10.101 -25.962  1.00  0.00    -0.330 OA
ATOM     23  H1  UNL     1     -31.647  10.049 -25.126  1.00  0.00     0.221 HD
ENDBRANCH  19  22
BRANCH  20  24
HETATM   24  O2  UNL     1     -33.219   9.497 -28.414  1.00  0.00    -0.287 OA
ATOM     25  H2  UNL     1     -33.815   9.612 -27.683  1.00  0.00     0.244 HD
ENDBRANCH  20  24
ENDBRANCH  16  19
ENDBRANCH   4  15
BRANCH   1  26
HETATM   26  N1  UNL     1     -29.266   4.728 -27.960  1.00  0.00    -0.384 N 
ATOM     27  H12 UNL     1     -29.625   4.774 -28.915  1.00  0.00     0.157 HD
ATOM     28  H11 UNL     1     -28.722   3.905 -27.703  1.00  0.00     0.157 HD
ENDBRANCH   1  26
BRANCH  14  29
HETATM   29  C8  UNL     1     -31.317   7.223 -22.890  1.00  0.00     0.305 C 
BRANCH  29  30
HETATM   30  O5  UNL     1     -31.969   8.285 -23.541  1.00  0.00    -0.369 OA
BRANCH  30  31
HETATM   31  C9  UNL     1     -33.334   8.280 -23.303  1.00  0.00     0.197 C 
BRANCH  31  32
HETATM   32  C10 UNL     1     -33.540   8.779 -21.888  1.00  0.00     0.219 C 
BRANCH  32  33
HETATM   33  O6  UNL     1     -34.802   9.407 -21.807  1.00  0.00    -0.255 OA
BRANCH  33  34
HETATM   34  S1  UNL     1     -34.994   9.833 -20.185  1.00  0.00     0.251 S 
HETATM   35  O7  UNL     1     -33.828   9.283 -19.409  1.00  0.00    -0.572 OA
HETATM   36  O8  UNL     1     -35.003  11.326 -20.073  1.00  0.00    -0.572 OA
HETATM   37  O9  UNL     1     -36.444   9.157 -19.666  1.00  0.00    -0.572 OA
ENDBRANCH  33  34
ENDBRANCH  32  33
ENDBRANCH  31  32
ENDBRANCH  30  31
ENDBRANCH  29  30
ENDBRANCH  14  29
BRANCH  11  38
HETATM   38  N8  UNL     1     -31.444   2.599 -24.126  1.00  0.00    -0.332 N 
ATOM     39  H82 UNL     1     -30.807   1.822 -24.298  1.00  0.00     0.177 HD
ATOM     40  H81 UNL     1     -32.369   2.458 -23.720  1.00  0.00     0.177 HD
ENDBRANCH  11  38
TORSDOF 12
ENDMDL
