MODEL 1
REMARK VINA RESULT: -6.361796828      0.000      0.000
REMARK  6 active torsions:
REMARK  status: ('A' for Active; 'I' for Inactive)
REMARK    1  A    between atoms: C2_2  and  C4_4 
REMARK    2  A    between atoms: C4_4  and  O2_6 
REMARK    3  A    between atoms: O2_6  and  C5_7 
REMARK    4  A    between atoms: C7_9  and  C8_10 
REMARK    5  A    between atoms: C8_10  and  O3_11 
REMARK    6  A    between atoms: C8_10  and  O4_13 
ROOT
HETATM    1  C5  UNL     1     -25.024 -27.951 -18.985  1.00  0.00     0.141 C 
HETATM    2  C6  UNL     1     -24.936 -27.506 -20.406  1.00  0.00     0.048 C 
HETATM    3  C7  UNL     1     -25.615 -26.182 -20.480  1.00  0.00     0.016 A 
HETATM    4  C9  UNL     1     -26.834 -25.867 -19.724  1.00  0.00     0.021 A 
HETATM    5  C10 UNL     1     -25.464 -25.603 -19.135  1.00  0.00     0.010 A 
HETATM    6  C11 UNL     1     -24.991 -26.666 -18.192  1.00  0.00    -0.016 C 
HETATM    7  C12 UNL     1     -23.620 -26.394 -17.643  1.00  0.00     0.018 C 
HETATM    8  C13 UNL     1     -25.990 -26.810 -17.054  1.00  0.00     0.018 C 
ENDROOT
BRANCH   1   9
HETATM    9  O2  UNL     1     -23.912 -28.775 -18.706  1.00  0.00    -0.311 OA
BRANCH   9  10
HETATM   10  C4  UNL     1     -23.983 -29.874 -17.851  1.00  0.00     0.288 C 
HETATM   11  O1  UNL     1     -25.039 -30.548 -17.897  1.00  0.00    -0.260 OA
BRANCH  10  12
HETATM   12  C2  UNL     1     -22.882 -30.204 -16.962  1.00  0.00     0.004 C 
HETATM   13  C1  UNL     1     -21.756 -29.523 -17.042  1.00  0.00     0.024 C 
HETATM   14  C3  UNL     1     -23.079 -31.311 -15.990  1.00  0.00     0.054 C 
ENDBRANCH  10  12
ENDBRANCH   9  10
ENDBRANCH   1   9
BRANCH   3  15
HETATM   15  C8  UNL     1     -25.349 -25.380 -21.725  1.00  0.00     0.262 C 
BRANCH  15  16
HETATM   16  O3  UNL     1     -25.449 -26.143 -22.882  1.00  0.00    -0.371 OA
ATOM     17  H3  UNL     1     -25.000 -25.748 -23.619  1.00  0.00     0.212 HD
ENDBRANCH  15  16
BRANCH  15  18
HETATM   18  O4  UNL     1     -26.198 -24.294 -21.787  1.00  0.00    -0.371 OA
ATOM     19  H4  UNL     1     -27.099 -24.584 -21.865  1.00  0.00     0.212 HD
ENDBRANCH  15  18
ENDBRANCH   3  15
TORSDOF 6
ENDMDL
MODEL 2
REMARK VINA RESULT: -6.269868461      2.648      4.170
REMARK  6 active torsions:
REMARK  status: ('A' for Active; 'I' for Inactive)
REMARK    1  A    between atoms: C2_2  and  C4_4 
REMARK    2  A    between atoms: C4_4  and  O2_6 
REMARK    3  A    between atoms: O2_6  and  C5_7 
REMARK    4  A    between atoms: C7_9  and  C8_10 
REMARK    5  A    between atoms: C8_10  and  O3_11 
REMARK    6  A    between atoms: C8_10  and  O4_13 
ROOT
HETATM    1  C5  UNL     1     -23.167 -26.343 -17.986  1.00  0.00     0.141 C 
HETATM    2  C6  UNL     1     -24.188 -25.420 -18.561  1.00  0.00     0.048 C 
HETATM    3  C7  UNL     1     -25.163 -26.270 -19.299  1.00  0.00     0.016 A 
HETATM    4  C9  UNL     1     -24.764 -27.446 -20.084  1.00  0.00     0.021 A 
HETATM    5  C10 UNL     1     -25.120 -27.575 -18.618  1.00  0.00     0.010 A 
HETATM    6  C11 UNL     1     -23.934 -27.613 -17.703  1.00  0.00    -0.016 C 
HETATM    7  C12 UNL     1     -24.315 -27.714 -16.254  1.00  0.00     0.018 C 
HETATM    8  C13 UNL     1     -23.038 -28.779 -18.090  1.00  0.00     0.018 C 
ENDROOT
BRANCH   1   9
HETATM    9  O2  UNL     1     -22.654 -25.761 -16.806  1.00  0.00    -0.311 OA
BRANCH   9  10
HETATM   10  C4  UNL     1     -21.288 -25.685 -16.536  1.00  0.00     0.288 C 
HETATM   11  O1  UNL     1     -20.746 -26.730 -16.106  1.00  0.00    -0.260 OA
BRANCH  10  12
HETATM   12  C2  UNL     1     -20.551 -24.451 -16.747  1.00  0.00     0.004 C 
HETATM   13  C1  UNL     1     -19.982 -23.850 -15.720  1.00  0.00     0.024 C 
HETATM   14  C3  UNL     1     -20.471 -23.916 -18.131  1.00  0.00     0.054 C 
ENDBRANCH  10  12
ENDBRANCH   9  10
ENDBRANCH   1   9
BRANCH   3  15
HETATM   15  C8  UNL     1     -26.464 -25.607 -19.664  1.00  0.00     0.262 C 
BRANCH  15  16
HETATM   16  O3  UNL     1     -26.911 -24.734 -18.679  1.00  0.00    -0.371 OA
ATOM     17  H3  UNL     1     -27.020 -23.847 -19.001  1.00  0.00     0.212 HD
ENDBRANCH  15  16
BRANCH  15  18
HETATM   18  O4  UNL     1     -26.346 -24.953 -20.874  1.00  0.00    -0.371 OA
ATOM     19  H4  UNL     1     -26.822 -24.132 -20.852  1.00  0.00     0.212 HD
ENDBRANCH  15  18
ENDBRANCH   3  15
TORSDOF 6
ENDMDL
MODEL 3
REMARK VINA RESULT: -6.234196891      6.575      8.295
REMARK  6 active torsions:
REMARK  status: ('A' for Active; 'I' for Inactive)
REMARK    1  A    between atoms: C2_2  and  C4_4 
REMARK    2  A    between atoms: C4_4  and  O2_6 
REMARK    3  A    between atoms: O2_6  and  C5_7 
REMARK    4  A    between atoms: C7_9  and  C8_10 
REMARK    5  A    between atoms: C8_10  and  O3_11 
REMARK    6  A    between atoms: C8_10  and  O4_13 
ROOT
HETATM    1  C5  UNL     1     -18.259 -23.724 -17.098  1.00  0.00     0.141 C 
HETATM    2  C6  UNL     1     -18.900 -24.911 -16.461  1.00  0.00     0.048 C 
HETATM    3  C7  UNL     1     -20.314 -24.933 -16.928  1.00  0.00     0.016 A 
HETATM    4  C9  UNL     1     -21.117 -23.715 -17.099  1.00  0.00     0.021 A 
HETATM    5  C10 UNL     1     -20.291 -24.268 -18.241  1.00  0.00     0.010 A 
HETATM    6  C11 UNL     1     -18.969 -23.587 -18.424  1.00  0.00    -0.016 C 
HETATM    7  C12 UNL     1     -18.159 -24.172 -19.544  1.00  0.00     0.018 C 
HETATM    8  C13 UNL     1     -19.198 -22.103 -18.664  1.00  0.00     0.018 C 
ENDROOT
BRANCH   1   9
HETATM    9  O2  UNL     1     -16.883 -23.993 -17.260  1.00  0.00    -0.311 OA
BRANCH   9  10
HETATM   10  C4  UNL     1     -15.900 -23.395 -16.471  1.00  0.00     0.288 C 
HETATM   11  O1  UNL     1     -15.410 -22.327 -16.905  1.00  0.00    -0.260 OA
BRANCH  10  12
HETATM   12  C2  UNL     1     -15.480 -23.996 -15.216  1.00  0.00     0.004 C 
HETATM   13  C1  UNL     1     -15.064 -23.222 -14.232  1.00  0.00     0.024 C 
HETATM   14  C3  UNL     1     -15.541 -25.476 -15.098  1.00  0.00     0.054 C 
ENDBRANCH  10  12
ENDBRANCH   9  10
ENDBRANCH   1   9
BRANCH   3  15
HETATM   15  C8  UNL     1     -21.057 -26.222 -16.703  1.00  0.00     0.262 C 
BRANCH  15  16
HETATM   16  O3  UNL     1     -22.241 -26.039 -15.999  1.00  0.00    -0.371 OA
ATOM     17  H3  UNL     1     -22.972 -25.823 -16.566  1.00  0.00     0.212 HD
ENDBRANCH  15  16
BRANCH  15  18
HETATM   18  O4  UNL     1     -21.302 -26.851 -17.907  1.00  0.00    -0.371 OA
ATOM     19  H4  UNL     1     -21.108 -27.778 -17.841  1.00  0.00     0.212 HD
ENDBRANCH  15  18
ENDBRANCH   3  15
TORSDOF 6
ENDMDL
MODEL 4
REMARK VINA RESULT: -6.151799614      2.907      4.301
REMARK  6 active torsions:
REMARK  status: ('A' for Active; 'I' for Inactive)
REMARK    1  A    between atoms: C2_2  and  C4_4 
REMARK    2  A    between atoms: C4_4  and  O2_6 
REMARK    3  A    between atoms: O2_6  and  C5_7 
REMARK    4  A    between atoms: C7_9  and  C8_10 
REMARK    5  A    between atoms: C8_10  and  O3_11 
REMARK    6  A    between atoms: C8_10  and  O4_13 
ROOT
HETATM    1  C5  UNL     1     -23.061 -25.930 -18.145  1.00  0.00     0.141 C 
HETATM    2  C6  UNL     1     -24.229 -25.159 -18.664  1.00  0.00     0.048 C 
HETATM    3  C7  UNL     1     -25.176 -26.157 -19.236  1.00  0.00     0.016 A 
HETATM    4  C9  UNL     1     -24.734 -27.341 -19.984  1.00  0.00     0.021 A 
HETATM    5  C10 UNL     1     -24.924 -27.395 -18.482  1.00  0.00     0.010 A 
HETATM    6  C11 UNL     1     -23.655 -27.246 -17.701  1.00  0.00    -0.016 C 
HETATM    7  C12 UNL     1     -23.874 -27.276 -16.216  1.00  0.00     0.018 C 
HETATM    8  C13 UNL     1     -22.681 -28.342 -18.107  1.00  0.00     0.018 C 
ENDROOT
BRANCH   1   9
HETATM    9  O2  UNL     1     -22.497 -25.212 -17.068  1.00  0.00    -0.311 OA
BRANCH   9  10
HETATM   10  C4  UNL     1     -21.200 -24.701 -17.100  1.00  0.00     0.288 C 
HETATM   11  O1  UNL     1     -20.896 -24.014 -18.102  1.00  0.00    -0.260 OA
BRANCH  10  12
HETATM   12  C2  UNL     1     -20.266 -24.963 -16.018  1.00  0.00     0.004 C 
HETATM   13  C1  UNL     1     -20.306 -26.122 -15.391  1.00  0.00     0.024 C 
HETATM   14  C3  UNL     1     -19.293 -23.896 -15.664  1.00  0.00     0.054 C 
ENDBRANCH  10  12
ENDBRANCH   9  10
ENDBRANCH   1   9
BRANCH   3  15
HETATM   15  C8  UNL     1     -26.571 -25.656 -19.499  1.00  0.00     0.262 C 
BRANCH  15  16
HETATM   16  O3  UNL     1     -26.985 -24.716 -18.563  1.00  0.00    -0.371 OA
ATOM     17  H3  UNL     1     -27.725 -24.204 -18.865  1.00  0.00     0.212 HD
ENDBRANCH  15  16
BRANCH  15  18
HETATM   18  O4  UNL     1     -26.663 -25.141 -20.777  1.00  0.00    -0.371 OA
ATOM     19  H4  UNL     1     -26.880 -24.217 -20.744  1.00  0.00     0.212 HD
ENDBRANCH  15  18
ENDBRANCH   3  15
TORSDOF 6
ENDMDL
MODEL 5
REMARK VINA RESULT: -6.057972110      3.416      6.839
REMARK  6 active torsions:
REMARK  status: ('A' for Active; 'I' for Inactive)
REMARK    1  A    between atoms: C2_2  and  C4_4 
REMARK    2  A    between atoms: C4_4  and  O2_6 
REMARK    3  A    between atoms: O2_6  and  C5_7 
REMARK    4  A    between atoms: C7_9  and  C8_10 
REMARK    5  A    between atoms: C8_10  and  O3_11 
REMARK    6  A    between atoms: C8_10  and  O4_13 
ROOT
HETATM    1  C5  UNL     1     -24.205 -28.304 -15.511  1.00  0.00     0.141 C 
HETATM    2  C6  UNL     1     -23.879 -27.830 -14.135  1.00  0.00     0.048 C 
HETATM    3  C7  UNL     1     -23.229 -28.972 -13.434  1.00  0.00     0.016 A 
HETATM    4  C9  UNL     1     -23.660 -30.365 -13.608  1.00  0.00     0.021 A 
HETATM    5  C10 UNL     1     -22.597 -29.763 -14.503  1.00  0.00     0.010 A 
HETATM    6  C11 UNL     1     -23.111 -29.295 -15.830  1.00  0.00    -0.016 C 
HETATM    7  C12 UNL     1     -22.043 -28.677 -16.686  1.00  0.00     0.018 C 
HETATM    8  C13 UNL     1     -23.755 -30.463 -16.560  1.00  0.00     0.018 C 
ENDROOT
BRANCH   1   9
HETATM    9  O2  UNL     1     -24.184 -27.193 -16.382  1.00  0.00    -0.311 OA
BRANCH   9  10
HETATM   10  C4  UNL     1     -25.212 -26.924 -17.286  1.00  0.00     0.288 C 
HETATM   11  O1  UNL     1     -26.377 -26.939 -16.826  1.00  0.00    -0.260 OA
BRANCH  10  12
HETATM   12  C2  UNL     1     -24.925 -26.645 -18.683  1.00  0.00     0.004 C 
HETATM   13  C1  UNL     1     -24.530 -27.624 -19.474  1.00  0.00     0.024 C 
HETATM   14  C3  UNL     1     -25.093 -25.248 -19.163  1.00  0.00     0.054 C 
ENDBRANCH  10  12
ENDBRANCH   9  10
ENDBRANCH   1   9
BRANCH   3  15
HETATM   15  C8  UNL     1     -22.500 -28.630 -12.162  1.00  0.00     0.262 C 
BRANCH  15  16
HETATM   16  O3  UNL     1     -22.957 -27.450 -11.588  1.00  0.00    -0.371 OA
ATOM     17  H3  UNL     1     -22.596 -27.302 -10.723  1.00  0.00     0.212 HD
ENDBRANCH  15  16
BRANCH  15  18
HETATM   18  O4  UNL     1     -22.590 -29.673 -11.262  1.00  0.00    -0.371 OA
ATOM     19  H4  UNL     1     -22.877 -29.353 -10.416  1.00  0.00     0.212 HD
ENDBRANCH  15  18
ENDBRANCH   3  15
TORSDOF 6
ENDMDL
