MODEL 1
REMARK VINA RESULT: -7.938782444      0.000      0.000
REMARK  8 active torsions:
REMARK  status: ('A' for Active; 'I' for Inactive)
REMARK    1  A    between atoms: C2_2  and  C4_4 
REMARK    2  A    between atoms: C7_7  and  N1_9 
REMARK       I    between atoms: N1_9  and  C9_11 
REMARK       I    between atoms: C9_11  and  N2_13 
REMARK    3  A    between atoms: C12_16  and  S1_17 
REMARK    4  A    between atoms: S1_17  and  C13_20 
REMARK    5  A    between atoms: C13_20  and  C14_21 
REMARK    6  A    between atoms: C14_21  and  O4_22 
REMARK    7  A    between atoms: C14_21  and  C15_24 
REMARK    8  A    between atoms: C20_31  and  O5_32 
ROOT
HETATM    1  N1  UNL     1     -10.482  82.087  16.653  1.00  0.00    -0.334 N 
ATOM      2  H1  UNL     1     -11.480  82.143  16.856  1.00  0.00     0.165 HD
HETATM    3  C9  UNL     1      -9.532  82.503  17.616  1.00  0.00     0.321 C 
HETATM    4  O1  UNL     1      -8.309  82.439  17.380  1.00  0.00    -0.247 OA
HETATM    5  N2  UNL     1      -9.984  82.997  18.859  1.00  0.00    -0.306 N 
HETATM    6  C10 UNL     1      -9.123  83.450  19.921  1.00  0.00     0.132 C 
HETATM    7  C11 UNL     1      -9.997  84.208  20.894  1.00  0.00     0.044 C 
HETATM    8  C12 UNL     1     -11.419  83.833  20.546  1.00  0.00     0.158 C 
HETATM    9  C20 UNL     1     -11.373  83.115  19.238  1.00  0.00     0.242 C 
ENDROOT
BRANCH   8  10
HETATM   10  S1  UNL     1     -12.368  85.319  20.327  1.00  0.00     0.155 S 
HETATM   11  O2  UNL     1     -13.436  85.362  21.371  1.00  0.00    -0.227 OA
HETATM   12  O3  UNL     1     -11.514  86.532  20.490  1.00  0.00    -0.227 OA
BRANCH  10  13
HETATM   13  C13 UNL     1     -13.154  85.251  18.746  1.00  0.00     0.172 C 
BRANCH  13  14
HETATM   14  C14 UNL     1     -14.623  85.679  18.844  1.00  0.00     0.136 C 
BRANCH  14  15
HETATM   15  O4  UNL     1     -15.389  84.587  19.224  1.00  0.00    -0.394 OA
ATOM     16  H4  UNL     1     -16.045  84.421  18.557  1.00  0.00     0.210 HD
ENDBRANCH  14  15
BRANCH  14  17
HETATM   17  C15 UNL     1     -15.005  86.183  17.471  1.00  0.00     0.021 C 
HETATM   18  C16 UNL     1     -16.490  86.200  17.246  1.00  0.00     0.013 C 
HETATM   19  C17 UNL     1     -16.562  86.100  15.718  1.00  0.00     0.079 C 
HETATM   20  C18 UNL     1     -15.604  84.949  15.470  1.00  0.00     0.244 C 
HETATM   21  F1  UNL     1     -16.248  83.787  15.892  1.00  0.00    -0.206 F 
HETATM   22  F2  UNL     1     -15.181  84.873  14.177  1.00  0.00    -0.206 F 
HETATM   23  C19 UNL     1     -14.472  85.193  16.453  1.00  0.00     0.086 C 
ENDBRANCH  14  17
ENDBRANCH  13  14
ENDBRANCH  10  13
ENDBRANCH   8  10
BRANCH   9  24
HETATM   24  O5  UNL     1     -12.009  81.878  19.331  1.00  0.00    -0.375 OA
ATOM     25  H5  UNL     1     -12.692  81.770  18.680  1.00  0.00     0.212 HD
ENDBRANCH   9  24
BRANCH   1  26
HETATM   26  C7  UNL     1     -10.024  81.581  15.379  1.00  0.00     0.031 C 
HETATM   27  C6  UNL     1      -8.883  80.622  15.520  1.00  0.00     0.031 C 
HETATM   28  C5  UNL     1      -9.560  79.266  15.444  1.00  0.00     0.007 C 
HETATM   29  C4  UNL     1     -10.581  79.492  14.359  1.00  0.00    -0.009 C 
HETATM   30  C21 UNL     1     -11.172  80.827  14.745  1.00  0.00     0.035 C 
HETATM   31  C8  UNL     1      -9.655  82.783  14.531  1.00  0.00     0.038 C 
BRANCH  29  32
HETATM   32  C2  UNL     1      -9.908  79.593  13.012  1.00  0.00    -0.019 C 
HETATM   33  C1  UNL     1     -10.850  80.189  12.002  1.00  0.00     0.010 C 
HETATM   34  C3  UNL     1      -9.427  78.253  12.536  1.00  0.00     0.010 C 
ENDBRANCH  29  32
ENDBRANCH   1  26
TORSDOF 8
ENDMDL
MODEL 2
REMARK VINA RESULT: -7.862956946      0.806      1.497
REMARK  8 active torsions:
REMARK  status: ('A' for Active; 'I' for Inactive)
REMARK    1  A    between atoms: C2_2  and  C4_4 
REMARK    2  A    between atoms: C7_7  and  N1_9 
REMARK       I    between atoms: N1_9  and  C9_11 
REMARK       I    between atoms: C9_11  and  N2_13 
REMARK    3  A    between atoms: C12_16  and  S1_17 
REMARK    4  A    between atoms: S1_17  and  C13_20 
REMARK    5  A    between atoms: C13_20  and  C14_21 
REMARK    6  A    between atoms: C14_21  and  O4_22 
REMARK    7  A    between atoms: C14_21  and  C15_24 
REMARK    8  A    between atoms: C20_31  and  O5_32 
ROOT
HETATM    1  N1  UNL     1     -10.934  81.588  17.053  1.00  0.00    -0.334 N 
ATOM      2  H1  UNL     1     -11.911  81.803  17.258  1.00  0.00     0.165 HD
HETATM    3  C9  UNL     1      -9.913  81.981  17.952  1.00  0.00     0.321 C 
HETATM    4  O1  UNL     1      -8.716  81.725  17.713  1.00  0.00    -0.247 OA
HETATM    5  N2  UNL     1     -10.263  82.672  19.132  1.00  0.00    -0.306 N 
HETATM    6  C10 UNL     1      -9.323  83.124  20.124  1.00  0.00     0.132 C 
HETATM    7  C11 UNL     1     -10.063  84.101  21.009  1.00  0.00     0.044 C 
HETATM    8  C12 UNL     1     -11.531  83.884  20.721  1.00  0.00     0.158 C 
HETATM    9  C20 UNL     1     -11.614  83.020  19.508  1.00  0.00     0.242 C 
ENDROOT
BRANCH   8  10
HETATM   10  S1  UNL     1     -12.278  85.449  20.338  1.00  0.00     0.155 S 
HETATM   11  O2  UNL     1     -13.325  85.743  21.363  1.00  0.00    -0.227 OA
HETATM   12  O3  UNL     1     -11.272  86.551  20.377  1.00  0.00    -0.227 OA
BRANCH  10  13
HETATM   13  C13 UNL     1     -13.076  85.316  18.767  1.00  0.00     0.172 C 
BRANCH  13  14
HETATM   14  C14 UNL     1     -14.558  85.695  18.870  1.00  0.00     0.136 C 
BRANCH  14  15
HETATM   15  O4  UNL     1     -15.288  84.575  19.240  1.00  0.00    -0.394 OA
ATOM     16  H4  UNL     1     -15.583  84.124  18.457  1.00  0.00     0.210 HD
ENDBRANCH  14  15
BRANCH  14  17
HETATM   17  C15 UNL     1     -14.957  86.199  17.501  1.00  0.00     0.021 C 
HETATM   18  C16 UNL     1     -16.445  86.223  17.299  1.00  0.00     0.013 C 
HETATM   19  C17 UNL     1     -16.541  86.121  15.771  1.00  0.00     0.079 C 
HETATM   20  C18 UNL     1     -15.592  84.964  15.511  1.00  0.00     0.244 C 
HETATM   21  F1  UNL     1     -16.235  83.806  15.945  1.00  0.00    -0.206 F 
HETATM   22  F2  UNL     1     -15.189  84.884  14.213  1.00  0.00    -0.206 F 
HETATM   23  C19 UNL     1     -14.444  85.205  16.478  1.00  0.00     0.086 C 
ENDBRANCH  14  17
ENDBRANCH  13  14
ENDBRANCH  10  13
ENDBRANCH   8  10
BRANCH   9  24
HETATM   24  O5  UNL     1     -12.406  81.900  19.752  1.00  0.00    -0.375 OA
ATOM     25  H5  UNL     1     -12.914  81.979  20.551  1.00  0.00     0.212 HD
ENDBRANCH   9  24
BRANCH   1  26
HETATM   26  C7  UNL     1     -10.581  80.880  15.844  1.00  0.00     0.031 C 
HETATM   27  C6  UNL     1     -11.614  81.031  14.771  1.00  0.00     0.031 C 
HETATM   28  C5  UNL     1     -11.046  82.136  13.898  1.00  0.00     0.007 C 
HETATM   29  C4  UNL     1      -9.581  81.783  13.870  1.00  0.00    -0.009 C 
HETATM   30  C21 UNL     1      -9.294  81.478  15.321  1.00  0.00     0.035 C 
HETATM   31  C8  UNL     1     -10.367  79.428  16.226  1.00  0.00     0.038 C 
BRANCH  29  32
HETATM   32  C2  UNL     1      -9.348  80.554  13.026  1.00  0.00    -0.019 C 
HETATM   33  C1  UNL     1      -7.941  80.055  13.209  1.00  0.00     0.010 C 
HETATM   34  C3  UNL     1      -9.611  80.827  11.574  1.00  0.00     0.010 C 
ENDBRANCH  29  32
ENDBRANCH   1  26
TORSDOF 8
ENDMDL
MODEL 3
REMARK VINA RESULT: -7.823176638      4.246      8.400
REMARK  8 active torsions:
REMARK  status: ('A' for Active; 'I' for Inactive)
REMARK    1  A    between atoms: C2_2  and  C4_4 
REMARK    2  A    between atoms: C7_7  and  N1_9 
REMARK       I    between atoms: N1_9  and  C9_11 
REMARK       I    between atoms: C9_11  and  N2_13 
REMARK    3  A    between atoms: C12_16  and  S1_17 
REMARK    4  A    between atoms: S1_17  and  C13_20 
REMARK    5  A    between atoms: C13_20  and  C14_21 
REMARK    6  A    between atoms: C14_21  and  O4_22 
REMARK    7  A    between atoms: C14_21  and  C15_24 
REMARK    8  A    between atoms: C20_31  and  O5_32 
ROOT
HETATM    1  N1  UNL     1     -12.578  84.809  18.248  1.00  0.00    -0.334 N 
ATOM      2  H1  UNL     1     -12.608  84.687  19.260  1.00  0.00     0.165 HD
HETATM    3  C9  UNL     1     -11.862  83.894  17.439  1.00  0.00     0.321 C 
HETATM    4  O1  UNL     1     -11.816  84.033  16.200  1.00  0.00    -0.247 OA
HETATM    5  N2  UNL     1     -11.192  82.813  18.052  1.00  0.00    -0.306 N 
HETATM    6  C10 UNL     1     -10.431  81.816  17.344  1.00  0.00     0.132 C 
HETATM    7  C11 UNL     1      -9.612  81.080  18.379  1.00  0.00     0.044 C 
HETATM    8  C12 UNL     1     -10.226  81.433  19.714  1.00  0.00     0.158 C 
HETATM    9  C20 UNL     1     -11.177  82.557  19.474  1.00  0.00     0.242 C 
ENDROOT
BRANCH   8  10
HETATM   10  S1  UNL     1      -8.944  82.016  20.799  1.00  0.00     0.155 S 
HETATM   11  O2  UNL     1      -9.012  83.507  20.860  1.00  0.00    -0.227 OA
HETATM   12  O3  UNL     1      -9.128  81.487  22.183  1.00  0.00    -0.227 OA
BRANCH  10  13
HETATM   13  C13 UNL     1      -7.381  81.570  20.105  1.00  0.00     0.172 C 
BRANCH  13  14
HETATM   14  C14 UNL     1      -6.457  80.973  21.172  1.00  0.00     0.136 C 
BRANCH  14  15
HETATM   15  O4  UNL     1      -5.430  81.868  21.434  1.00  0.00    -0.394 OA
ATOM     16  H4  UNL     1      -5.645  82.368  22.213  1.00  0.00     0.210 HD
ENDBRANCH  14  15
BRANCH  14  17
HETATM   17  C15 UNL     1      -5.938  79.674  20.597  1.00  0.00     0.021 C 
HETATM   18  C16 UNL     1      -6.032  79.620  19.099  1.00  0.00     0.013 C 
HETATM   19  C17 UNL     1      -6.085  78.106  18.857  1.00  0.00     0.079 C 
HETATM   20  C18 UNL     1      -7.147  77.703  19.864  1.00  0.00     0.244 C 
HETATM   21  F1  UNL     1      -8.371  78.145  19.363  1.00  0.00    -0.206 F 
HETATM   22  F2  UNL     1      -7.145  76.369  20.139  1.00  0.00    -0.206 F 
HETATM   23  C19 UNL     1      -6.847  78.562  21.082  1.00  0.00     0.086 C 
ENDBRANCH  14  17
ENDBRANCH  13  14
ENDBRANCH  10  13
ENDBRANCH   8  10
BRANCH   9  24
HETATM   24  O5  UNL     1     -12.441  82.250  19.974  1.00  0.00    -0.375 OA
ATOM     25  H5  UNL     1     -12.510  81.347  20.261  1.00  0.00     0.212 HD
ENDBRANCH   9  24
BRANCH   1  26
HETATM   26  C7  UNL     1     -13.265  85.918  17.626  1.00  0.00     0.031 C 
HETATM   27  C6  UNL     1     -14.118  85.488  16.473  1.00  0.00     0.031 C 
HETATM   28  C5  UNL     1     -15.505  85.399  17.085  1.00  0.00     0.007 C 
HETATM   29  C4  UNL     1     -15.525  86.611  17.980  1.00  0.00    -0.009 C 
HETATM   30  C21 UNL     1     -14.180  86.531  18.662  1.00  0.00     0.035 C 
HETATM   31  C8  UNL     1     -12.205  86.918  17.206  1.00  0.00     0.038 C 
BRANCH  29  32
HETATM   32  C2  UNL     1     -15.615  87.874  17.159  1.00  0.00    -0.019 C 
HETATM   33  C1  UNL     1     -15.534  89.083  18.051  1.00  0.00     0.010 C 
HETATM   34  C3  UNL     1     -16.880  87.916  16.352  1.00  0.00     0.010 C 
ENDBRANCH  29  32
ENDBRANCH   1  26
TORSDOF 8
ENDMDL
MODEL 4
REMARK VINA RESULT: -7.776355698      1.131      1.266
REMARK  8 active torsions:
REMARK  status: ('A' for Active; 'I' for Inactive)
REMARK    1  A    between atoms: C2_2  and  C4_4 
REMARK    2  A    between atoms: C7_7  and  N1_9 
REMARK       I    between atoms: N1_9  and  C9_11 
REMARK       I    between atoms: C9_11  and  N2_13 
REMARK    3  A    between atoms: C12_16  and  S1_17 
REMARK    4  A    between atoms: S1_17  and  C13_20 
REMARK    5  A    between atoms: C13_20  and  C14_21 
REMARK    6  A    between atoms: C14_21  and  O4_22 
REMARK    7  A    between atoms: C14_21  and  C15_24 
REMARK    8  A    between atoms: C20_31  and  O5_32 
ROOT
HETATM    1  N1  UNL     1     -10.741  82.182  16.713  1.00  0.00    -0.334 N 
ATOM      2  H1  UNL     1     -11.707  81.980  16.975  1.00  0.00     0.165 HD
HETATM    3  C9  UNL     1      -9.889  82.876  17.605  1.00  0.00     0.321 C 
HETATM    4  O1  UNL     1      -8.707  83.128  17.296  1.00  0.00    -0.247 OA
HETATM    5  N2  UNL     1     -10.391  83.285  18.860  1.00  0.00    -0.306 N 
HETATM    6  C10 UNL     1      -9.629  83.995  19.853  1.00  0.00     0.132 C 
HETATM    7  C11 UNL     1     -10.621  84.535  20.857  1.00  0.00     0.044 C 
HETATM    8  C12 UNL     1     -11.908  83.781  20.607  1.00  0.00     0.158 C 
HETATM    9  C20 UNL     1     -11.740  83.046  19.320  1.00  0.00     0.242 C 
ENDROOT
BRANCH   8  10
HETATM   10  S1  UNL     1     -13.229  84.952  20.407  1.00  0.00     0.155 S 
HETATM   11  O2  UNL     1     -14.525  84.209  20.374  1.00  0.00    -0.227 OA
HETATM   12  O3  UNL     1     -13.276  85.912  21.550  1.00  0.00    -0.227 OA
BRANCH  10  13
HETATM   13  C13 UNL     1     -13.025  85.762  18.850  1.00  0.00     0.172 C 
BRANCH  13  14
HETATM   14  C14 UNL     1     -13.774  87.100  18.824  1.00  0.00     0.136 C 
BRANCH  14  15
HETATM   15  O4  UNL     1     -14.842  87.038  19.707  1.00  0.00    -0.394 OA
ATOM     16  H4  UNL     1     -15.422  87.772  19.543  1.00  0.00     0.210 HD
ENDBRANCH  14  15
BRANCH  14  17
HETATM   17  C15 UNL     1     -14.234  87.294  17.397  1.00  0.00     0.021 C 
HETATM   18  C16 UNL     1     -15.309  88.335  17.267  1.00  0.00     0.013 C 
HETATM   19  C17 UNL     1     -16.003  87.888  15.974  1.00  0.00     0.079 C 
HETATM   20  C18 UNL     1     -16.182  86.407  16.254  1.00  0.00     0.244 C 
HETATM   21  F1  UNL     1     -17.191  86.292  17.209  1.00  0.00    -0.206 F 
HETATM   22  F2  UNL     1     -16.437  85.677  15.133  1.00  0.00    -0.206 F 
HETATM   23  C19 UNL     1     -14.889  86.004  16.946  1.00  0.00     0.086 C 
ENDBRANCH  14  17
ENDBRANCH  13  14
ENDBRANCH  10  13
ENDBRANCH   8  10
BRANCH   9  24
HETATM   24  O5  UNL     1     -12.016  81.690  19.484  1.00  0.00    -0.375 OA
ATOM     25  H5  UNL     1     -12.841  81.538  19.929  1.00  0.00     0.212 HD
ENDBRANCH   9  24
BRANCH   1  26
HETATM   26  C7  UNL     1     -10.232  81.761  15.428  1.00  0.00     0.031 C 
HETATM   27  C6  UNL     1      -8.977  80.953  15.546  1.00  0.00     0.031 C 
HETATM   28  C5  UNL     1      -9.477  79.523  15.447  1.00  0.00     0.007 C 
HETATM   29  C4  UNL     1     -10.526  79.638  14.371  1.00  0.00    -0.009 C 
HETATM   30  C21 UNL     1     -11.279  80.879  14.785  1.00  0.00     0.035 C 
HETATM   31  C8  UNL     1     -10.024  83.016  14.601  1.00  0.00     0.038 C 
BRANCH  29  32
HETATM   32  C2  UNL     1      -9.880  79.848  13.023  1.00  0.00    -0.019 C 
HETATM   33  C1  UNL     1     -10.919  80.218  12.000  1.00  0.00     0.010 C 
HETATM   34  C3  UNL     1      -9.132  78.626  12.576  1.00  0.00     0.010 C 
ENDBRANCH  29  32
ENDBRANCH   1  26
TORSDOF 8
ENDMDL
MODEL 5
REMARK VINA RESULT: -7.743881971      1.205      1.430
REMARK  8 active torsions:
REMARK  status: ('A' for Active; 'I' for Inactive)
REMARK    1  A    between atoms: C2_2  and  C4_4 
REMARK    2  A    between atoms: C7_7  and  N1_9 
REMARK       I    between atoms: N1_9  and  C9_11 
REMARK       I    between atoms: C9_11  and  N2_13 
REMARK    3  A    between atoms: C12_16  and  S1_17 
REMARK    4  A    between atoms: S1_17  and  C13_20 
REMARK    5  A    between atoms: C13_20  and  C14_21 
REMARK    6  A    between atoms: C14_21  and  O4_22 
REMARK    7  A    between atoms: C14_21  and  C15_24 
REMARK    8  A    between atoms: C20_31  and  O5_32 
ROOT
HETATM    1  N1  UNL     1     -10.628  82.273  16.600  1.00  0.00    -0.334 N 
ATOM      2  H1  UNL     1     -11.624  82.267  16.823  1.00  0.00     0.165 HD
HETATM    3  C9  UNL     1      -9.693  82.795  17.526  1.00  0.00     0.321 C 
HETATM    4  O1  UNL     1      -8.473  82.809  17.265  1.00  0.00    -0.247 OA
HETATM    5  N2  UNL     1     -10.155  83.307  18.758  1.00  0.00    -0.306 N 
HETATM    6  C10 UNL     1      -9.309  83.863  19.781  1.00  0.00     0.132 C 
HETATM    7  C11 UNL     1     -10.217  84.596  20.742  1.00  0.00     0.044 C 
HETATM    8  C12 UNL     1     -11.615  84.107  20.440  1.00  0.00     0.158 C 
HETATM    9  C20 UNL     1     -11.542  83.341  19.162  1.00  0.00     0.242 C 
ENDROOT
BRANCH   8  10
HETATM   10  S1  UNL     1     -12.672  85.511  20.184  1.00  0.00     0.155 S 
HETATM   11  O2  UNL     1     -13.563  85.662  21.374  1.00  0.00    -0.227 OA
HETATM   12  O3  UNL     1     -11.876  86.766  20.040  1.00  0.00    -0.227 OA
BRANCH  10  13
HETATM   13  C13 UNL     1     -13.692  85.191  18.777  1.00  0.00     0.172 C 
BRANCH  13  14
HETATM   14  C14 UNL     1     -15.178  85.306  19.138  1.00  0.00     0.136 C 
BRANCH  14  15
HETATM   15  O4  UNL     1     -15.579  84.145  19.782  1.00  0.00    -0.394 OA
ATOM     16  H4  UNL     1     -14.909  83.887  20.403  1.00  0.00     0.210 HD
ENDBRANCH  14  15
BRANCH  14  17
HETATM   17  C15 UNL     1     -15.912  85.508  17.832  1.00  0.00     0.021 C 
HETATM   18  C16 UNL     1     -15.021  85.354  16.632  1.00  0.00     0.013 C 
HETATM   19  C17 UNL     1     -15.771  86.198  15.593  1.00  0.00     0.079 C 
HETATM   20  C18 UNL     1     -16.029  87.460  16.396  1.00  0.00     0.244 C 
HETATM   21  F1  UNL     1     -14.808  88.121  16.517  1.00  0.00    -0.206 F 
HETATM   22  F2  UNL     1     -17.000  88.248  15.858  1.00  0.00    -0.206 F 
HETATM   23  C19 UNL     1     -16.379  86.949  17.784  1.00  0.00     0.086 C 
ENDBRANCH  14  17
ENDBRANCH  13  14
ENDBRANCH  10  13
ENDBRANCH   8  10
BRANCH   9  24
HETATM   24  O5  UNL     1     -12.085  82.067  19.317  1.00  0.00    -0.375 OA
ATOM     25  H5  UNL     1     -13.030  82.059  19.222  1.00  0.00     0.212 HD
ENDBRANCH   9  24
BRANCH   1  26
HETATM   26  C7  UNL     1     -10.160  81.749  15.338  1.00  0.00     0.031 C 
HETATM   27  C6  UNL     1      -8.961  80.866  15.494  1.00  0.00     0.031 C 
HETATM   28  C5  UNL     1      -9.557  79.470  15.477  1.00  0.00     0.007 C 
HETATM   29  C4  UNL     1     -10.605  79.595  14.402  1.00  0.00    -0.009 C 
HETATM   30  C21 UNL     1     -11.269  80.906  14.750  1.00  0.00     0.035 C 
HETATM   31  C8  UNL     1      -9.875  82.939  14.441  1.00  0.00     0.038 C 
BRANCH  29  32
HETATM   32  C2  UNL     1      -9.959  79.686  13.042  1.00  0.00    -0.019 C 
HETATM   33  C1  UNL     1     -10.944  80.207  12.030  1.00  0.00     0.010 C 
HETATM   34  C3  UNL     1      -9.423  78.357  12.597  1.00  0.00     0.010 C 
ENDBRANCH  29  32
ENDBRANCH   1  26
TORSDOF 8
ENDMDL
