MODEL 1
REMARK VINA RESULT: -8.420149500      0.000      0.000
REMARK  9 active torsions:
REMARK  status: ('A' for Active; 'I' for Inactive)
REMARK    1  A    between atoms: C2_2  and  C3_3 
REMARK    2  A    between atoms: C4_4  and  C5_5 
REMARK    3  A    between atoms: C5_5  and  N1_8 
REMARK       I    between atoms: N1_8  and  C8_10 
REMARK    4  A    between atoms: C8_10  and  C9_12 
REMARK    5  A    between atoms: C9_12  and  N2_13 
REMARK    6  A    between atoms: C9_12  and  C18_30 
REMARK       I    between atoms: N2_13  and  C10_15 
REMARK    7  A    between atoms: C10_15  and  C11_17 
REMARK    8  A    between atoms: C11_17  and  N3_19 
REMARK    9  A    between atoms: N3_19  and  C13_21 
ROOT
HETATM    1  C9  UNL     1      -8.746  82.191  21.490  1.00  0.00     0.084 C 
ENDROOT
BRANCH   1   2
HETATM    2  C8  UNL     1      -8.132  80.926  21.096  1.00  0.00     0.265 C 
HETATM    3  N1  UNL     1      -8.216  79.722  21.799  1.00  0.00    -0.337 N 
ATOM      4  H1  UNL     1      -8.753  79.690  22.666  1.00  0.00     0.164 HD
HETATM    5  O1  UNL     1      -7.466  80.946  20.001  1.00  0.00    -0.266 OA
BRANCH   3   6
HETATM    6  C5  UNL     1      -7.554  78.502  21.325  1.00  0.00     0.089 C 
HETATM    7  C6  UNL     1      -6.048  78.633  21.328  1.00  0.00     0.053 C 
HETATM    8  C7  UNL     1      -7.969  78.173  19.899  1.00  0.00     0.053 C 
BRANCH   6   9
HETATM    9  C4  UNL     1      -7.954  77.439  22.248  1.00  0.00    -0.076 C 
HETATM   10  C3  UNL     1      -8.297  76.578  23.018  1.00  0.00    -0.104 C 
BRANCH  10  11
HETATM   11  C2  UNL     1      -8.719  75.534  23.985  1.00  0.00     0.089 C 
HETATM   12  C1  UNL     1      -8.052  75.791  25.339  1.00  0.00     0.018 C 
ENDBRANCH  10  11
ENDBRANCH   6   9
ENDBRANCH   3   6
ENDBRANCH   1   2
BRANCH   1  13
HETATM   13  N2  UNL     1     -10.179  82.252  21.319  1.00  0.00    -0.324 N 
HETATM   14  C10 UNL     1     -10.859  82.666  20.163  1.00  0.00     0.244 C 
HETATM   15  O2  UNL     1     -10.226  83.027  19.154  1.00  0.00    -0.271 OA
ATOM     16  H2  UNL     1     -10.751  81.967  22.115  1.00  0.00     0.169 HD
BRANCH  14  17
HETATM   17  C11 UNL     1     -12.337  82.674  20.133  1.00  0.00     0.171 C 
HETATM   18  C12 UNL     1     -12.908  81.509  20.916  1.00  0.00     0.042 C 
BRANCH  17  19
HETATM   19  N3  UNL     1     -12.859  83.923  20.642  1.00  0.00    -0.362 N 
ATOM     20  H3  UNL     1     -12.897  84.094  21.647  1.00  0.00     0.162 HD
BRANCH  19  21
HETATM   21  C13 UNL     1     -13.275  84.813  19.817  1.00  0.00     0.123 A 
HETATM   22  N4  UNL     1     -14.380  84.702  19.061  1.00  0.00    -0.350 N 
HETATM   23  C14 UNL     1     -14.786  85.655  18.205  1.00  0.00     0.113 A 
ATOM     24  H4  UNL     1     -14.939  83.853  19.141  1.00  0.00     0.166 HD
HETATM   25  C15 UNL     1     -14.074  86.834  18.051  1.00  0.00     0.051 A 
HETATM   26 CL1  UNL     1     -14.636  88.055  16.925  1.00  0.00    -0.083 Cl
HETATM   27  C16 UNL     1     -12.934  86.986  18.810  1.00  0.00     0.053 A 
HETATM   28  C17 UNL     1     -12.548  85.998  19.671  1.00  0.00     0.079 A 
HETATM   29 CL2  UNL     1     -11.092  86.247  20.608  1.00  0.00    -0.080 Cl
ENDBRANCH  19  21
ENDBRANCH  17  19
ENDBRANCH  14  17
ENDBRANCH   1  13
BRANCH   1  30
HETATM   30  C18 UNL     1      -8.298  82.818  22.751  1.00  0.00     0.045 C 
HETATM   31  C19 UNL     1      -9.169  84.098  22.936  1.00  0.00     0.037 C 
HETATM   32  C20 UNL     1      -8.620  84.799  24.180  1.00  0.00     0.168 C 
HETATM   33  O3  UNL     1      -7.334  85.228  23.952  1.00  0.00    -0.391 OA
HETATM   34  C21 UNL     1      -6.444  84.174  23.737  1.00  0.00     0.168 C 
HETATM   35  C22 UNL     1      -6.869  83.331  22.552  1.00  0.00     0.037 C 
ENDBRANCH   1  30
TORSDOF 9
ENDMDL
MODEL 2
REMARK VINA RESULT: -8.250720522      1.503      1.656
REMARK  9 active torsions:
REMARK  status: ('A' for Active; 'I' for Inactive)
REMARK    1  A    between atoms: C2_2  and  C3_3 
REMARK    2  A    between atoms: C4_4  and  C5_5 
REMARK    3  A    between atoms: C5_5  and  N1_8 
REMARK       I    between atoms: N1_8  and  C8_10 
REMARK    4  A    between atoms: C8_10  and  C9_12 
REMARK    5  A    between atoms: C9_12  and  N2_13 
REMARK    6  A    between atoms: C9_12  and  C18_30 
REMARK       I    between atoms: N2_13  and  C10_15 
REMARK    7  A    between atoms: C10_15  and  C11_17 
REMARK    8  A    between atoms: C11_17  and  N3_19 
REMARK    9  A    between atoms: N3_19  and  C13_21 
ROOT
HETATM    1  C9  UNL     1      -8.335  82.225  21.377  1.00  0.00     0.084 C 
ENDROOT
BRANCH   1   2
HETATM    2  C8  UNL     1      -7.756  80.922  21.061  1.00  0.00     0.265 C 
HETATM    3  N1  UNL     1      -8.083  79.711  21.675  1.00  0.00    -0.337 N 
ATOM      4  H1  UNL     1      -8.790  79.703  22.410  1.00  0.00     0.164 HD
HETATM    5  O1  UNL     1      -6.875  80.914  20.130  1.00  0.00    -0.266 OA
BRANCH   3   6
HETATM    6  C5  UNL     1      -7.436  78.451  21.293  1.00  0.00     0.089 C 
HETATM    7  C6  UNL     1      -5.928  78.542  21.359  1.00  0.00     0.053 C 
HETATM    8  C7  UNL     1      -7.797  78.062  19.867  1.00  0.00     0.053 C 
BRANCH   6   9
HETATM    9  C4  UNL     1      -7.908  77.448  22.248  1.00  0.00    -0.076 C 
HETATM   10  C3  UNL     1      -8.297  76.606  23.019  1.00  0.00    -0.104 C 
BRANCH  10  11
HETATM   11  C2  UNL     1      -8.788  75.561  23.949  1.00  0.00     0.089 C 
HETATM   12  C1  UNL     1      -8.124  75.740  25.318  1.00  0.00     0.018 C 
ENDBRANCH  10  11
ENDBRANCH   6   9
ENDBRANCH   3   6
ENDBRANCH   1   2
BRANCH   1  13
HETATM   13  N2  UNL     1      -9.680  82.429  20.889  1.00  0.00    -0.324 N 
HETATM   14  C10 UNL     1     -10.036  82.903  19.616  1.00  0.00     0.244 C 
HETATM   15  O2  UNL     1      -9.158  83.192  18.783  1.00  0.00    -0.271 OA
ATOM     16  H2  UNL     1     -10.442  82.208  21.530  1.00  0.00     0.169 HD
BRANCH  14  17
HETATM   17  C11 UNL     1     -11.459  83.060  19.253  1.00  0.00     0.171 C 
HETATM   18  C12 UNL     1     -12.360  82.800  20.444  1.00  0.00     0.042 C 
BRANCH  17  19
HETATM   19  N3  UNL     1     -11.715  84.376  18.711  1.00  0.00    -0.362 N 
ATOM     20  H3  UNL     1     -11.207  85.187  19.065  1.00  0.00     0.162 HD
BRANCH  19  21
HETATM   21  C13 UNL     1     -12.588  84.513  17.780  1.00  0.00     0.123 A 
HETATM   22  N4  UNL     1     -12.544  83.892  16.590  1.00  0.00    -0.350 N 
HETATM   23  C14 UNL     1     -13.476  84.059  15.637  1.00  0.00     0.113 A 
ATOM     24  H4  UNL     1     -11.765  83.261  16.401  1.00  0.00     0.166 HD
HETATM   25  C15 UNL     1     -14.560  84.899  15.831  1.00  0.00     0.051 A 
HETATM   26 CL1  UNL     1     -15.757  85.092  14.564  1.00  0.00    -0.083 Cl
HETATM   27  C16 UNL     1     -14.641  85.555  17.040  1.00  0.00     0.053 A 
HETATM   28  C17 UNL     1     -13.678  85.364  17.989  1.00  0.00     0.079 A 
HETATM   29 CL2  UNL     1     -13.833  86.224  19.504  1.00  0.00    -0.080 Cl
ENDBRANCH  19  21
ENDBRANCH  17  19
ENDBRANCH  14  17
ENDBRANCH   1  13
BRANCH   1  30
HETATM   30  C18 UNL     1      -8.141  82.760  22.741  1.00  0.00     0.045 C 
HETATM   31  C19 UNL     1      -9.178  83.911  22.912  1.00  0.00     0.037 C 
HETATM   32  C20 UNL     1      -8.891  84.532  24.280  1.00  0.00     0.168 C 
HETATM   33  O3  UNL     1      -7.648  85.119  24.281  1.00  0.00    -0.391 OA
HETATM   34  C21 UNL     1      -6.615  84.196  24.105  1.00  0.00     0.168 C 
HETATM   35  C22 UNL     1      -6.771  83.442  22.800  1.00  0.00     0.037 C 
ENDBRANCH   1  30
TORSDOF 9
ENDMDL
MODEL 3
REMARK VINA RESULT: -7.950189247      1.758      2.017
REMARK  9 active torsions:
REMARK  status: ('A' for Active; 'I' for Inactive)
REMARK    1  A    between atoms: C2_2  and  C3_3 
REMARK    2  A    between atoms: C4_4  and  C5_5 
REMARK    3  A    between atoms: C5_5  and  N1_8 
REMARK       I    between atoms: N1_8  and  C8_10 
REMARK    4  A    between atoms: C8_10  and  C9_12 
REMARK    5  A    between atoms: C9_12  and  N2_13 
REMARK    6  A    between atoms: C9_12  and  C18_30 
REMARK       I    between atoms: N2_13  and  C10_15 
REMARK    7  A    between atoms: C10_15  and  C11_17 
REMARK    8  A    between atoms: C11_17  and  N3_19 
REMARK    9  A    between atoms: N3_19  and  C13_21 
ROOT
HETATM    1  C9  UNL     1      -8.349  81.953  20.601  1.00  0.00     0.084 C 
ENDROOT
BRANCH   1   2
HETATM    2  C8  UNL     1      -7.680  80.655  20.564  1.00  0.00     0.265 C 
HETATM    3  N1  UNL     1      -8.028  79.534  21.321  1.00  0.00    -0.337 N 
ATOM      4  H1  UNL     1      -8.821  79.594  21.961  1.00  0.00     0.164 HD
HETATM    5  O1  UNL     1      -6.692  80.560  19.755  1.00  0.00    -0.266 OA
BRANCH   3   6
HETATM    6  C5  UNL     1      -7.286  78.273  21.221  1.00  0.00     0.089 C 
HETATM    7  C6  UNL     1      -5.801  78.468  21.422  1.00  0.00     0.053 C 
HETATM    8  C7  UNL     1      -7.470  77.638  19.850  1.00  0.00     0.053 C 
BRANCH   6   9
HETATM    9  C4  UNL     1      -7.814  77.408  22.276  1.00  0.00    -0.076 C 
HETATM   10  C3  UNL     1      -8.259  76.711  23.154  1.00  0.00    -0.104 C 
BRANCH  10  11
HETATM   11  C2  UNL     1      -8.806  75.874  24.249  1.00  0.00     0.089 C 
HETATM   12  C1  UNL     1      -7.853  75.911  25.448  1.00  0.00     0.018 C 
ENDBRANCH  10  11
ENDBRANCH   6   9
ENDBRANCH   3   6
ENDBRANCH   1   2
BRANCH   1  13
HETATM   13  N2  UNL     1      -9.418  82.115  19.641  1.00  0.00    -0.324 N 
HETATM   14  C10 UNL     1      -9.288  82.603  18.331  1.00  0.00     0.244 C 
HETATM   15  O2  UNL     1      -8.175  82.946  17.894  1.00  0.00    -0.271 OA
ATOM     16  H2  UNL     1     -10.355  81.849  19.944  1.00  0.00     0.169 HD
BRANCH  14  17
HETATM   17  C11 UNL     1     -10.475  82.712  17.458  1.00  0.00     0.171 C 
HETATM   18  C12 UNL     1     -10.493  81.611  16.416  1.00  0.00     0.042 C 
BRANCH  17  19
HETATM   19  N3  UNL     1     -11.695  82.685  18.234  1.00  0.00    -0.362 N 
ATOM     20  H3  UNL     1     -12.122  81.796  18.493  1.00  0.00     0.162 HD
BRANCH  19  21
HETATM   21  C13 UNL     1     -12.235  83.793  18.594  1.00  0.00     0.123 A 
HETATM   22  N4  UNL     1     -12.313  84.893  17.827  1.00  0.00    -0.350 N 
HETATM   23  C14 UNL     1     -12.885  86.037  18.237  1.00  0.00     0.113 A 
ATOM     24  H4  UNL     1     -11.918  84.858  16.887  1.00  0.00     0.166 HD
HETATM   25  C15 UNL     1     -13.442  86.151  19.500  1.00  0.00     0.051 A 
HETATM   26 CL1  UNL     1     -14.181  87.660  20.000  1.00  0.00    -0.083 Cl
HETATM   27  C16 UNL     1     -13.382  85.043  20.318  1.00  0.00     0.053 A 
HETATM   28  C17 UNL     1     -12.793  83.894  19.871  1.00  0.00     0.079 A 
HETATM   29 CL2  UNL     1     -12.747  82.520  20.953  1.00  0.00    -0.080 Cl
ENDBRANCH  19  21
ENDBRANCH  17  19
ENDBRANCH  14  17
ENDBRANCH   1  13
BRANCH   1  30
HETATM   30  C18 UNL     1      -8.683  82.526  21.921  1.00  0.00     0.045 C 
HETATM   31  C19 UNL     1      -9.204  83.971  21.652  1.00  0.00     0.037 C 
HETATM   32  C20 UNL     1      -9.436  84.594  23.030  1.00  0.00     0.168 C 
HETATM   33  O3  UNL     1      -8.240  84.726  23.695  1.00  0.00    -0.391 OA
HETATM   34  C21 UNL     1      -7.641  83.496  23.976  1.00  0.00     0.168 C 
HETATM   35  C22 UNL     1      -7.382  82.710  22.707  1.00  0.00     0.037 C 
ENDBRANCH   1  30
TORSDOF 9
ENDMDL
MODEL 4
REMARK VINA RESULT: -7.923966875      2.867      4.685
REMARK  9 active torsions:
REMARK  status: ('A' for Active; 'I' for Inactive)
REMARK    1  A    between atoms: C2_2  and  C3_3 
REMARK    2  A    between atoms: C4_4  and  C5_5 
REMARK    3  A    between atoms: C5_5  and  N1_8 
REMARK       I    between atoms: N1_8  and  C8_10 
REMARK    4  A    between atoms: C8_10  and  C9_12 
REMARK    5  A    between atoms: C9_12  and  N2_13 
REMARK    6  A    between atoms: C9_12  and  C18_30 
REMARK       I    between atoms: N2_13  and  C10_15 
REMARK    7  A    between atoms: C10_15  and  C11_17 
REMARK    8  A    between atoms: C11_17  and  N3_19 
REMARK    9  A    between atoms: N3_19  and  C13_21 
ROOT
HETATM    1  C9  UNL     1      -9.550  80.258  18.103  1.00  0.00     0.084 C 
ENDROOT
BRANCH   1   2
HETATM    2  C8  UNL     1      -8.427  79.751  18.887  1.00  0.00     0.265 C 
HETATM    3  N1  UNL     1      -8.517  78.885  19.981  1.00  0.00    -0.337 N 
ATOM      4  H1  UNL     1      -9.435  78.555  20.277  1.00  0.00     0.164 HD
HETATM    5  O1  UNL     1      -7.265  80.146  18.518  1.00  0.00    -0.266 OA
BRANCH   3   6
HETATM    6  C5  UNL     1      -7.327  78.439  20.712  1.00  0.00     0.089 C 
HETATM    7  C6  UNL     1      -6.507  79.599  21.230  1.00  0.00     0.053 C 
HETATM    8  C7  UNL     1      -6.414  77.612  19.819  1.00  0.00     0.053 C 
BRANCH   6   9
HETATM    9  C4  UNL     1      -7.819  77.646  21.839  1.00  0.00    -0.076 C 
HETATM   10  C3  UNL     1      -8.205  76.983  22.769  1.00  0.00    -0.104 C 
BRANCH  10  11
HETATM   11  C2  UNL     1      -8.668  76.148  23.905  1.00  0.00     0.089 C 
HETATM   12  C1  UNL     1      -7.667  76.255  25.060  1.00  0.00     0.018 C 
ENDBRANCH  10  11
ENDBRANCH   6   9
ENDBRANCH   3   6
ENDBRANCH   1   2
BRANCH   1  13
HETATM   13  N2  UNL     1     -10.064  81.538  18.532  1.00  0.00    -0.324 N 
HETATM   14  C10 UNL     1     -10.862  81.773  19.663  1.00  0.00     0.244 C 
HETATM   15  O2  UNL     1     -11.193  80.832  20.407  1.00  0.00    -0.271 OA
ATOM     16  H2  UNL     1      -9.825  82.348  17.959  1.00  0.00     0.169 HD
BRANCH  14  17
HETATM   17  C11 UNL     1     -11.316  83.143  19.981  1.00  0.00     0.171 C 
HETATM   18  C12 UNL     1     -10.433  83.782  21.034  1.00  0.00     0.042 C 
BRANCH  17  19
HETATM   19  N3  UNL     1     -11.354  83.966  18.793  1.00  0.00    -0.362 N 
ATOM     20  H3  UNL     1     -10.499  84.156  18.270  1.00  0.00     0.162 HD
BRANCH  19  21
HETATM   21  C13 UNL     1     -12.475  84.455  18.403  1.00  0.00     0.123 A 
HETATM   22  N4  UNL     1     -13.514  84.731  19.209  1.00  0.00    -0.350 N 
HETATM   23  C14 UNL     1     -14.674  85.242  18.766  1.00  0.00     0.113 A 
ATOM     24  H4  UNL     1     -13.416  84.543  20.206  1.00  0.00     0.166 HD
HETATM   25  C15 UNL     1     -14.870  85.523  17.424  1.00  0.00     0.051 A 
HETATM   26 CL1  UNL     1     -16.399  86.191  16.883  1.00  0.00    -0.083 Cl
HETATM   27  C16 UNL     1     -13.827  85.254  16.564  1.00  0.00     0.053 A 
HETATM   28  C17 UNL     1     -12.660  84.734  17.045  1.00  0.00     0.079 A 
HETATM   29 CL2  UNL     1     -11.372  84.413  15.907  1.00  0.00    -0.080 Cl
ENDBRANCH  19  21
ENDBRANCH  17  19
ENDBRANCH  14  17
ENDBRANCH   1  13
BRANCH   1  30
HETATM   30  C18 UNL     1      -9.479  80.141  16.631  1.00  0.00     0.045 C 
HETATM   31  C19 UNL     1     -10.729  80.885  16.073  1.00  0.00     0.037 C 
HETATM   32  C20 UNL     1     -10.708  80.659  14.560  1.00  0.00     0.168 C 
HETATM   33  O3  UNL     1     -10.887  79.325  14.279  1.00  0.00    -0.391 OA
HETATM   34  C21 UNL     1      -9.842  78.529  14.756  1.00  0.00     0.168 C 
HETATM   35  C22 UNL     1      -9.686  78.671  16.256  1.00  0.00     0.037 C 
ENDBRANCH   1  30
TORSDOF 9
ENDMDL
MODEL 5
REMARK VINA RESULT: -7.915623537      2.824      3.160
REMARK  9 active torsions:
REMARK  status: ('A' for Active; 'I' for Inactive)
REMARK    1  A    between atoms: C2_2  and  C3_3 
REMARK    2  A    between atoms: C4_4  and  C5_5 
REMARK    3  A    between atoms: C5_5  and  N1_8 
REMARK       I    between atoms: N1_8  and  C8_10 
REMARK    4  A    between atoms: C8_10  and  C9_12 
REMARK    5  A    between atoms: C9_12  and  N2_13 
REMARK    6  A    between atoms: C9_12  and  C18_30 
REMARK       I    between atoms: N2_13  and  C10_15 
REMARK    7  A    between atoms: C10_15  and  C11_17 
REMARK    8  A    between atoms: C11_17  and  N3_19 
REMARK    9  A    between atoms: N3_19  and  C13_21 
ROOT
HETATM    1  C9  UNL     1      -8.265  82.337  21.170  1.00  0.00     0.084 C 
ENDROOT
BRANCH   1   2
HETATM    2  C8  UNL     1      -7.767  81.000  20.858  1.00  0.00     0.265 C 
HETATM    3  N1  UNL     1      -7.986  79.847  21.618  1.00  0.00    -0.337 N 
ATOM      4  H1  UNL     1      -8.546  79.913  22.468  1.00  0.00     0.164 HD
HETATM    5  O1  UNL     1      -7.074  80.899  19.785  1.00  0.00    -0.266 OA
BRANCH   3   6
HETATM    6  C5  UNL     1      -7.435  78.547  21.225  1.00  0.00     0.089 C 
HETATM    7  C6  UNL     1      -5.923  78.552  21.204  1.00  0.00     0.053 C 
HETATM    8  C7  UNL     1      -7.897  78.155  19.829  1.00  0.00     0.053 C 
BRANCH   6   9
HETATM    9  C4  UNL     1      -7.907  77.588  22.224  1.00  0.00    -0.076 C 
HETATM   10  C3  UNL     1      -8.288  76.810  23.063  1.00  0.00    -0.104 C 
BRANCH  10  11
HETATM   11  C2  UNL     1      -8.735  75.857  24.108  1.00  0.00     0.089 C 
HETATM   12  C1  UNL     1      -7.843  75.997  25.345  1.00  0.00     0.018 C 
ENDBRANCH  10  11
ENDBRANCH   6   9
ENDBRANCH   3   6
ENDBRANCH   1   2
BRANCH   1  13
HETATM   13  N2  UNL     1      -9.451  82.730  20.445  1.00  0.00    -0.324 N 
HETATM   14  C10 UNL     1     -10.504  81.885  20.059  1.00  0.00     0.244 C 
HETATM   15  O2  UNL     1     -10.473  80.673  20.337  1.00  0.00    -0.271 OA
ATOM     16  H2  UNL     1      -9.532  83.715  20.190  1.00  0.00     0.169 HD
BRANCH  14  17
HETATM   17  C11 UNL     1     -11.661  82.430  19.319  1.00  0.00     0.171 C 
HETATM   18  C12 UNL     1     -12.517  83.308  20.210  1.00  0.00     0.042 C 
BRANCH  17  19
HETATM   19  N3  UNL     1     -11.230  83.170  18.154  1.00  0.00    -0.362 N 
ATOM     20  H3  UNL     1     -10.799  84.089  18.256  1.00  0.00     0.162 HD
BRANCH  19  21
HETATM   21  C13 UNL     1     -11.396  82.659  16.988  1.00  0.00     0.123 A 
HETATM   22  N4  UNL     1     -10.951  81.449  16.611  1.00  0.00    -0.350 N 
HETATM   23  C14 UNL     1     -11.142  80.945  15.381  1.00  0.00     0.113 A 
ATOM     24  H4  UNL     1     -10.443  80.885  17.292  1.00  0.00     0.166 HD
HETATM   25  C15 UNL     1     -11.826  81.657  14.410  1.00  0.00     0.051 A 
HETATM   26 CL1  UNL     1     -12.057  80.966  12.815  1.00  0.00    -0.083 Cl
HETATM   27  C16 UNL     1     -12.299  82.904  14.758  1.00  0.00     0.053 A 
HETATM   28  C17 UNL     1     -12.088  83.388  16.017  1.00  0.00     0.079 A 
HETATM   29 CL2  UNL     1     -12.712  84.977  16.402  1.00  0.00    -0.080 Cl
ENDBRANCH  19  21
ENDBRANCH  17  19
ENDBRANCH  14  17
ENDBRANCH   1  13
BRANCH   1  30
HETATM   30  C18 UNL     1      -8.305  82.751  22.589  1.00  0.00     0.045 C 
HETATM   31  C19 UNL     1      -9.152  84.058  22.639  1.00  0.00     0.037 C 
HETATM   32  C20 UNL     1      -9.090  84.540  24.090  1.00  0.00     0.168 C 
HETATM   33  O3  UNL     1      -7.802  84.893  24.415  1.00  0.00    -0.391 OA
HETATM   34  C21 UNL     1      -6.920  83.811  24.380  1.00  0.00     0.168 C 
HETATM   35  C22 UNL     1      -6.893  83.171  23.007  1.00  0.00     0.037 C 
ENDBRANCH   1  30
TORSDOF 9
ENDMDL
