MODEL 1
REMARK VINA RESULT: -6.443999788      0.000      0.000
REMARK  4 active torsions:
REMARK  status: ('A' for Active; 'I' for Inactive)
REMARK    1  A    between atoms: C2_2  and  C3_3 
REMARK    2  A    between atoms: C8_14  and  N3_15 
REMARK    3  A    between atoms: N3_15  and  C9_17 
REMARK    4  A    between atoms: C9_17  and  C11_19 
ROOT
HETATM    1  C3  UNL     1      -2.125   2.301  85.953  1.00  0.00     0.011 A 
HETATM    2  C4  UNL     1      -2.417   3.646  85.904  1.00  0.00     0.046 A 
HETATM    3  C5  UNL     1      -2.002   4.410  84.798  1.00  0.00     0.040 A 
HETATM    4  S1  UNL     1      -2.160   6.057  84.365  1.00  0.00    -0.052 SA
HETATM    5  C6  UNL     1      -1.347   6.002  82.878  1.00  0.00     0.143 A 
HETATM    6  N1  UNL     1      -1.106   6.963  82.006  1.00  0.00    -0.380 N 
ATOM      7  H11 UNL     1      -0.617   6.929  81.112  1.00  0.00     0.158 HD
ATOM      8  H12 UNL     1      -1.382   7.941  82.089  1.00  0.00     0.158 HD
HETATM    9  N2  UNL     1      -0.986   4.723  82.770  1.00  0.00    -0.333 N 
ATOM     10  H2  UNL     1      -0.470   4.396  81.953  1.00  0.00     0.168 HD
HETATM   11  C7  UNL     1      -1.310   3.886  83.741  1.00  0.00     0.096 A 
HETATM   12  C8  UNL     1      -1.027   2.494  83.827  1.00  0.00     0.130 A 
HETATM   13  N4  UNL     1      -1.449   1.797  84.919  1.00  0.00    -0.344 N 
ATOM     14  H4  UNL     1      -1.229   0.801  84.948  1.00  0.00     0.167 HD
ENDROOT
BRANCH  12  15
HETATM   15  N3  UNL     1      -0.411   1.828  82.975  1.00  0.00    -0.369 N 
ATOM     16  H3  UNL     1       0.552   1.799  83.310  1.00  0.00     0.161 HD
BRANCH  15  17
HETATM   17  C9  UNL     1      -0.400   1.128  81.825  1.00  0.00     0.089 C 
HETATM   18  C10 UNL     1      -0.860  -0.320  81.883  1.00  0.00     0.033 C 
BRANCH  17  19
HETATM   19  C11 UNL     1       1.052   1.026  81.270  1.00  0.00     0.110 C 
HETATM   20 BR1  UNL     1       1.812   2.785  81.114  1.00  0.00    -0.094 Br
ENDBRANCH  17  19
ENDBRANCH  15  17
ENDBRANCH  12  15
BRANCH   1  21
HETATM   21  C2  UNL     1      -2.552   1.477  87.109  1.00  0.00     0.052 C 
HETATM   22  C1  UNL     1      -4.018   1.727  87.418  1.00  0.00     0.011 C 
ENDBRANCH   1  21
TORSDOF 4
ENDMDL
MODEL 2
REMARK VINA RESULT: -6.299904891      1.411      4.065
REMARK  4 active torsions:
REMARK  status: ('A' for Active; 'I' for Inactive)
REMARK    1  A    between atoms: C2_2  and  C3_3 
REMARK    2  A    between atoms: C8_14  and  N3_15 
REMARK    3  A    between atoms: N3_15  and  C9_17 
REMARK    4  A    between atoms: C9_17  and  C11_19 
ROOT
HETATM    1  C3  UNL     1      -1.669   5.353  83.697  1.00  0.00     0.011 A 
HETATM    2  C4  UNL     1      -2.283   5.151  84.913  1.00  0.00     0.046 A 
HETATM    3  C5  UNL     1      -2.260   3.875  85.503  1.00  0.00     0.040 A 
HETATM    4  S1  UNL     1      -2.882   3.227  86.959  1.00  0.00    -0.052 SA
HETATM    5  C6  UNL     1      -2.343   1.631  86.771  1.00  0.00     0.143 A 
HETATM    6  N1  UNL     1      -2.493   0.585  87.562  1.00  0.00    -0.380 N 
ATOM      7  H11 UNL     1      -2.168  -0.375  87.449  1.00  0.00     0.158 HD
ATOM      8  H12 UNL     1      -2.980   0.566  88.458  1.00  0.00     0.158 HD
HETATM    9  N2  UNL     1      -1.706   1.655  85.599  1.00  0.00    -0.333 N 
ATOM     10  H2  UNL     1      -1.270   0.811  85.227  1.00  0.00     0.168 HD
HETATM   11  C7  UNL     1      -1.649   2.793  84.930  1.00  0.00     0.096 A 
HETATM   12  C8  UNL     1      -1.026   3.040  83.674  1.00  0.00     0.130 A 
HETATM   13  N4  UNL     1      -1.076   4.294  83.143  1.00  0.00    -0.344 N 
ATOM     14  H4  UNL     1      -0.620   4.435  82.242  1.00  0.00     0.167 HD
ENDROOT
BRANCH  12  15
HETATM   15  N3  UNL     1      -0.420   2.195  82.991  1.00  0.00    -0.369 N 
ATOM     16  H3  UNL     1       0.485   2.086  83.450  1.00  0.00     0.161 HD
BRANCH  15  17
HETATM   17  C9  UNL     1      -0.379   1.355  81.939  1.00  0.00     0.089 C 
HETATM   18  C10 UNL     1      -0.851  -0.072  82.166  1.00  0.00     0.033 C 
BRANCH  17  19
HETATM   19  C11 UNL     1       1.088   1.178  81.447  1.00  0.00     0.110 C 
HETATM   20 BR1  UNL     1       1.812   2.886  80.940  1.00  0.00    -0.094 Br
ENDBRANCH  17  19
ENDBRANCH  15  17
ENDBRANCH  12  15
BRANCH   1  21
HETATM   21  C2  UNL     1      -1.682   6.690  83.056  1.00  0.00     0.052 C 
HETATM   22  C1  UNL     1      -0.334   7.367  83.231  1.00  0.00     0.011 C 
ENDBRANCH   1  21
TORSDOF 4
ENDMDL
MODEL 3
REMARK VINA RESULT: -6.261930341      1.281      1.484
REMARK  4 active torsions:
REMARK  status: ('A' for Active; 'I' for Inactive)
REMARK    1  A    between atoms: C2_2  and  C3_3 
REMARK    2  A    between atoms: C8_14  and  N3_15 
REMARK    3  A    between atoms: N3_15  and  C9_17 
REMARK    4  A    between atoms: C9_17  and  C11_19 
ROOT
HETATM    1  C3  UNL     1      -2.391   2.493  86.270  1.00  0.00     0.011 A 
HETATM    2  C4  UNL     1      -2.716   3.827  86.163  1.00  0.00     0.046 A 
HETATM    3  C5  UNL     1      -2.298   4.559  85.037  1.00  0.00     0.040 A 
HETATM    4  S1  UNL     1      -2.488   6.183  84.537  1.00  0.00    -0.052 SA
HETATM    5  C6  UNL     1      -1.643   6.093  83.070  1.00  0.00     0.143 A 
HETATM    6  N1  UNL     1      -1.408   7.026  82.167  1.00  0.00    -0.380 N 
ATOM      7  H11 UNL     1      -0.900   6.971  81.284  1.00  0.00     0.158 HD
ATOM      8  H12 UNL     1      -1.711   7.999  82.206  1.00  0.00     0.158 HD
HETATM    9  N2  UNL     1      -1.247   4.820  83.018  1.00  0.00    -0.333 N 
ATOM     10  H2  UNL     1      -0.706   4.476  82.225  1.00  0.00     0.168 HD
HETATM   11  C7  UNL     1      -1.570   4.013  84.015  1.00  0.00     0.096 A 
HETATM   12  C8  UNL     1      -1.253   2.633  84.160  1.00  0.00     0.130 A 
HETATM   13  N4  UNL     1      -1.681   1.968  85.270  1.00  0.00    -0.344 N 
ATOM     14  H4  UNL     1      -1.436   0.980  85.342  1.00  0.00     0.167 HD
ENDROOT
BRANCH  12  15
HETATM   15  N3  UNL     1      -0.603   1.952  83.347  1.00  0.00    -0.369 N 
ATOM     16  H3  UNL     1       0.339   1.906  83.738  1.00  0.00     0.161 HD
BRANCH  15  17
HETATM   17  C9  UNL     1      -0.540   1.247  82.201  1.00  0.00     0.089 C 
HETATM   18  C10 UNL     1      -1.470   1.660  81.073  1.00  0.00     0.033 C 
BRANCH  17  19
HETATM   19  C11 UNL     1      -0.924  -0.240  82.463  1.00  0.00     0.110 C 
HETATM   20 BR1  UNL     1       0.267  -1.398  81.494  1.00  0.00    -0.094 Br
ENDBRANCH  17  19
ENDBRANCH  15  17
ENDBRANCH  12  15
BRANCH   1  21
HETATM   21  C2  UNL     1      -2.820   1.703  87.448  1.00  0.00     0.052 C 
HETATM   22  C1  UNL     1      -3.034   2.617  88.642  1.00  0.00     0.011 C 
ENDBRANCH   1  21
TORSDOF 4
ENDMDL
MODEL 4
REMARK VINA RESULT: -6.255848153      1.865      4.305
REMARK  4 active torsions:
REMARK  status: ('A' for Active; 'I' for Inactive)
REMARK    1  A    between atoms: C2_2  and  C3_3 
REMARK    2  A    between atoms: C8_14  and  N3_15 
REMARK    3  A    between atoms: N3_15  and  C9_17 
REMARK    4  A    between atoms: C9_17  and  C11_19 
ROOT
HETATM    1  C3  UNL     1      -1.878   5.351  83.929  1.00  0.00     0.011 A 
HETATM    2  C4  UNL     1      -2.493   5.130  85.141  1.00  0.00     0.046 A 
HETATM    3  C5  UNL     1      -2.450   3.850  85.722  1.00  0.00     0.040 A 
HETATM    4  S1  UNL     1      -3.067   3.180  87.169  1.00  0.00    -0.052 SA
HETATM    5  C6  UNL     1      -2.499   1.595  86.972  1.00  0.00     0.143 A 
HETATM    6  N1  UNL     1      -2.634   0.541  87.754  1.00  0.00    -0.380 N 
ATOM      7  H11 UNL     1      -2.292  -0.412  87.635  1.00  0.00     0.158 HD
ATOM      8  H12 UNL     1      -3.124   0.507  88.648  1.00  0.00     0.158 HD
HETATM    9  N2  UNL     1      -1.857   1.639  85.803  1.00  0.00    -0.333 N 
ATOM     10  H2  UNL     1      -1.405   0.806  85.427  1.00  0.00     0.168 HD
HETATM   11  C7  UNL     1      -1.818   2.784  85.143  1.00  0.00     0.096 A 
HETATM   12  C8  UNL     1      -1.193   3.050  83.892  1.00  0.00     0.130 A 
HETATM   13  N4  UNL     1      -1.263   4.307  83.369  1.00  0.00    -0.344 N 
ATOM     14  H4  UNL     1      -0.806   4.463  82.471  1.00  0.00     0.167 HD
ENDROOT
BRANCH  12  15
HETATM   15  N3  UNL     1      -0.570   2.222  83.205  1.00  0.00    -0.369 N 
ATOM     16  H3  UNL     1       0.322   2.099  83.686  1.00  0.00     0.161 HD
BRANCH  15  17
HETATM   17  C9  UNL     1      -0.501   1.408  82.134  1.00  0.00     0.089 C 
HETATM   18  C10 UNL     1      -1.447   1.691  80.979  1.00  0.00     0.033 C 
BRANCH  17  19
HETATM   19  C11 UNL     1      -0.855  -0.053  82.544  1.00  0.00     0.110 C 
HETATM   20 BR1  UNL     1       0.227  -1.288  81.544  1.00  0.00    -0.094 Br
ENDBRANCH  17  19
ENDBRANCH  15  17
ENDBRANCH  12  15
BRANCH   1  21
HETATM   21  C2  UNL     1      -1.911   6.693  83.298  1.00  0.00     0.052 C 
HETATM   22  C1  UNL     1      -0.501   7.239  83.156  1.00  0.00     0.011 C 
ENDBRANCH   1  21
TORSDOF 4
ENDMDL
MODEL 5
REMARK VINA RESULT: -6.161783669      2.822      4.841
REMARK  4 active torsions:
REMARK  status: ('A' for Active; 'I' for Inactive)
REMARK    1  A    between atoms: C2_2  and  C3_3 
REMARK    2  A    between atoms: C8_14  and  N3_15 
REMARK    3  A    between atoms: N3_15  and  C9_17 
REMARK    4  A    between atoms: C9_17  and  C11_19 
ROOT
HETATM    1  C3  UNL     1      -0.623   0.734  82.134  1.00  0.00     0.011 A 
HETATM    2  C4  UNL     1       0.268   1.393  81.317  1.00  0.00     0.046 A 
HETATM    3  C5  UNL     1       0.549   2.752  81.545  1.00  0.00     0.040 A 
HETATM    4  S1  UNL     1       1.563   3.900  80.784  1.00  0.00    -0.052 SA
HETATM    5  C6  UNL     1       1.217   5.232  81.774  1.00  0.00     0.143 A 
HETATM    6  N1  UNL     1       1.680   6.467  81.728  1.00  0.00    -0.380 N 
ATOM      7  H11 UNL     1       1.472   7.268  82.323  1.00  0.00     0.158 HD
ATOM      8  H12 UNL     1       2.353   6.839  81.057  1.00  0.00     0.158 HD
HETATM    9  N2  UNL     1       0.338   4.746  82.651  1.00  0.00    -0.333 N 
ATOM     10  H2  UNL     1      -0.050   5.342  83.382  1.00  0.00     0.168 HD
HETATM   11  C7  UNL     1      -0.022   3.478  82.555  1.00  0.00     0.096 A 
HETATM   12  C8  UNL     1      -0.936   2.763  83.378  1.00  0.00     0.130 A 
HETATM   13  N4  UNL     1      -1.176   1.447  83.117  1.00  0.00    -0.344 N 
ATOM     14  H4  UNL     1      -1.837   0.966  83.726  1.00  0.00     0.167 HD
ENDROOT
BRANCH  12  15
HETATM   15  N3  UNL     1      -1.559   3.236  84.346  1.00  0.00    -0.369 N 
ATOM     16  H3  UNL     1      -2.368   3.703  83.934  1.00  0.00     0.161 HD
BRANCH  15  17
HETATM   17  C9  UNL     1      -1.683   3.431  85.673  1.00  0.00     0.089 C 
HETATM   18  C10 UNL     1      -1.203   2.319  86.591  1.00  0.00     0.033 C 
BRANCH  17  19
HETATM   19  C11 UNL     1      -3.184   3.596  86.054  1.00  0.00     0.110 C 
HETATM   20 BR1  UNL     1      -3.734   2.131  87.171  1.00  0.00    -0.094 Br
ENDBRANCH  17  19
ENDBRANCH  15  17
ENDBRANCH  12  15
BRANCH   1  21
HETATM   21  C2  UNL     1      -0.935  -0.699  81.912  1.00  0.00     0.052 C 
HETATM   22  C1  UNL     1       0.328  -1.459  81.546  1.00  0.00     0.011 C 
ENDBRANCH   1  21
TORSDOF 4
ENDMDL
