MODEL 1
REMARK VINA RESULT: -5.481988916      0.000      0.000
REMARK  1 active torsions:
REMARK  status: ('A' for Active; 'I' for Inactive)
REMARK    1  A    between atoms: C7_10  and  O1_11 
ROOT
HETATM    1  N1  UNL     1      -0.150   2.952  85.899  1.00  0.00    -0.172 NA
HETATM    2  C1  UNL     1      -0.187   3.090  84.749  1.00  0.00     0.181 C 
HETATM    3  N2  UNL     1      -0.256   3.256  83.347  1.00  0.00    -0.292 N 
HETATM    4  C2  UNL     1      -0.462   4.607  82.947  1.00  0.00     0.143 C 
HETATM    5  C3  UNL     1      -0.377   4.854  81.485  1.00  0.00     0.036 C 
HETATM    6  C4  UNL     1      -1.414   4.028  80.770  1.00  0.00     0.039 C 
HETATM    7  C5  UNL     1      -0.856   2.675  80.478  1.00  0.00     0.275 C 
HETATM    8  N3  UNL     1       0.250   2.293  81.302  1.00  0.00     0.108 N 
HETATM    9  C6  UNL     1       1.367   3.171  81.270  1.00  0.00     0.306 C 
HETATM   10  C7  UNL     1       0.946   4.566  80.872  1.00  0.00     0.152 C 
HETATM   11  C8  UNL     1      -0.099   1.994  82.653  1.00  0.00     0.407 C 
ENDROOT
BRANCH  10  12
HETATM   12  O1  UNL     1       1.916   5.513  81.105  1.00  0.00    -0.393 OA
ATOM     13  H1  UNL     1       1.626   6.274  81.595  1.00  0.00     0.210 HD
ENDBRANCH  10  12
TORSDOF 1
ENDMDL
MODEL 2
REMARK VINA RESULT: -5.400566382      2.099      3.477
REMARK  1 active torsions:
REMARK  status: ('A' for Active; 'I' for Inactive)
REMARK    1  A    between atoms: C7_10  and  O1_11 
ROOT
HETATM    1  N1  UNL     1       3.763   5.277  80.061  1.00  0.00    -0.172 NA
HETATM    2  C1  UNL     1       2.812   4.785  80.504  1.00  0.00     0.181 C 
HETATM    3  N2  UNL     1       1.660   4.189  81.066  1.00  0.00    -0.292 N 
HETATM    4  C2  UNL     1       0.648   5.128  81.412  1.00  0.00     0.143 C 
HETATM    5  C3  UNL     1      -0.641   4.538  81.852  1.00  0.00     0.036 C 
HETATM    6  C4  UNL     1      -0.415   3.676  83.067  1.00  0.00     0.039 C 
HETATM    7  C5  UNL     1      -0.039   2.297  82.636  1.00  0.00     0.275 C 
HETATM    8  N3  UNL     1       0.483   2.208  81.307  1.00  0.00     0.108 N 
HETATM    9  C6  UNL     1      -0.370   2.699  80.282  1.00  0.00     0.306 C 
HETATM   10  C7  UNL     1      -1.341   3.718  80.829  1.00  0.00     0.152 C 
HETATM   11  C8  UNL     1       1.795   2.749  81.152  1.00  0.00     0.407 C 
ENDROOT
BRANCH  10  12
HETATM   12  O1  UNL     1      -1.986   4.435  79.848  1.00  0.00    -0.393 OA
ATOM     13  H1  UNL     1      -2.932   4.350  79.843  1.00  0.00     0.210 HD
ENDBRANCH  10  12
TORSDOF 1
ENDMDL
MODEL 3
REMARK VINA RESULT: -5.066121040      2.539      3.544
REMARK  1 active torsions:
REMARK  status: ('A' for Active; 'I' for Inactive)
REMARK    1  A    between atoms: C7_10  and  O1_11 
ROOT
HETATM    1  N1  UNL     1      -0.702   2.150  85.001  1.00  0.00    -0.172 NA
HETATM    2  C1  UNL     1      -0.598   3.266  84.709  1.00  0.00     0.181 C 
HETATM    3  N2  UNL     1      -0.492   4.632  84.361  1.00  0.00    -0.292 N 
HETATM    4  C2  UNL     1       0.016   5.446  85.413  1.00  0.00     0.143 C 
HETATM    5  C3  UNL     1       0.299   6.856  85.043  1.00  0.00     0.036 C 
HETATM    6  C4  UNL     1      -0.965   7.515  84.556  1.00  0.00     0.039 C 
HETATM    7  C5  UNL     1      -1.126   7.263  83.094  1.00  0.00     0.275 C 
HETATM    8  N3  UNL     1      -0.401   6.133  82.599  1.00  0.00     0.108 N 
HETATM    9  C6  UNL     1       1.003   6.163  82.819  1.00  0.00     0.306 C 
HETATM   10  C7  UNL     1       1.345   7.037  84.002  1.00  0.00     0.152 C 
HETATM   11  C8  UNL     1      -0.933   4.871  83.001  1.00  0.00     0.407 C 
ENDROOT
BRANCH  10  12
HETATM   12  O1  UNL     1       2.638   6.875  84.441  1.00  0.00    -0.393 OA
ATOM     13  H1  UNL     1       3.251   6.571  83.782  1.00  0.00     0.210 HD
ENDBRANCH  10  12
TORSDOF 1
ENDMDL
MODEL 4
REMARK VINA RESULT: -5.014122928      2.926      4.691
REMARK  1 active torsions:
REMARK  status: ('A' for Active; 'I' for Inactive)
REMARK    1  A    between atoms: C7_10  and  O1_11 
ROOT
HETATM    1  N1  UNL     1       0.644   4.856  80.308  1.00  0.00    -0.172 NA
HETATM    2  C1  UNL     1       0.249   5.187  81.346  1.00  0.00     0.181 C 
HETATM    3  N2  UNL     1      -0.255   5.594  82.602  1.00  0.00    -0.292 N 
HETATM    4  C2  UNL     1      -0.857   4.537  83.340  1.00  0.00     0.143 C 
HETATM    5  C3  UNL     1      -1.252   4.879  84.730  1.00  0.00     0.036 C 
HETATM    6  C4  UNL     1      -2.243   6.013  84.711  1.00  0.00     0.039 C 
HETATM    7  C5  UNL     1      -1.510   7.314  84.700  1.00  0.00     0.275 C 
HETATM    8  N3  UNL     1      -0.158   7.234  84.236  1.00  0.00     0.108 N 
HETATM    9  C6  UNL     1       0.681   6.339  84.953  1.00  0.00     0.306 C 
HETATM   10  C7  UNL     1      -0.131   5.261  85.629  1.00  0.00     0.152 C 
HETATM   11  C8  UNL     1      -0.030   7.007  82.832  1.00  0.00     0.407 C 
ENDROOT
BRANCH  10  12
HETATM   12  O1  UNL     1       0.633   4.212  86.086  1.00  0.00    -0.393 OA
ATOM     13  H1  UNL     1       1.570   4.367  86.088  1.00  0.00     0.210 HD
ENDBRANCH  10  12
TORSDOF 1
ENDMDL
MODEL 5
REMARK VINA RESULT: -5.004322528      1.727      2.697
REMARK  1 active torsions:
REMARK  status: ('A' for Active; 'I' for Inactive)
REMARK    1  A    between atoms: C7_10  and  O1_11 
ROOT
HETATM    1  N1  UNL     1      -0.852   2.221  85.414  1.00  0.00    -0.172 NA
HETATM    2  C1  UNL     1      -0.526   2.592  84.366  1.00  0.00     0.181 C 
HETATM    3  N2  UNL     1      -0.105   3.044  83.095  1.00  0.00    -0.292 N 
HETATM    4  C2  UNL     1       0.248   1.989  82.207  1.00  0.00     0.143 C 
HETATM    5  C3  UNL     1       0.538   2.405  80.811  1.00  0.00     0.036 C 
HETATM    6  C4  UNL     1       1.686   3.381  80.802  1.00  0.00     0.039 C 
HETATM    7  C5  UNL     1       1.164   4.765  81.006  1.00  0.00     0.275 C 
HETATM    8  N3  UNL     1      -0.126   4.832  81.622  1.00  0.00     0.108 N 
HETATM    9  C6  UNL     1      -1.164   4.139  80.941  1.00  0.00     0.306 C 
HETATM   10  C7  UNL     1      -0.602   3.027  80.088  1.00  0.00     0.152 C 
HETATM   11  C8  UNL     1      -0.136   4.491  83.007  1.00  0.00     0.407 C 
ENDROOT
BRANCH  10  12
HETATM   12  O1  UNL     1      -1.561   2.146  79.644  1.00  0.00    -0.393 OA
ATOM     13  H1  UNL     1      -2.386   2.544  79.391  1.00  0.00     0.210 HD
ENDBRANCH  10  12
TORSDOF 1
ENDMDL
