MODEL 1
REMARK VINA RESULT: -9.911434776      0.000      0.000
REMARK  5 active torsions:
REMARK  status: ('A' for Active; 'I' for Inactive)
REMARK    1  A    between atoms: C2_2  and  C3_3 
REMARK    2  A    between atoms: N1_14  and  C12_15 
REMARK    3  A    between atoms: C12_15  and  C13_16 
REMARK    4  A    between atoms: C13_16  and  O1_17 
REMARK    5  A    between atoms: C13_16  and  C14_19 
ROOT
HETATM    1  C1  UNL     1     -25.063   8.401   9.225  1.00  0.00     0.044 C 
HETATM    2  C2  UNL     1     -23.816   7.736   9.844  1.00  0.00     0.060 C 
HETATM    3  C9  UNL     1     -23.097   8.747  10.656  1.00  0.00     0.078 C 
HETATM    4  C10 UNL     1     -21.591   8.695  10.561  1.00  0.00     0.126 C 
HETATM    5  C11 UNL     1     -20.882   9.115  11.843  1.00  0.00     0.313 C 
HETATM    6  N1  UNL     1     -20.178  10.152  11.251  1.00  0.00     0.097 N 
HETATM    7  C18 UNL     1     -20.982   9.975  10.024  1.00  0.00     0.313 C 
HETATM    8  O2  UNL     1     -21.078   7.499  10.041  1.00  0.00    -0.307 OA
HETATM    9  C19 UNL     1     -21.686   6.918   8.943  1.00  0.00     0.214 C 
HETATM   10  N2  UNL     1     -21.027   6.147   8.129  1.00  0.00    -0.365 N 
ATOM     11  H21 UNL     1     -21.476   5.719   7.319  1.00  0.00     0.159 HD
ATOM     12  H22 UNL     1     -20.038   5.943   8.269  1.00  0.00     0.159 HD
HETATM   13  N3  UNL     1     -23.062   7.202   8.748  1.00  0.00    -0.343 N 
ATOM     14  H3  UNL     1     -23.506   7.030   7.845  1.00  0.00     0.164 HD
ENDROOT
BRANCH   2  15
HETATM   15  C3  UNL     1     -24.345   6.584  10.611  1.00  0.00    -0.029 A 
HETATM   16  C4  UNL     1     -24.237   6.660  11.994  1.00  0.00     0.011 A 
HETATM   17  C5  UNL     1     -24.675   5.665  12.827  1.00  0.00     0.026 A 
HETATM   18  C6  UNL     1     -25.253   4.532  12.291  1.00  0.00     0.055 A 
HETATM   19 CL1  UNL     1     -25.821   3.243  13.347  1.00  0.00    -0.083 Cl
HETATM   20  C7  UNL     1     -25.373   4.434  10.918  1.00  0.00     0.056 A 
HETATM   21 CL2  UNL     1     -26.106   2.993  10.225  1.00  0.00    -0.083 Cl
HETATM   22  C8  UNL     1     -24.917   5.462  10.097  1.00  0.00     0.035 A 
ENDBRANCH   2  15
BRANCH   6  23
HETATM   23  C12 UNL     1     -18.817  10.198  10.976  1.00  0.00     0.305 C 
BRANCH  23  24
HETATM   24  C13 UNL     1     -17.915   9.087  11.273  1.00  0.00     0.153 C 
BRANCH  24  25
HETATM   25  O1  UNL     1     -18.008   8.150  10.213  1.00  0.00    -0.393 OA
ATOM     26  H1  UNL     1     -17.143   8.043   9.838  1.00  0.00     0.210 HD
ENDBRANCH  24  25
BRANCH  24  27
HETATM   27  C14 UNL     1     -16.467   9.410  11.463  1.00  0.00    -0.024 C 
HETATM   28  C15 UNL     1     -15.826   8.773  12.654  1.00  0.00     0.017 C 
HETATM   29  C16 UNL     1     -15.630   9.187  10.220  1.00  0.00     0.017 C 
HETATM   30  C17 UNL     1     -16.323  10.943  11.723  1.00  0.00     0.017 C 
ENDBRANCH  24  27
ENDBRANCH  23  24
ENDBRANCH   6  23
TORSDOF 5
ENDMDL
MODEL 2
REMARK VINA RESULT: -9.761563943      0.922      1.292
REMARK  5 active torsions:
REMARK  status: ('A' for Active; 'I' for Inactive)
REMARK    1  A    between atoms: C2_2  and  C3_3 
REMARK    2  A    between atoms: N1_14  and  C12_15 
REMARK    3  A    between atoms: C12_15  and  C13_16 
REMARK    4  A    between atoms: C13_16  and  O1_17 
REMARK    5  A    between atoms: C13_16  and  C14_19 
ROOT
HETATM    1  C1  UNL     1     -24.731   8.648   9.773  1.00  0.00     0.044 C 
HETATM    2  C2  UNL     1     -23.557   7.705  10.110  1.00  0.00     0.060 C 
HETATM    3  C9  UNL     1     -22.531   8.476  10.854  1.00  0.00     0.078 C 
HETATM    4  C10 UNL     1     -21.101   8.162  10.490  1.00  0.00     0.126 C 
HETATM    5  C11 UNL     1     -20.127   8.306  11.654  1.00  0.00     0.313 C 
HETATM    6  N1  UNL     1     -19.336   9.254  11.025  1.00  0.00     0.097 N 
HETATM    7  C18 UNL     1     -20.345   9.359   9.950  1.00  0.00     0.313 C 
HETATM    8  O2  UNL     1     -20.924   6.954   9.800  1.00  0.00    -0.307 OA
HETATM    9  C19 UNL     1     -21.802   6.615   8.788  1.00  0.00     0.214 C 
HETATM   10  N2  UNL     1     -21.447   5.828   7.814  1.00  0.00    -0.365 N 
ATOM     11  H21 UNL     1     -22.095   5.578   7.067  1.00  0.00     0.159 HD
ATOM     12  H22 UNL     1     -20.508   5.434   7.761  1.00  0.00     0.159 HD
HETATM   13  N3  UNL     1     -23.108   7.163   8.861  1.00  0.00    -0.343 N 
ATOM     14  H3  UNL     1     -23.715   7.172   8.041  1.00  0.00     0.164 HD
ENDROOT
BRANCH   2  15
HETATM   15  C3  UNL     1     -24.173   6.593  10.871  1.00  0.00    -0.029 A 
HETATM   16  C4  UNL     1     -24.097   6.674  12.256  1.00  0.00     0.011 A 
HETATM   17  C5  UNL     1     -24.615   5.715  13.084  1.00  0.00     0.026 A 
HETATM   18  C6  UNL     1     -25.245   4.613  12.541  1.00  0.00     0.055 A 
HETATM   19 CL1  UNL     1     -25.916   3.369  13.591  1.00  0.00    -0.083 Cl
HETATM   20  C7  UNL     1     -25.334   4.510  11.166  1.00  0.00     0.056 A 
HETATM   21 CL2  UNL     1     -26.133   3.109  10.463  1.00  0.00    -0.083 Cl
HETATM   22  C8  UNL     1     -24.797   5.502  10.350  1.00  0.00     0.035 A 
ENDBRANCH   2  15
BRANCH   6  23
HETATM   23  C12 UNL     1     -18.055   9.082  10.517  1.00  0.00     0.305 C 
BRANCH  23  24
HETATM   24  C13 UNL     1     -16.853   9.389  11.292  1.00  0.00     0.153 C 
BRANCH  24  25
HETATM   25  O1  UNL     1     -16.769   8.459  12.359  1.00  0.00    -0.393 OA
ATOM     26  H1  UNL     1     -15.850   8.314  12.551  1.00  0.00     0.210 HD
ENDBRANCH  24  25
BRANCH  24  27
HETATM   27  C14 UNL     1     -15.545   9.364  10.568  1.00  0.00    -0.024 C 
HETATM   28  C15 UNL     1     -15.616   8.912   9.144  1.00  0.00     0.017 C 
HETATM   29  C16 UNL     1     -14.765  10.657  10.682  1.00  0.00     0.017 C 
HETATM   30  C17 UNL     1     -14.609   8.319  11.255  1.00  0.00     0.017 C 
ENDBRANCH  24  27
ENDBRANCH  23  24
ENDBRANCH   6  23
TORSDOF 5
ENDMDL
MODEL 3
REMARK VINA RESULT: -9.436235069      0.554      1.337
REMARK  5 active torsions:
REMARK  status: ('A' for Active; 'I' for Inactive)
REMARK    1  A    between atoms: C2_2  and  C3_3 
REMARK    2  A    between atoms: N1_14  and  C12_15 
REMARK    3  A    between atoms: C12_15  and  C13_16 
REMARK    4  A    between atoms: C13_16  and  O1_17 
REMARK    5  A    between atoms: C13_16  and  C14_19 
ROOT
HETATM    1  C1  UNL     1     -24.972   8.357   9.034  1.00  0.00     0.044 C 
HETATM    2  C2  UNL     1     -23.746   7.711   9.711  1.00  0.00     0.060 C 
HETATM    3  C9  UNL     1     -23.064   8.741  10.533  1.00  0.00     0.078 C 
HETATM    4  C10 UNL     1     -21.556   8.698  10.496  1.00  0.00     0.126 C 
HETATM    5  C11 UNL     1     -20.899   9.143  11.798  1.00  0.00     0.313 C 
HETATM    6  N1  UNL     1     -20.179  10.175  11.216  1.00  0.00     0.097 N 
HETATM    7  C18 UNL     1     -20.935   9.973   9.962  1.00  0.00     0.313 C 
HETATM    8  O2  UNL     1     -21.015   7.497  10.016  1.00  0.00    -0.307 OA
HETATM    9  C19 UNL     1     -21.578   6.894   8.906  1.00  0.00     0.214 C 
HETATM   10  N2  UNL     1     -20.883   6.115   8.129  1.00  0.00    -0.365 N 
ATOM     11  H21 UNL     1     -21.298   5.671   7.310  1.00  0.00     0.159 HD
ATOM     12  H22 UNL     1     -19.898   5.920   8.310  1.00  0.00     0.159 HD
HETATM   13  N3  UNL     1     -22.947   7.165   8.653  1.00  0.00    -0.343 N 
ATOM     14  H3  UNL     1     -23.355   6.976   7.738  1.00  0.00     0.164 HD
ENDROOT
BRANCH   2  15
HETATM   15  C3  UNL     1     -24.296   6.568  10.476  1.00  0.00    -0.029 A 
HETATM   16  C4  UNL     1     -24.762   5.492   9.731  1.00  0.00     0.011 A 
HETATM   17  C5  UNL     1     -25.304   4.373  10.305  1.00  0.00     0.026 A 
HETATM   18  C6  UNL     1     -25.399   4.289  11.680  1.00  0.00     0.055 A 
HETATM   19 CL1  UNL     1     -26.093   2.858  12.435  1.00  0.00    -0.083 Cl
HETATM   20  C7  UNL     1     -24.940   5.346  12.442  1.00  0.00     0.056 A 
HETATM   21 CL2  UNL     1     -25.058   5.251  14.195  1.00  0.00    -0.083 Cl
HETATM   22  C8  UNL     1     -24.395   6.471  11.829  1.00  0.00     0.035 A 
ENDBRANCH   2  15
BRANCH   6  23
HETATM   23  C12 UNL     1     -18.810  10.227  10.992  1.00  0.00     0.305 C 
BRANCH  23  24
HETATM   24  C13 UNL     1     -17.921   9.103  11.284  1.00  0.00     0.153 C 
BRANCH  24  25
HETATM   25  O1  UNL     1     -18.030   8.170  10.223  1.00  0.00    -0.393 OA
ATOM     26  H1  UNL     1     -18.339   7.348  10.584  1.00  0.00     0.210 HD
ENDBRANCH  24  25
BRANCH  24  27
HETATM   27  C14 UNL     1     -16.468   9.407  11.470  1.00  0.00    -0.024 C 
HETATM   28  C15 UNL     1     -15.831   8.760  12.657  1.00  0.00     0.017 C 
HETATM   29  C16 UNL     1     -15.638   9.177  10.223  1.00  0.00     0.017 C 
HETATM   30  C17 UNL     1     -16.303  10.938  11.732  1.00  0.00     0.017 C 
ENDBRANCH  24  27
ENDBRANCH  23  24
ENDBRANCH   6  23
TORSDOF 5
ENDMDL
MODEL 4
REMARK VINA RESULT: -9.229718518      1.054      1.872
REMARK  5 active torsions:
REMARK  status: ('A' for Active; 'I' for Inactive)
REMARK    1  A    between atoms: C2_2  and  C3_3 
REMARK    2  A    between atoms: N1_14  and  C12_15 
REMARK    3  A    between atoms: C12_15  and  C13_16 
REMARK    4  A    between atoms: C13_16  and  O1_17 
REMARK    5  A    between atoms: C13_16  and  C14_19 
ROOT
HETATM    1  C1  UNL     1     -24.655   8.690   9.683  1.00  0.00     0.044 C 
HETATM    2  C2  UNL     1     -23.493   7.739  10.034  1.00  0.00     0.060 C 
HETATM    3  C9  UNL     1     -22.475   8.500  10.800  1.00  0.00     0.078 C 
HETATM    4  C10 UNL     1     -21.041   8.180  10.459  1.00  0.00     0.126 C 
HETATM    5  C11 UNL     1     -20.086   8.311  11.640  1.00  0.00     0.313 C 
HETATM    6  N1  UNL     1     -19.279   9.259  11.030  1.00  0.00     0.097 N 
HETATM    7  C18 UNL     1     -20.269   9.376   9.939  1.00  0.00     0.313 C 
HETATM    8  O2  UNL     1     -20.859   6.975   9.764  1.00  0.00    -0.307 OA
HETATM    9  C19 UNL     1     -21.721   6.647   8.735  1.00  0.00     0.214 C 
HETATM   10  N2  UNL     1     -21.354   5.863   7.763  1.00  0.00    -0.365 N 
ATOM     11  H21 UNL     1     -21.991   5.621   7.004  1.00  0.00     0.159 HD
ATOM     12  H22 UNL     1     -20.416   5.464   7.724  1.00  0.00     0.159 HD
HETATM   13  N3  UNL     1     -23.025   7.202   8.790  1.00  0.00    -0.343 N 
ATOM     14  H3  UNL     1     -23.619   7.219   7.960  1.00  0.00     0.164 HD
ENDROOT
BRANCH   2  15
HETATM   15  C3  UNL     1     -24.127   6.626  10.778  1.00  0.00    -0.029 A 
HETATM   16  C4  UNL     1     -24.657   5.593  10.014  1.00  0.00     0.011 A 
HETATM   17  C5  UNL     1     -25.279   4.507  10.567  1.00  0.00     0.026 A 
HETATM   18  C6  UNL     1     -25.396   4.412  11.939  1.00  0.00     0.055 A 
HETATM   19 CL1  UNL     1     -26.194   3.022  12.667  1.00  0.00    -0.083 Cl
HETATM   20  C7  UNL     1     -24.876   5.426  12.721  1.00  0.00     0.056 A 
HETATM   21 CL2  UNL     1     -25.020   5.317  14.470  1.00  0.00    -0.083 Cl
HETATM   22  C8  UNL     1     -24.249   6.519  12.129  1.00  0.00     0.035 A 
ENDBRANCH   2  15
BRANCH   6  23
HETATM   23  C12 UNL     1     -17.990   9.082  10.543  1.00  0.00     0.305 C 
BRANCH  23  24
HETATM   24  C13 UNL     1     -16.801   9.370  11.343  1.00  0.00     0.153 C 
BRANCH  24  25
HETATM   25  O1  UNL     1     -16.728   8.409  12.383  1.00  0.00    -0.393 OA
ATOM     26  H1  UNL     1     -16.134   8.738  13.046  1.00  0.00     0.210 HD
ENDBRANCH  24  25
BRANCH  24  27
HETATM   27  C14 UNL     1     -15.482   9.369  10.636  1.00  0.00    -0.024 C 
HETATM   28  C15 UNL     1     -15.530   8.942   9.205  1.00  0.00     0.017 C 
HETATM   29  C16 UNL     1     -14.716  10.668  10.783  1.00  0.00     0.017 C 
HETATM   30  C17 UNL     1     -14.546   8.322  11.319  1.00  0.00     0.017 C 
ENDBRANCH  24  27
ENDBRANCH  23  24
ENDBRANCH   6  23
TORSDOF 5
ENDMDL
MODEL 5
REMARK VINA RESULT: -8.640864401      4.133      8.026
REMARK  5 active torsions:
REMARK  status: ('A' for Active; 'I' for Inactive)
REMARK    1  A    between atoms: C2_2  and  C3_3 
REMARK    2  A    between atoms: N1_14  and  C12_15 
REMARK    3  A    between atoms: C12_15  and  C13_16 
REMARK    4  A    between atoms: C13_16  and  O1_17 
REMARK    5  A    between atoms: C13_16  and  C14_19 
ROOT
HETATM    1  C1  UNL     1     -22.586   9.668   8.468  1.00  0.00     0.044 C 
HETATM    2  C2  UNL     1     -22.575   9.289   9.964  1.00  0.00     0.060 C 
HETATM    3  C9  UNL     1     -22.657   7.812  10.076  1.00  0.00     0.078 C 
HETATM    4  C10 UNL     1     -23.535   7.300  11.192  1.00  0.00     0.126 C 
HETATM    5  C11 UNL     1     -23.059   5.981  11.790  1.00  0.00     0.313 C 
HETATM    6  N1  UNL     1     -24.230   5.297  11.506  1.00  0.00     0.097 N 
HETATM    7  C18 UNL     1     -24.689   6.449  10.701  1.00  0.00     0.313 C 
HETATM    8  O2  UNL     1     -23.841   8.248  12.179  1.00  0.00    -0.307 OA
HETATM    9  C19 UNL     1     -24.178   9.535  11.805  1.00  0.00     0.214 C 
HETATM   10  N2  UNL     1     -24.926  10.289  12.557  1.00  0.00    -0.365 N 
ATOM     11  H21 UNL     1     -25.174  11.239  12.280  1.00  0.00     0.159 HD
ATOM     12  H22 UNL     1     -25.292   9.958  13.449  1.00  0.00     0.159 HD
HETATM   13  N3  UNL     1     -23.669   9.996  10.563  1.00  0.00    -0.343 N 
ATOM     14  H3  UNL     1     -24.073  10.814  10.107  1.00  0.00     0.164 HD
ENDROOT
BRANCH   2  15
HETATM   15  C3  UNL     1     -21.327   9.885  10.495  1.00  0.00    -0.029 A 
HETATM   16  C4  UNL     1     -20.191   9.087  10.448  1.00  0.00     0.011 A 
HETATM   17  C5  UNL     1     -18.973   9.504  10.911  1.00  0.00     0.026 A 
HETATM   18  C6  UNL     1     -18.844  10.769  11.449  1.00  0.00     0.055 A 
HETATM   19 CL1  UNL     1     -17.285  11.323  12.050  1.00  0.00    -0.083 Cl
HETATM   20  C7  UNL     1     -19.959  11.583  11.505  1.00  0.00     0.056 A 
HETATM   21 CL2  UNL     1     -19.808  13.196  12.190  1.00  0.00    -0.083 Cl
HETATM   22  C8  UNL     1     -21.186  11.129  11.027  1.00  0.00     0.035 A 
ENDBRANCH   2  15
BRANCH   6  23
HETATM   23  C12 UNL     1     -25.200   4.875  12.406  1.00  0.00     0.305 C 
BRANCH  23  24
HETATM   24  C13 UNL     1     -25.969   3.647  12.217  1.00  0.00     0.153 C 
BRANCH  24  25
HETATM   25  O1  UNL     1     -25.317   2.868  11.229  1.00  0.00    -0.393 OA
ATOM     26  H1  UNL     1     -25.185   1.996  11.581  1.00  0.00     0.210 HD
ENDBRANCH  24  25
BRANCH  24  27
HETATM   27  C14 UNL     1     -26.175   2.774  13.415  1.00  0.00    -0.024 C 
HETATM   28  C15 UNL     1     -27.593   2.383  13.679  1.00  0.00     0.017 C 
HETATM   29  C16 UNL     1     -25.270   1.560  13.442  1.00  0.00     0.017 C 
HETATM   30  C17 UNL     1     -25.750   3.565  14.693  1.00  0.00     0.017 C 
ENDBRANCH  24  27
ENDBRANCH  23  24
ENDBRANCH   6  23
TORSDOF 5
ENDMDL
