MODEL 1
REMARK VINA RESULT: -8.957001730      0.000      0.000
REMARK  8 active torsions:
REMARK  status: ('A' for Active; 'I' for Inactive)
REMARK    1  A    between atoms: N1_2  and  N2_4 
REMARK    2  A    between atoms: N3_6  and  C2_8 
REMARK    3  A    between atoms: C5_11  and  S1_12 
REMARK    4  A    between atoms: S1_12  and  N4_14 
REMARK    5  A    between atoms: S1_12  and  N5_18 
REMARK    6  A    between atoms: N4_14  and  O2_16 
REMARK    7  A    between atoms: N5_18  and  S2_20 
REMARK    8  A    between atoms: S2_20  and  C6_23 
ROOT
HETATM    1  S1  UNL     1       9.751  52.899   0.331  1.00  0.00     0.170 S 
HETATM    2  O1  UNL     1      10.419  51.952  -0.623  1.00  0.00    -0.221 OA
ENDROOT
BRANCH   1   3
HETATM    3  C5  UNL     1       8.543  51.961   1.196  1.00  0.00     0.061 A 
HETATM    4  C4  UNL     1       7.212  52.183   0.911  1.00  0.00     0.026 A 
HETATM    5  C3  UNL     1       6.193  51.503   1.531  1.00  0.00     0.032 A 
HETATM    6  C2  UNL     1       6.505  50.558   2.476  1.00  0.00     0.049 A 
HETATM    7  C13 UNL     1       7.831  50.323   2.772  1.00  0.00     0.032 A 
HETATM    8  C12 UNL     1       8.840  51.018   2.137  1.00  0.00     0.026 A 
BRANCH   6   9
HETATM    9  N3  UNL     1       5.464  49.845   3.126  1.00  0.00    -0.287 N 
HETATM   10  N2  UNL     1       5.599  49.523   4.354  1.00  0.00    -0.243 N 
ATOM     11  H2  UNL     1       6.454  49.786   4.845  1.00  0.00     0.208 HD
ATOM     12  H3  UNL     1       4.617  49.592   2.617  1.00  0.00     0.188 HD
BRANCH  10  13
HETATM   13  N1  UNL     1       4.614  48.825   5.039  1.00  0.00    -0.308 N 
HETATM   14  C1  UNL     1       3.669  48.228   4.422  1.00  0.00     0.140 C 
ATOM     15  H1  UNL     1       4.646  48.789   6.058  1.00  0.00     0.186 HD
ENDBRANCH  10  13
ENDBRANCH   6   9
ENDBRANCH   1   3
BRANCH   1  16
HETATM   16  N4  UNL     1      10.832  53.309   1.407  1.00  0.00    -0.207 N 
ATOM     17  H4  UNL     1      10.561  53.476   2.376  1.00  0.00     0.206 HD
BRANCH  16  18
HETATM   18  O2  UNL     1      12.148  53.438   1.014  1.00  0.00    -0.281 OA
ATOM     19  H2  UNL     1      12.461  54.290   0.731  1.00  0.00     0.245 HD
ENDBRANCH  16  18
ENDBRANCH   1  16
BRANCH   1  20
HETATM   20  N5  UNL     1       9.072  54.257  -0.441  1.00  0.00    -0.218 N 
ATOM     21  H5  UNL     1       8.590  54.242  -1.340  1.00  0.00     0.190 HD
BRANCH  20  22
HETATM   22  S2  UNL     1       9.318  55.646   0.516  1.00  0.00     0.270 S 
HETATM   23  O3  UNL     1       8.982  55.346   1.951  1.00  0.00    -0.200 OA
HETATM   24  O4  UNL     1      10.789  55.985   0.460  1.00  0.00    -0.200 OA
BRANCH  22  25
HETATM   25  C6  UNL     1       8.341  56.995   0.007  1.00  0.00     0.080 A 
HETATM   26  C7  UNL     1       8.837  58.106  -0.631  1.00  0.00     0.028 A 
HETATM   27  C8  UNL     1       8.003  59.134  -1.003  1.00  0.00     0.044 A 
HETATM   28  C9  UNL     1       6.637  59.090  -0.750  1.00  0.00     0.116 A 
HETATM   29  F1  UNL     1       5.840  60.128  -1.134  1.00  0.00    -0.206 F 
HETATM   30  C10 UNL     1       6.146  57.977  -0.112  1.00  0.00     0.044 A 
HETATM   31  C11 UNL     1       6.987  56.944   0.261  1.00  0.00     0.028 A 
ENDBRANCH  22  25
ENDBRANCH  20  22
ENDBRANCH   1  20
TORSDOF 8
ENDMDL
MODEL 2
REMARK VINA RESULT: -8.936799734      0.162      1.344
REMARK  8 active torsions:
REMARK  status: ('A' for Active; 'I' for Inactive)
REMARK    1  A    between atoms: N1_2  and  N2_4 
REMARK    2  A    between atoms: N3_6  and  C2_8 
REMARK    3  A    between atoms: C5_11  and  S1_12 
REMARK    4  A    between atoms: S1_12  and  N4_14 
REMARK    5  A    between atoms: S1_12  and  N5_18 
REMARK    6  A    between atoms: N4_14  and  O2_16 
REMARK    7  A    between atoms: N5_18  and  S2_20 
REMARK    8  A    between atoms: S2_20  and  C6_23 
ROOT
HETATM    1  S1  UNL     1       9.671  52.975   0.265  1.00  0.00     0.170 S 
HETATM    2  O1  UNL     1      10.352  52.009  -0.662  1.00  0.00    -0.221 OA
ENDROOT
BRANCH   1   3
HETATM    3  C5  UNL     1       8.373  52.082   1.044  1.00  0.00     0.061 A 
HETATM    4  C4  UNL     1       8.704  51.130   1.984  1.00  0.00     0.026 A 
HETATM    5  C3  UNL     1       7.766  50.379   2.649  1.00  0.00     0.032 A 
HETATM    6  C2  UNL     1       6.437  50.581   2.371  1.00  0.00     0.049 A 
HETATM    7  C13 UNL     1       6.089  51.531   1.433  1.00  0.00     0.032 A 
HETATM    8  C12 UNL     1       7.049  52.274   0.777  1.00  0.00     0.026 A 
BRANCH   6   9
HETATM    9  N3  UNL     1       5.454  49.815   3.049  1.00  0.00    -0.287 N 
HETATM   10  N2  UNL     1       5.624  49.530   4.281  1.00  0.00    -0.243 N 
ATOM     11  H2  UNL     1       6.465  49.859   4.756  1.00  0.00     0.208 HD
ATOM     12  H3  UNL     1       4.619  49.496   2.556  1.00  0.00     0.188 HD
BRANCH  10  13
HETATM   13  N1  UNL     1       4.696  48.784   4.994  1.00  0.00    -0.308 N 
HETATM   14  C1  UNL     1       3.676  48.268   4.423  1.00  0.00     0.140 C 
ATOM     15  H1  UNL     1       4.831  48.644   5.995  1.00  0.00     0.186 HD
ENDBRANCH  10  13
ENDBRANCH   6   9
ENDBRANCH   1   3
BRANCH   1  16
HETATM   16  N4  UNL     1      10.702  53.325   1.408  1.00  0.00    -0.207 N 
ATOM     17  H4  UNL     1      10.405  53.356   2.383  1.00  0.00     0.206 HD
BRANCH  16  18
HETATM   18  O2  UNL     1      12.013  53.587   1.066  1.00  0.00    -0.281 OA
ATOM     19  H2  UNL     1      12.258  54.475   0.833  1.00  0.00     0.245 HD
ENDBRANCH  16  18
ENDBRANCH   1  16
BRANCH   1  20
HETATM   20  N5  UNL     1       9.099  54.371  -0.527  1.00  0.00    -0.218 N 
ATOM     21  H5  UNL     1       8.738  54.399  -1.481  1.00  0.00     0.190 HD
BRANCH  20  22
HETATM   22  S2  UNL     1       9.221  55.714   0.515  1.00  0.00     0.270 S 
HETATM   23  O3  UNL     1       8.825  55.318   1.910  1.00  0.00    -0.200 OA
HETATM   24  O4  UNL     1      10.674  56.127   0.560  1.00  0.00    -0.200 OA
BRANCH  22  25
HETATM   25  C6  UNL     1       8.205  57.041   0.023  1.00  0.00     0.080 A 
HETATM   26  C7  UNL     1       6.847  57.084   0.224  1.00  0.00     0.028 A 
HETATM   27  C8  UNL     1       6.108  58.166  -0.193  1.00  0.00     0.044 A 
HETATM   28  C9  UNL     1       6.703  59.250  -0.828  1.00  0.00     0.116 A 
HETATM   29  F1  UNL     1       5.939  60.308  -1.228  1.00  0.00    -0.206 F 
HETATM   30  C10 UNL     1       8.062  59.203  -1.026  1.00  0.00     0.044 A 
HETATM   31  C11 UNL     1       8.802  58.112  -0.606  1.00  0.00     0.028 A 
ENDBRANCH  22  25
ENDBRANCH  20  22
ENDBRANCH   1  20
TORSDOF 8
ENDMDL
MODEL 3
REMARK VINA RESULT: -8.765534923      1.175      1.871
REMARK  8 active torsions:
REMARK  status: ('A' for Active; 'I' for Inactive)
REMARK    1  A    between atoms: N1_2  and  N2_4 
REMARK    2  A    between atoms: N3_6  and  C2_8 
REMARK    3  A    between atoms: C5_11  and  S1_12 
REMARK    4  A    between atoms: S1_12  and  N4_14 
REMARK    5  A    between atoms: S1_12  and  N5_18 
REMARK    6  A    between atoms: N4_14  and  O2_16 
REMARK    7  A    between atoms: N5_18  and  S2_20 
REMARK    8  A    between atoms: S2_20  and  C6_23 
ROOT
HETATM    1  S1  UNL     1       9.359  54.005   0.711  1.00  0.00     0.170 S 
HETATM    2  O1  UNL     1      10.670  53.284   0.841  1.00  0.00    -0.221 OA
ENDROOT
BRANCH   1   3
HETATM    3  C5  UNL     1       8.110  52.841   1.126  1.00  0.00     0.061 A 
HETATM    4  C4  UNL     1       6.881  52.950   0.510  1.00  0.00     0.026 A 
HETATM    5  C3  UNL     1       5.840  52.091   0.764  1.00  0.00     0.032 A 
HETATM    6  C2  UNL     1       6.024  51.076   1.670  1.00  0.00     0.049 A 
HETATM    7  C13 UNL     1       7.247  50.953   2.295  1.00  0.00     0.032 A 
HETATM    8  C12 UNL     1       8.280  51.828   2.024  1.00  0.00     0.026 A 
BRANCH   6   9
HETATM    9  N3  UNL     1       4.960  50.179   1.944  1.00  0.00    -0.287 N 
HETATM   10  N2  UNL     1       4.732  49.830   3.151  1.00  0.00    -0.243 N 
ATOM     11  H2  UNL     1       5.320  50.204   3.896  1.00  0.00     0.208 HD
ATOM     12  H3  UNL     1       4.382  49.817   1.185  1.00  0.00     0.188 HD
BRANCH  10  13
HETATM   13  N1  UNL     1       3.704  48.955   3.476  1.00  0.00    -0.308 N 
HETATM   14  C1  UNL     1       3.774  48.197   4.502  1.00  0.00     0.140 C 
ATOM     15  H1  UNL     1       2.875  48.916   2.883  1.00  0.00     0.186 HD
ENDBRANCH  10  13
ENDBRANCH   6   9
ENDBRANCH   1   3
BRANCH   1  16
HETATM   16  N4  UNL     1       9.322  55.102   1.847  1.00  0.00    -0.207 N 
ATOM     17  H4  UNL     1      10.069  55.791   1.927  1.00  0.00     0.206 HD
BRANCH  16  18
HETATM   18  O2  UNL     1       8.262  55.113   2.729  1.00  0.00    -0.281 OA
ATOM     19  H2  UNL     1       7.514  55.669   2.542  1.00  0.00     0.245 HD
ENDBRANCH  16  18
ENDBRANCH   1  16
BRANCH   1  20
HETATM   20  N5  UNL     1       9.116  54.679  -0.834  1.00  0.00    -0.218 N 
ATOM     21  H5  UNL     1       8.692  54.195  -1.626  1.00  0.00     0.190 HD
BRANCH  20  22
HETATM   22  S2  UNL     1       9.688  56.284  -0.858  1.00  0.00     0.270 S 
HETATM   23  O3  UNL     1      10.688  56.489   0.245  1.00  0.00    -0.200 OA
HETATM   24  O4  UNL     1      10.412  56.492  -2.168  1.00  0.00    -0.200 OA
BRANCH  22  25
HETATM   25  C6  UNL     1       8.414  57.454  -0.651  1.00  0.00     0.080 A 
HETATM   26  C7  UNL     1       7.154  57.147  -0.197  1.00  0.00     0.028 A 
HETATM   27  C8  UNL     1       6.198  58.126  -0.060  1.00  0.00     0.044 A 
HETATM   28  C9  UNL     1       6.467  59.453  -0.373  1.00  0.00     0.116 A 
HETATM   29  F1  UNL     1       5.494  60.398  -0.225  1.00  0.00    -0.206 F 
HETATM   30  C10 UNL     1       7.728  59.755  -0.827  1.00  0.00     0.044 A 
HETATM   31  C11 UNL     1       8.688  58.768  -0.964  1.00  0.00     0.028 A 
ENDBRANCH  22  25
ENDBRANCH  20  22
ENDBRANCH   1  20
TORSDOF 8
ENDMDL
MODEL 4
REMARK VINA RESULT: -8.330791469      1.021      1.298
REMARK  8 active torsions:
REMARK  status: ('A' for Active; 'I' for Inactive)
REMARK    1  A    between atoms: N1_2  and  N2_4 
REMARK    2  A    between atoms: N3_6  and  C2_8 
REMARK    3  A    between atoms: C5_11  and  S1_12 
REMARK    4  A    between atoms: S1_12  and  N4_14 
REMARK    5  A    between atoms: S1_12  and  N5_18 
REMARK    6  A    between atoms: N4_14  and  O2_16 
REMARK    7  A    between atoms: N5_18  and  S2_20 
REMARK    8  A    between atoms: S2_20  and  C6_23 
ROOT
HETATM    1  S1  UNL     1       9.694  52.743   0.333  1.00  0.00     0.170 S 
HETATM    2  O1  UNL     1      10.344  51.762  -0.600  1.00  0.00    -0.221 OA
ENDROOT
BRANCH   1   3
HETATM    3  C5  UNL     1       8.468  51.847   1.217  1.00  0.00     0.061 A 
HETATM    4  C4  UNL     1       7.146  52.023   0.867  1.00  0.00     0.026 A 
HETATM    5  C3  UNL     1       6.114  51.371   1.495  1.00  0.00     0.032 A 
HETATM    6  C2  UNL     1       6.403  50.503   2.519  1.00  0.00     0.049 A 
HETATM    7  C13 UNL     1       7.721  50.315   2.881  1.00  0.00     0.032 A 
HETATM    8  C12 UNL     1       8.743  50.981   2.235  1.00  0.00     0.026 A 
BRANCH   6   9
HETATM    9  N3  UNL     1       5.350  49.820   3.178  1.00  0.00    -0.287 N 
HETATM   10  N2  UNL     1       5.523  49.412   4.376  1.00  0.00    -0.243 N 
ATOM     11  H2  UNL     1       6.417  49.586   4.836  1.00  0.00     0.208 HD
ATOM     12  H3  UNL     1       4.463  49.656   2.701  1.00  0.00     0.188 HD
BRANCH  10  13
HETATM   13  N1  UNL     1       4.527  48.737   5.069  1.00  0.00    -0.308 N 
HETATM   14  C1  UNL     1       3.539  48.201   4.463  1.00  0.00     0.140 C 
ATOM     15  H1  UNL     1       4.586  48.669   6.086  1.00  0.00     0.186 HD
ENDBRANCH  10  13
ENDBRANCH   6   9
ENDBRANCH   1   3
BRANCH   1  16
HETATM   16  N4  UNL     1      10.782  53.157   1.400  1.00  0.00    -0.207 N 
ATOM     17  H4  UNL     1      10.642  52.953   2.389  1.00  0.00     0.206 HD
BRANCH  16  18
HETATM   18  O2  UNL     1      11.925  53.799   0.971  1.00  0.00    -0.281 OA
ATOM     19  H2  UNL     1      12.747  53.322   0.973  1.00  0.00     0.245 HD
ENDBRANCH  16  18
ENDBRANCH   1  16
BRANCH   1  20
HETATM   20  N5  UNL     1       9.041  54.096  -0.470  1.00  0.00    -0.218 N 
ATOM     21  H5  UNL     1       8.735  54.111  -1.443  1.00  0.00     0.190 HD
BRANCH  20  22
HETATM   22  S2  UNL     1       8.973  55.422   0.599  1.00  0.00     0.270 S 
HETATM   23  O3  UNL     1       9.225  54.958   2.007  1.00  0.00    -0.200 OA
HETATM   24  O4  UNL     1      10.095  56.365   0.229  1.00  0.00    -0.200 OA
BRANCH  22  25
HETATM   25  C6  UNL     1       7.432  56.233   0.568  1.00  0.00     0.080 A 
HETATM   26  C7  UNL     1       7.165  57.345  -0.193  1.00  0.00     0.028 A 
HETATM   27  C8  UNL     1       5.922  57.934  -0.165  1.00  0.00     0.044 A 
HETATM   28  C9  UNL     1       4.897  57.429   0.626  1.00  0.00     0.116 A 
HETATM   29  F1  UNL     1       3.676  58.038   0.629  1.00  0.00    -0.206 F 
HETATM   30  C10 UNL     1       5.169  56.317   1.386  1.00  0.00     0.044 A 
HETATM   31  C11 UNL     1       6.421  55.727   1.356  1.00  0.00     0.028 A 
ENDBRANCH  22  25
ENDBRANCH  20  22
ENDBRANCH   1  20
TORSDOF 8
ENDMDL
MODEL 5
REMARK VINA RESULT: -8.268278489      1.088      1.871
REMARK  8 active torsions:
REMARK  status: ('A' for Active; 'I' for Inactive)
REMARK    1  A    between atoms: N1_2  and  N2_4 
REMARK    2  A    between atoms: N3_6  and  C2_8 
REMARK    3  A    between atoms: C5_11  and  S1_12 
REMARK    4  A    between atoms: S1_12  and  N4_14 
REMARK    5  A    between atoms: S1_12  and  N5_18 
REMARK    6  A    between atoms: N4_14  and  O2_16 
REMARK    7  A    between atoms: N5_18  and  S2_20 
REMARK    8  A    between atoms: S2_20  and  C6_23 
ROOT
HETATM    1  S1  UNL     1       9.708  52.880   0.267  1.00  0.00     0.170 S 
HETATM    2  O1  UNL     1      10.378  51.877  -0.628  1.00  0.00    -0.221 OA
ENDROOT
BRANCH   1   3
HETATM    3  C5  UNL     1       8.381  52.036   1.050  1.00  0.00     0.061 A 
HETATM    4  C4  UNL     1       8.662  51.235   2.136  1.00  0.00     0.026 A 
HETATM    5  C3  UNL     1       7.698  50.534   2.817  1.00  0.00     0.032 A 
HETATM    6  C2  UNL     1       6.392  50.631   2.404  1.00  0.00     0.049 A 
HETATM    7  C13 UNL     1       6.093  51.429   1.319  1.00  0.00     0.032 A 
HETATM    8  C12 UNL     1       7.079  52.125   0.650  1.00  0.00     0.026 A 
BRANCH   6   9
HETATM    9  N3  UNL     1       5.382  49.915   3.096  1.00  0.00    -0.287 N 
HETATM   10  N2  UNL     1       5.609  49.504   4.283  1.00  0.00    -0.243 N 
ATOM     11  H2  UNL     1       6.514  49.699   4.713  1.00  0.00     0.208 HD
ATOM     12  H3  UNL     1       4.483  49.731   2.650  1.00  0.00     0.188 HD
BRANCH  10  13
HETATM   13  N1  UNL     1       4.657  48.798   5.007  1.00  0.00    -0.308 N 
HETATM   14  C1  UNL     1       3.672  48.224   4.431  1.00  0.00     0.140 C 
ATOM     15  H1  UNL     1       4.747  48.737   6.021  1.00  0.00     0.186 HD
ENDBRANCH  10  13
ENDBRANCH   6   9
ENDBRANCH   1   3
BRANCH   1  16
HETATM   16  N4  UNL     1      10.734  53.232   1.415  1.00  0.00    -0.207 N 
ATOM     17  H4  UNL     1      10.469  53.136   2.395  1.00  0.00     0.206 HD
BRANCH  16  18
HETATM   18  O2  UNL     1      11.995  53.673   1.069  1.00  0.00    -0.281 OA
ATOM     19  H2  UNL     1      12.112  54.128   0.243  1.00  0.00     0.245 HD
ENDBRANCH  16  18
ENDBRANCH   1  16
BRANCH   1  20
HETATM   20  N5  UNL     1       9.179  54.270  -0.564  1.00  0.00    -0.218 N 
ATOM     21  H5  UNL     1       8.981  54.317  -1.564  1.00  0.00     0.190 HD
BRANCH  20  22
HETATM   22  S2  UNL     1       9.028  55.570   0.527  1.00  0.00     0.270 S 
HETATM   23  O3  UNL     1       9.434  55.131   1.906  1.00  0.00    -0.200 OA
HETATM   24  O4  UNL     1       9.997  56.646   0.093  1.00  0.00    -0.200 OA
BRANCH  22  25
HETATM   25  C6  UNL     1       7.402  56.187   0.617  1.00  0.00     0.080 A 
HETATM   26  C7  UNL     1       6.412  55.635   1.393  1.00  0.00     0.028 A 
HETATM   27  C8  UNL     1       5.148  56.178   1.412  1.00  0.00     0.044 A 
HETATM   28  C9  UNL     1       4.827  57.297   0.653  1.00  0.00     0.116 A 
HETATM   29  F1  UNL     1       3.563  57.809   0.697  1.00  0.00    -0.206 F 
HETATM   30  C10 UNL     1       5.820  57.845  -0.122  1.00  0.00     0.044 A 
HETATM   31  C11 UNL     1       7.090  57.297  -0.139  1.00  0.00     0.028 A 
ENDBRANCH  22  25
ENDBRANCH  20  22
ENDBRANCH   1  20
TORSDOF 8
ENDMDL
