MODEL 1
REMARK VINA RESULT: -7.699518833      0.000      0.000
REMARK  9 active torsions:
REMARK  status: ('A' for Active; 'I' for Inactive)
REMARK    1  A    between atoms: O1_2  and  N1_3 
REMARK    2  A    between atoms: N1_3  and  C2_5 
REMARK    3  A    between atoms: C4_12  and  O3_13 
REMARK    4  A    between atoms: C5_15  and  C6_16 
REMARK    5  A    between atoms: C6_16  and  C7_18 
REMARK    6  A    between atoms: C7_18  and  N4_19 
REMARK    7  A    between atoms: N4_19  and  S1_21 
REMARK    8  A    between atoms: S1_21  and  C8_23 
REMARK    9  A    between atoms: C10_29  and  O7_30 
ROOT
HETATM    1  C6  UNL     1       5.419   7.978 -48.794  1.00  0.00     0.185 C 
HETATM    2  O4  UNL     1       5.631   6.736 -48.911  1.00  0.00    -0.290 OA
ENDROOT
BRANCH   1   3
HETATM    3  C5  UNL     1       6.569   8.867 -48.708  1.00  0.00     0.108 A 
HETATM    4  C2  UNL     1       7.357   8.867 -47.577  1.00  0.00     0.147 A 
HETATM    5  N2  UNL     1       8.402   9.673 -47.482  1.00  0.00    -0.292 N 
HETATM    6  C3  UNL     1       8.752  10.517 -48.453  1.00  0.00     0.327 A 
ATOM      7  H2  UNL     1       8.963   9.647 -46.631  1.00  0.00     0.172 HD
HETATM    8  O2  UNL     1       9.763  11.269 -48.311  1.00  0.00    -0.247 OA
HETATM    9  N3  UNL     1       8.014  10.554 -49.573  1.00  0.00    -0.288 N 
HETATM   10  C4  UNL     1       6.946   9.746 -49.696  1.00  0.00     0.162 A 
ATOM     11  H3  UNL     1       8.263  11.192 -50.329  1.00  0.00     0.172 HD
BRANCH   4  12
HETATM   12  N1  UNL     1       7.072   8.075 -46.606  1.00  0.00    -0.250 N 
ATOM     13  H1  UNL     1       7.087   7.066 -46.756  1.00  0.00     0.196 HD
BRANCH  12  14
HETATM   14  O1  UNL     1       6.751   8.565 -45.384  1.00  0.00    -0.284 OA
HETATM   15  C1  UNL     1       5.616   9.339 -45.107  1.00  0.00     0.237 C 
ENDBRANCH  12  14
ENDBRANCH   4  12
BRANCH  10  16
HETATM   16  O3  UNL     1       6.229   9.824 -50.861  1.00  0.00    -0.345 OA
ATOM     17  H3  UNL     1       5.696   9.072 -51.097  1.00  0.00     0.219 HD
ENDBRANCH  10  16
ENDBRANCH   1   3
BRANCH   1  18
HETATM   18  C7  UNL     1       4.027   8.416 -48.753  1.00  0.00     0.214 C 
BRANCH  18  19
HETATM   19  N4  UNL     1       3.432   8.252 -50.060  1.00  0.00    -0.329 N 
ATOM     20  H4  UNL     1       3.954   8.235 -50.936  1.00  0.00     0.170 HD
BRANCH  19  21
HETATM   21  S1  UNL     1       1.677   8.085 -49.935  1.00  0.00     0.158 S 
HETATM   22  O5  UNL     1       1.041   8.765 -51.110  1.00  0.00    -0.230 OA
BRANCH  21  23
HETATM   23  C8  UNL     1       1.362   6.324 -49.937  1.00  0.00     0.148 A 
HETATM   24  S2  UNL     1       2.406   5.030 -49.544  1.00  0.00    -0.013 SA
HETATM   25  C9  UNL     1       1.318   3.745 -49.812  1.00  0.00     0.291 A 
HETATM   26  O6  UNL     1       1.493   2.480 -49.691  1.00  0.00    -0.260 OA
HETATM   27  N5  UNL     1       0.203   4.368 -50.193  1.00  0.00    -0.296 N 
HETATM   28  C10 UNL     1       0.205   5.667 -50.261  1.00  0.00     0.173 A 
ATOM     29  H5  UNL     1      -0.636   3.836 -50.426  1.00  0.00     0.171 HD
BRANCH  28  30
HETATM   30  O7  UNL     1      -0.931   6.431 -50.656  1.00  0.00    -0.339 OA
HETATM   31  C11 UNL     1      -1.953   6.711 -49.718  1.00  0.00     0.211 C 
ENDBRANCH  28  30
ENDBRANCH  21  23
ENDBRANCH  19  21
ENDBRANCH  18  19
ENDBRANCH   1  18
TORSDOF 9
ENDMDL
MODEL 2
REMARK VINA RESULT: -7.557407118      1.612      2.629
REMARK  9 active torsions:
REMARK  status: ('A' for Active; 'I' for Inactive)
REMARK    1  A    between atoms: O1_2  and  N1_3 
REMARK    2  A    between atoms: N1_3  and  C2_5 
REMARK    3  A    between atoms: C4_12  and  O3_13 
REMARK    4  A    between atoms: C5_15  and  C6_16 
REMARK    5  A    between atoms: C6_16  and  C7_18 
REMARK    6  A    between atoms: C7_18  and  N4_19 
REMARK    7  A    between atoms: N4_19  and  S1_21 
REMARK    8  A    between atoms: S1_21  and  C8_23 
REMARK    9  A    between atoms: C10_29  and  O7_30 
ROOT
HETATM    1  C6  UNL     1       5.423   7.948 -48.812  1.00  0.00     0.185 C 
HETATM    2  O4  UNL     1       5.647   6.707 -48.917  1.00  0.00    -0.290 OA
ENDROOT
BRANCH   1   3
HETATM    3  C5  UNL     1       6.564   8.848 -48.716  1.00  0.00     0.108 A 
HETATM    4  C2  UNL     1       7.348   8.848 -47.582  1.00  0.00     0.147 A 
HETATM    5  N2  UNL     1       8.384   9.664 -47.478  1.00  0.00    -0.292 N 
HETATM    6  C3  UNL     1       8.729  10.518 -48.442  1.00  0.00     0.327 A 
ATOM      7  H2  UNL     1       8.942   9.638 -46.625  1.00  0.00     0.172 HD
HETATM    8  O2  UNL     1       9.733  11.278 -48.292  1.00  0.00    -0.247 OA
HETATM    9  N3  UNL     1       7.996  10.554 -49.565  1.00  0.00    -0.288 N 
HETATM   10  C4  UNL     1       6.936   9.736 -49.698  1.00  0.00     0.162 A 
ATOM     11  H3  UNL     1       8.242  11.199 -50.317  1.00  0.00     0.172 HD
BRANCH   4  12
HETATM   12  N1  UNL     1       7.066   8.048 -46.616  1.00  0.00    -0.250 N 
ATOM     13  H1  UNL     1       7.089   7.041 -46.773  1.00  0.00     0.196 HD
BRANCH  12  14
HETATM   14  O1  UNL     1       6.740   8.528 -45.392  1.00  0.00    -0.284 OA
HETATM   15  C1  UNL     1       5.643   9.360 -45.127  1.00  0.00     0.237 C 
ENDBRANCH  12  14
ENDBRANCH   4  12
BRANCH  10  16
HETATM   16  O3  UNL     1       6.223   9.814 -50.865  1.00  0.00    -0.345 OA
ATOM     17  H3  UNL     1       5.387  10.264 -50.837  1.00  0.00     0.219 HD
ENDBRANCH  10  16
ENDBRANCH   1   3
BRANCH   1  18
HETATM   18  C7  UNL     1       4.027   8.374 -48.794  1.00  0.00     0.214 C 
BRANCH  18  19
HETATM   19  N4  UNL     1       3.448   8.181 -50.104  1.00  0.00    -0.329 N 
ATOM     20  H4  UNL     1       3.686   8.732 -50.929  1.00  0.00     0.170 HD
BRANCH  19  21
HETATM   21  S1  UNL     1       2.271   6.864 -50.083  1.00  0.00     0.158 S 
HETATM   22  O5  UNL     1       2.221   6.281 -48.702  1.00  0.00    -0.230 OA
BRANCH  21  23
HETATM   23  C8  UNL     1       0.711   7.607 -50.545  1.00  0.00     0.148 A 
HETATM   24  S2  UNL     1       0.353   9.228 -50.949  1.00  0.00    -0.013 SA
HETATM   25  C9  UNL     1      -1.316   9.047 -51.243  1.00  0.00     0.291 A 
HETATM   26  O6  UNL     1      -2.189   9.920 -51.594  1.00  0.00    -0.260 OA
HETATM   27  N5  UNL     1      -1.524   7.750 -51.017  1.00  0.00    -0.296 N 
HETATM   28  C10 UNL     1      -0.515   7.008 -50.665  1.00  0.00     0.173 A 
ATOM     29  H5  UNL     1      -2.456   7.348 -51.117  1.00  0.00     0.171 HD
BRANCH  28  30
HETATM   30  O7  UNL     1      -0.626   5.613 -50.400  1.00  0.00    -0.339 OA
HETATM   31  C11 UNL     1      -1.182   5.169 -49.176  1.00  0.00     0.211 C 
ENDBRANCH  28  30
ENDBRANCH  21  23
ENDBRANCH  19  21
ENDBRANCH  18  19
ENDBRANCH   1  18
TORSDOF 9
ENDMDL
MODEL 3
REMARK VINA RESULT: -7.464682559      1.811      2.111
REMARK  9 active torsions:
REMARK  status: ('A' for Active; 'I' for Inactive)
REMARK    1  A    between atoms: O1_2  and  N1_3 
REMARK    2  A    between atoms: N1_3  and  C2_5 
REMARK    3  A    between atoms: C4_12  and  O3_13 
REMARK    4  A    between atoms: C5_15  and  C6_16 
REMARK    5  A    between atoms: C6_16  and  C7_18 
REMARK    6  A    between atoms: C7_18  and  N4_19 
REMARK    7  A    between atoms: N4_19  and  S1_21 
REMARK    8  A    between atoms: S1_21  and  C8_23 
REMARK    9  A    between atoms: C10_29  and  O7_30 
ROOT
HETATM    1  C6  UNL     1       5.730   8.534 -48.128  1.00  0.00     0.185 C 
HETATM    2  O4  UNL     1       4.977   9.009 -47.228  1.00  0.00    -0.290 OA
ENDROOT
BRANCH   1   3
HETATM    3  C5  UNL     1       7.131   8.931 -48.134  1.00  0.00     0.108 A 
HETATM    4  C2  UNL     1       8.060   8.188 -47.436  1.00  0.00     0.147 A 
HETATM    5  N2  UNL     1       9.335   8.539 -47.427  1.00  0.00    -0.292 N 
HETATM    6  C3  UNL     1       9.794   9.608 -48.078  1.00  0.00     0.327 A 
ATOM      7  H2  UNL     1       9.995   7.967 -46.900  1.00  0.00     0.172 HD
HETATM    8  O2  UNL     1      11.027   9.900 -48.037  1.00  0.00    -0.247 OA
HETATM    9  N3  UNL     1       8.927  10.362 -48.771  1.00  0.00    -0.288 N 
HETATM   10  C4  UNL     1       7.624  10.030 -48.797  1.00  0.00     0.162 A 
ATOM     11  H3  UNL     1       9.255  11.185 -49.278  1.00  0.00     0.172 HD
BRANCH   4  12
HETATM   12  N1  UNL     1       7.680   7.146 -46.788  1.00  0.00    -0.250 N 
ATOM     13  H1  UNL     1       6.741   7.113 -46.390  1.00  0.00     0.196 HD
BRANCH  12  14
HETATM   14  O1  UNL     1       8.513   6.089 -46.626  1.00  0.00    -0.284 OA
HETATM   15  C1  UNL     1       9.767   5.960 -47.239  1.00  0.00     0.237 C 
ENDBRANCH  12  14
ENDBRANCH   4  12
BRANCH  10  16
HETATM   16  O3  UNL     1       6.783  10.834 -49.521  1.00  0.00    -0.345 OA
ATOM     17  H3  UNL     1       5.849  10.690 -49.422  1.00  0.00     0.219 HD
ENDBRANCH  10  16
ENDBRANCH   1   3
BRANCH   1  18
HETATM   18  C7  UNL     1       5.123   7.622 -49.092  1.00  0.00     0.214 C 
BRANCH  18  19
HETATM   19  N4  UNL     1       3.901   8.202 -49.602  1.00  0.00    -0.329 N 
ATOM     20  H4  UNL     1       3.842   8.793 -50.431  1.00  0.00     0.170 HD
BRANCH  19  21
HETATM   21  S1  UNL     1       2.522   7.748 -48.595  1.00  0.00     0.158 S 
HETATM   22  O5  UNL     1       1.666   8.959 -48.372  1.00  0.00    -0.230 OA
BRANCH  21  23
HETATM   23  C8  UNL     1       1.654   6.482 -49.513  1.00  0.00     0.148 A 
HETATM   24  S2  UNL     1       1.360   4.849 -49.107  1.00  0.00    -0.013 SA
HETATM   25  C9  UNL     1       0.496   4.398 -50.505  1.00  0.00     0.291 A 
HETATM   26  O6  UNL     1      -0.019   3.266 -50.825  1.00  0.00    -0.260 OA
HETATM   27  N5  UNL     1       0.472   5.521 -51.222  1.00  0.00    -0.296 N 
HETATM   28  C10 UNL     1       1.050   6.582 -50.738  1.00  0.00     0.173 A 
ATOM     29  H5  UNL     1       0.011   5.549 -52.131  1.00  0.00     0.171 HD
BRANCH  28  30
HETATM   30  O7  UNL     1       1.084   7.833 -51.420  1.00  0.00    -0.339 OA
HETATM   31  C11 UNL     1      -0.115   8.555 -51.628  1.00  0.00     0.211 C 
ENDBRANCH  28  30
ENDBRANCH  21  23
ENDBRANCH  19  21
ENDBRANCH  18  19
ENDBRANCH   1  18
TORSDOF 9
ENDMDL
MODEL 4
REMARK VINA RESULT: -7.433079216      2.015      3.021
REMARK  9 active torsions:
REMARK  status: ('A' for Active; 'I' for Inactive)
REMARK    1  A    between atoms: O1_2  and  N1_3 
REMARK    2  A    between atoms: N1_3  and  C2_5 
REMARK    3  A    between atoms: C4_12  and  O3_13 
REMARK    4  A    between atoms: C5_15  and  C6_16 
REMARK    5  A    between atoms: C6_16  and  C7_18 
REMARK    6  A    between atoms: C7_18  and  N4_19 
REMARK    7  A    between atoms: N4_19  and  S1_21 
REMARK    8  A    between atoms: S1_21  and  C8_23 
REMARK    9  A    between atoms: C10_29  and  O7_30 
ROOT
HETATM    1  C6  UNL     1       5.536   8.578 -48.450  1.00  0.00     0.185 C 
HETATM    2  O4  UNL     1       4.734   9.060 -47.597  1.00  0.00    -0.290 OA
ENDROOT
BRANCH   1   3
HETATM    3  C5  UNL     1       6.936   8.972 -48.377  1.00  0.00     0.108 A 
HETATM    4  C2  UNL     1       7.819   8.237 -47.614  1.00  0.00     0.147 A 
HETATM    5  N2  UNL     1       9.093   8.585 -47.534  1.00  0.00    -0.292 N 
HETATM    6  C3  UNL     1       9.593   9.643 -48.172  1.00  0.00     0.327 A 
ATOM      7  H2  UNL     1       9.718   8.020 -46.960  1.00  0.00     0.172 HD
HETATM    8  O2  UNL     1      10.823   9.933 -48.061  1.00  0.00    -0.247 OA
HETATM    9  N3  UNL     1       8.772  10.389 -48.927  1.00  0.00    -0.288 N 
HETATM   10  C4  UNL     1       7.472  10.059 -49.026  1.00  0.00     0.162 A 
ATOM     11  H3  UNL     1       9.133  11.203 -49.425  1.00  0.00     0.172 HD
BRANCH   4  12
HETATM   12  N1  UNL     1       7.398   7.205 -46.974  1.00  0.00    -0.250 N 
ATOM     13  H1  UNL     1       6.403   7.108 -46.773  1.00  0.00     0.196 HD
BRANCH  12  14
HETATM   14  O1  UNL     1       8.261   6.244 -46.564  1.00  0.00    -0.284 OA
HETATM   15  C1  UNL     1       9.524   6.014 -47.126  1.00  0.00     0.237 C 
ENDBRANCH  12  14
ENDBRANCH   4  12
BRANCH  10  16
HETATM   16  O3  UNL     1       6.678  10.854 -49.811  1.00  0.00    -0.345 OA
ATOM     17  H3  UNL     1       6.059  10.420 -50.386  1.00  0.00     0.219 HD
ENDBRANCH  10  16
ENDBRANCH   1   3
BRANCH   1  18
HETATM   18  C7  UNL     1       4.983   7.661 -49.441  1.00  0.00     0.214 C 
BRANCH  18  19
HETATM   19  N4  UNL     1       3.682   8.130 -49.859  1.00  0.00    -0.329 N 
ATOM     20  H4  UNL     1       3.447   9.107 -50.034  1.00  0.00     0.170 HD
BRANCH  19  21
HETATM   21  S1  UNL     1       2.552   6.782 -50.028  1.00  0.00     0.158 S 
HETATM   22  O5  UNL     1       2.469   6.054 -48.719  1.00  0.00    -0.230 OA
BRANCH  21  23
HETATM   23  C8  UNL     1       0.986   7.522 -50.475  1.00  0.00     0.148 A 
HETATM   24  S2  UNL     1       0.593   9.162 -50.744  1.00  0.00    -0.013 SA
HETATM   25  C9  UNL     1      -1.060   8.964 -51.111  1.00  0.00     0.291 A 
HETATM   26  O6  UNL     1      -1.947   9.841 -51.413  1.00  0.00    -0.260 OA
HETATM   27  N5  UNL     1      -1.236   7.647 -51.009  1.00  0.00    -0.296 N 
HETATM   28  C10 UNL     1      -0.217   6.903 -50.690  1.00  0.00     0.173 A 
ATOM     29  H5  UNL     1      -2.152   7.230 -51.178  1.00  0.00     0.171 HD
BRANCH  28  30
HETATM   30  O7  UNL     1      -0.295   5.487 -50.556  1.00  0.00    -0.339 OA
HETATM   31  C11 UNL     1      -0.894   4.920 -49.406  1.00  0.00     0.211 C 
ENDBRANCH  28  30
ENDBRANCH  21  23
ENDBRANCH  19  21
ENDBRANCH  18  19
ENDBRANCH   1  18
TORSDOF 9
ENDMDL
MODEL 5
REMARK VINA RESULT: -7.415385165      1.961      2.633
REMARK  9 active torsions:
REMARK  status: ('A' for Active; 'I' for Inactive)
REMARK    1  A    between atoms: O1_2  and  N1_3 
REMARK    2  A    between atoms: N1_3  and  C2_5 
REMARK    3  A    between atoms: C4_12  and  O3_13 
REMARK    4  A    between atoms: C5_15  and  C6_16 
REMARK    5  A    between atoms: C6_16  and  C7_18 
REMARK    6  A    between atoms: C7_18  and  N4_19 
REMARK    7  A    between atoms: N4_19  and  S1_21 
REMARK    8  A    between atoms: S1_21  and  C8_23 
REMARK    9  A    between atoms: C10_29  and  O7_30 
ROOT
HETATM    1  C6  UNL     1       5.601   8.523 -48.387  1.00  0.00     0.185 C 
HETATM    2  O4  UNL     1       4.789   9.055 -47.575  1.00  0.00    -0.290 OA
ENDROOT
BRANCH   1   3
HETATM    3  C5  UNL     1       6.998   8.929 -48.328  1.00  0.00     0.108 A 
HETATM    4  C2  UNL     1       7.902   8.180 -47.604  1.00  0.00     0.147 A 
HETATM    5  N2  UNL     1       9.174   8.538 -47.536  1.00  0.00    -0.292 N 
HETATM    6  C3  UNL     1       9.652   9.621 -48.151  1.00  0.00     0.327 A 
ATOM      7  H2  UNL     1       9.815   7.962 -46.991  1.00  0.00     0.172 HD
HETATM    8  O2  UNL     1      10.880   9.920 -48.053  1.00  0.00    -0.247 OA
HETATM    9  N3  UNL     1       8.809  10.381 -48.867  1.00  0.00    -0.288 N 
HETATM   10  C4  UNL     1       7.511  10.041 -48.953  1.00  0.00     0.162 A 
ATOM     11  H3  UNL     1       9.153  11.214 -49.346  1.00  0.00     0.172 HD
BRANCH   4  12
HETATM   12  N1  UNL     1       7.503   7.125 -46.989  1.00  0.00    -0.250 N 
ATOM     13  H1  UNL     1       6.507   6.986 -46.821  1.00  0.00     0.196 HD
BRANCH  12  14
HETATM   14  O1  UNL     1       8.391   6.195 -46.561  1.00  0.00    -0.284 OA
HETATM   15  C1  UNL     1       9.612   5.910 -47.187  1.00  0.00     0.237 C 
ENDBRANCH  12  14
ENDBRANCH   4  12
BRANCH  10  16
HETATM   16  O3  UNL     1       6.695  10.851 -49.698  1.00  0.00    -0.345 OA
ATOM     17  H3  UNL     1       6.940  11.767 -49.773  1.00  0.00     0.219 HD
ENDBRANCH  10  16
ENDBRANCH   1   3
BRANCH   1  18
HETATM   18  C7  UNL     1       5.062   7.541 -49.322  1.00  0.00     0.214 C 
BRANCH  18  19
HETATM   19  N4  UNL     1       4.010   6.787 -48.677  1.00  0.00    -0.329 N 
ATOM     20  H4  UNL     1       4.160   6.100 -47.939  1.00  0.00     0.170 HD
BRANCH  19  21
HETATM   21  S1  UNL     1       2.430   7.219 -49.341  1.00  0.00     0.158 S 
HETATM   22  O5  UNL     1       2.585   7.519 -50.802  1.00  0.00    -0.230 OA
BRANCH  21  23
HETATM   23  C8  UNL     1       1.388   5.792 -49.063  1.00  0.00     0.148 A 
HETATM   24  S2  UNL     1      -0.212   5.710 -48.471  1.00  0.00    -0.013 SA
HETATM   25  C9  UNL     1      -0.411   4.017 -48.530  1.00  0.00     0.291 A 
HETATM   26  O6  UNL     1      -1.422   3.296 -48.207  1.00  0.00    -0.260 OA
HETATM   27  N5  UNL     1       0.761   3.592 -49.000  1.00  0.00    -0.296 N 
HETATM   28  C10 UNL     1       1.680   4.471 -49.276  1.00  0.00     0.173 A 
ATOM     29  H5  UNL     1       0.934   2.596 -49.142  1.00  0.00     0.171 HD
BRANCH  28  30
HETATM   30  O7  UNL     1       2.965   4.124 -49.783  1.00  0.00    -0.339 OA
HETATM   31  C11 UNL     1       3.311   2.763 -49.958  1.00  0.00     0.211 C 
ENDBRANCH  28  30
ENDBRANCH  21  23
ENDBRANCH  19  21
ENDBRANCH  18  19
ENDBRANCH   1  18
TORSDOF 9
ENDMDL
