MODEL 1
REMARK VINA RESULT: -5.243681964      0.000      0.000
REMARK  8 active torsions:
REMARK  status: ('A' for Active; 'I' for Inactive)
REMARK    1  A    between atoms: C2_2  and  O1_3 
REMARK    2  A    between atoms: O1_3  and  C3_4 
REMARK    3  A    between atoms: C8_9  and  O2_10 
REMARK    4  A    between atoms: O2_10  and  C9_11 
REMARK    5  A    between atoms: C9_11  and  O3_12 
REMARK    6  A    between atoms: C9_11  and  C10_14 
REMARK    7  A    between atoms: C14_19  and  C15_20 
REMARK    8  A    between atoms: C15_20  and  O6_22 
ROOT
HETATM    1  C3  UNL     1      18.323 -24.972 -18.210  1.00  0.00     0.104 A 
HETATM    2  C4  UNL     1      17.880 -24.036 -19.110  1.00  0.00     0.079 A 
HETATM    3  C5  UNL     1      18.737 -23.458 -20.044  1.00  0.00     0.106 A 
HETATM    4  C6  UNL     1      20.070 -23.799 -20.108  1.00  0.00     0.106 A 
HETATM    5  C7  UNL     1      20.525 -24.748 -19.197  1.00  0.00     0.079 A 
HETATM    6  C8  UNL     1      19.679 -25.321 -18.272  1.00  0.00     0.108 A 
HETATM    7  O4  UNL     1      20.867 -23.204 -21.040  1.00  0.00    -0.330 OA
HETATM    8  C14 UNL     1      20.497 -22.109 -21.847  1.00  0.00     0.262 C 
HETATM    9  C17 UNL     1      19.003 -21.977 -22.002  1.00  0.00     0.096 C 
HETATM   10  C18 UNL     1      18.631 -22.593 -23.337  1.00  0.00     0.049 C 
HETATM   11  C19 UNL     1      18.650 -20.484 -22.060  1.00  0.00     0.049 C 
HETATM   12  O7  UNL     1      18.278 -22.520 -20.941  1.00  0.00    -0.335 OA
ENDROOT
BRANCH   6  13
HETATM   13  O2  UNL     1      20.121 -26.259 -17.369  1.00  0.00    -0.317 OA
BRANCH  13  14
HETATM   14  C9  UNL     1      20.687 -26.064 -16.125  1.00  0.00     0.271 C 
BRANCH  14  15
HETATM   15  O3  UNL     1      19.656 -25.924 -15.170  1.00  0.00    -0.370 OA
ATOM     16  H3  UNL     1      19.940 -25.317 -14.497  1.00  0.00     0.212 HD
ENDBRANCH  14  15
BRANCH  14  17
HETATM   17  C10 UNL     1      21.546 -27.260 -15.753  1.00  0.00    -0.001 C 
HETATM   18  C11 UNL     1      22.718 -27.368 -16.693  1.00  0.00     0.019 C 
HETATM   19  C12 UNL     1      20.680 -28.492 -15.833  1.00  0.00     0.019 C 
HETATM   20  C13 UNL     1      22.013 -27.079 -14.332  1.00  0.00     0.019 C 
ENDBRANCH  14  17
ENDBRANCH  13  14
ENDBRANCH   6  13
BRANCH   1  21
HETATM   21  O1  UNL     1      17.538 -25.578 -17.267  1.00  0.00    -0.349 OA
BRANCH  21  22
HETATM   22  C2  UNL     1      16.614 -26.601 -17.442  1.00  0.00     0.171 C 
HETATM   23  C1  UNL     1      17.109 -27.953 -16.995  1.00  0.00     0.034 C 
ENDBRANCH  21  22
ENDBRANCH   1  21
BRANCH   8  24
HETATM   24  C15 UNL     1      21.194 -22.264 -23.152  1.00  0.00     0.291 C 
HETATM   25  O5  UNL     1      21.486 -21.280 -23.884  1.00  0.00    -0.262 OA
BRANCH  24  26
HETATM   26  O6  UNL     1      21.569 -23.518 -23.643  1.00  0.00    -0.324 OA
HETATM   27  C16 UNL     1      21.829 -23.707 -25.024  1.00  0.00     0.213 C 
ENDBRANCH  24  26
ENDBRANCH   8  24
TORSDOF 8
ENDMDL
MODEL 2
REMARK VINA RESULT: -5.193209278      2.925      8.085
REMARK  8 active torsions:
REMARK  status: ('A' for Active; 'I' for Inactive)
REMARK    1  A    between atoms: C2_2  and  O1_3 
REMARK    2  A    between atoms: O1_3  and  C3_4 
REMARK    3  A    between atoms: C8_9  and  O2_10 
REMARK    4  A    between atoms: O2_10  and  C9_11 
REMARK    5  A    between atoms: C9_11  and  O3_12 
REMARK    6  A    between atoms: C9_11  and  C10_14 
REMARK    7  A    between atoms: C14_19  and  C15_20 
REMARK    8  A    between atoms: C15_20  and  O6_22 
ROOT
HETATM    1  C3  UNL     1      17.878 -24.645 -18.201  1.00  0.00     0.104 A 
HETATM    2  C4  UNL     1      18.809 -24.622 -17.193  1.00  0.00     0.079 A 
HETATM    3  C5  UNL     1      19.078 -25.751 -16.422  1.00  0.00     0.106 A 
HETATM    4  C6  UNL     1      18.421 -26.943 -16.634  1.00  0.00     0.106 A 
HETATM    5  C7  UNL     1      17.475 -26.972 -17.655  1.00  0.00     0.079 A 
HETATM    6  C8  UNL     1      17.208 -25.856 -18.419  1.00  0.00     0.108 A 
HETATM    7  O4  UNL     1      18.720 -28.018 -15.851  1.00  0.00    -0.330 OA
HETATM    8  C14 UNL     1      19.524 -27.983 -14.693  1.00  0.00     0.262 C 
HETATM    9  C17 UNL     1      20.464 -26.805 -14.671  1.00  0.00     0.096 C 
HETATM   10  C18 UNL     1      21.821 -27.303 -15.130  1.00  0.00     0.049 C 
HETATM   11  C19 UNL     1      20.608 -26.324 -13.220  1.00  0.00     0.049 C 
HETATM   12  O7  UNL     1      20.015 -25.713 -15.414  1.00  0.00    -0.335 OA
ENDROOT
BRANCH   6  13
HETATM   13  O2  UNL     1      16.275 -25.877 -19.430  1.00  0.00    -0.317 OA
BRANCH  13  14
HETATM   14  C9  UNL     1      15.219 -26.748 -19.615  1.00  0.00     0.271 C 
BRANCH  14  15
HETATM   15  O3  UNL     1      14.092 -26.256 -18.920  1.00  0.00    -0.370 OA
ATOM     16  H3  UNL     1      14.298 -26.209 -17.994  1.00  0.00     0.212 HD
ENDBRANCH  14  15
BRANCH  14  17
HETATM   17  C10 UNL     1      14.884 -26.848 -21.093  1.00  0.00    -0.001 C 
HETATM   18  C11 UNL     1      13.461 -27.308 -21.271  1.00  0.00     0.019 C 
HETATM   19  C12 UNL     1      15.845 -27.827 -21.719  1.00  0.00     0.019 C 
HETATM   20  C13 UNL     1      15.091 -25.491 -21.714  1.00  0.00     0.019 C 
ENDBRANCH  14  17
ENDBRANCH  13  14
ENDBRANCH   6  13
BRANCH   1  21
HETATM   21  O1  UNL     1      17.565 -23.576 -18.996  1.00  0.00    -0.349 OA
BRANCH  21  22
HETATM   22  C2  UNL     1      18.204 -23.141 -20.149  1.00  0.00     0.171 C 
HETATM   23  C1  UNL     1      17.570 -21.926 -20.777  1.00  0.00     0.034 C 
ENDBRANCH  21  22
ENDBRANCH   1  21
BRANCH   8  24
HETATM   24  C15 UNL     1      20.237 -29.285 -14.608  1.00  0.00     0.291 C 
HETATM   25  O5  UNL     1      20.453 -30.005 -15.620  1.00  0.00    -0.262 OA
BRANCH  24  26
HETATM   26  O6  UNL     1      20.712 -29.788 -13.393  1.00  0.00    -0.324 OA
HETATM   27  C16 UNL     1      19.859 -29.881 -12.264  1.00  0.00     0.213 C 
ENDBRANCH  24  26
ENDBRANCH   8  24
TORSDOF 8
ENDMDL
MODEL 3
REMARK VINA RESULT: -5.112699887      5.202      8.203
REMARK  8 active torsions:
REMARK  status: ('A' for Active; 'I' for Inactive)
REMARK    1  A    between atoms: C2_2  and  O1_3 
REMARK    2  A    between atoms: O1_3  and  C3_4 
REMARK    3  A    between atoms: C8_9  and  O2_10 
REMARK    4  A    between atoms: O2_10  and  C9_11 
REMARK    5  A    between atoms: C9_11  and  O3_12 
REMARK    6  A    between atoms: C9_11  and  C10_14 
REMARK    7  A    between atoms: C14_19  and  C15_20 
REMARK    8  A    between atoms: C15_20  and  O6_22 
ROOT
HETATM    1  C3  UNL     1      17.145 -17.729 -20.434  1.00  0.00     0.104 A 
HETATM    2  C4  UNL     1      17.180 -18.904 -21.141  1.00  0.00     0.079 A 
HETATM    3  C5  UNL     1      18.379 -19.444 -21.602  1.00  0.00     0.106 A 
HETATM    4  C6  UNL     1      19.586 -18.822 -21.370  1.00  0.00     0.106 A 
HETATM    5  C7  UNL     1      19.557 -17.629 -20.653  1.00  0.00     0.079 A 
HETATM    6  C8  UNL     1      18.372 -17.094 -20.196  1.00  0.00     0.108 A 
HETATM    7  O4  UNL     1      20.731 -19.391 -21.842  1.00  0.00    -0.330 OA
HETATM    8  C14 UNL     1      20.790 -20.486 -22.728  1.00  0.00     0.262 C 
HETATM    9  C17 UNL     1      19.539 -21.326 -22.702  1.00  0.00     0.096 C 
HETATM   10  C18 UNL     1      19.819 -22.524 -21.813  1.00  0.00     0.049 C 
HETATM   11  C19 UNL     1      19.272 -21.847 -24.121  1.00  0.00     0.049 C 
HETATM   12  O7  UNL     1      18.399 -20.624 -22.310  1.00  0.00    -0.335 OA
ENDROOT
BRANCH   6  13
HETATM   13  O2  UNL     1      18.335 -15.916 -19.487  1.00  0.00    -0.317 OA
BRANCH  13  14
HETATM   14  C9  UNL     1      19.350 -15.005 -19.268  1.00  0.00     0.271 C 
BRANCH  14  15
HETATM   15  O3  UNL     1      19.028 -13.795 -19.921  1.00  0.00    -0.370 OA
ATOM     16  H3  UNL     1      19.494 -13.759 -20.748  1.00  0.00     0.212 HD
ENDBRANCH  14  15
BRANCH  14  17
HETATM   17  C10 UNL     1      19.494 -14.740 -17.780  1.00  0.00    -0.001 C 
HETATM   18  C11 UNL     1      19.476 -13.257 -17.514  1.00  0.00     0.019 C 
HETATM   19  C12 UNL     1      20.798 -15.348 -17.327  1.00  0.00     0.019 C 
HETATM   20  C13 UNL     1      18.358 -15.427 -17.068  1.00  0.00     0.019 C 
ENDBRANCH  14  17
ENDBRANCH  13  14
ENDBRANCH   6  13
BRANCH   1  21
HETATM   21  O1  UNL     1      16.005 -17.143 -19.953  1.00  0.00    -0.349 OA
BRANCH  21  22
HETATM   22  C2  UNL     1      15.291 -17.460 -18.805  1.00  0.00     0.171 C 
HETATM   23  C1  UNL     1      15.010 -16.276 -17.915  1.00  0.00     0.034 C 
ENDBRANCH  21  22
ENDBRANCH   1  21
BRANCH   8  24
HETATM   24  C15 UNL     1      22.010 -21.267 -22.389  1.00  0.00     0.291 C 
HETATM   25  O5  UNL     1      22.685 -21.048 -21.347  1.00  0.00    -0.262 OA
BRANCH  24  26
HETATM   26  O6  UNL     1      22.480 -22.295 -23.211  1.00  0.00    -0.324 OA
HETATM   27  C16 UNL     1      22.951 -22.019 -24.519  1.00  0.00     0.213 C 
ENDBRANCH  24  26
ENDBRANCH   8  24
TORSDOF 8
ENDMDL
MODEL 4
REMARK VINA RESULT: -5.090292352      1.727      7.402
REMARK  8 active torsions:
REMARK  status: ('A' for Active; 'I' for Inactive)
REMARK    1  A    between atoms: C2_2  and  O1_3 
REMARK    2  A    between atoms: O1_3  and  C3_4 
REMARK    3  A    between atoms: C8_9  and  O2_10 
REMARK    4  A    between atoms: O2_10  and  C9_11 
REMARK    5  A    between atoms: C9_11  and  O3_12 
REMARK    6  A    between atoms: C9_11  and  C10_14 
REMARK    7  A    between atoms: C14_19  and  C15_20 
REMARK    8  A    between atoms: C15_20  and  O6_22 
ROOT
HETATM    1  C3  UNL     1      18.454 -21.700 -21.504  1.00  0.00     0.104 A 
HETATM    2  C4  UNL     1      17.849 -22.244 -20.400  1.00  0.00     0.079 A 
HETATM    3  C5  UNL     1      18.213 -23.498 -19.913  1.00  0.00     0.106 A 
HETATM    4  C6  UNL     1      19.196 -24.250 -20.518  1.00  0.00     0.106 A 
HETATM    5  C7  UNL     1      19.812 -23.702 -21.639  1.00  0.00     0.079 A 
HETATM    6  C8  UNL     1      19.454 -22.462 -22.122  1.00  0.00     0.108 A 
HETATM    7  O4  UNL     1      19.514 -25.471 -20.002  1.00  0.00    -0.330 OA
HETATM    8  C14 UNL     1      18.791 -26.142 -18.994  1.00  0.00     0.262 C 
HETATM    9  C17 UNL     1      17.966 -25.207 -18.147  1.00  0.00     0.096 C 
HETATM   10  C18 UNL     1      18.748 -24.942 -16.874  1.00  0.00     0.049 C 
HETATM   11  C19 UNL     1      16.665 -25.923 -17.758  1.00  0.00     0.049 C 
HETATM   12  O7  UNL     1      17.597 -24.032 -18.803  1.00  0.00    -0.335 OA
ENDROOT
BRANCH   6  13
HETATM   13  O2  UNL     1      20.059 -21.915 -23.229  1.00  0.00    -0.317 OA
BRANCH  13  14
HETATM   14  C9  UNL     1      20.119 -22.410 -24.517  1.00  0.00     0.271 C 
BRANCH  14  15
HETATM   15  O3  UNL     1      19.633 -21.429 -25.409  1.00  0.00    -0.370 OA
ATOM     16  H3  UNL     1      20.219 -21.373 -26.154  1.00  0.00     0.212 HD
ENDBRANCH  14  15
BRANCH  14  17
HETATM   17  C10 UNL     1      21.557 -22.737 -24.879  1.00  0.00    -0.001 C 
HETATM   18  C11 UNL     1      22.502 -21.977 -23.986  1.00  0.00     0.019 C 
HETATM   19  C12 UNL     1      21.767 -22.359 -26.324  1.00  0.00     0.019 C 
HETATM   20  C13 UNL     1      21.753 -24.223 -24.727  1.00  0.00     0.019 C 
ENDBRANCH  14  17
ENDBRANCH  13  14
ENDBRANCH   6  13
BRANCH   1  21
HETATM   21  O1  UNL     1      18.147 -20.476 -22.036  1.00  0.00    -0.349 OA
BRANCH  21  22
HETATM   22  C2  UNL     1      17.964 -19.269 -21.375  1.00  0.00     0.171 C 
HETATM   23  C1  UNL     1      19.232 -18.477 -21.188  1.00  0.00     0.034 C 
ENDBRANCH  21  22
ENDBRANCH   1  21
BRANCH   8  24
HETATM   24  C15 UNL     1      19.770 -26.924 -18.193  1.00  0.00     0.291 C 
HETATM   25  O5  UNL     1      19.444 -27.957 -17.547  1.00  0.00    -0.262 OA
BRANCH  24  26
HETATM   26  O6  UNL     1      21.116 -26.557 -18.109  1.00  0.00    -0.324 OA
HETATM   27  C16 UNL     1      21.924 -27.003 -17.033  1.00  0.00     0.213 C 
ENDBRANCH  24  26
ENDBRANCH   8  24
TORSDOF 8
ENDMDL
MODEL 5
REMARK VINA RESULT: -5.049033739      5.529      7.734
REMARK  8 active torsions:
REMARK  status: ('A' for Active; 'I' for Inactive)
REMARK    1  A    between atoms: C2_2  and  O1_3 
REMARK    2  A    between atoms: O1_3  and  C3_4 
REMARK    3  A    between atoms: C8_9  and  O2_10 
REMARK    4  A    between atoms: O2_10  and  C9_11 
REMARK    5  A    between atoms: C9_11  and  O3_12 
REMARK    6  A    between atoms: C9_11  and  C10_14 
REMARK    7  A    between atoms: C14_19  and  C15_20 
REMARK    8  A    between atoms: C15_20  and  O6_22 
ROOT
HETATM    1  C3  UNL     1      19.143 -20.876 -22.555  1.00  0.00     0.104 A 
HETATM    2  C4  UNL     1      18.076 -20.207 -22.011  1.00  0.00     0.079 A 
HETATM    3  C5  UNL     1      18.244 -19.024 -21.296  1.00  0.00     0.106 A 
HETATM    4  C6  UNL     1      19.490 -18.469 -21.101  1.00  0.00     0.106 A 
HETATM    5  C7  UNL     1      20.576 -19.143 -21.650  1.00  0.00     0.079 A 
HETATM    6  C8  UNL     1      20.412 -20.314 -22.359  1.00  0.00     0.108 A 
HETATM    7  O4  UNL     1      19.600 -17.309 -20.393  1.00  0.00    -0.330 OA
HETATM    8  C14 UNL     1      18.559 -16.700 -19.662  1.00  0.00     0.262 C 
HETATM    9  C17 UNL     1      17.191 -17.111 -20.142  1.00  0.00     0.096 C 
HETATM   10  C18 UNL     1      16.681 -16.007 -21.049  1.00  0.00     0.049 C 
HETATM   11  C19 UNL     1      16.254 -17.192 -18.929  1.00  0.00     0.049 C 
HETATM   12  O7  UNL     1      17.163 -18.363 -20.755  1.00  0.00    -0.335 OA
ENDROOT
BRANCH   6  13
HETATM   13  O2  UNL     1      21.481 -20.986 -22.905  1.00  0.00    -0.317 OA
BRANCH  13  14
HETATM   14  C9  UNL     1      22.273 -21.963 -22.334  1.00  0.00     0.271 C 
BRANCH  14  15
HETATM   15  O3  UNL     1      21.477 -22.753 -21.475  1.00  0.00    -0.370 OA
ATOM     16  H3  UNL     1      21.757 -22.610 -20.578  1.00  0.00     0.212 HD
ENDBRANCH  14  15
BRANCH  14  17
HETATM   17  C10 UNL     1      22.861 -22.850 -23.416  1.00  0.00    -0.001 C 
HETATM   18  C11 UNL     1      24.273 -23.235 -23.060  1.00  0.00     0.019 C 
HETATM   19  C12 UNL     1      22.828 -22.080 -24.713  1.00  0.00     0.019 C 
HETATM   20  C13 UNL     1      21.989 -24.072 -23.548  1.00  0.00     0.019 C 
ENDBRANCH  14  17
ENDBRANCH  13  14
ENDBRANCH   6  13
BRANCH   1  21
HETATM   21  O1  UNL     1      19.051 -22.041 -23.268  1.00  0.00    -0.349 OA
BRANCH  21  22
HETATM   22  C2  UNL     1      18.401 -22.266 -24.475  1.00  0.00     0.171 C 
HETATM   23  C1  UNL     1      19.136 -21.724 -25.673  1.00  0.00     0.034 C 
ENDBRANCH  21  22
ENDBRANCH   1  21
BRANCH   8  24
HETATM   24  C15 UNL     1      18.771 -15.229 -19.731  1.00  0.00     0.291 C 
HETATM   25  O5  UNL     1      19.229 -14.659 -20.757  1.00  0.00    -0.262 OA
BRANCH  24  26
HETATM   26  O6  UNL     1      18.471 -14.390 -18.654  1.00  0.00    -0.324 OA
HETATM   27  C16 UNL     1      18.980 -14.664 -17.358  1.00  0.00     0.213 C 
ENDBRANCH  24  26
ENDBRANCH   8  24
TORSDOF 8
ENDMDL
