MODEL 1
REMARK VINA RESULT: -9.117720342      0.000      0.000
REMARK  5 active torsions:
REMARK  status: ('A' for Active; 'I' for Inactive)
REMARK    1  A    between atoms: C2_2  and  C4_4 
REMARK    2  A    between atoms: C4_4  and  C5_5 
REMARK    3  A    between atoms: C5_5  and  C6_6 
REMARK    4  A    between atoms: C7_7  and  C8_8 
REMARK    5  A    between atoms: C10_10  and  O1_11 
ROOT
HETATM    1  C8  UNL     1      60.109 -28.961  32.204  1.00  0.00     0.099 C 
HETATM    2  C9  UNL     1      60.271 -29.669  30.894  1.00  0.00     0.051 C 
HETATM    3  C10 UNL     1      59.177 -29.422  29.919  1.00  0.00     0.122 C 
HETATM    4  C11 UNL     1      57.800 -29.448  30.493  1.00  0.00     0.067 C 
HETATM    5  C12 UNL     1      57.648 -28.749  31.796  1.00  0.00     0.167 C 
HETATM    6  O2  UNL     1      57.761 -27.354  31.724  1.00  0.00    -0.290 OA
HETATM    7  C13 UNL     1      58.252 -26.939  32.955  1.00  0.00     0.407 C 
HETATM    8  O3  UNL     1      58.365 -25.719  33.269  1.00  0.00    -0.229 OA
HETATM    9  O4  UNL     1      58.580 -28.048  33.743  1.00  0.00    -0.289 OA
HETATM   10  C14 UNL     1      58.728 -29.110  32.787  1.00  0.00     0.179 C 
ENDROOT
BRANCH   1  11
HETATM   11  C7  UNL     1      61.064 -29.548  33.155  1.00  0.00    -0.099 C 
HETATM   12  C6  UNL     1      61.837 -30.032  33.950  1.00  0.00    -0.106 C 
BRANCH  12  13
HETATM   13  C5  UNL     1      62.756 -30.634  34.926  1.00  0.00     0.094 C 
BRANCH  13  14
HETATM   14  C4  UNL     1      61.931 -31.551  35.802  1.00  0.00     0.016 C 
BRANCH  14  15
HETATM   15  C2  UNL     1      61.268 -30.804  36.929  1.00  0.00    -0.022 C 
HETATM   16  C1  UNL     1      59.775 -30.800  36.654  1.00  0.00     0.009 C 
HETATM   17  C3  UNL     1      61.558 -31.488  38.236  1.00  0.00     0.009 C 
ENDBRANCH  14  15
ENDBRANCH  13  14
ENDBRANCH  12  13
ENDBRANCH   1  11
BRANCH   3  18
HETATM   18  O1  UNL     1      59.446 -28.247  29.218  1.00  0.00    -0.395 OA
ATOM     19  H1  UNL     1      59.881 -28.464  28.402  1.00  0.00     0.210 HD
ENDBRANCH   3  18
TORSDOF 5
ENDMDL
MODEL 2
REMARK VINA RESULT: -7.977904245      1.631      2.714
REMARK  5 active torsions:
REMARK  status: ('A' for Active; 'I' for Inactive)
REMARK    1  A    between atoms: C2_2  and  C4_4 
REMARK    2  A    between atoms: C4_4  and  C5_5 
REMARK    3  A    between atoms: C5_5  and  C6_6 
REMARK    4  A    between atoms: C7_7  and  C8_8 
REMARK    5  A    between atoms: C10_10  and  O1_11 
ROOT
HETATM    1  C8  UNL     1      59.115 -29.710  32.899  1.00  0.00     0.099 C 
HETATM    2  C9  UNL     1      57.854 -29.781  33.704  1.00  0.00     0.051 C 
HETATM    3  C10 UNL     1      56.656 -29.221  33.026  1.00  0.00     0.122 C 
HETATM    4  C11 UNL     1      56.881 -27.934  32.305  1.00  0.00     0.067 C 
HETATM    5  C12 UNL     1      58.138 -27.868  31.513  1.00  0.00     0.167 C 
HETATM    6  O2  UNL     1      58.152 -28.690  30.377  1.00  0.00    -0.290 OA
HETATM    7  C13 UNL     1      59.481 -29.030  30.160  1.00  0.00     0.407 C 
HETATM    8  O3  UNL     1      59.863 -29.674  29.141  1.00  0.00    -0.229 OA
HETATM    9  O4  UNL     1      60.278 -28.558  31.209  1.00  0.00    -0.289 OA
HETATM   10  C14 UNL     1      59.343 -28.356  32.280  1.00  0.00     0.179 C 
ENDROOT
BRANCH   1  11
HETATM   11  C7  UNL     1      60.241 -29.989  33.800  1.00  0.00    -0.099 C 
HETATM   12  C6  UNL     1      61.158 -30.232  34.552  1.00  0.00    -0.106 C 
BRANCH  12  13
HETATM   13  C5  UNL     1      62.262 -30.549  35.469  1.00  0.00     0.094 C 
BRANCH  13  14
HETATM   14  C4  UNL     1      61.737 -31.570  36.454  1.00  0.00     0.016 C 
BRANCH  14  15
HETATM   15  C2  UNL     1      61.378 -30.943  37.775  1.00  0.00    -0.022 C 
HETATM   16  C1  UNL     1      59.864 -30.865  37.842  1.00  0.00     0.009 C 
HETATM   17  C3  UNL     1      61.909 -31.785  38.902  1.00  0.00     0.009 C 
ENDBRANCH  14  15
ENDBRANCH  13  14
ENDBRANCH  12  13
ENDBRANCH   1  11
BRANCH   3  18
HETATM   18  O1  UNL     1      56.089 -30.201  32.214  1.00  0.00    -0.395 OA
ATOM     19  H1  UNL     1      55.718 -29.790  31.443  1.00  0.00     0.210 HD
ENDBRANCH   3  18
TORSDOF 5
ENDMDL
MODEL 3
REMARK VINA RESULT: -7.926587362      1.738      2.812
REMARK  5 active torsions:
REMARK  status: ('A' for Active; 'I' for Inactive)
REMARK    1  A    between atoms: C2_2  and  C4_4 
REMARK    2  A    between atoms: C4_4  and  C5_5 
REMARK    3  A    between atoms: C5_5  and  C6_6 
REMARK    4  A    between atoms: C7_7  and  C8_8 
REMARK    5  A    between atoms: C10_10  and  O1_11 
ROOT
HETATM    1  C8  UNL     1      59.106 -28.681  33.933  1.00  0.00     0.099 C 
HETATM    2  C9  UNL     1      59.564 -27.261  34.060  1.00  0.00     0.051 C 
HETATM    3  C10 UNL     1      58.739 -26.277  33.314  1.00  0.00     0.122 C 
HETATM    4  C11 UNL     1      58.339 -26.698  31.939  1.00  0.00     0.067 C 
HETATM    5  C12 UNL     1      57.891 -28.111  31.820  1.00  0.00     0.167 C 
HETATM    6  O2  UNL     1      56.660 -28.383  32.432  1.00  0.00    -0.290 OA
HETATM    7  C13 UNL     1      56.703 -29.717  32.815  1.00  0.00     0.407 C 
HETATM    8  O3  UNL     1      55.702 -30.322  33.298  1.00  0.00    -0.229 OA
HETATM    9  O4  UNL     1      57.978 -30.245  32.585  1.00  0.00    -0.289 OA
HETATM   10  C14 UNL     1      58.817 -29.082  32.511  1.00  0.00     0.179 C 
ENDROOT
BRANCH   1  11
HETATM   11  C7  UNL     1      60.181 -29.549  34.436  1.00  0.00    -0.099 C 
HETATM   12  C6  UNL     1      61.066 -30.252  34.867  1.00  0.00    -0.106 C 
BRANCH  12  13
HETATM   13  C5  UNL     1      62.134 -31.101  35.413  1.00  0.00     0.094 C 
BRANCH  13  14
HETATM   14  C4  UNL     1      61.536 -31.873  36.568  1.00  0.00     0.016 C 
BRANCH  14  15
HETATM   15  C2  UNL     1      61.421 -31.026  37.809  1.00  0.00    -0.022 C 
HETATM   16  C1  UNL     1      59.945 -30.906  38.141  1.00  0.00     0.009 C 
HETATM   17  C3  UNL     1      62.161 -31.679  38.944  1.00  0.00     0.009 C 
ENDBRANCH  14  15
ENDBRANCH  13  14
ENDBRANCH  12  13
ENDBRANCH   1  11
BRANCH   3  18
HETATM   18  O1  UNL     1      57.650 -25.903  34.101  1.00  0.00    -0.395 OA
ATOM     19  H1  UNL     1      57.412 -26.628  34.666  1.00  0.00     0.210 HD
ENDBRANCH   3  18
TORSDOF 5
ENDMDL
MODEL 4
REMARK VINA RESULT: -7.730702181      2.630      5.689
REMARK  5 active torsions:
REMARK  status: ('A' for Active; 'I' for Inactive)
REMARK    1  A    between atoms: C2_2  and  C4_4 
REMARK    2  A    between atoms: C4_4  and  C5_5 
REMARK    3  A    between atoms: C5_5  and  C6_6 
REMARK    4  A    between atoms: C7_7  and  C8_8 
REMARK    5  A    between atoms: C10_10  and  O1_11 
ROOT
HETATM    1  C8  UNL     1      59.315 -29.704  32.738  1.00  0.00     0.099 C 
HETATM    2  C9  UNL     1      60.535 -29.251  31.997  1.00  0.00     0.051 C 
HETATM    3  C10 UNL     1      61.728 -29.024  32.853  1.00  0.00     0.122 C 
HETATM    4  C11 UNL     1      61.461 -28.312  34.137  1.00  0.00     0.067 C 
HETATM    5  C12 UNL     1      60.245 -28.763  34.864  1.00  0.00     0.167 C 
HETATM    6  O2  UNL     1      60.339 -30.050  35.413  1.00  0.00    -0.290 OA
HETATM    7  C13 UNL     1      59.047 -30.557  35.440  1.00  0.00     0.407 C 
HETATM    8  O3  UNL     1      58.759 -31.662  35.985  1.00  0.00    -0.229 OA
HETATM    9  O4  UNL     1      58.170 -29.680  34.793  1.00  0.00    -0.289 OA
HETATM   10  C14 UNL     1      59.035 -28.883  33.969  1.00  0.00     0.179 C 
ENDROOT
BRANCH   1  11
HETATM   11  C7  UNL     1      58.163 -29.570  31.835  1.00  0.00    -0.099 C 
HETATM   12  C6  UNL     1      57.207 -29.475  31.100  1.00  0.00    -0.106 C 
BRANCH  12  13
HETATM   13  C5  UNL     1      56.031 -29.370  30.225  1.00  0.00     0.094 C 
BRANCH  13  14
HETATM   14  C4  UNL     1      54.894 -30.078  30.927  1.00  0.00     0.016 C 
BRANCH  14  15
HETATM   15  C2  UNL     1      55.330 -31.396  31.512  1.00  0.00    -0.022 C 
HETATM   16  C1  UNL     1      54.216 -31.878  32.423  1.00  0.00     0.009 C 
HETATM   17  C3  UNL     1      55.572 -32.390  30.409  1.00  0.00     0.009 C 
ENDBRANCH  14  15
ENDBRANCH  13  14
ENDBRANCH  12  13
ENDBRANCH   1  11
BRANCH   3  18
HETATM   18  O1  UNL     1      62.397 -30.233  33.036  1.00  0.00    -0.395 OA
ATOM     19  H1  UNL     1      62.231 -30.550  33.917  1.00  0.00     0.210 HD
ENDBRANCH   3  18
TORSDOF 5
ENDMDL
MODEL 5
REMARK VINA RESULT: -7.640567248      1.833      3.227
REMARK  5 active torsions:
REMARK  status: ('A' for Active; 'I' for Inactive)
REMARK    1  A    between atoms: C2_2  and  C4_4 
REMARK    2  A    between atoms: C4_4  and  C5_5 
REMARK    3  A    between atoms: C5_5  and  C6_6 
REMARK    4  A    between atoms: C7_7  and  C8_8 
REMARK    5  A    between atoms: C10_10  and  O1_11 
ROOT
HETATM    1  C8  UNL     1      57.732 -29.899  32.295  1.00  0.00     0.099 C 
HETATM    2  C9  UNL     1      56.406 -30.576  32.460  1.00  0.00     0.051 C 
HETATM    3  C10 UNL     1      55.544 -30.548  31.250  1.00  0.00     0.122 C 
HETATM    4  C11 UNL     1      55.508 -29.243  30.528  1.00  0.00     0.067 C 
HETATM    5  C12 UNL     1      56.827 -28.573  30.374  1.00  0.00     0.167 C 
HETATM    6  O2  UNL     1      57.706 -29.217  29.492  1.00  0.00    -0.290 OA
HETATM    7  C13 UNL     1      58.988 -28.922  29.937  1.00  0.00     0.407 C 
HETATM    8  O3  UNL     1      60.027 -29.255  29.295  1.00  0.00    -0.229 OA
HETATM    9  O4  UNL     1      58.932 -28.229  31.151  1.00  0.00    -0.289 OA
HETATM   10  C14 UNL     1      57.623 -28.540  31.656  1.00  0.00     0.179 C 
ENDROOT
BRANCH   1  11
HETATM   11  C7  UNL     1      58.317 -29.723  33.632  1.00  0.00    -0.099 C 
HETATM   12  C6  UNL     1      58.811 -29.592  34.729  1.00  0.00    -0.106 C 
BRANCH  12  13
HETATM   13  C5  UNL     1      59.433 -29.442  36.052  1.00  0.00     0.094 C 
BRANCH  13  14
HETATM   14  C4  UNL     1      59.953 -30.805  36.452  1.00  0.00     0.016 C 
BRANCH  14  15
HETATM   15  C2  UNL     1      61.431 -30.780  36.740  1.00  0.00    -0.022 C 
HETATM   16  C1  UNL     1      61.679 -31.702  37.919  1.00  0.00     0.009 C 
HETATM   17  C3  UNL     1      62.195 -31.254  35.535  1.00  0.00     0.009 C 
ENDBRANCH  14  15
ENDBRANCH  13  14
ENDBRANCH  12  13
ENDBRANCH   1  11
BRANCH   3  18
HETATM   18  O1  UNL     1      55.886 -31.614  30.420  1.00  0.00    -0.395 OA
ATOM     19  H1  UNL     1      55.168 -32.234  30.396  1.00  0.00     0.210 HD
ENDBRANCH   3  18
TORSDOF 5
ENDMDL
