MODEL 1
REMARK VINA RESULT: -4.941694597      0.000      0.000
REMARK  6 active torsions:
REMARK  status: ('A' for Active; 'I' for Inactive)
REMARK    1  A    between atoms: C2_2  and  C3_3 
REMARK    2  A    between atoms: C3_3  and  C4_4 
REMARK       I    between atoms: C4_4  and  N1_6 
REMARK    3  A    between atoms: N1_6  and  C5_8 
REMARK    4  A    between atoms: C8_11  and  O2_12 
REMARK       I    between atoms: N2_15  and  C10_16 
REMARK       I    between atoms: C10_16  and  N3_18 
REMARK    5  A    between atoms: N3_18  and  C11_20 
REMARK    6  A    between atoms: C11_20  and  C13_22 
REMARK       I    between atoms: N4_34  and  C23_35 
ROOT
HETATM    1  C5  UNL     1      11.098 -15.341  16.476  1.00  0.00     0.026 C 
HETATM    2  C6  UNL     1      12.172 -14.242  16.648  1.00  0.00     0.025 C 
HETATM    3  C7  UNL     1      12.331 -13.128  15.774  1.00  0.00     0.016 C 
HETATM    4  C8  UNL     1      11.833 -12.791  14.432  1.00  0.00     0.113 C 
HETATM    5  C9  UNL     1      12.854 -13.308  13.388  1.00  0.00     0.177 C 
HETATM    6  N2  UNL     1      12.871 -14.688  13.694  1.00  0.00    -0.309 N 
HETATM    7  C10 UNL     1      13.978 -15.348  13.104  1.00  0.00     0.322 C 
HETATM    8  O3  UNL     1      14.756 -14.631  12.390  1.00  0.00    -0.247 OA
HETATM    9  N3  UNL     1      14.319 -16.697  13.215  1.00  0.00    -0.334 N 
ATOM     10  H3  UNL     1      13.729 -17.307  13.781  1.00  0.00     0.165 HD
HETATM   11  C19 UNL     1      12.021 -15.473  14.453  1.00  0.00     0.085 C 
HETATM   12  C20 UNL     1      10.718 -15.130  15.075  1.00  0.00     0.046 C 
HETATM   13  C21 UNL     1       9.866 -16.060  14.249  1.00  0.00     0.042 C 
HETATM   14  C22 UNL     1      10.181 -15.508  12.835  1.00  0.00     0.128 C 
HETATM   15  N4  UNL     1      10.259 -14.031  12.823  1.00  0.00    -0.344 N 
HETATM   16  C23 UNL     1       9.996 -13.480  11.533  1.00  0.00     0.216 C 
HETATM   17  C24 UNL     1       9.972 -12.023  11.231  1.00  0.00     0.117 C 
HETATM   18  O4  UNL     1       9.756 -14.224  10.531  1.00  0.00    -0.274 OA
HETATM   19  C25 UNL     1      10.535 -13.173  13.935  1.00  0.00     0.137 C 
HETATM   20  C26 UNL     1       9.905 -13.945  15.054  1.00  0.00     0.002 C 
HETATM   21  C27 UNL     1       9.476 -13.174  16.215  1.00  0.00     0.013 C 
HETATM   22  C28 UNL     1       8.777 -11.920  15.623  1.00  0.00     0.001 C 
HETATM   23  C29 UNL     1       7.924 -12.609  14.659  1.00  0.00     0.001 C 
HETATM   24  C30 UNL     1       8.447 -14.058  14.578  1.00  0.00     0.013 C 
ENDROOT
BRANCH   4  25
HETATM   25  O2  UNL     1      12.052 -11.408  14.228  1.00  0.00    -0.382 OA
ATOM     26  H2  UNL     1      11.203 -10.991  14.143  1.00  0.00     0.211 HD
ENDBRANCH   4  25
BRANCH   9  27
HETATM   27  C11 UNL     1      15.471 -17.260  12.564  1.00  0.00     0.115 C 
HETATM   28  C12 UNL     1      15.169 -18.704  12.219  1.00  0.00     0.037 C 
BRANCH  27  29
HETATM   29  C13 UNL     1      16.698 -17.260  13.388  1.00  0.00    -0.034 A 
HETATM   30  C14 UNL     1      16.804 -16.609  14.590  1.00  0.00     0.011 A 
HETATM   31  C15 UNL     1      17.974 -16.652  15.310  1.00  0.00     0.026 A 
HETATM   32  C16 UNL     1      19.065 -17.352  14.839  1.00  0.00     0.055 A 
HETATM   33 CL1  UNL     1      20.562 -17.406  15.768  1.00  0.00    -0.083 Cl
HETATM   34  C17 UNL     1      18.973 -18.014  13.628  1.00  0.00     0.056 A 
HETATM   35 CL2  UNL     1      20.357 -18.905  13.018  1.00  0.00    -0.083 Cl
HETATM   36  C18 UNL     1      17.775 -17.956  12.912  1.00  0.00     0.034 A 
ENDBRANCH  27  29
ENDBRANCH   9  27
BRANCH   1  37
HETATM   37  N1  UNL     1      10.276 -15.603  17.540  1.00  0.00    -0.330 N 
HETATM   38  C4  UNL     1      10.475 -16.791  18.353  1.00  0.00     0.221 C 
HETATM   39  O1  UNL     1      11.419 -17.572  18.058  1.00  0.00    -0.273 OA
ATOM     40  H1  UNL     1       9.518 -14.959  17.764  1.00  0.00     0.168 HD
BRANCH  38  41
HETATM   41  C3  UNL     1       9.620 -17.114  19.499  1.00  0.00     0.103 C 
BRANCH  41  42
HETATM   42  C2  UNL     1       8.175 -17.086  19.060  1.00  0.00     0.005 C 
HETATM   43  C1  UNL     1       8.040 -17.937  17.797  1.00  0.00     0.005 C 
ENDBRANCH  41  42
ENDBRANCH  38  41
ENDBRANCH   1  37
TORSDOF 6
ENDMDL
MODEL 2
REMARK VINA RESULT: -4.653171480      2.687      4.405
REMARK  6 active torsions:
REMARK  status: ('A' for Active; 'I' for Inactive)
REMARK    1  A    between atoms: C2_2  and  C3_3 
REMARK    2  A    between atoms: C3_3  and  C4_4 
REMARK       I    between atoms: C4_4  and  N1_6 
REMARK    3  A    between atoms: N1_6  and  C5_8 
REMARK    4  A    between atoms: C8_11  and  O2_12 
REMARK       I    between atoms: N2_15  and  C10_16 
REMARK       I    between atoms: C10_16  and  N3_18 
REMARK    5  A    between atoms: N3_18  and  C11_20 
REMARK    6  A    between atoms: C11_20  and  C13_22 
REMARK       I    between atoms: N4_34  and  C23_35 
ROOT
HETATM    1  C5  UNL     1      14.054 -14.626  15.884  1.00  0.00     0.026 C 
HETATM    2  C6  UNL     1      14.923 -13.506  15.266  1.00  0.00     0.025 C 
HETATM    3  C7  UNL     1      15.318 -13.457  13.898  1.00  0.00     0.016 C 
HETATM    4  C8  UNL     1      15.322 -14.424  12.790  1.00  0.00     0.113 C 
HETATM    5  C9  UNL     1      16.682 -15.165  12.793  1.00  0.00     0.177 C 
HETATM    6  N2  UNL     1      16.671 -15.733  14.087  1.00  0.00    -0.309 N 
HETATM    7  C10 UNL     1      17.955 -16.192  14.474  1.00  0.00     0.322 C 
HETATM    8  O3  UNL     1      18.894 -16.051  13.620  1.00  0.00    -0.247 OA
HETATM    9  N3  UNL     1      18.316 -16.782  15.688  1.00  0.00    -0.334 N 
ATOM     10  H3  UNL     1      17.599 -16.909  16.403  1.00  0.00     0.165 HD
HETATM   11  C19 UNL     1      15.654 -15.905  15.009  1.00  0.00     0.085 C 
HETATM   12  C20 UNL     1      14.196 -15.672  14.864  1.00  0.00     0.046 C 
HETATM   13  C21 UNL     1      13.760 -17.107  15.015  1.00  0.00     0.042 C 
HETATM   14  C22 UNL     1      14.532 -17.735  13.826  1.00  0.00     0.128 C 
HETATM   15  N4  UNL     1      14.518 -16.859  12.634  1.00  0.00    -0.344 N 
HETATM   16  C23 UNL     1      14.708 -17.586  11.420  1.00  0.00     0.216 C 
HETATM   17  C24 UNL     1      14.705 -16.971  10.065  1.00  0.00     0.117 C 
HETATM   18  O4  UNL     1      14.895 -18.843  11.422  1.00  0.00    -0.274 OA
HETATM   19  C25 UNL     1      14.319 -15.443  12.607  1.00  0.00     0.137 C 
HETATM   20  C26 UNL     1      13.375 -15.265  13.757  1.00  0.00     0.002 C 
HETATM   21  C27 UNL     1      12.506 -14.095  13.712  1.00  0.00     0.013 C 
HETATM   22  C28 UNL     1      11.994 -14.036  12.247  1.00  0.00     0.001 C 
HETATM   23  C29 UNL     1      11.593 -15.435  12.125  1.00  0.00     0.001 C 
HETATM   24  C30 UNL     1      12.198 -16.165  13.341  1.00  0.00     0.013 C 
ENDROOT
BRANCH   4  25
HETATM   25  O2  UNL     1      15.514 -13.699  11.589  1.00  0.00    -0.382 OA
ATOM     26  H2  UNL     1      15.417 -14.308  10.866  1.00  0.00     0.211 HD
ENDBRANCH   4  25
BRANCH   9  27
HETATM   27  C11 UNL     1      19.657 -17.214  15.969  1.00  0.00     0.115 C 
HETATM   28  C12 UNL     1      20.535 -15.988  16.117  1.00  0.00     0.037 C 
BRANCH  27  29
HETATM   29  C13 UNL     1      20.261 -18.053  14.912  1.00  0.00    -0.034 A 
HETATM   30  C14 UNL     1      21.074 -17.559  13.925  1.00  0.00     0.011 A 
HETATM   31  C15 UNL     1      21.608 -18.395  12.973  1.00  0.00     0.026 A 
HETATM   32  C16 UNL     1      21.338 -19.747  12.992  1.00  0.00     0.055 A 
HETATM   33 CL1  UNL     1      22.028 -20.815  11.771  1.00  0.00    -0.083 Cl
HETATM   34  C17 UNL     1      20.520 -20.260  13.983  1.00  0.00     0.056 A 
HETATM   35 CL2  UNL     1      20.168 -21.979  14.015  1.00  0.00    -0.083 Cl
HETATM   36  C18 UNL     1      19.987 -19.393  14.939  1.00  0.00     0.034 A 
ENDBRANCH  27  29
ENDBRANCH   9  27
BRANCH   1  37
HETATM   37  N1  UNL     1      12.920 -14.257  16.558  1.00  0.00    -0.330 N 
HETATM   38  C4  UNL     1      12.101 -15.252  17.229  1.00  0.00     0.221 C 
HETATM   39  O1  UNL     1      12.458 -16.459  17.179  1.00  0.00    -0.273 OA
ATOM     40  H1  UNL     1      12.647 -13.275  16.588  1.00  0.00     0.168 HD
BRANCH  38  41
HETATM   41  C3  UNL     1      10.879 -14.905  17.961  1.00  0.00     0.103 C 
BRANCH  41  42
HETATM   42  C2  UNL     1       9.847 -15.986  17.738  1.00  0.00     0.005 C 
HETATM   43  C1  UNL     1       9.504 -16.608  19.092  1.00  0.00     0.005 C 
ENDBRANCH  41  42
ENDBRANCH  38  41
ENDBRANCH   1  37
TORSDOF 6
ENDMDL
MODEL 3
REMARK VINA RESULT: -4.638148857      0.627      1.178
REMARK  6 active torsions:
REMARK  status: ('A' for Active; 'I' for Inactive)
REMARK    1  A    between atoms: C2_2  and  C3_3 
REMARK    2  A    between atoms: C3_3  and  C4_4 
REMARK       I    between atoms: C4_4  and  N1_6 
REMARK    3  A    between atoms: N1_6  and  C5_8 
REMARK    4  A    between atoms: C8_11  and  O2_12 
REMARK       I    between atoms: N2_15  and  C10_16 
REMARK       I    between atoms: C10_16  and  N3_18 
REMARK    5  A    between atoms: N3_18  and  C11_20 
REMARK    6  A    between atoms: C11_20  and  C13_22 
REMARK       I    between atoms: N4_34  and  C23_35 
ROOT
HETATM    1  C5  UNL     1      11.212 -15.300  16.466  1.00  0.00     0.026 C 
HETATM    2  C6  UNL     1      12.245 -14.160  16.626  1.00  0.00     0.025 C 
HETATM    3  C7  UNL     1      12.356 -13.046  15.745  1.00  0.00     0.016 C 
HETATM    4  C8  UNL     1      11.839 -12.736  14.404  1.00  0.00     0.113 C 
HETATM    5  C9  UNL     1      12.874 -13.220  13.358  1.00  0.00     0.177 C 
HETATM    6  N2  UNL     1      12.945 -14.596  13.672  1.00  0.00    -0.309 N 
HETATM    7  C10 UNL     1      14.074 -15.217  13.079  1.00  0.00     0.322 C 
HETATM    8  O3  UNL     1      14.821 -14.475  12.357  1.00  0.00    -0.247 OA
HETATM    9  N3  UNL     1      14.467 -16.552  13.197  1.00  0.00    -0.334 N 
ATOM     10  H3  UNL     1      13.903 -17.181  13.770  1.00  0.00     0.165 HD
HETATM   11  C19 UNL     1      12.130 -15.409  14.439  1.00  0.00     0.085 C 
HETATM   12  C20 UNL     1      10.818 -15.112  15.066  1.00  0.00     0.046 C 
HETATM   13  C21 UNL     1       9.997 -16.079  14.250  1.00  0.00     0.042 C 
HETATM   14  C22 UNL     1      10.284 -15.524  12.832  1.00  0.00     0.128 C 
HETATM   15  N4  UNL     1      10.306 -14.045  12.811  1.00  0.00    -0.344 N 
HETATM   16  C23 UNL     1      10.016 -13.512  11.519  1.00  0.00     0.216 C 
HETATM   17  C24 UNL     1       9.934 -12.059  11.209  1.00  0.00     0.117 C 
HETATM   18  O4  UNL     1       9.800 -14.271  10.522  1.00  0.00    -0.274 OA
HETATM   19  C25 UNL     1      10.554 -13.171  13.916  1.00  0.00     0.137 C 
HETATM   20  C26 UNL     1       9.960 -13.959  15.043  1.00  0.00     0.002 C 
HETATM   21  C27 UNL     1       9.507 -13.199  16.201  1.00  0.00     0.013 C 
HETATM   22  C28 UNL     1       8.758 -11.975  15.606  1.00  0.00     0.001 C 
HETATM   23  C29 UNL     1       7.927 -12.703  14.650  1.00  0.00     0.001 C 
HETATM   24  C30 UNL     1       8.505 -14.130  14.575  1.00  0.00     0.013 C 
ENDROOT
BRANCH   4  25
HETATM   25  O2  UNL     1      12.004 -11.347  14.191  1.00  0.00    -0.382 OA
ATOM     26  H2  UNL     1      11.818 -11.171  13.276  1.00  0.00     0.211 HD
ENDBRANCH   4  25
BRANCH   9  27
HETATM   27  C11 UNL     1      15.636 -17.074  12.543  1.00  0.00     0.115 C 
HETATM   28  C12 UNL     1      15.362 -18.511  12.148  1.00  0.00     0.037 C 
BRANCH  27  29
HETATM   29  C13 UNL     1      16.852 -17.081  13.383  1.00  0.00    -0.034 A 
HETATM   30  C14 UNL     1      17.814 -18.055  13.316  1.00  0.00     0.011 A 
HETATM   31  C15 UNL     1      18.925 -18.001  14.123  1.00  0.00     0.026 A 
HETATM   32  C16 UNL     1      19.096 -16.963  15.016  1.00  0.00     0.055 A 
HETATM   33 CL1  UNL     1      20.525 -16.896  16.047  1.00  0.00    -0.083 Cl
HETATM   34  C17 UNL     1      18.134 -15.972  15.094  1.00  0.00     0.056 A 
HETATM   35 CL2  UNL     1      18.341 -14.648  16.228  1.00  0.00    -0.083 Cl
HETATM   36  C18 UNL     1      17.013 -16.048  14.266  1.00  0.00     0.034 A 
ENDBRANCH  27  29
ENDBRANCH   9  27
BRANCH   1  37
HETATM   37  N1  UNL     1      10.407 -15.587  17.536  1.00  0.00    -0.330 N 
HETATM   38  C4  UNL     1      10.592 -16.813  18.294  1.00  0.00     0.221 C 
HETATM   39  O1  UNL     1      11.509 -17.603  17.946  1.00  0.00    -0.273 OA
ATOM     40  H1  UNL     1       9.669 -14.935  17.803  1.00  0.00     0.168 HD
BRANCH  38  41
HETATM   41  C3  UNL     1       9.753 -17.164  19.444  1.00  0.00     0.103 C 
BRANCH  41  42
HETATM   42  C2  UNL     1       8.300 -17.010  19.060  1.00  0.00     0.005 C 
HETATM   43  C1  UNL     1       8.029 -17.894  17.843  1.00  0.00     0.005 C 
ENDBRANCH  41  42
ENDBRANCH  38  41
ENDBRANCH   1  37
TORSDOF 6
ENDMDL
MODEL 4
REMARK VINA RESULT: -4.607585212      0.834      1.207
REMARK  6 active torsions:
REMARK  status: ('A' for Active; 'I' for Inactive)
REMARK    1  A    between atoms: C2_2  and  C3_3 
REMARK    2  A    between atoms: C3_3  and  C4_4 
REMARK       I    between atoms: C4_4  and  N1_6 
REMARK    3  A    between atoms: N1_6  and  C5_8 
REMARK    4  A    between atoms: C8_11  and  O2_12 
REMARK       I    between atoms: N2_15  and  C10_16 
REMARK       I    between atoms: C10_16  and  N3_18 
REMARK    5  A    between atoms: N3_18  and  C11_20 
REMARK    6  A    between atoms: C11_20  and  C13_22 
REMARK       I    between atoms: N4_34  and  C23_35 
ROOT
HETATM    1  C5  UNL     1      11.519 -15.432  16.459  1.00  0.00     0.026 C 
HETATM    2  C6  UNL     1      12.708 -14.443  16.444  1.00  0.00     0.025 C 
HETATM    3  C7  UNL     1      12.863 -13.387  15.501  1.00  0.00     0.016 C 
HETATM    4  C8  UNL     1      12.238 -13.054  14.212  1.00  0.00     0.113 C 
HETATM    5  C9  UNL     1      13.066 -13.714  13.082  1.00  0.00     0.177 C 
HETATM    6  N2  UNL     1      12.987 -15.075  13.455  1.00  0.00    -0.309 N 
HETATM    7  C10 UNL     1      13.943 -15.868  12.771  1.00  0.00     0.322 C 
HETATM    8  O3  UNL     1      14.692 -15.264  11.933  1.00  0.00    -0.247 OA
HETATM    9  N3  UNL     1      14.163 -17.240  12.911  1.00  0.00    -0.334 N 
ATOM     10  H3  UNL     1      13.591 -17.763  13.574  1.00  0.00     0.165 HD
HETATM   11  C19 UNL     1      12.166 -15.738  14.350  1.00  0.00     0.085 C 
HETATM   12  C20 UNL     1      10.990 -15.239  15.104  1.00  0.00     0.046 C 
HETATM   13  C21 UNL     1       9.955 -16.109  14.436  1.00  0.00     0.042 C 
HETATM   14  C22 UNL     1      10.144 -15.648  12.968  1.00  0.00     0.128 C 
HETATM   15  N4  UNL     1      10.363 -14.188  12.870  1.00  0.00    -0.344 N 
HETATM   16  C23 UNL     1       9.997 -13.665  11.594  1.00  0.00     0.216 C 
HETATM   17  C24 UNL     1      10.076 -12.226  11.222  1.00  0.00     0.117 C 
HETATM   18  O4  UNL     1       9.563 -14.420  10.668  1.00  0.00    -0.274 OA
HETATM   19  C25 UNL     1      10.857 -13.320  13.894  1.00  0.00     0.137 C 
HETATM   20  C26 UNL     1      10.300 -13.978  15.120  1.00  0.00     0.002 C 
HETATM   21  C27 UNL     1      10.094 -13.123  16.282  1.00  0.00     0.013 C 
HETATM   22  C28 UNL     1       9.452 -11.827  15.714  1.00  0.00     0.001 C 
HETATM   23  C29 UNL     1       8.423 -12.463  14.896  1.00  0.00     0.001 C 
HETATM   24  C30 UNL     1       8.790 -13.960  14.828  1.00  0.00     0.013 C 
ENDROOT
BRANCH   4  25
HETATM   25  O2  UNL     1      12.563 -11.710  13.912  1.00  0.00    -0.382 OA
ATOM     26  H2  UNL     1      12.530 -11.609  12.967  1.00  0.00     0.211 HD
ENDBRANCH   4  25
BRANCH   9  27
HETATM   27  C11 UNL     1      15.165 -17.943  12.156  1.00  0.00     0.115 C 
HETATM   28  C12 UNL     1      15.027 -19.424  12.442  1.00  0.00     0.037 C 
BRANCH  27  29
HETATM   29  C13 UNL     1      16.554 -17.565  12.488  1.00  0.00    -0.034 A 
HETATM   30  C14 UNL     1      17.483 -17.194  11.551  1.00  0.00     0.011 A 
HETATM   31  C15 UNL     1      18.760 -16.850  11.927  1.00  0.00     0.026 A 
HETATM   32  C16 UNL     1      19.132 -16.870  13.255  1.00  0.00     0.055 A 
HETATM   33 CL1  UNL     1      20.770 -16.425  13.732  1.00  0.00    -0.083 Cl
HETATM   34  C17 UNL     1      18.205 -17.242  14.212  1.00  0.00     0.056 A 
HETATM   35 CL2  UNL     1      18.670 -17.273  15.905  1.00  0.00    -0.083 Cl
HETATM   36  C18 UNL     1      16.914 -17.589  13.808  1.00  0.00     0.034 A 
ENDBRANCH  27  29
ENDBRANCH   9  27
BRANCH   1  37
HETATM   37  N1  UNL     1      10.814 -15.566  17.626  1.00  0.00    -0.330 N 
HETATM   38  C4  UNL     1      10.832 -16.820  18.361  1.00  0.00     0.221 C 
HETATM   39  O1  UNL     1      11.510 -17.777  17.902  1.00  0.00    -0.273 OA
ATOM     40  H1  UNL     1      10.272 -14.779  17.982  1.00  0.00     0.168 HD
BRANCH  38  41
HETATM   41  C3  UNL     1      10.093 -17.011  19.612  1.00  0.00     0.103 C 
BRANCH  41  42
HETATM   42  C2  UNL     1       9.047 -18.082  19.408  1.00  0.00     0.005 C 
HETATM   43  C1  UNL     1       8.033 -17.574  18.383  1.00  0.00     0.005 C 
ENDBRANCH  41  42
ENDBRANCH  38  41
ENDBRANCH   1  37
TORSDOF 6
ENDMDL
MODEL 5
REMARK VINA RESULT: -4.487505634      2.731      4.496
REMARK  6 active torsions:
REMARK  status: ('A' for Active; 'I' for Inactive)
REMARK    1  A    between atoms: C2_2  and  C3_3 
REMARK    2  A    between atoms: C3_3  and  C4_4 
REMARK       I    between atoms: C4_4  and  N1_6 
REMARK    3  A    between atoms: N1_6  and  C5_8 
REMARK    4  A    between atoms: C8_11  and  O2_12 
REMARK       I    between atoms: N2_15  and  C10_16 
REMARK       I    between atoms: C10_16  and  N3_18 
REMARK    5  A    between atoms: N3_18  and  C11_20 
REMARK    6  A    between atoms: C11_20  and  C13_22 
REMARK       I    between atoms: N4_34  and  C23_35 
ROOT
HETATM    1  C5  UNL     1      14.208 -14.747  15.843  1.00  0.00     0.026 C 
HETATM    2  C6  UNL     1      15.119 -13.647  15.250  1.00  0.00     0.025 C 
HETATM    3  C7  UNL     1      15.516 -13.581  13.884  1.00  0.00     0.016 C 
HETATM    4  C8  UNL     1      15.481 -14.520  12.752  1.00  0.00     0.113 C 
HETATM    5  C9  UNL     1      16.811 -15.314  12.736  1.00  0.00     0.177 C 
HETATM    6  N2  UNL     1      16.778 -15.912  14.015  1.00  0.00    -0.309 N 
HETATM    7  C10 UNL     1      18.044 -16.430  14.389  1.00  0.00     0.322 C 
HETATM    8  O3  UNL     1      18.987 -16.305  13.538  1.00  0.00    -0.247 OA
HETATM    9  N3  UNL     1      18.382 -17.062  15.588  1.00  0.00    -0.334 N 
ATOM     10  H3  UNL     1      17.661 -17.178  16.301  1.00  0.00     0.165 HD
HETATM   11  C19 UNL     1      15.756 -16.066  14.935  1.00  0.00     0.085 C 
HETATM   12  C20 UNL     1      14.308 -15.772  14.798  1.00  0.00     0.046 C 
HETATM   13  C21 UNL     1      13.817 -17.193  14.916  1.00  0.00     0.042 C 
HETATM   14  C22 UNL     1      14.563 -17.821  13.711  1.00  0.00     0.128 C 
HETATM   15  N4  UNL     1      14.582 -16.918  12.540  1.00  0.00    -0.344 N 
HETATM   16  C23 UNL     1      14.742 -17.622  11.309  1.00  0.00     0.216 C 
HETATM   17  C24 UNL     1      14.763 -16.976   9.968  1.00  0.00     0.117 C 
HETATM   18  O4  UNL     1      14.880 -18.885  11.281  1.00  0.00    -0.274 OA
HETATM   19  C25 UNL     1      14.438 -15.494  12.547  1.00  0.00     0.137 C 
HETATM   20  C26 UNL     1      13.503 -15.308  13.702  1.00  0.00     0.002 C 
HETATM   21  C27 UNL     1      12.681 -14.104  13.687  1.00  0.00     0.013 C 
HETATM   22  C28 UNL     1      12.170 -13.989  12.224  1.00  0.00     0.001 C 
HETATM   23  C29 UNL     1      11.715 -15.368  12.070  1.00  0.00     0.001 C 
HETATM   24  C30 UNL     1      12.292 -16.150  13.267  1.00  0.00     0.013 C 
ENDROOT
BRANCH   4  25
HETATM   25  O2  UNL     1      15.700 -13.775  11.569  1.00  0.00    -0.382 OA
ATOM     26  H2  UNL     1      14.949 -13.207  11.442  1.00  0.00     0.211 HD
ENDBRANCH   4  25
BRANCH   9  27
HETATM   27  C11 UNL     1      19.706 -17.553  15.856  1.00  0.00     0.115 C 
HETATM   28  C12 UNL     1      20.654 -16.373  15.905  1.00  0.00     0.037 C 
BRANCH  27  29
HETATM   29  C13 UNL     1      20.229 -18.486  14.836  1.00  0.00    -0.034 A 
HETATM   30  C14 UNL     1      19.715 -19.739  14.620  1.00  0.00     0.011 A 
HETATM   31  C15 UNL     1      20.245 -20.557  13.651  1.00  0.00     0.026 A 
HETATM   32  C16 UNL     1      21.304 -20.133  12.874  1.00  0.00     0.055 A 
HETATM   33 CL1  UNL     1      21.978 -21.185  11.631  1.00  0.00    -0.083 Cl
HETATM   34  C17 UNL     1      21.832 -18.872  13.081  1.00  0.00     0.056 A 
HETATM   35 CL2  UNL     1      23.181 -18.324  12.100  1.00  0.00    -0.083 Cl
HETATM   36  C18 UNL     1      21.279 -18.058  14.072  1.00  0.00     0.034 A 
ENDBRANCH  27  29
ENDBRANCH   9  27
BRANCH   1  37
HETATM   37  N1  UNL     1      13.090 -14.350  16.527  1.00  0.00    -0.330 N 
HETATM   38  C4  UNL     1      12.232 -15.328  17.175  1.00  0.00     0.221 C 
HETATM   39  O1  UNL     1      12.541 -16.547  17.093  1.00  0.00    -0.273 OA
ATOM     40  H1  UNL     1      12.857 -13.358  16.583  1.00  0.00     0.168 HD
BRANCH  38  41
HETATM   41  C3  UNL     1      11.025 -14.951  17.916  1.00  0.00     0.103 C 
BRANCH  41  42
HETATM   42  C2  UNL     1       9.950 -15.983  17.665  1.00  0.00     0.005 C 
HETATM   43  C1  UNL     1       9.603 -16.648  18.997  1.00  0.00     0.005 C 
ENDBRANCH  41  42
ENDBRANCH  38  41
ENDBRANCH   1  37
TORSDOF 6
ENDMDL
