MODEL 1
REMARK VINA RESULT: -10.160671127      0.000      0.000
REMARK  4 active torsions:
REMARK  status: ('A' for Active; 'I' for Inactive)
REMARK    1  A    between atoms: C2_2  and  C3_3 
REMARK    2  A    between atoms: C8_9  and  C9_10 
REMARK    3  A    between atoms: C12_13  and  O1_15 
REMARK    4  A    between atoms: O1_15  and  C14_16 
ROOT
HETATM    1  C9  UNL     1     -20.393  17.297 -18.659  1.00  0.00     0.217 C 
HETATM    2  C10 UNL     1     -19.952  18.617 -19.099  1.00  0.00     0.014 C 
HETATM    3  C11 UNL     1     -20.622  19.553 -19.729  1.00  0.00     0.042 C 
HETATM    4  C12 UNL     1     -22.033  19.529 -20.177  1.00  0.00     0.220 C 
HETATM    5  C13 UNL     1     -22.674  20.799 -19.652  1.00  0.00     0.087 C 
HETATM    6  O3  UNL     1     -22.744  18.406 -19.874  1.00  0.00    -0.193 OA
HETATM    7  O4  UNL     1     -23.800  18.638 -19.114  1.00  0.00    -0.194 OA
HETATM    8  C16 UNL     1     -23.520  18.241 -17.783  1.00  0.00     0.229 C 
HETATM    9  C17 UNL     1     -24.212  19.046 -16.782  1.00  0.00     0.074 C 
HETATM   10  C18 UNL     1     -25.455  18.503 -16.173  1.00  0.00     0.006 C 
HETATM   11  C19 UNL     1     -25.668  17.038 -16.321  1.00  0.00     0.000 C 
HETATM   12  C20 UNL     1     -25.229  16.468 -17.635  1.00  0.00     0.006 C 
HETATM   13  C21 UNL     1     -23.753  16.760 -17.734  1.00  0.00     0.074 C 
HETATM   14  O5  UNL     1     -22.113  18.420 -17.710  1.00  0.00    -0.197 OA
HETATM   15  O6  UNL     1     -21.486  17.298 -17.791  1.00  0.00    -0.224 OA
ENDROOT
BRANCH   1  16
HETATM   16  C8  UNL     1     -19.318  16.401 -18.166  1.00  0.00    -0.016 A 
HETATM   17  C3  UNL     1     -18.250  16.067 -18.909  1.00  0.00    -0.048 A 
HETATM   18  C4  UNL     1     -17.329  15.116 -18.407  1.00  0.00     0.031 A 
HETATM   19  C5  UNL     1     -17.499  14.533 -17.179  1.00  0.00     0.034 A 
HETATM   20 CL1  UNL     1     -16.375  13.352 -16.530  1.00  0.00    -0.084 Cl
HETATM   21  C6  UNL     1     -18.578  14.868 -16.414  1.00  0.00     0.024 A 
HETATM   22  C7  UNL     1     -19.462  15.781 -16.906  1.00  0.00     0.012 A 
BRANCH  17  23
HETATM   23  C2  UNL     1     -17.880  16.690 -20.177  1.00  0.00     0.035 C 
HETATM   24  C1  UNL     1     -16.387  17.047 -20.059  1.00  0.00     0.010 C 
ENDBRANCH  17  23
ENDBRANCH   1  16
BRANCH   4  25
HETATM   25  O1  UNL     1     -21.948  19.587 -21.618  1.00  0.00    -0.277 OA
BRANCH  25  26
HETATM   26  C14 UNL     1     -21.724  20.776 -22.291  1.00  0.00     0.257 C 
HETATM   27  C15 UNL     1     -20.368  21.360 -22.458  1.00  0.00     0.126 C 
HETATM   28  O2  UNL     1     -22.740  21.348 -22.765  1.00  0.00    -0.266 OA
ENDBRANCH  25  26
ENDBRANCH   4  25
TORSDOF 4
ENDMDL
MODEL 2
REMARK VINA RESULT: -9.978276665      0.979      1.231
REMARK  4 active torsions:
REMARK  status: ('A' for Active; 'I' for Inactive)
REMARK    1  A    between atoms: C2_2  and  C3_3 
REMARK    2  A    between atoms: C8_9  and  C9_10 
REMARK    3  A    between atoms: C12_13  and  O1_15 
REMARK    4  A    between atoms: O1_15  and  C14_16 
ROOT
HETATM    1  C9  UNL     1     -20.426  17.151 -18.067  1.00  0.00     0.217 C 
HETATM    2  C10 UNL     1     -19.854  18.401 -18.557  1.00  0.00     0.014 C 
HETATM    3  C11 UNL     1     -20.380  19.304 -19.351  1.00  0.00     0.042 C 
HETATM    4  C12 UNL     1     -21.721  19.306 -19.979  1.00  0.00     0.220 C 
HETATM    5  C13 UNL     1     -22.348  20.649 -19.658  1.00  0.00     0.087 C 
HETATM    6  O3  UNL     1     -22.531  18.252 -19.678  1.00  0.00    -0.193 OA
HETATM    7  O4  UNL     1     -23.660  18.605 -19.088  1.00  0.00    -0.194 OA
HETATM    8  C16 UNL     1     -23.578  18.322 -17.702  1.00  0.00     0.229 C 
HETATM    9  C17 UNL     1     -24.344  19.251 -16.877  1.00  0.00     0.074 C 
HETATM   10  C18 UNL     1     -25.685  18.829 -16.394  1.00  0.00     0.006 C 
HETATM   11  C19 UNL     1     -25.964  17.368 -16.440  1.00  0.00     0.000 C 
HETATM   12  C20 UNL     1     -25.395  16.655 -17.629  1.00  0.00     0.006 C 
HETATM   13  C21 UNL     1     -23.904  16.866 -17.555  1.00  0.00     0.074 C 
HETATM   14  O5  UNL     1     -22.184  18.440 -17.458  1.00  0.00    -0.197 OA
HETATM   15  O6  UNL     1     -21.620  17.287 -17.356  1.00  0.00    -0.224 OA
ENDROOT
BRANCH   1  16
HETATM   16  C8  UNL     1     -19.480  16.255 -17.358  1.00  0.00    -0.016 A 
HETATM   17  C3  UNL     1     -18.483  15.606 -17.984  1.00  0.00    -0.048 A 
HETATM   18  C4  UNL     1     -17.696  14.682 -17.256  1.00  0.00     0.031 A 
HETATM   19  C5  UNL     1     -17.923  14.438 -15.927  1.00  0.00     0.034 A 
HETATM   20 CL1  UNL     1     -16.965  13.299 -14.998  1.00  0.00    -0.084 Cl
HETATM   21  C6  UNL     1     -18.930  15.094 -15.281  1.00  0.00     0.024 A 
HETATM   22  C7  UNL     1     -19.685  15.980 -15.989  1.00  0.00     0.012 A 
BRANCH  17  23
HETATM   23  C2  UNL     1     -18.054  15.851 -19.358  1.00  0.00     0.035 C 
HETATM   24  C1  UNL     1     -16.514  15.853 -19.331  1.00  0.00     0.010 C 
ENDBRANCH  17  23
ENDBRANCH   1  16
BRANCH   4  25
HETATM   25  O1  UNL     1     -21.448  19.223 -21.395  1.00  0.00    -0.277 OA
BRANCH  25  26
HETATM   26  C14 UNL     1     -20.165  19.341 -21.903  1.00  0.00     0.257 C 
HETATM   27  C15 UNL     1     -19.517  20.656 -22.146  1.00  0.00     0.126 C 
HETATM   28  O2  UNL     1     -19.563  18.264 -22.153  1.00  0.00    -0.266 OA
ENDBRANCH  25  26
ENDBRANCH   4  25
TORSDOF 4
ENDMDL
MODEL 3
REMARK VINA RESULT: -9.724331727      1.748      2.283
REMARK  4 active torsions:
REMARK  status: ('A' for Active; 'I' for Inactive)
REMARK    1  A    between atoms: C2_2  and  C3_3 
REMARK    2  A    between atoms: C8_9  and  C9_10 
REMARK    3  A    between atoms: C12_13  and  O1_15 
REMARK    4  A    between atoms: O1_15  and  C14_16 
ROOT
HETATM    1  C9  UNL     1     -21.141  18.139 -19.280  1.00  0.00     0.217 C 
HETATM    2  C10 UNL     1     -21.238  19.508 -19.777  1.00  0.00     0.014 C 
HETATM    3  C11 UNL     1     -22.302  20.248 -19.979  1.00  0.00     0.042 C 
HETATM    4  C12 UNL     1     -23.723  19.895 -19.756  1.00  0.00     0.220 C 
HETATM    5  C13 UNL     1     -24.318  21.007 -18.914  1.00  0.00     0.087 C 
HETATM    6  O3  UNL     1     -23.964  18.653 -19.249  1.00  0.00    -0.193 OA
HETATM    7  O4  UNL     1     -24.591  18.670 -18.085  1.00  0.00    -0.194 OA
HETATM    8  C16 UNL     1     -23.668  18.392 -17.047  1.00  0.00     0.229 C 
HETATM    9  C17 UNL     1     -23.995  19.057 -15.790  1.00  0.00     0.074 C 
HETATM   10  C18 UNL     1     -24.686  18.272 -14.732  1.00  0.00     0.006 C 
HETATM   11  C19 UNL     1     -24.622  16.792 -14.872  1.00  0.00     0.000 C 
HETATM   12  C20 UNL     1     -24.706  16.288 -16.281  1.00  0.00     0.006 C 
HETATM   13  C21 UNL     1     -23.531  16.899 -17.003  1.00  0.00     0.074 C 
HETATM   14  O5  UNL     1     -22.452  18.882 -17.592  1.00  0.00    -0.197 OA
HETATM   15  O6  UNL     1     -21.703  17.926 -18.020  1.00  0.00    -0.224 OA
ENDROOT
BRANCH   1  16
HETATM   16  C8  UNL     1     -19.795  17.522 -19.377  1.00  0.00    -0.016 A 
HETATM   17  C3  UNL     1     -18.921  17.831 -20.350  1.00  0.00    -0.048 A 
HETATM   18  C4  UNL     1     -17.703  17.114 -20.437  1.00  0.00     0.031 A 
HETATM   19  C5  UNL     1     -17.394  16.117 -19.551  1.00  0.00     0.034 A 
HETATM   20 CL1  UNL     1     -15.893  15.211 -19.633  1.00  0.00    -0.084 Cl
HETATM   21  C6  UNL     1     -18.272  15.798 -18.557  1.00  0.00     0.024 A 
HETATM   22  C7  UNL     1     -19.443  16.490 -18.481  1.00  0.00     0.012 A 
BRANCH  17  23
HETATM   23  C2  UNL     1     -19.065  18.942 -21.287  1.00  0.00     0.035 C 
HETATM   24  C1  UNL     1     -17.638  19.443 -21.579  1.00  0.00     0.010 C 
ENDBRANCH  17  23
ENDBRANCH   1  16
BRANCH   4  25
HETATM   25  O1  UNL     1     -24.305  19.920 -21.077  1.00  0.00    -0.277 OA
BRANCH  25  26
HETATM   26  C14 UNL     1     -24.781  21.089 -21.647  1.00  0.00     0.257 C 
HETATM   27  C15 UNL     1     -26.191  21.535 -21.504  1.00  0.00     0.126 C 
HETATM   28  O2  UNL     1     -23.949  21.770 -22.302  1.00  0.00    -0.266 OA
ENDBRANCH  25  26
ENDBRANCH   4  25
TORSDOF 4
ENDMDL
MODEL 4
REMARK VINA RESULT: -9.569770501      3.504      6.177
REMARK  4 active torsions:
REMARK  status: ('A' for Active; 'I' for Inactive)
REMARK    1  A    between atoms: C2_2  and  C3_3 
REMARK    2  A    between atoms: C8_9  and  C9_10 
REMARK    3  A    between atoms: C12_13  and  O1_15 
REMARK    4  A    between atoms: O1_15  and  C14_16 
ROOT
HETATM    1  C9  UNL     1     -20.914  17.414 -17.986  1.00  0.00     0.217 C 
HETATM    2  C10 UNL     1     -20.221  16.249 -18.528  1.00  0.00     0.014 C 
HETATM    3  C11 UNL     1     -19.439  15.388 -17.922  1.00  0.00     0.042 C 
HETATM    4  C12 UNL     1     -19.035  15.357 -16.497  1.00  0.00     0.220 C 
HETATM    5  C13 UNL     1     -19.322  13.955 -15.997  1.00  0.00     0.087 C 
HETATM    6  O3  UNL     1     -19.561  16.329 -15.699  1.00  0.00    -0.193 OA
HETATM    7  O4  UNL     1     -20.286  15.856 -14.701  1.00  0.00    -0.194 OA
HETATM    8  C16 UNL     1     -21.662  16.022 -14.996  1.00  0.00     0.229 C 
HETATM    9  C17 UNL     1     -22.506  14.979 -14.421  1.00  0.00     0.074 C 
HETATM   10  C18 UNL     1     -23.235  15.274 -13.159  1.00  0.00     0.006 C 
HETATM   11  C19 UNL     1     -23.374  16.713 -12.808  1.00  0.00     0.000 C 
HETATM   12  C20 UNL     1     -22.184  17.560 -13.139  1.00  0.00     0.006 C 
HETATM   13  C21 UNL     1     -21.998  17.437 -14.630  1.00  0.00     0.074 C 
HETATM   14  O5  UNL     1     -21.669  15.970 -16.415  1.00  0.00    -0.197 OA
HETATM   15  O6  UNL     1     -21.790  17.143 -16.933  1.00  0.00    -0.224 OA
ENDROOT
BRANCH   1  16
HETATM   16  C8  UNL     1     -21.545  18.302 -18.993  1.00  0.00    -0.016 A 
HETATM   17  C3  UNL     1     -20.836  19.112 -19.796  1.00  0.00    -0.048 A 
HETATM   18  C4  UNL     1     -21.520  20.011 -20.649  1.00  0.00     0.031 A 
HETATM   19  C5  UNL     1     -22.889  20.070 -20.678  1.00  0.00     0.034 A 
HETATM   20 CL1  UNL     1     -23.765  21.173 -21.725  1.00  0.00    -0.084 Cl
HETATM   21  C6  UNL     1     -23.619  19.249 -19.870  1.00  0.00     0.024 A 
HETATM   22  C7  UNL     1     -22.953  18.389 -19.049  1.00  0.00     0.012 A 
BRANCH  17  23
HETATM   23  C2  UNL     1     -19.385  19.077 -19.956  1.00  0.00     0.035 C 
HETATM   24  C1  UNL     1     -19.125  18.706 -21.428  1.00  0.00     0.010 C 
ENDBRANCH  17  23
ENDBRANCH   1  16
BRANCH   4  25
HETATM   25  O1  UNL     1     -17.608  15.580 -16.530  1.00  0.00    -0.277 OA
BRANCH  25  26
HETATM   26  C14 UNL     1     -16.791  14.967 -17.465  1.00  0.00     0.257 C 
HETATM   27  C15 UNL     1     -16.444  15.602 -18.763  1.00  0.00     0.126 C 
HETATM   28  O2  UNL     1     -16.349  13.829 -17.160  1.00  0.00    -0.266 OA
ENDBRANCH  25  26
ENDBRANCH   4  25
TORSDOF 4
ENDMDL
MODEL 5
REMARK VINA RESULT: -9.544678416      3.285      6.749
REMARK  4 active torsions:
REMARK  status: ('A' for Active; 'I' for Inactive)
REMARK    1  A    between atoms: C2_2  and  C3_3 
REMARK    2  A    between atoms: C8_9  and  C9_10 
REMARK    3  A    between atoms: C12_13  and  O1_15 
REMARK    4  A    between atoms: O1_15  and  C14_16 
ROOT
HETATM    1  C9  UNL     1     -22.273  18.550 -17.713  1.00  0.00     0.217 C 
HETATM    2  C10 UNL     1     -22.947  19.255 -16.627  1.00  0.00     0.014 C 
HETATM    3  C11 UNL     1     -23.362  18.800 -15.468  1.00  0.00     0.042 C 
HETATM    4  C12 UNL     1     -23.261  17.423 -14.932  1.00  0.00     0.220 C 
HETATM    5  C13 UNL     1     -22.642  17.540 -13.554  1.00  0.00     0.087 C 
HETATM    6  O3  UNL     1     -22.632  16.511 -15.726  1.00  0.00    -0.193 OA
HETATM    7  O4  UNL     1     -21.560  15.976 -15.168  1.00  0.00    -0.194 OA
HETATM    8  C16 UNL     1     -20.396  16.555 -15.730  1.00  0.00     0.229 C 
HETATM    9  C17 UNL     1     -19.279  16.631 -14.794  1.00  0.00     0.074 C 
HETATM   10  C18 UNL     1     -18.217  15.593 -14.872  1.00  0.00     0.006 C 
HETATM   11  C19 UNL     1     -18.160  14.813 -16.138  1.00  0.00     0.000 C 
HETATM   12  C20 UNL     1     -19.494  14.493 -16.741  1.00  0.00     0.006 C 
HETATM   13  C21 UNL     1     -20.147  15.824 -17.015  1.00  0.00     0.074 C 
HETATM   14  O5  UNL     1     -20.855  17.848 -16.095  1.00  0.00    -0.197 OA
HETATM   15  O6  UNL     1     -21.069  17.936 -17.362  1.00  0.00    -0.224 OA
ENDROOT
BRANCH   1  16
HETATM   16  C8  UNL     1     -22.136  19.315 -18.977  1.00  0.00    -0.016 A 
HETATM   17  C3  UNL     1     -23.180  19.887 -19.599  1.00  0.00    -0.048 A 
HETATM   18  C4  UNL     1     -22.982  20.501 -20.860  1.00  0.00     0.031 A 
HETATM   19  C5  UNL     1     -21.749  20.528 -21.457  1.00  0.00     0.034 A 
HETATM   20 CL1  UNL     1     -21.472  21.281 -23.018  1.00  0.00    -0.084 Cl
HETATM   21  C6  UNL     1     -20.681  19.954 -20.832  1.00  0.00     0.024 A 
HETATM   22  C7  UNL     1     -20.880  19.363 -19.621  1.00  0.00     0.012 A 
BRANCH  17  23
HETATM   23  C2  UNL     1     -24.517  20.036 -19.032  1.00  0.00     0.035 C 
HETATM   24  C1  UNL     1     -25.259  21.035 -19.939  1.00  0.00     0.010 C 
ENDBRANCH  17  23
ENDBRANCH   1  16
BRANCH   4  25
HETATM   25  O1  UNL     1     -24.634  16.989 -14.814  1.00  0.00    -0.277 OA
BRANCH  25  26
HETATM   26  C14 UNL     1     -25.230  16.175 -15.762  1.00  0.00     0.257 C 
HETATM   27  C15 UNL     1     -25.537  16.641 -17.139  1.00  0.00     0.126 C 
HETATM   28  O2  UNL     1     -25.504  15.002 -15.398  1.00  0.00    -0.266 OA
ENDBRANCH  25  26
ENDBRANCH   4  25
TORSDOF 4
ENDMDL
