MODEL 1
REMARK VINA RESULT: -5.907381246      0.000      0.000
REMARK  4 active torsions:
REMARK  status: ('A' for Active; 'I' for Inactive)
REMARK    1  A    between atoms: N1_2  and  C3_4 
REMARK    2  A    between atoms: C3_4  and  C4_5 
REMARK    3  A    between atoms: C4_5  and  N2_6 
REMARK    4  A    between atoms: N2_6  and  C5_8 
ROOT
HETATM    1  C5  UNL     1     -65.215 -33.802 -31.749  1.00  0.00     0.084 C 
HETATM    2  C6  UNL     1     -64.476 -32.807 -32.576  1.00  0.00     0.025 C 
HETATM    3  C7  UNL     1     -64.970 -32.781 -33.988  1.00  0.00     0.002 C 
HETATM    4  C8  UNL     1     -66.429 -32.898 -34.182  1.00  0.00     0.001 C 
HETATM    5  C9  UNL     1     -67.203 -33.562 -33.103  1.00  0.00     0.011 C 
HETATM    6  C10 UNL     1     -66.676 -33.319 -31.720  1.00  0.00    -0.028 C 
HETATM    7  C11 UNL     1     -66.780 -31.873 -31.356  1.00  0.00     0.017 C 
HETATM    8  C12 UNL     1     -67.485 -34.131 -30.743  1.00  0.00     0.017 C 
ENDROOT
BRANCH   1   9
HETATM    9  N2  UNL     1     -64.804 -33.912 -30.399  1.00  0.00    -0.415 N 
ATOM     10  H2  UNL     1     -65.166 -33.301 -29.666  1.00  0.00     0.153 HD
BRANCH   9  11
HETATM   11  C4  UNL     1     -63.826 -34.963 -30.128  1.00  0.00     0.144 C 
BRANCH  11  12
HETATM   12  C3  UNL     1     -64.437 -36.130 -29.434  1.00  0.00     0.290 C 
BRANCH  12  13
HETATM   13  N1  UNL     1     -64.789 -37.174 -30.328  1.00  0.00     0.081 N 
HETATM   14  C1  UNL     1     -64.015 -38.397 -30.060  1.00  0.00     0.309 C 
HETATM   15  C2  UNL     1     -66.163 -37.466 -30.518  1.00  0.00     0.309 C 
ENDBRANCH  12  13
ENDBRANCH  11  12
ENDBRANCH   9  11
ENDBRANCH   1   9
TORSDOF 4
ENDMDL
MODEL 2
REMARK VINA RESULT: -5.855259387      1.204      2.776
REMARK  4 active torsions:
REMARK  status: ('A' for Active; 'I' for Inactive)
REMARK    1  A    between atoms: N1_2  and  C3_4 
REMARK    2  A    between atoms: C3_4  and  C4_5 
REMARK    3  A    between atoms: C4_5  and  N2_6 
REMARK    4  A    between atoms: N2_6  and  C5_8 
ROOT
HETATM    1  C5  UNL     1     -65.168 -33.511 -30.032  1.00  0.00     0.084 C 
HETATM    2  C6  UNL     1     -66.403 -33.929 -29.312  1.00  0.00     0.025 C 
HETATM    3  C7  UNL     1     -67.382 -32.804 -29.185  1.00  0.00     0.002 C 
HETATM    4  C8  UNL     1     -67.528 -31.918 -30.357  1.00  0.00     0.001 C 
HETATM    5  C9  UNL     1     -66.379 -31.843 -31.296  1.00  0.00     0.011 C 
HETATM    6  C10 UNL     1     -65.621 -33.128 -31.452  1.00  0.00    -0.028 C 
HETATM    7  C11 UNL     1     -66.481 -34.184 -32.068  1.00  0.00     0.017 C 
HETATM    8  C12 UNL     1     -64.431 -32.883 -32.341  1.00  0.00     0.017 C 
ENDROOT
BRANCH   1   9
HETATM    9  N2  UNL     1     -64.173 -34.506 -30.184  1.00  0.00    -0.415 N 
ATOM     10  H2  UNL     1     -63.397 -34.406 -30.838  1.00  0.00     0.153 HD
BRANCH   9  11
HETATM   11  C4  UNL     1     -64.337 -35.686 -29.339  1.00  0.00     0.144 C 
BRANCH  11  12
HETATM   12  C3  UNL     1     -64.048 -36.947 -30.078  1.00  0.00     0.290 C 
BRANCH  12  13
HETATM   13  N1  UNL     1     -65.052 -37.931 -29.892  1.00  0.00     0.081 N 
HETATM   14  C1  UNL     1     -66.301 -37.562 -30.576  1.00  0.00     0.309 C 
HETATM   15  C2  UNL     1     -64.718 -39.290 -30.126  1.00  0.00     0.309 C 
ENDBRANCH  12  13
ENDBRANCH  11  12
ENDBRANCH   9  11
ENDBRANCH   1   9
TORSDOF 4
ENDMDL
MODEL 3
REMARK VINA RESULT: -5.817281104      0.856      1.291
REMARK  4 active torsions:
REMARK  status: ('A' for Active; 'I' for Inactive)
REMARK    1  A    between atoms: N1_2  and  C3_4 
REMARK    2  A    between atoms: C3_4  and  C4_5 
REMARK    3  A    between atoms: C4_5  and  N2_6 
REMARK    4  A    between atoms: N2_6  and  C5_8 
ROOT
HETATM    1  C5  UNL     1     -65.603 -34.008 -31.667  1.00  0.00     0.084 C 
HETATM    2  C6  UNL     1     -64.500 -33.059 -31.987  1.00  0.00     0.025 C 
HETATM    3  C7  UNL     1     -64.513 -32.657 -33.429  1.00  0.00     0.002 C 
HETATM    4  C8  UNL     1     -65.836 -32.414 -34.036  1.00  0.00     0.001 C 
HETATM    5  C9  UNL     1     -67.002 -33.087 -33.410  1.00  0.00     0.011 C 
HETATM    6  C10 UNL     1     -66.908 -33.234 -31.921  1.00  0.00    -0.028 C 
HETATM    7  C11 UNL     1     -66.904 -31.897 -31.252  1.00  0.00     0.017 C 
HETATM    8  C12 UNL     1     -68.096 -34.022 -31.435  1.00  0.00     0.017 C 
ENDROOT
BRANCH   1   9
HETATM    9  N2  UNL     1     -65.661 -34.462 -30.328  1.00  0.00    -0.415 N 
ATOM     10  H2  UNL     1     -66.080 -33.907 -29.581  1.00  0.00     0.153 HD
BRANCH   9  11
HETATM   11  C4  UNL     1     -65.077 -35.780 -30.090  1.00  0.00     0.144 C 
BRANCH  11  12
HETATM   12  C3  UNL     1     -66.010 -36.880 -30.462  1.00  0.00     0.290 C 
BRANCH  12  13
HETATM   13  N1  UNL     1     -65.514 -38.160 -30.105  1.00  0.00     0.081 N 
HETATM   14  C1  UNL     1     -66.206 -39.230 -30.842  1.00  0.00     0.309 C 
HETATM   15  C2  UNL     1     -64.111 -38.364 -30.100  1.00  0.00     0.309 C 
ENDBRANCH  12  13
ENDBRANCH  11  12
ENDBRANCH   9  11
ENDBRANCH   1   9
TORSDOF 4
ENDMDL
MODEL 4
REMARK VINA RESULT: -5.666541596      1.079      1.361
REMARK  4 active torsions:
REMARK  status: ('A' for Active; 'I' for Inactive)
REMARK    1  A    between atoms: N1_2  and  C3_4 
REMARK    2  A    between atoms: C3_4  and  C4_5 
REMARK    3  A    between atoms: C4_5  and  N2_6 
REMARK    4  A    between atoms: N2_6  and  C5_8 
ROOT
HETATM    1  C5  UNL     1     -65.622 -33.973 -31.575  1.00  0.00     0.084 C 
HETATM    2  C6  UNL     1     -64.467 -33.038 -31.670  1.00  0.00     0.025 C 
HETATM    3  C7  UNL     1     -64.319 -32.475 -33.049  1.00  0.00     0.002 C 
HETATM    4  C8  UNL     1     -65.565 -32.113 -33.754  1.00  0.00     0.001 C 
HETATM    5  C9  UNL     1     -66.808 -32.807 -33.330  1.00  0.00     0.011 C 
HETATM    6  C10 UNL     1     -66.873 -33.125 -31.866  1.00  0.00    -0.028 C 
HETATM    7  C11 UNL     1     -66.901 -31.873 -31.049  1.00  0.00     0.017 C 
HETATM    8  C12 UNL     1     -68.126 -33.916 -31.596  1.00  0.00     0.017 C 
ENDROOT
BRANCH   1   9
HETATM    9  N2  UNL     1     -65.831 -34.573 -30.310  1.00  0.00    -0.415 N 
ATOM     10  H2  UNL     1     -66.236 -34.063 -29.524  1.00  0.00     0.153 HD
BRANCH   9  11
HETATM   11  C4  UNL     1     -65.426 -35.973 -30.208  1.00  0.00     0.144 C 
BRANCH  11  12
HETATM   12  C3  UNL     1     -66.504 -36.901 -30.651  1.00  0.00     0.290 C 
BRANCH  12  13
HETATM   13  N1  UNL     1     -66.039 -38.228 -30.838  1.00  0.00     0.081 N 
HETATM   14  C1  UNL     1     -65.050 -38.602 -29.814  1.00  0.00     0.309 C 
HETATM   15  C2  UNL     1     -66.995 -39.257 -31.030  1.00  0.00     0.309 C 
ENDBRANCH  12  13
ENDBRANCH  11  12
ENDBRANCH   9  11
ENDBRANCH   1   9
TORSDOF 4
ENDMDL
MODEL 5
REMARK VINA RESULT: -5.598897998      2.409      4.123
REMARK  4 active torsions:
REMARK  status: ('A' for Active; 'I' for Inactive)
REMARK    1  A    between atoms: N1_2  and  C3_4 
REMARK    2  A    between atoms: C3_4  and  C4_5 
REMARK    3  A    between atoms: C4_5  and  N2_6 
REMARK    4  A    between atoms: N2_6  and  C5_8 
ROOT
HETATM    1  C5  UNL     1     -66.217 -35.090 -30.991  1.00  0.00     0.084 C 
HETATM    2  C6  UNL     1     -65.927 -36.259 -30.115  1.00  0.00     0.025 C 
HETATM    3  C7  UNL     1     -64.457 -36.441 -29.897  1.00  0.00     0.002 C 
HETATM    4  C8  UNL     1     -63.661 -35.213 -29.703  1.00  0.00     0.001 C 
HETATM    5  C9  UNL     1     -64.211 -33.953 -30.265  1.00  0.00     0.011 C 
HETATM    6  C10 UNL     1     -65.707 -33.857 -30.225  1.00  0.00    -0.028 C 
HETATM    7  C11 UNL     1     -66.202 -33.830 -28.814  1.00  0.00     0.017 C 
HETATM    8  C12 UNL     1     -66.130 -32.589 -30.918  1.00  0.00     0.017 C 
ENDROOT
BRANCH   1   9
HETATM    9  N2  UNL     1     -67.584 -34.850 -31.270  1.00  0.00    -0.415 N 
ATOM     10  H2  UNL     1     -68.182 -34.308 -30.646  1.00  0.00     0.153 HD
BRANCH   9  11
HETATM   11  C4  UNL     1     -68.078 -35.432 -32.515  1.00  0.00     0.144 C 
BRANCH  11  12
HETATM   12  C3  UNL     1     -68.912 -36.643 -32.274  1.00  0.00     0.290 C 
BRANCH  12  13
HETATM   13  N1  UNL     1     -68.232 -37.846 -32.592  1.00  0.00     0.081 N 
HETATM   14  C1  UNL     1     -68.119 -38.728 -31.419  1.00  0.00     0.309 C 
HETATM   15  C2  UNL     1     -68.640 -38.570 -33.742  1.00  0.00     0.309 C 
ENDBRANCH  12  13
ENDBRANCH  11  12
ENDBRANCH   9  11
ENDBRANCH   1   9
TORSDOF 4
ENDMDL
