MODEL 1
REMARK VINA RESULT: -6.206298118      0.000      0.000
REMARK  8 active torsions:
REMARK  status: ('A' for Active; 'I' for Inactive)
REMARK       I    between atoms: C1_2  and  N1_3 
REMARK    1  A    between atoms: C1_2  and  C14_23 
REMARK    2  A    between atoms: N1_3  and  C2_5 
REMARK    3  A    between atoms: N2_7  and  C4_8 
REMARK    4  A    between atoms: C4_8  and  C5_9 
REMARK    5  A    between atoms: C5_9  and  O2_10 
REMARK    6  A    between atoms: O2_10  and  C6_11 
REMARK    7  A    between atoms: C6_11  and  C7_12 
REMARK    8  A    between atoms: C7_12  and  C8_13 
ROOT
HETATM    1  C2  UNL     1     -35.575  -2.185   7.676  1.00  0.00     0.113 C 
HETATM    2  C3  UNL     1     -35.626  -3.241   8.696  1.00  0.00     0.133 C 
HETATM    3  N2  UNL     1     -34.329  -3.533   9.204  1.00  0.00    -0.207 NA
HETATM    4  S1  UNL     1     -33.290  -2.214   8.711  1.00  0.00     0.213 S 
HETATM    5  O4  UNL     1     -32.581  -1.621   9.882  1.00  0.00    -0.211 OA
HETATM    6  O5  UNL     1     -32.382  -2.648   7.619  1.00  0.00    -0.211 OA
HETATM    7  C13 UNL     1     -34.580  -1.123   8.137  1.00  0.00     0.183 C 
ENDROOT
BRANCH   1   8
HETATM    8  N1  UNL     1     -35.233  -2.603   6.351  1.00  0.00    -0.353 N 
HETATM    9  C1  UNL     1     -36.188  -2.998   5.376  1.00  0.00     0.248 C 
HETATM   10  O1  UNL     1     -37.398  -2.978   5.701  1.00  0.00    -0.271 OA
ATOM     11  H1  UNL     1     -34.246  -2.617   6.091  1.00  0.00     0.163 HD
BRANCH   9  12
HETATM   12  C14 UNL     1     -35.817  -3.423   4.024  1.00  0.00     0.277 C 
HETATM   13  C15 UNL     1     -36.948  -3.193   3.026  1.00  0.00     0.044 C 
HETATM   14  C16 UNL     1     -36.208  -3.321   1.709  1.00  0.00     0.030 C 
HETATM   15  C17 UNL     1     -34.793  -2.919   2.033  1.00  0.00     0.233 C 
HETATM   16  N3  UNL     1     -34.773  -2.595   3.452  1.00  0.00    -0.062 N 
ATOM     17  H32 UNL     1     -34.872  -1.600   3.654  1.00  0.00     0.278 HD
ATOM     18  H31 UNL     1     -33.861  -2.710   3.893  1.00  0.00     0.278 HD
ENDBRANCH   9  12
ENDBRANCH   1   8
BRANCH   3  19
HETATM   19  C4  UNL     1     -34.422  -3.472  10.664  1.00  0.00     0.133 C 
BRANCH  19  20
HETATM   20  C5  UNL     1     -34.857  -4.782  11.259  1.00  0.00     0.183 C 
BRANCH  20  21
HETATM   21  O2  UNL     1     -33.982  -5.745  10.833  1.00  0.00    -0.390 OA
BRANCH  21  22
HETATM   22  C6  UNL     1     -33.576  -6.666  11.785  1.00  0.00     0.170 C 
BRANCH  22  23
HETATM   23  C7  UNL     1     -33.677  -8.086  11.375  1.00  0.00     0.058 C 
BRANCH  23  24
HETATM   24  C8  UNL     1     -32.409  -8.864  11.360  1.00  0.00     0.123 C 
HETATM   25  C9  UNL     1     -31.356  -8.322  10.441  1.00  0.00     0.032 C 
HETATM   26  C10 UNL     1     -30.082  -9.076  10.427  1.00  0.00     0.004 C 
HETATM   27  C11 UNL     1     -29.902  -9.803  11.758  1.00  0.00     0.026 C 
HETATM   28  C12 UNL     1     -30.589  -8.926  12.786  1.00  0.00     0.168 C 
HETATM   29  O3  UNL     1     -31.950  -9.124  12.639  1.00  0.00    -0.386 OA
ENDBRANCH  23  24
ENDBRANCH  22  23
ENDBRANCH  21  22
ENDBRANCH  20  21
ENDBRANCH  19  20
ENDBRANCH   3  19
TORSDOF 8
ENDMDL
MODEL 2
REMARK VINA RESULT: -6.197469163      0.725      1.040
REMARK  8 active torsions:
REMARK  status: ('A' for Active; 'I' for Inactive)
REMARK       I    between atoms: C1_2  and  N1_3 
REMARK    1  A    between atoms: C1_2  and  C14_23 
REMARK    2  A    between atoms: N1_3  and  C2_5 
REMARK    3  A    between atoms: N2_7  and  C4_8 
REMARK    4  A    between atoms: C4_8  and  C5_9 
REMARK    5  A    between atoms: C5_9  and  O2_10 
REMARK    6  A    between atoms: O2_10  and  C6_11 
REMARK    7  A    between atoms: C6_11  and  C7_12 
REMARK    8  A    between atoms: C7_12  and  C8_13 
ROOT
HETATM    1  C2  UNL     1     -35.538  -2.256   7.737  1.00  0.00     0.113 C 
HETATM    2  C3  UNL     1     -35.535  -3.299   8.772  1.00  0.00     0.133 C 
HETATM    3  N2  UNL     1     -34.219  -3.540   9.259  1.00  0.00    -0.207 NA
HETATM    4  S1  UNL     1     -33.235  -2.195   8.730  1.00  0.00     0.213 S 
HETATM    5  O4  UNL     1     -32.525  -1.563   9.880  1.00  0.00    -0.211 OA
HETATM    6  O5  UNL     1     -32.333  -2.613   7.627  1.00  0.00    -0.211 OA
HETATM    7  C13 UNL     1     -34.571  -1.155   8.166  1.00  0.00     0.183 C 
ENDROOT
BRANCH   1   8
HETATM    8  N1  UNL     1     -35.206  -2.679   6.412  1.00  0.00    -0.353 N 
HETATM    9  C1  UNL     1     -36.172  -2.978   5.414  1.00  0.00     0.248 C 
HETATM   10  O1  UNL     1     -37.383  -2.863   5.717  1.00  0.00    -0.271 OA
ATOM     11  H1  UNL     1     -34.219  -2.772   6.169  1.00  0.00     0.163 HD
BRANCH   9  12
HETATM   12  C14 UNL     1     -35.812  -3.411   4.061  1.00  0.00     0.277 C 
HETATM   13  C15 UNL     1     -36.952  -3.191   3.072  1.00  0.00     0.044 C 
HETATM   14  C16 UNL     1     -36.223  -3.326   1.749  1.00  0.00     0.030 C 
HETATM   15  C17 UNL     1     -34.806  -2.917   2.058  1.00  0.00     0.233 C 
HETATM   16  N3  UNL     1     -34.775  -2.585   3.474  1.00  0.00    -0.062 N 
ATOM     17  H32 UNL     1     -34.875  -1.589   3.671  1.00  0.00     0.278 HD
ATOM     18  H31 UNL     1     -33.859  -2.694   3.909  1.00  0.00     0.278 HD
ENDBRANCH   9  12
ENDBRANCH   1   8
BRANCH   3  19
HETATM   19  C4  UNL     1     -34.288  -3.464  10.720  1.00  0.00     0.133 C 
BRANCH  19  20
HETATM   20  C5  UNL     1     -33.486  -4.547  11.383  1.00  0.00     0.183 C 
BRANCH  20  21
HETATM   21  O2  UNL     1     -33.730  -5.717  10.715  1.00  0.00    -0.390 OA
BRANCH  21  22
HETATM   22  C6  UNL     1     -34.125  -6.794  11.491  1.00  0.00     0.170 C 
BRANCH  22  23
HETATM   23  C7  UNL     1     -33.523  -8.096  11.121  1.00  0.00     0.058 C 
BRANCH  23  24
HETATM   24  C8  UNL     1     -32.045  -8.204  11.252  1.00  0.00     0.123 C 
HETATM   25  C9  UNL     1     -31.581  -9.121  12.345  1.00  0.00     0.032 C 
HETATM   26  C10 UNL     1     -30.113  -9.253  12.477  1.00  0.00     0.004 C 
HETATM   27  C11 UNL     1     -29.449  -8.961  11.133  1.00  0.00     0.026 C 
HETATM   28  C12 UNL     1     -30.451  -9.410  10.089  1.00  0.00     0.168 C 
HETATM   29  O3  UNL     1     -31.437  -8.442  10.033  1.00  0.00    -0.386 OA
ENDBRANCH  23  24
ENDBRANCH  22  23
ENDBRANCH  21  22
ENDBRANCH  20  21
ENDBRANCH  19  20
ENDBRANCH   3  19
TORSDOF 8
ENDMDL
MODEL 3
REMARK VINA RESULT: -6.124815020      1.304      1.497
REMARK  8 active torsions:
REMARK  status: ('A' for Active; 'I' for Inactive)
REMARK       I    between atoms: C1_2  and  N1_3 
REMARK    1  A    between atoms: C1_2  and  C14_23 
REMARK    2  A    between atoms: N1_3  and  C2_5 
REMARK    3  A    between atoms: N2_7  and  C4_8 
REMARK    4  A    between atoms: C4_8  and  C5_9 
REMARK    5  A    between atoms: C5_9  and  O2_10 
REMARK    6  A    between atoms: O2_10  and  C6_11 
REMARK    7  A    between atoms: C6_11  and  C7_12 
REMARK    8  A    between atoms: C7_12  and  C8_13 
ROOT
HETATM    1  C2  UNL     1     -35.537  -2.065   7.635  1.00  0.00     0.113 C 
HETATM    2  C3  UNL     1     -35.619  -3.073   8.702  1.00  0.00     0.133 C 
HETATM    3  N2  UNL     1     -34.331  -3.379   9.224  1.00  0.00    -0.207 NA
HETATM    4  S1  UNL     1     -33.254  -2.115   8.674  1.00  0.00     0.213 S 
HETATM    5  O4  UNL     1     -32.528  -1.492   9.819  1.00  0.00    -0.211 OA
HETATM    6  O5  UNL     1     -32.358  -2.624   7.604  1.00  0.00    -0.211 OA
HETATM    7  C13 UNL     1     -34.511  -1.014   8.050  1.00  0.00     0.183 C 
ENDROOT
BRANCH   1   8
HETATM    8  N1  UNL     1     -35.206  -2.551   6.331  1.00  0.00    -0.353 N 
HETATM    9  C1  UNL     1     -36.171  -2.848   5.331  1.00  0.00     0.248 C 
HETATM   10  O1  UNL     1     -37.380  -2.671   5.614  1.00  0.00    -0.271 OA
ATOM     11  H1  UNL     1     -34.222  -2.693   6.105  1.00  0.00     0.163 HD
BRANCH   9  12
HETATM   12  C14 UNL     1     -35.814  -3.345   4.000  1.00  0.00     0.277 C 
HETATM   13  C15 UNL     1     -36.945  -3.147   2.997  1.00  0.00     0.044 C 
HETATM   14  C16 UNL     1     -36.212  -3.353   1.685  1.00  0.00     0.030 C 
HETATM   15  C17 UNL     1     -34.789  -2.957   1.983  1.00  0.00     0.233 C 
HETATM   16  N3  UNL     1     -34.759  -2.564   3.384  1.00  0.00    -0.062 N 
ATOM     17  H32 UNL     1     -34.841  -1.559   3.538  1.00  0.00     0.278 HD
ATOM     18  H31 UNL     1     -33.847  -2.672   3.828  1.00  0.00     0.278 HD
ENDBRANCH   9  12
ENDBRANCH   1   8
BRANCH   3  19
HETATM   19  C4  UNL     1     -34.423  -3.251  10.680  1.00  0.00     0.133 C 
BRANCH  19  20
HETATM   20  C5  UNL     1     -33.863  -4.450  11.391  1.00  0.00     0.183 C 
BRANCH  20  21
HETATM   21  O2  UNL     1     -32.624  -4.112  11.868  1.00  0.00    -0.390 OA
BRANCH  21  22
HETATM   22  C6  UNL     1     -31.544  -4.719  11.248  1.00  0.00     0.170 C 
BRANCH  22  23
HETATM   23  C7  UNL     1     -31.821  -6.047  10.651  1.00  0.00     0.058 C 
BRANCH  23  24
HETATM   24  C8  UNL     1     -30.859  -7.134  10.976  1.00  0.00     0.123 C 
HETATM   25  C9  UNL     1     -31.149  -8.444  10.306  1.00  0.00     0.032 C 
HETATM   26  C10 UNL     1     -30.190  -9.531  10.605  1.00  0.00     0.004 C 
HETATM   27  C11 UNL     1     -28.837  -8.933  10.981  1.00  0.00     0.026 C 
HETATM   28  C12 UNL     1     -28.742  -7.641  10.195  1.00  0.00     0.168 C 
HETATM   29  O3  UNL     1     -29.547  -6.718  10.838  1.00  0.00    -0.386 OA
ENDBRANCH  23  24
ENDBRANCH  22  23
ENDBRANCH  21  22
ENDBRANCH  20  21
ENDBRANCH  19  20
ENDBRANCH   3  19
TORSDOF 8
ENDMDL
MODEL 4
REMARK VINA RESULT: -5.956897312      1.921      2.726
REMARK  8 active torsions:
REMARK  status: ('A' for Active; 'I' for Inactive)
REMARK       I    between atoms: C1_2  and  N1_3 
REMARK    1  A    between atoms: C1_2  and  C14_23 
REMARK    2  A    between atoms: N1_3  and  C2_5 
REMARK    3  A    between atoms: N2_7  and  C4_8 
REMARK    4  A    between atoms: C4_8  and  C5_9 
REMARK    5  A    between atoms: C5_9  and  O2_10 
REMARK    6  A    between atoms: O2_10  and  C6_11 
REMARK    7  A    between atoms: C6_11  and  C7_12 
REMARK    8  A    between atoms: C7_12  and  C8_13 
ROOT
HETATM    1  C2  UNL     1     -35.504  -2.196   7.658  1.00  0.00     0.113 C 
HETATM    2  C3  UNL     1     -35.435  -3.198   8.730  1.00  0.00     0.133 C 
HETATM    3  N2  UNL     1     -34.101  -3.360   9.201  1.00  0.00    -0.207 NA
HETATM    4  S1  UNL     1     -33.190  -1.992   8.602  1.00  0.00     0.213 S 
HETATM    5  O4  UNL     1     -32.490  -1.285   9.715  1.00  0.00    -0.211 OA
HETATM    6  O5  UNL     1     -32.288  -2.410   7.499  1.00  0.00    -0.211 OA
HETATM    7  C13 UNL     1     -34.582  -1.037   8.027  1.00  0.00     0.183 C 
ENDROOT
BRANCH   1   8
HETATM    8  N1  UNL     1     -35.176  -2.655   6.342  1.00  0.00    -0.353 N 
HETATM    9  C1  UNL     1     -36.141  -2.903   5.330  1.00  0.00     0.248 C 
HETATM   10  O1  UNL     1     -37.347  -2.707   5.609  1.00  0.00    -0.271 OA
ATOM     11  H1  UNL     1     -34.193  -2.812   6.119  1.00  0.00     0.163 HD
BRANCH   9  12
HETATM   12  C14 UNL     1     -35.785  -3.372   3.988  1.00  0.00     0.277 C 
HETATM   13  C15 UNL     1     -36.920  -3.158   2.991  1.00  0.00     0.044 C 
HETATM   14  C16 UNL     1     -36.190  -3.334   1.674  1.00  0.00     0.030 C 
HETATM   15  C17 UNL     1     -34.768  -2.940   1.976  1.00  0.00     0.233 C 
HETATM   16  N3  UNL     1     -34.735  -2.575   3.385  1.00  0.00    -0.062 N 
ATOM     17  H32 UNL     1     -34.819  -1.574   3.559  1.00  0.00     0.278 HD
ATOM     18  H31 UNL     1     -33.821  -2.689   3.824  1.00  0.00     0.278 HD
ENDBRANCH   9  12
ENDBRANCH   1   8
BRANCH   3  19
HETATM   19  C4  UNL     1     -34.148  -3.231  10.659  1.00  0.00     0.133 C 
BRANCH  19  20
HETATM   20  C5  UNL     1     -33.321  -4.279  11.348  1.00  0.00     0.183 C 
BRANCH  20  21
HETATM   21  O2  UNL     1     -33.107  -5.296  10.456  1.00  0.00    -0.390 OA
BRANCH  21  22
HETATM   22  C6  UNL     1     -33.249  -6.582  10.950  1.00  0.00     0.170 C 
BRANCH  22  23
HETATM   23  C7  UNL     1     -34.320  -6.759  11.958  1.00  0.00     0.058 C 
BRANCH  23  24
HETATM   24  C8  UNL     1     -35.407  -7.713  11.612  1.00  0.00     0.123 C 
HETATM   25  C9  UNL     1     -34.979  -9.149  11.546  1.00  0.00     0.032 C 
HETATM   26  C10 UNL     1     -36.054 -10.113  11.219  1.00  0.00     0.004 C 
HETATM   27  C11 UNL     1     -37.404  -9.540  11.645  1.00  0.00     0.026 C 
HETATM   28  C12 UNL     1     -37.105  -8.675  12.854  1.00  0.00     0.168 C 
HETATM   29  O3  UNL     1     -36.538  -7.506  12.381  1.00  0.00    -0.386 OA
ENDBRANCH  23  24
ENDBRANCH  22  23
ENDBRANCH  21  22
ENDBRANCH  20  21
ENDBRANCH  19  20
ENDBRANCH   3  19
TORSDOF 8
ENDMDL
MODEL 5
REMARK VINA RESULT: -5.937767005      2.596      8.463
REMARK  8 active torsions:
REMARK  status: ('A' for Active; 'I' for Inactive)
REMARK       I    between atoms: C1_2  and  N1_3 
REMARK    1  A    between atoms: C1_2  and  C14_23 
REMARK    2  A    between atoms: N1_3  and  C2_5 
REMARK    3  A    between atoms: N2_7  and  C4_8 
REMARK    4  A    between atoms: C4_8  and  C5_9 
REMARK    5  A    between atoms: C5_9  and  O2_10 
REMARK    6  A    between atoms: O2_10  and  C6_11 
REMARK    7  A    between atoms: C6_11  and  C7_12 
REMARK    8  A    between atoms: C7_12  and  C8_13 
ROOT
HETATM    1  C2  UNL     1     -32.275  -3.816  10.833  1.00  0.00     0.113 C 
HETATM    2  C3  UNL     1     -32.941  -3.560   9.549  1.00  0.00     0.133 C 
HETATM    3  N2  UNL     1     -34.309  -3.955   9.589  1.00  0.00    -0.207 NA
HETATM    4  S1  UNL     1     -34.718  -4.174  11.275  1.00  0.00     0.213 S 
HETATM    5  O4  UNL     1     -35.921  -3.372  11.645  1.00  0.00    -0.211 OA
HETATM    6  O5  UNL     1     -34.840  -5.619  11.597  1.00  0.00    -0.211 OA
HETATM    7  C13 UNL     1     -33.240  -3.443  11.955  1.00  0.00     0.183 C 
ENDROOT
BRANCH   1   8
HETATM    8  N1  UNL     1     -31.804  -5.151  11.046  1.00  0.00    -0.353 N 
HETATM    9  C1  UNL     1     -30.491  -5.585  10.725  1.00  0.00     0.248 C 
HETATM   10  O1  UNL     1     -29.702  -4.747  10.228  1.00  0.00    -0.271 OA
ATOM     11  H1  UNL     1     -32.450  -5.829  11.451  1.00  0.00     0.163 HD
BRANCH   9  12
HETATM   12  C14 UNL     1     -30.027  -6.957  10.950  1.00  0.00     0.277 C 
HETATM   13  C15 UNL     1     -30.984  -7.985  10.354  1.00  0.00     0.044 C 
HETATM   14  C16 UNL     1     -30.118  -9.229  10.360  1.00  0.00     0.030 C 
HETATM   15  C17 UNL     1     -28.708  -8.707  10.269  1.00  0.00     0.233 C 
HETATM   16  N3  UNL     1     -28.811  -7.256  10.220  1.00  0.00    -0.062 N 
ATOM     17  H32 UNL     1     -28.785  -6.867   9.277  1.00  0.00     0.278 HD
ATOM     18  H31 UNL     1     -27.986  -6.767  10.567  1.00  0.00     0.278 HD
ENDBRANCH   9  12
ENDBRANCH   1   8
BRANCH   3  19
HETATM   19  C4  UNL     1     -35.093  -2.815   9.109  1.00  0.00     0.133 C 
BRANCH  19  20
HETATM   20  C5  UNL     1     -36.057  -3.205   8.025  1.00  0.00     0.183 C 
BRANCH  20  21
HETATM   21  O2  UNL     1     -36.567  -2.055   7.485  1.00  0.00    -0.390 OA
BRANCH  21  22
HETATM   22  C6  UNL     1     -37.112  -2.165   6.216  1.00  0.00     0.170 C 
BRANCH  22  23
HETATM   23  C7  UNL     1     -37.006  -3.507   5.596  1.00  0.00     0.058 C 
BRANCH  23  24
HETATM   24  C8  UNL     1     -36.252  -3.588   4.317  1.00  0.00     0.123 C 
HETATM   25  C9  UNL     1     -37.057  -3.255   3.096  1.00  0.00     0.032 C 
HETATM   26  C10 UNL     1     -36.316  -3.315   1.816  1.00  0.00     0.004 C 
HETATM   27  C11 UNL     1     -34.830  -3.074   2.071  1.00  0.00     0.026 C 
HETATM   28  C12 UNL     1     -34.778  -2.146   3.268  1.00  0.00     0.168 C 
HETATM   29  O3  UNL     1     -35.045  -2.915   4.386  1.00  0.00    -0.386 OA
ENDBRANCH  23  24
ENDBRANCH  22  23
ENDBRANCH  21  22
ENDBRANCH  20  21
ENDBRANCH  19  20
ENDBRANCH   3  19
TORSDOF 8
ENDMDL
