MODEL 1
REMARK VINA RESULT: -4.905230921      0.000      0.000
REMARK  9 active torsions:
REMARK  status: ('A' for Active; 'I' for Inactive)
REMARK    1  A    between atoms: C2_2  and  N1_3 
REMARK    2  A    between atoms: C2_2  and  C8_13 
REMARK       I    between atoms: N1_3  and  C3_5 
REMARK    3  A    between atoms: C3_5  and  C4_7 
REMARK    4  A    between atoms: C5_8  and  C6_9 
REMARK       I    between atoms: C8_13  and  N2_15 
REMARK    5  A    between atoms: N2_15  and  C9_17 
REMARK    6  A    between atoms: C9_17  and  C10_18 
REMARK    7  A    between atoms: C9_17  and  C13_24 
REMARK    8  A    between atoms: C10_18  and  C11_20 
REMARK    9  A    between atoms: C11_20  and  S3_21 
ROOT
HETATM    1  C8  UNL     1     -36.766  -8.451  11.927  1.00  0.00     0.240 C 
HETATM    2  O2  UNL     1     -36.484  -7.314  12.386  1.00  0.00    -0.271 OA
HETATM    3  N2  UNL     1     -38.066  -8.989  11.965  1.00  0.00    -0.348 N 
ATOM      4  H2  UNL     1     -38.236  -9.919  11.581  1.00  0.00     0.163 HD
ENDROOT
BRANCH   1   5
HETATM    5  C2  UNL     1     -35.644  -9.232  11.324  1.00  0.00     0.172 C 
HETATM    6  C1  UNL     1     -36.036 -10.621  10.937  1.00  0.00     0.042 C 
BRANCH   5   7
HETATM    7  N1  UNL     1     -34.508  -9.295  12.214  1.00  0.00    -0.345 N 
HETATM    8  C3  UNL     1     -33.183  -9.044  11.787  1.00  0.00     0.241 C 
HETATM    9  O1  UNL     1     -32.977  -8.748  10.562  1.00  0.00    -0.269 OA
ATOM     10  H1  UNL     1     -34.668  -9.531  13.193  1.00  0.00     0.163 HD
BRANCH   8  11
HETATM   11  C4  UNL     1     -32.070  -9.120  12.717  1.00  0.00     0.071 C 
HETATM   12  C5  UNL     1     -30.826  -9.204  12.322  1.00  0.00    -0.005 C 
BRANCH  12  13
HETATM   13  C6  UNL     1     -29.699  -9.281  13.282  1.00  0.00     0.091 C 
HETATM   14  C7  UNL     1     -28.381  -9.089  12.563  1.00  0.00     0.106 C 
HETATM   15  S1  UNL     1     -28.730  -7.336  12.244  1.00  0.00    -0.095 SA
HETATM   16  S2  UNL     1     -29.396  -7.785  14.222  1.00  0.00    -0.088 SA
ENDBRANCH  12  13
ENDBRANCH   8  11
ENDBRANCH   5   7
ENDBRANCH   1   5
BRANCH   3  17
HETATM   17  C9  UNL     1     -39.192  -8.228  12.554  1.00  0.00     0.158 C 
BRANCH  17  18
HETATM   18  C10 UNL     1     -39.273  -8.641  13.953  1.00  0.00     0.161 C 
HETATM   19  O3  UNL     1     -39.360  -9.874  14.149  1.00  0.00    -0.295 OA
BRANCH  18  20
HETATM   20  C11 UNL     1     -39.267  -7.837  15.171  1.00  0.00     0.188 C 
BRANCH  20  21
HETATM   21  S3  UNL     1     -37.759  -7.597  15.982  1.00  0.00     0.018 S 
HETATM   22  C12 UNL     1     -37.124  -5.965  15.957  1.00  0.00     0.127 C 
HETATM   23  O4  UNL     1     -37.911  -8.093  17.580  1.00  0.00    -0.258 OA
ENDBRANCH  20  21
ENDBRANCH  18  20
ENDBRANCH  17  18
BRANCH  17  24
HETATM   24  C13 UNL     1     -40.404  -8.691  11.737  1.00  0.00     0.007 C 
HETATM   25  C14 UNL     1     -40.941  -7.524  10.910  1.00  0.00     0.012 C 
HETATM   26  C15 UNL     1     -40.080  -9.786  10.773  1.00  0.00     0.012 C 
ENDBRANCH  17  24
ENDBRANCH   3  17
TORSDOF 9
ENDMDL
MODEL 2
REMARK VINA RESULT: -4.869905028      1.450      1.849
REMARK  9 active torsions:
REMARK  status: ('A' for Active; 'I' for Inactive)
REMARK    1  A    between atoms: C2_2  and  N1_3 
REMARK    2  A    between atoms: C2_2  and  C8_13 
REMARK       I    between atoms: N1_3  and  C3_5 
REMARK    3  A    between atoms: C3_5  and  C4_7 
REMARK    4  A    between atoms: C5_8  and  C6_9 
REMARK       I    between atoms: C8_13  and  N2_15 
REMARK    5  A    between atoms: N2_15  and  C9_17 
REMARK    6  A    between atoms: C9_17  and  C10_18 
REMARK    7  A    between atoms: C9_17  and  C13_24 
REMARK    8  A    between atoms: C10_18  and  C11_20 
REMARK    9  A    between atoms: C11_20  and  S3_21 
ROOT
HETATM    1  C8  UNL     1     -36.804  -8.345  12.026  1.00  0.00     0.240 C 
HETATM    2  O2  UNL     1     -36.456  -7.223  12.475  1.00  0.00    -0.271 OA
HETATM    3  N2  UNL     1     -38.126  -8.823  12.103  1.00  0.00    -0.348 N 
ATOM      4  H2  UNL     1     -38.350  -9.743  11.726  1.00  0.00     0.163 HD
ENDROOT
BRANCH   1   5
HETATM    5  C2  UNL     1     -35.739  -9.177  11.391  1.00  0.00     0.172 C 
HETATM    6  C1  UNL     1     -36.205 -10.548  11.020  1.00  0.00     0.042 C 
BRANCH   5   7
HETATM    7  N1  UNL     1     -34.579  -9.291  12.244  1.00  0.00    -0.345 N 
HETATM    8  C3  UNL     1     -33.266  -9.016  11.797  1.00  0.00     0.241 C 
HETATM    9  O1  UNL     1     -33.092  -8.651  10.585  1.00  0.00    -0.269 OA
ATOM     10  H1  UNL     1     -34.713  -9.582  13.212  1.00  0.00     0.163 HD
BRANCH   8  11
HETATM   11  C4  UNL     1     -32.128  -9.144  12.690  1.00  0.00     0.071 C 
HETATM   12  C5  UNL     1     -30.894  -9.179  12.260  1.00  0.00    -0.005 C 
BRANCH  12  13
HETATM   13  C6  UNL     1     -29.742  -9.310  13.183  1.00  0.00     0.091 C 
HETATM   14  C7  UNL     1     -28.442  -9.091  12.438  1.00  0.00     0.106 C 
HETATM   15  S1  UNL     1     -28.786  -7.323  12.216  1.00  0.00    -0.095 SA
HETATM   16  S2  UNL     1     -29.401  -7.864  14.186  1.00  0.00    -0.088 SA
ENDBRANCH  12  13
ENDBRANCH   8  11
ENDBRANCH   5   7
ENDBRANCH   1   5
BRANCH   3  17
HETATM   17  C9  UNL     1     -39.197  -8.010  12.725  1.00  0.00     0.158 C 
BRANCH  17  18
HETATM   18  C10 UNL     1     -39.489  -8.638  14.011  1.00  0.00     0.161 C 
HETATM   19  O3  UNL     1     -39.085  -9.815  14.142  1.00  0.00    -0.295 OA
BRANCH  18  20
HETATM   20  C11 UNL     1     -40.180  -8.106  15.181  1.00  0.00     0.188 C 
BRANCH  20  21
HETATM   21  S3  UNL     1     -41.715  -8.782  15.599  1.00  0.00     0.018 S 
HETATM   22  C12 UNL     1     -42.592  -9.561  14.299  1.00  0.00     0.127 C 
HETATM   23  O4  UNL     1     -41.505  -9.887  16.847  1.00  0.00    -0.258 OA
ENDBRANCH  20  21
ENDBRANCH  18  20
ENDBRANCH  17  18
BRANCH  17  24
HETATM   24  C13 UNL     1     -40.362  -8.136  11.735  1.00  0.00     0.007 C 
HETATM   25  C14 UNL     1     -40.345  -6.952  10.771  1.00  0.00     0.012 C 
HETATM   26  C15 UNL     1     -40.292  -9.371  10.898  1.00  0.00     0.012 C 
ENDBRANCH  17  24
ENDBRANCH   3  17
TORSDOF 9
ENDMDL
MODEL 3
REMARK VINA RESULT: -4.770024156      2.173      3.200
REMARK  9 active torsions:
REMARK  status: ('A' for Active; 'I' for Inactive)
REMARK    1  A    between atoms: C2_2  and  N1_3 
REMARK    2  A    between atoms: C2_2  and  C8_13 
REMARK       I    between atoms: N1_3  and  C3_5 
REMARK    3  A    between atoms: C3_5  and  C4_7 
REMARK    4  A    between atoms: C5_8  and  C6_9 
REMARK       I    between atoms: C8_13  and  N2_15 
REMARK    5  A    between atoms: N2_15  and  C9_17 
REMARK    6  A    between atoms: C9_17  and  C10_18 
REMARK    7  A    between atoms: C9_17  and  C13_24 
REMARK    8  A    between atoms: C10_18  and  C11_20 
REMARK    9  A    between atoms: C11_20  and  S3_21 
ROOT
HETATM    1  C8  UNL     1     -37.350  -8.896  12.720  1.00  0.00     0.240 C 
HETATM    2  O2  UNL     1     -37.045  -8.993  13.936  1.00  0.00    -0.271 OA
HETATM    3  N2  UNL     1     -38.613  -8.453  12.281  1.00  0.00    -0.348 N 
ATOM      4  H2  UNL     1     -38.805  -8.397  11.282  1.00  0.00     0.163 HD
ENDROOT
BRANCH   1   5
HETATM    5  C2  UNL     1     -36.300  -9.277  11.729  1.00  0.00     0.172 C 
HETATM    6  C1  UNL     1     -36.586 -10.568  11.033  1.00  0.00     0.042 C 
BRANCH   5   7
HETATM    7  N1  UNL     1     -34.996  -9.356  12.347  1.00  0.00    -0.345 N 
HETATM    8  C3  UNL     1     -33.802  -9.022  11.667  1.00  0.00     0.241 C 
HETATM    9  O1  UNL     1     -33.874  -8.634  10.452  1.00  0.00    -0.269 OA
ATOM     10  H1  UNL     1     -34.934  -9.666  13.316  1.00  0.00     0.163 HD
BRANCH   8  11
HETATM   11  C4  UNL     1     -32.512  -9.118  12.327  1.00  0.00     0.071 C 
HETATM   12  C5  UNL     1     -31.501  -8.351  12.014  1.00  0.00    -0.005 C 
BRANCH  12  13
HETATM   13  C6  UNL     1     -30.190  -8.459  12.697  1.00  0.00     0.091 C 
HETATM   14  C7  UNL     1     -29.393  -9.613  12.128  1.00  0.00     0.106 C 
HETATM   15  S1  UNL     1     -29.136  -8.750  10.552  1.00  0.00    -0.095 SA
HETATM   16  S2  UNL     1     -28.934  -7.317  12.121  1.00  0.00    -0.088 SA
ENDBRANCH  12  13
ENDBRANCH   8  11
ENDBRANCH   5   7
ENDBRANCH   1   5
BRANCH   3  17
HETATM   17  C9  UNL     1     -39.665  -8.066  13.249  1.00  0.00     0.158 C 
BRANCH  17  18
HETATM   18  C10 UNL     1     -40.540  -9.228  13.383  1.00  0.00     0.161 C 
HETATM   19  O3  UNL     1     -40.180 -10.081  14.226  1.00  0.00    -0.295 OA
BRANCH  18  20
HETATM   20  C11 UNL     1     -41.780  -9.555  12.688  1.00  0.00     0.188 C 
BRANCH  20  21
HETATM   21  S3  UNL     1     -41.677 -10.108  11.053  1.00  0.00     0.018 S 
HETATM   22  C12 UNL     1     -42.350  -9.044   9.837  1.00  0.00     0.127 C 
HETATM   23  O4  UNL     1     -40.067 -10.409  10.676  1.00  0.00    -0.258 OA
ENDBRANCH  20  21
ENDBRANCH  18  20
ENDBRANCH  17  18
BRANCH  17  24
HETATM   24  C13 UNL     1     -40.364  -6.884  12.564  1.00  0.00     0.007 C 
HETATM   25  C14 UNL     1     -40.136  -5.612  13.379  1.00  0.00     0.012 C 
HETATM   26  C15 UNL     1     -39.847  -6.611  11.189  1.00  0.00     0.012 C 
ENDBRANCH  17  24
ENDBRANCH   3  17
TORSDOF 9
ENDMDL
MODEL 4
REMARK VINA RESULT: -4.745501908     10.740     11.715
REMARK  9 active torsions:
REMARK  status: ('A' for Active; 'I' for Inactive)
REMARK    1  A    between atoms: C2_2  and  N1_3 
REMARK    2  A    between atoms: C2_2  and  C8_13 
REMARK       I    between atoms: N1_3  and  C3_5 
REMARK    3  A    between atoms: C3_5  and  C4_7 
REMARK    4  A    between atoms: C5_8  and  C6_9 
REMARK       I    between atoms: C8_13  and  N2_15 
REMARK    5  A    between atoms: N2_15  and  C9_17 
REMARK    6  A    between atoms: C9_17  and  C10_18 
REMARK    7  A    between atoms: C9_17  and  C13_24 
REMARK    8  A    between atoms: C10_18  and  C11_20 
REMARK    9  A    between atoms: C11_20  and  S3_21 
ROOT
HETATM    1  C8  UNL     1     -37.248  -0.558   5.524  1.00  0.00     0.240 C 
HETATM    2  O2  UNL     1     -38.462  -0.396   5.242  1.00  0.00    -0.271 OA
HETATM    3  N2  UNL     1     -36.554  -1.754   5.255  1.00  0.00    -0.348 N 
ATOM      4  H2  UNL     1     -35.570  -1.831   5.508  1.00  0.00     0.163 HD
ENDROOT
BRANCH   1   5
HETATM    5  C2  UNL     1     -36.546   0.590   6.171  1.00  0.00     0.172 C 
HETATM    6  C1  UNL     1     -37.477   1.547   6.842  1.00  0.00     0.042 C 
BRANCH   5   7
HETATM    7  N1  UNL     1     -35.733   1.314   5.221  1.00  0.00    -0.345 N 
HETATM    8  C3  UNL     1     -34.386   0.978   4.949  1.00  0.00     0.241 C 
HETATM    9  O1  UNL     1     -33.861  -0.008   5.568  1.00  0.00    -0.269 OA
ATOM     10  H1  UNL     1     -36.148   2.102   4.725  1.00  0.00     0.163 HD
BRANCH   8  11
HETATM   11  C4  UNL     1     -33.606   1.735   3.986  1.00  0.00     0.071 C 
HETATM   12  C5  UNL     1     -32.644   1.199   3.280  1.00  0.00    -0.005 C 
BRANCH  12  13
HETATM   13  C6  UNL     1     -31.856   1.984   2.301  1.00  0.00     0.091 C 
HETATM   14  C7  UNL     1     -30.783   2.784   3.008  1.00  0.00     0.106 C 
HETATM   15  S1  UNL     1     -29.840   1.289   3.420  1.00  0.00    -0.095 SA
HETATM   16  S2  UNL     1     -30.586   1.063   1.432  1.00  0.00    -0.088 SA
ENDBRANCH  12  13
ENDBRANCH   8  11
ENDBRANCH   5   7
ENDBRANCH   1   5
BRANCH   3  17
HETATM   17  C9  UNL     1     -37.232  -2.902   4.609  1.00  0.00     0.158 C 
BRANCH  17  18
HETATM   18  C10 UNL     1     -37.528  -3.852   5.677  1.00  0.00     0.161 C 
HETATM   19  O3  UNL     1     -38.319  -4.774   5.377  1.00  0.00    -0.295 OA
BRANCH  18  20
HETATM   20  C11 UNL     1     -37.041  -3.901   7.052  1.00  0.00     0.188 C 
BRANCH  20  21
HETATM   21  S3  UNL     1     -37.983  -3.128   8.279  1.00  0.00     0.018 S 
HETATM   22  C12 UNL     1     -37.224  -1.779   9.095  1.00  0.00     0.127 C 
HETATM   23  O4  UNL     1     -39.434  -2.609   7.610  1.00  0.00    -0.258 OA
ENDBRANCH  20  21
ENDBRANCH  18  20
ENDBRANCH  17  18
BRANCH  17  24
HETATM   24  C13 UNL     1     -36.179  -3.433   3.628  1.00  0.00     0.007 C 
HETATM   25  C14 UNL     1     -36.711  -3.331   2.200  1.00  0.00     0.012 C 
HETATM   26  C15 UNL     1     -34.899  -2.664   3.665  1.00  0.00     0.012 C 
ENDBRANCH  17  24
ENDBRANCH   3  17
TORSDOF 9
ENDMDL
MODEL 5
REMARK VINA RESULT: -4.725611577      3.099      8.747
REMARK  9 active torsions:
REMARK  status: ('A' for Active; 'I' for Inactive)
REMARK    1  A    between atoms: C2_2  and  N1_3 
REMARK    2  A    between atoms: C2_2  and  C8_13 
REMARK       I    between atoms: N1_3  and  C3_5 
REMARK    3  A    between atoms: C3_5  and  C4_7 
REMARK    4  A    between atoms: C5_8  and  C6_9 
REMARK       I    between atoms: C8_13  and  N2_15 
REMARK    5  A    between atoms: N2_15  and  C9_17 
REMARK    6  A    between atoms: C9_17  and  C10_18 
REMARK    7  A    between atoms: C9_17  and  C13_24 
REMARK    8  A    between atoms: C10_18  and  C11_20 
REMARK    9  A    between atoms: C11_20  and  S3_21 
ROOT
HETATM    1  C8  UNL     1     -31.862  -7.009  11.649  1.00  0.00     0.240 C 
HETATM    2  O2  UNL     1     -31.872  -6.988  12.906  1.00  0.00    -0.271 OA
HETATM    3  N2  UNL     1     -30.710  -7.313  10.898  1.00  0.00    -0.348 N 
ATOM      4  H2  UNL     1     -30.760  -7.311   9.880  1.00  0.00     0.163 HD
ENDROOT
BRANCH   1   5
HETATM    5  C2  UNL     1     -33.149  -6.694  10.959  1.00  0.00     0.172 C 
HETATM    6  C1  UNL     1     -33.390  -5.227  10.805  1.00  0.00     0.042 C 
BRANCH   5   7
HETATM    7  N1  UNL     1     -34.274  -7.284  11.646  1.00  0.00    -0.345 N 
HETATM    8  C3  UNL     1     -34.804  -8.550  11.305  1.00  0.00     0.241 C 
HETATM    9  O1  UNL     1     -34.268  -9.204  10.348  1.00  0.00    -0.269 OA
ATOM     10  H1  UNL     1     -34.705  -6.765  12.410  1.00  0.00     0.163 HD
BRANCH   8  11
HETATM   11  C4  UNL     1     -35.939  -9.105  12.023  1.00  0.00     0.071 C 
HETATM   12  C5  UNL     1     -37.094  -8.496  12.094  1.00  0.00    -0.005 C 
BRANCH  12  13
HETATM   13  C6  UNL     1     -38.244  -9.074  12.829  1.00  0.00     0.091 C 
HETATM   14  C7  UNL     1     -38.196  -8.665  14.286  1.00  0.00     0.106 C 
HETATM   15  S1  UNL     1     -38.594  -6.940  13.888  1.00  0.00    -0.095 SA
HETATM   16  S2  UNL     1     -39.792  -8.190  12.640  1.00  0.00    -0.088 SA
ENDBRANCH  12  13
ENDBRANCH   8  11
ENDBRANCH   5   7
ENDBRANCH   1   5
BRANCH   3  17
HETATM   17  C9  UNL     1     -29.426  -7.633  11.565  1.00  0.00     0.158 C 
BRANCH  17  18
HETATM   18  C10 UNL     1     -28.388  -6.959  10.791  1.00  0.00     0.161 C 
HETATM   19  O3  UNL     1     -27.937  -7.601   9.816  1.00  0.00    -0.295 OA
BRANCH  18  20
HETATM   20  C11 UNL     1     -27.787  -5.642  10.973  1.00  0.00     0.188 C 
BRANCH  20  21
HETATM   21  S3  UNL     1     -28.713  -4.427  11.784  1.00  0.00     0.018 S 
HETATM   22  C12 UNL     1     -27.887  -2.918  12.106  1.00  0.00     0.127 C 
HETATM   23  O4  UNL     1     -30.098  -4.106  10.890  1.00  0.00    -0.258 OA
ENDBRANCH  20  21
ENDBRANCH  18  20
ENDBRANCH  17  18
BRANCH  17  24
HETATM   24  C13 UNL     1     -29.339  -9.160  11.455  1.00  0.00     0.007 C 
HETATM   25  C14 UNL     1     -29.538  -9.786  12.835  1.00  0.00     0.012 C 
HETATM   26  C15 UNL     1     -30.383  -9.748  10.563  1.00  0.00     0.012 C 
ENDBRANCH  17  24
ENDBRANCH   3  17
TORSDOF 9
ENDMDL
