MODEL 1
REMARK VINA RESULT: -8.538345589      0.000      0.000
REMARK  4 active torsions:
REMARK  status: ('A' for Active; 'I' for Inactive)
REMARK    1  A    between atoms: C1_2  and  C2_4 
REMARK    2  A    between atoms: C2_4  and  C3_5 
REMARK    3  A    between atoms: C3_5  and  C4_6 
REMARK    4  A    between atoms: C4_6  and  C5_7 
ROOT
HETATM    1  C5  UNL     1       1.395  -8.622  27.473  1.00  0.00     0.114 C 
HETATM    2  C6  UNL     1       1.826  -7.501  26.521  1.00  0.00     0.022 C 
HETATM    3  C7  UNL     1       2.010  -7.977  25.114  1.00  0.00     0.007 C 
HETATM    4  C8  UNL     1       1.654  -6.827  24.197  1.00  0.00     0.001 C 
HETATM    5  C9  UNL     1       1.851  -5.486  24.868  1.00  0.00     0.001 C 
HETATM    6  C10 UNL     1       0.938  -5.294  26.060  1.00  0.00     0.013 C 
HETATM    7  C11 UNL     1       0.568  -6.641  26.577  1.00  0.00     0.061 C 
HETATM    8  C12 UNL     1       0.345  -6.657  28.068  1.00  0.00     0.104 A 
HETATM    9  N2  UNL     1      -0.155  -5.956  29.093  1.00  0.00    -0.340 N 
ATOM     10  H2  UNL     1      -0.594  -5.037  29.038  1.00  0.00     0.168 HD
HETATM   11  C13 UNL     1       0.025  -6.679  30.199  1.00  0.00     0.199 A 
HETATM   12  N3  UNL     1       0.635  -7.816  29.839  1.00  0.00    -0.292 N 
ATOM     13  H3  UNL     1       0.903  -8.571  30.470  1.00  0.00     0.188 HD
HETATM   14  N4  UNL     1       0.830  -7.803  28.541  1.00  0.00    -0.274 N 
ENDROOT
BRANCH   1  15
HETATM   15  C4  UNL     1       2.662  -9.319  27.898  1.00  0.00     0.028 C 
BRANCH  15  16
HETATM   16  C3  UNL     1       2.868 -10.645  27.274  1.00  0.00     0.011 C 
BRANCH  16  17
HETATM   17  C2  UNL     1       4.154 -11.324  27.557  1.00  0.00     0.099 C 
BRANCH  17  18
HETATM   18  C1  UNL     1       5.070 -11.465  26.421  1.00  0.00     0.231 C 
HETATM   19  N1  UNL     1       6.468 -11.718  26.579  1.00  0.00    -0.062 NA
HETATM   20  O1  UNL     1       4.650 -11.364  25.251  1.00  0.00    -0.277 OA
ENDBRANCH  17  18
ENDBRANCH  16  17
ENDBRANCH  15  16
ENDBRANCH   1  15
TORSDOF 4
ENDMDL
MODEL 2
REMARK VINA RESULT: -7.543999772      1.052      1.081
REMARK  4 active torsions:
REMARK  status: ('A' for Active; 'I' for Inactive)
REMARK    1  A    between atoms: C1_2  and  C2_4 
REMARK    2  A    between atoms: C2_4  and  C3_5 
REMARK    3  A    between atoms: C3_5  and  C4_6 
REMARK    4  A    between atoms: C4_6  and  C5_7 
ROOT
HETATM    1  C5  UNL     1       1.961  -8.733  26.707  1.00  0.00     0.114 C 
HETATM    2  C6  UNL     1       2.072  -7.395  25.969  1.00  0.00     0.022 C 
HETATM    3  C7  UNL     1       2.195  -7.560  24.487  1.00  0.00     0.007 C 
HETATM    4  C8  UNL     1       1.536  -6.361  23.842  1.00  0.00     0.001 C 
HETATM    5  C9  UNL     1       1.546  -5.152  24.751  1.00  0.00     0.001 C 
HETATM    6  C10 UNL     1       0.742  -5.370  26.015  1.00  0.00     0.013 C 
HETATM    7  C11 UNL     1       0.687  -6.835  26.278  1.00  0.00     0.061 C 
HETATM    8  C12 UNL     1       0.627  -7.166  27.747  1.00  0.00     0.104 A 
HETATM    9  N2  UNL     1       0.114  -6.780  28.922  1.00  0.00    -0.340 N 
ATOM     10  H2  UNL     1      -0.493  -5.976  29.079  1.00  0.00     0.168 HD
HETATM   11  C13 UNL     1       0.541  -7.639  29.848  1.00  0.00     0.199 A 
HETATM   12  N3  UNL     1       1.312  -8.543  29.230  1.00  0.00    -0.292 N 
ATOM     13  H3  UNL     1       1.782  -9.328  29.680  1.00  0.00     0.188 HD
HETATM   14  N4  UNL     1       1.366  -8.255  27.951  1.00  0.00    -0.274 N 
ENDROOT
BRANCH   1  15
HETATM   15  C4  UNL     1       3.373  -9.223  26.901  1.00  0.00     0.028 C 
BRANCH  15  16
HETATM   16  C3  UNL     1       3.755 -10.350  26.022  1.00  0.00     0.011 C 
BRANCH  16  17
HETATM   17  C2  UNL     1       4.744 -11.312  26.561  1.00  0.00     0.099 C 
BRANCH  17  18
HETATM   18  C1  UNL     1       5.862 -11.649  25.673  1.00  0.00     0.231 C 
HETATM   19  N1  UNL     1       6.232 -12.996  25.370  1.00  0.00    -0.062 NA
HETATM   20  O1  UNL     1       6.543 -10.750  25.142  1.00  0.00    -0.277 OA
ENDBRANCH  17  18
ENDBRANCH  16  17
ENDBRANCH  15  16
ENDBRANCH   1  15
TORSDOF 4
ENDMDL
MODEL 3
REMARK VINA RESULT: -7.331314911      2.862      5.421
REMARK  4 active torsions:
REMARK  status: ('A' for Active; 'I' for Inactive)
REMARK    1  A    between atoms: C1_2  and  C2_4 
REMARK    2  A    between atoms: C2_4  and  C3_5 
REMARK    3  A    between atoms: C3_5  and  C4_6 
REMARK    4  A    between atoms: C4_6  and  C5_7 
ROOT
HETATM    1  C5  UNL     1       1.658  -7.701  27.952  1.00  0.00     0.114 C 
HETATM    2  C6  UNL     1       1.231  -7.188  26.572  1.00  0.00     0.022 C 
HETATM    3  C7  UNL     1       0.825  -5.748  26.592  1.00  0.00     0.007 C 
HETATM    4  C8  UNL     1       1.181  -5.159  25.245  1.00  0.00     0.001 C 
HETATM    5  C9  UNL     1       1.211  -6.209  24.157  1.00  0.00     0.001 C 
HETATM    6  C10 UNL     1       2.280  -7.255  24.390  1.00  0.00     0.013 C 
HETATM    7  C11 UNL     1       2.570  -7.300  25.849  1.00  0.00     0.061 C 
HETATM    8  C12 UNL     1       2.975  -8.672  26.326  1.00  0.00     0.104 A 
HETATM    9  N2  UNL     1       3.669  -9.768  25.998  1.00  0.00    -0.340 N 
ATOM     10  H2  UNL     1       4.191  -9.915  25.134  1.00  0.00     0.168 HD
HETATM   11  C13 UNL     1       3.554 -10.633  27.007  1.00  0.00     0.199 A 
HETATM   12  N3  UNL     1       2.789 -10.056  27.943  1.00  0.00    -0.292 N 
ATOM     13  H3  UNL     1       2.524 -10.476  28.834  1.00  0.00     0.188 HD
HETATM   14  N4  UNL     1       2.435  -8.862  27.528  1.00  0.00    -0.274 N 
ENDROOT
BRANCH   1  15
HETATM   15  C4  UNL     1       0.389  -8.092  28.664  1.00  0.00     0.028 C 
BRANCH  15  16
HETATM   16  C3  UNL     1       0.373  -7.765  30.107  1.00  0.00     0.011 C 
BRANCH  16  17
HETATM   17  C2  UNL     1      -0.179  -6.443  30.486  1.00  0.00     0.099 C 
BRANCH  17  18
HETATM   18  C1  UNL     1      -0.063  -6.081  31.902  1.00  0.00     0.231 C 
HETATM   19  N1  UNL     1      -0.688  -4.923  32.460  1.00  0.00    -0.062 NA
HETATM   20  O1  UNL     1       0.603  -6.787  32.684  1.00  0.00    -0.277 OA
ENDBRANCH  17  18
ENDBRANCH  16  17
ENDBRANCH  15  16
ENDBRANCH   1  15
TORSDOF 4
ENDMDL
MODEL 4
REMARK VINA RESULT: -7.110579324      3.772      5.524
REMARK  4 active torsions:
REMARK  status: ('A' for Active; 'I' for Inactive)
REMARK    1  A    between atoms: C1_2  and  C2_4 
REMARK    2  A    between atoms: C2_4  and  C3_5 
REMARK    3  A    between atoms: C3_5  and  C4_6 
REMARK    4  A    between atoms: C4_6  and  C5_7 
ROOT
HETATM    1  C5  UNL     1       4.475 -11.389  28.053  1.00  0.00     0.114 C 
HETATM    2  C6  UNL     1       3.196 -10.752  27.498  1.00  0.00     0.022 C 
HETATM    3  C7  UNL     1       2.493  -9.898  28.505  1.00  0.00     0.007 C 
HETATM    4  C8  UNL     1       1.806  -8.781  27.751  1.00  0.00     0.001 C 
HETATM    5  C9  UNL     1       1.487  -9.173  26.326  1.00  0.00     0.001 C 
HETATM    6  C10 UNL     1       2.730  -9.451  25.508  1.00  0.00     0.013 C 
HETATM    7  C11 UNL     1       3.820  -9.840  26.446  1.00  0.00     0.061 C 
HETATM    8  C12 UNL     1       4.794 -10.818  25.842  1.00  0.00     0.104 A 
HETATM    9  N2  UNL     1       5.438 -11.145  24.714  1.00  0.00    -0.340 N 
ATOM     10  H2  UNL     1       5.368 -10.662  23.819  1.00  0.00     0.168 HD
HETATM   11  C13 UNL     1       6.187 -12.217  24.976  1.00  0.00     0.199 A 
HETATM   12  N3  UNL     1       5.993 -12.536  26.263  1.00  0.00    -0.292 N 
ATOM     13  H3  UNL     1       6.433 -13.314  26.753  1.00  0.00     0.188 HD
HETATM   14  N4  UNL     1       5.144 -11.685  26.790  1.00  0.00    -0.274 N 
ENDROOT
BRANCH   1  15
HETATM   15  C4  UNL     1       4.040 -12.638  28.775  1.00  0.00     0.028 C 
BRANCH  15  16
HETATM   16  C3  UNL     1       5.119 -13.314  29.529  1.00  0.00     0.011 C 
BRANCH  16  17
HETATM   17  C2  UNL     1       5.073 -14.794  29.579  1.00  0.00     0.099 C 
BRANCH  17  18
HETATM   18  C1  UNL     1       4.910 -15.476  28.291  1.00  0.00     0.231 C 
HETATM   19  N1  UNL     1       5.922 -15.476  27.281  1.00  0.00    -0.062 NA
HETATM   20  O1  UNL     1       3.859 -16.092  28.028  1.00  0.00    -0.277 OA
ENDBRANCH  17  18
ENDBRANCH  16  17
ENDBRANCH  15  16
ENDBRANCH   1  15
TORSDOF 4
ENDMDL
MODEL 5
REMARK VINA RESULT: -6.982390107      1.952      3.367
REMARK  4 active torsions:
REMARK  status: ('A' for Active; 'I' for Inactive)
REMARK    1  A    between atoms: C1_2  and  C2_4 
REMARK    2  A    between atoms: C2_4  and  C3_5 
REMARK    3  A    between atoms: C3_5  and  C4_6 
REMARK    4  A    between atoms: C4_6  and  C5_7 
ROOT
HETATM    1  C5  UNL     1       2.114  -8.278  26.860  1.00  0.00     0.114 C 
HETATM    2  C6  UNL     1       0.934  -7.653  27.612  1.00  0.00     0.022 C 
HETATM    3  C7  UNL     1       0.951  -7.966  29.075  1.00  0.00     0.007 C 
HETATM    4  C8  UNL     1       0.332  -6.789  29.797  1.00  0.00     0.001 C 
HETATM    5  C9  UNL     1      -0.631  -6.026  28.914  1.00  0.00     0.001 C 
HETATM    6  C10 UNL     1       0.052  -5.399  27.718  1.00  0.00     0.013 C 
HETATM    7  C11 UNL     1       1.287  -6.180  27.431  1.00  0.00     0.061 C 
HETATM    8  C12 UNL     1       1.639  -6.206  25.966  1.00  0.00     0.104 A 
HETATM    9  N2  UNL     1       1.658  -5.473  24.846  1.00  0.00    -0.340 N 
ATOM     10  H2  UNL     1       1.357  -4.502  24.756  1.00  0.00     0.168 HD
HETATM   11  C13 UNL     1       2.142  -6.242  23.870  1.00  0.00     0.199 A 
HETATM   12  N3  UNL     1       2.414  -7.441  24.404  1.00  0.00    -0.292 N 
ATOM     13  H3  UNL     1       2.798  -8.240  23.900  1.00  0.00     0.188 HD
HETATM   14  N4  UNL     1       2.107  -7.419  25.679  1.00  0.00    -0.274 N 
ENDROOT
BRANCH   1  15
HETATM   15  C4  UNL     1       1.704  -9.692  26.540  1.00  0.00     0.028 C 
BRANCH  15  16
HETATM   16  C3  UNL     1       2.810 -10.674  26.590  1.00  0.00     0.011 C 
BRANCH  16  17
HETATM   17  C2  UNL     1       4.146 -10.199  26.162  1.00  0.00     0.099 C 
BRANCH  17  18
HETATM   18  C1  UNL     1       5.093 -11.238  25.744  1.00  0.00     0.231 C 
HETATM   19  N1  UNL     1       6.154 -11.701  26.582  1.00  0.00    -0.062 NA
HETATM   20  O1  UNL     1       5.003 -11.762  24.617  1.00  0.00    -0.277 OA
ENDBRANCH  17  18
ENDBRANCH  16  17
ENDBRANCH  15  16
ENDBRANCH   1  15
TORSDOF 4
ENDMDL
