MODEL 1
REMARK VINA RESULT: -6.890204571      0.000      0.000
REMARK  4 active torsions:
REMARK  status: ('A' for Active; 'I' for Inactive)
REMARK    1  A    between atoms: S1_2  and  N1_5 
REMARK    2  A    between atoms: N1_5  and  C1_7 
REMARK    3  A    between atoms: C1_7  and  C2_8 
REMARK    4  A    between atoms: C5_11  and  O4_12 
ROOT
HETATM    1  C2  UNL     1      25.240 -14.055 -22.010  1.00  0.00     0.011 C 
HETATM    2  C3  UNL     1      24.736 -13.448 -23.327  1.00  0.00     0.010 C 
HETATM    3  C4  UNL     1      25.790 -12.418 -23.728  1.00  0.00     0.038 C 
HETATM    4  C5  UNL     1      26.932 -12.866 -22.906  1.00  0.00     0.063 C 
HETATM    5  C6  UNL     1      27.944 -11.884 -22.474  1.00  0.00     0.054 C 
HETATM    6  C7  UNL     1      28.465 -12.585 -21.221  1.00  0.00     0.061 C 
HETATM    7 BR1  UNL     1      29.135 -11.354 -19.922  1.00  0.00    -0.091 Br
HETATM    8  C8  UNL     1      27.304 -13.423 -20.695  1.00  0.00     0.024 C 
HETATM    9  C9  UNL     1      26.189 -13.025 -21.572  1.00  0.00     0.027 C 
ENDROOT
BRANCH   1  10
HETATM   10  C1  UNL     1      24.100 -14.379 -21.079  1.00  0.00     0.139 C 
BRANCH  10  11
HETATM   11  N1  UNL     1      22.959 -14.645 -21.931  1.00  0.00    -0.300 N 
ATOM     12  H1  UNL     1      22.988 -14.670 -22.950  1.00  0.00     0.174 HD
BRANCH  11  13
HETATM   13  S1  UNL     1      21.529 -14.919 -20.972  1.00  0.00     0.204 S 
HETATM   14  O1  UNL     1      20.536 -13.868 -21.366  1.00  0.00    -0.578 OA
HETATM   15  O2  UNL     1      21.005 -16.302 -21.102  1.00  0.00    -0.578 OA
HETATM   16  O3  UNL     1      21.883 -14.614 -19.331  1.00  0.00    -0.578 OA
ENDBRANCH  11  13
ENDBRANCH  10  11
ENDBRANCH   1  10
BRANCH   4  17
HETATM   17  O4  UNL     1      27.438 -14.079 -23.316  1.00  0.00    -0.389 OA
ATOM     18  H4  UNL     1      26.880 -14.809 -23.072  1.00  0.00     0.210 HD
ENDBRANCH   4  17
TORSDOF 4
ENDMDL
MODEL 2
REMARK VINA RESULT: -6.882139480      0.094      1.100
REMARK  4 active torsions:
REMARK  status: ('A' for Active; 'I' for Inactive)
REMARK    1  A    between atoms: S1_2  and  N1_5 
REMARK    2  A    between atoms: N1_5  and  C1_7 
REMARK    3  A    between atoms: C1_7  and  C2_8 
REMARK    4  A    between atoms: C5_11  and  O4_12 
ROOT
HETATM    1  C2  UNL     1      25.250 -14.041 -21.991  1.00  0.00     0.011 C 
HETATM    2  C3  UNL     1      24.761 -13.450 -23.321  1.00  0.00     0.010 C 
HETATM    3  C4  UNL     1      25.817 -12.421 -23.719  1.00  0.00     0.038 C 
HETATM    4  C5  UNL     1      26.949 -12.856 -22.876  1.00  0.00     0.063 C 
HETATM    5  C6  UNL     1      27.953 -11.866 -22.441  1.00  0.00     0.054 C 
HETATM    6  C7  UNL     1      28.459 -12.551 -21.174  1.00  0.00     0.061 C 
HETATM    7 BR1  UNL     1      29.108 -11.303 -19.880  1.00  0.00    -0.091 Br
HETATM    8  C8  UNL     1      27.293 -13.387 -20.654  1.00  0.00     0.024 C 
HETATM    9  C9  UNL     1      26.189 -13.002 -21.551  1.00  0.00     0.027 C 
ENDROOT
BRANCH   1  10
HETATM   10  C1  UNL     1      24.098 -14.358 -21.071  1.00  0.00     0.139 C 
BRANCH  10  11
HETATM   11  N1  UNL     1      22.971 -14.644 -21.936  1.00  0.00    -0.300 N 
ATOM     12  H1  UNL     1      23.030 -14.760 -22.947  1.00  0.00     0.174 HD
BRANCH  11  13
HETATM   13  S1  UNL     1      21.501 -14.761 -21.007  1.00  0.00     0.204 S 
HETATM   14  O1  UNL     1      21.881 -14.571 -19.569  1.00  0.00    -0.578 OA
HETATM   15  O2  UNL     1      20.452 -13.817 -21.467  1.00  0.00    -0.578 OA
HETATM   16  O3  UNL     1      20.895 -16.352 -21.107  1.00  0.00    -0.578 OA
ENDBRANCH  11  13
ENDBRANCH  10  11
ENDBRANCH   1  10
BRANCH   4  17
HETATM   17  O4  UNL     1      27.465 -14.072 -23.266  1.00  0.00    -0.389 OA
ATOM     18  H4  UNL     1      26.930 -14.502 -23.924  1.00  0.00     0.210 HD
ENDBRANCH   4  17
TORSDOF 4
ENDMDL
MODEL 3
REMARK VINA RESULT: -6.633890863      5.397      6.849
REMARK  4 active torsions:
REMARK  status: ('A' for Active; 'I' for Inactive)
REMARK    1  A    between atoms: S1_2  and  N1_5 
REMARK    2  A    between atoms: N1_5  and  C1_7 
REMARK    3  A    between atoms: C1_7  and  C2_8 
REMARK    4  A    between atoms: C5_11  and  O4_12 
ROOT
HETATM    1  C2  UNL     1      29.742 -14.332 -22.829  1.00  0.00     0.011 C 
HETATM    2  C3  UNL     1      30.017 -13.936 -24.288  1.00  0.00     0.010 C 
HETATM    3  C4  UNL     1      28.724 -13.293 -24.783  1.00  0.00     0.038 C 
HETATM    4  C5  UNL     1      28.068 -12.980 -23.497  1.00  0.00     0.063 C 
HETATM    5  C6  UNL     1      26.596 -12.925 -23.428  1.00  0.00     0.054 C 
HETATM    6  C7  UNL     1      26.395 -13.236 -21.947  1.00  0.00     0.061 C 
HETATM    7 BR1  UNL     1      24.717 -14.082 -21.600  1.00  0.00    -0.091 Br
HETATM    8  C8  UNL     1      27.585 -14.097 -21.533  1.00  0.00     0.024 C 
HETATM    9  C9  UNL     1      28.275 -14.338 -22.813  1.00  0.00     0.027 C 
ENDROOT
BRANCH   1  10
HETATM   10  C1  UNL     1      30.438 -15.619 -22.466  1.00  0.00     0.139 C 
BRANCH  10  11
HETATM   11  N1  UNL     1      31.457 -15.257 -21.501  1.00  0.00    -0.300 N 
ATOM     12  H1  UNL     1      31.710 -14.301 -21.255  1.00  0.00     0.174 HD
BRANCH  11  13
HETATM   13  S1  UNL     1      32.188 -16.685 -20.819  1.00  0.00     0.204 S 
HETATM   14  O1  UNL     1      31.915 -17.809 -21.773  1.00  0.00    -0.578 OA
HETATM   15  O2  UNL     1      33.631 -16.506 -20.520  1.00  0.00    -0.578 OA
HETATM   16  O3  UNL     1      31.373 -17.105 -19.381  1.00  0.00    -0.578 OA
ENDBRANCH  11  13
ENDBRANCH  10  11
ENDBRANCH   1  10
BRANCH   4  17
HETATM   17  O4  UNL     1      28.719 -11.990 -22.796  1.00  0.00    -0.389 OA
ATOM     18  H4  UNL     1      28.733 -12.153 -21.860  1.00  0.00     0.210 HD
ENDBRANCH   4  17
TORSDOF 4
ENDMDL
MODEL 4
REMARK VINA RESULT: -6.629508304      2.219      3.081
REMARK  4 active torsions:
REMARK  status: ('A' for Active; 'I' for Inactive)
REMARK    1  A    between atoms: S1_2  and  N1_5 
REMARK    2  A    between atoms: N1_5  and  C1_7 
REMARK    3  A    between atoms: C1_7  and  C2_8 
REMARK    4  A    between atoms: C5_11  and  O4_12 
ROOT
HETATM    1  C2  UNL     1      25.228 -13.789 -21.249  1.00  0.00     0.011 C 
HETATM    2  C3  UNL     1      26.583 -14.170 -20.637  1.00  0.00     0.010 C 
HETATM    3  C4  UNL     1      27.595 -14.025 -21.772  1.00  0.00     0.038 C 
HETATM    4  C5  UNL     1      26.832 -13.174 -22.707  1.00  0.00     0.063 C 
HETATM    5  C6  UNL     1      27.104 -13.261 -24.154  1.00  0.00     0.054 C 
HETATM    6  C7  UNL     1      25.758 -12.788 -24.699  1.00  0.00     0.061 C 
HETATM    7 BR1  UNL     1      25.370 -13.522 -26.420  1.00  0.00    -0.091 Br
HETATM    8  C8  UNL     1      24.721 -13.171 -23.647  1.00  0.00     0.024 C 
HETATM    9  C9  UNL     1      25.510 -13.954 -22.680  1.00  0.00     0.027 C 
ENDROOT
BRANCH   1  10
HETATM   10  C1  UNL     1      24.108 -14.618 -20.672  1.00  0.00     0.139 C 
BRANCH  10  11
HETATM   11  N1  UNL     1      23.064 -14.623 -21.676  1.00  0.00    -0.300 N 
ATOM     12  H1  UNL     1      23.223 -14.556 -22.681  1.00  0.00     0.174 HD
BRANCH  11  13
HETATM   13  S1  UNL     1      21.496 -14.760 -20.927  1.00  0.00     0.204 S 
HETATM   14  O1  UNL     1      21.705 -14.593 -19.452  1.00  0.00    -0.578 OA
HETATM   15  O2  UNL     1      20.503 -13.810 -21.491  1.00  0.00    -0.578 OA
HETATM   16  O3  UNL     1      20.912 -16.350 -21.124  1.00  0.00    -0.578 OA
ENDBRANCH  11  13
ENDBRANCH  10  11
ENDBRANCH   1  10
BRANCH   4  17
HETATM   17  O4  UNL     1      26.641 -11.897 -22.228  1.00  0.00    -0.389 OA
ATOM     18  H4  UNL     1      27.071 -11.751 -21.393  1.00  0.00     0.210 HD
ENDBRANCH   4  17
TORSDOF 4
ENDMDL
MODEL 5
REMARK VINA RESULT: -6.605665232      5.290      6.762
REMARK  4 active torsions:
REMARK  status: ('A' for Active; 'I' for Inactive)
REMARK    1  A    between atoms: S1_2  and  N1_5 
REMARK    2  A    between atoms: N1_5  and  C1_7 
REMARK    3  A    between atoms: C1_7  and  C2_8 
REMARK    4  A    between atoms: C5_11  and  O4_12 
ROOT
HETATM    1  C2  UNL     1      29.645 -14.270 -22.711  1.00  0.00     0.011 C 
HETATM    2  C3  UNL     1      29.849 -13.779 -24.151  1.00  0.00     0.010 C 
HETATM    3  C4  UNL     1      28.521 -13.139 -24.552  1.00  0.00     0.038 C 
HETATM    4  C5  UNL     1      27.913 -12.923 -23.224  1.00  0.00     0.063 C 
HETATM    5  C6  UNL     1      26.444 -12.910 -23.091  1.00  0.00     0.054 C 
HETATM    6  C7  UNL     1      26.314 -13.317 -21.625  1.00  0.00     0.061 C 
HETATM    7 BR1  UNL     1      24.671 -14.225 -21.264  1.00  0.00    -0.091 Br
HETATM    8  C8  UNL     1      27.540 -14.171 -21.315  1.00  0.00     0.024 C 
HETATM    9  C9  UNL     1      28.180 -14.315 -22.635  1.00  0.00     0.027 C 
ENDROOT
BRANCH   1  10
HETATM   10  C1  UNL     1      30.384 -15.559 -22.457  1.00  0.00     0.139 C 
BRANCH  10  11
HETATM   11  N1  UNL     1      31.282 -15.287 -21.353  1.00  0.00    -0.300 N 
ATOM     12  H1  UNL     1      31.466 -14.361 -20.968  1.00  0.00     0.174 HD
BRANCH  11  13
HETATM   13  S1  UNL     1      32.005 -16.764 -20.773  1.00  0.00     0.204 S 
HETATM   14  O1  UNL     1      31.357 -17.076 -19.458  1.00  0.00    -0.578 OA
HETATM   15  O2  UNL     1      31.909 -17.875 -21.754  1.00  0.00    -0.578 OA
HETATM   16  O3  UNL     1      33.648 -16.485 -20.413  1.00  0.00    -0.578 OA
ENDBRANCH  11  13
ENDBRANCH  10  11
ENDBRANCH   1  10
BRANCH   4  17
HETATM   17  O4  UNL     1      28.570 -11.962 -22.489  1.00  0.00    -0.389 OA
ATOM     18  H4  UNL     1      28.414 -12.043 -21.555  1.00  0.00     0.210 HD
ENDBRANCH   4  17
TORSDOF 4
ENDMDL
