MODEL 1
REMARK VINA RESULT: -8.109460412      0.000      0.000
REMARK  6 active torsions:
REMARK  status: ('A' for Active; 'I' for Inactive)
REMARK    1  A    between atoms: C7_9  and  C8_10 
REMARK    2  A    between atoms: C9_11  and  C11_13 
REMARK    3  A    between atoms: C17_20  and  C18_21 
REMARK    4  A    between atoms: C18_21  and  O4_22 
REMARK    5  A    between atoms: C20_26  and  O6_27 
REMARK    6  A    between atoms: C20_26  and  C21_29 
ROOT
HETATM    1  C1  UNL     1      -6.293 -16.381  19.245  1.00  0.00     0.036 C 
HETATM    2  C2  UNL     1      -6.645 -15.139  18.508  1.00  0.00    -0.024 C 
HETATM    3  C3  UNL     1      -6.670 -14.885  17.258  1.00  0.00    -0.032 C 
HETATM    4  C4  UNL     1      -7.048 -13.565  16.621  1.00  0.00     0.066 C 
HETATM    5  C5  UNL     1      -6.978 -12.365  17.421  1.00  0.00     0.146 C 
HETATM    6  O1  UNL     1      -7.672 -12.243  18.616  1.00  0.00    -0.314 OA
HETATM    7  C6  UNL     1      -7.260 -11.191  19.440  1.00  0.00     0.267 C 
HETATM    8  O2  UNL     1      -7.482 -11.126  20.672  1.00  0.00    -0.265 OA
HETATM    9  C7  UNL     1      -6.508 -10.122  18.684  1.00  0.00     0.113 C 
HETATM   10  C12 UNL     1      -5.274 -10.733  18.022  1.00  0.00     0.010 C 
HETATM   11  C13 UNL     1      -5.001 -10.122  16.669  1.00  0.00     0.007 C 
HETATM   12  C14 UNL     1      -4.437 -11.237  15.817  1.00  0.00     0.007 C 
HETATM   13  C15 UNL     1      -4.871 -12.522  16.406  1.00  0.00     0.011 C 
HETATM   14  C16 UNL     1      -5.507 -12.173  17.729  1.00  0.00     0.026 C 
HETATM   15  C17 UNL     1      -5.847 -13.338  15.656  1.00  0.00     0.059 C 
HETATM   16  C19 UNL     1      -5.337 -14.748  15.422  1.00  0.00     0.179 C 
HETATM   17  O5  UNL     1      -4.326 -15.062  14.858  1.00  0.00    -0.293 OA
HETATM   18  C20 UNL     1      -6.367 -15.658  16.051  1.00  0.00     0.168 C 
ENDROOT
BRANCH   9  19
HETATM   19  C8  UNL     1      -6.170  -9.075  19.636  1.00  0.00    -0.002 C 
HETATM   20  C9  UNL     1      -6.046  -7.799  19.384  1.00  0.00    -0.027 C 
HETATM   21  C10 UNL     1      -5.693  -6.805  20.448  1.00  0.00     0.051 C 
BRANCH  20  22
HETATM   22  C11 UNL     1      -6.245  -7.279  18.053  1.00  0.00     0.265 C 
HETATM   23  O3  UNL     1      -7.398  -6.854  17.670  1.00  0.00    -0.302 OA
ENDBRANCH  20  22
ENDBRANCH   9  19
BRANCH  15  24
HETATM   24  C18 UNL     1      -6.316 -12.828  14.347  1.00  0.00     0.182 C 
BRANCH  24  25
HETATM   25  O4  UNL     1      -6.342 -13.768  13.328  1.00  0.00    -0.400 OA
ATOM     26  H4  UNL     1      -6.676 -13.449  12.498  1.00  0.00     0.209 HD
ENDBRANCH  24  25
ENDBRANCH  15  24
BRANCH  18  27
HETATM   27  O6  UNL     1      -7.553 -15.536  15.239  1.00  0.00    -0.375 OA
ATOM     28  H6  UNL     1      -7.590 -16.350  14.752  1.00  0.00     0.211 HD
ENDBRANCH  18  27
BRANCH  18  29
HETATM   29  C21 UNL     1      -5.948 -17.049  16.093  1.00  0.00     0.273 C 
HETATM   30  F1  UNL     1      -6.869 -18.009  16.348  1.00  0.00    -0.252 F 
ENDBRANCH  18  29
TORSDOF 6
ENDMDL
MODEL 2
REMARK VINA RESULT: -7.811804362      1.146      1.234
REMARK  6 active torsions:
REMARK  status: ('A' for Active; 'I' for Inactive)
REMARK    1  A    between atoms: C7_9  and  C8_10 
REMARK    2  A    between atoms: C9_11  and  C11_13 
REMARK    3  A    between atoms: C17_20  and  C18_21 
REMARK    4  A    between atoms: C18_21  and  O4_22 
REMARK    5  A    between atoms: C20_26  and  O6_27 
REMARK    6  A    between atoms: C20_26  and  C21_29 
ROOT
HETATM    1  C1  UNL     1      -5.358 -16.137  18.159  1.00  0.00     0.036 C 
HETATM    2  C2  UNL     1      -5.908 -14.838  17.692  1.00  0.00    -0.024 C 
HETATM    3  C3  UNL     1      -5.950 -14.315  16.530  1.00  0.00    -0.032 C 
HETATM    4  C4  UNL     1      -6.541 -12.966  16.176  1.00  0.00     0.066 C 
HETATM    5  C5  UNL     1      -6.703 -11.986  17.223  1.00  0.00     0.146 C 
HETATM    6  O1  UNL     1      -7.435 -12.256  18.370  1.00  0.00    -0.314 OA
HETATM    7  C6  UNL     1      -7.235 -11.365  19.428  1.00  0.00     0.267 C 
HETATM    8  O2  UNL     1      -7.492 -11.620  20.629  1.00  0.00    -0.265 OA
HETATM    9  C7  UNL     1      -6.668 -10.041  18.974  1.00  0.00     0.113 C 
HETATM   10  C12 UNL     1      -5.329 -10.271  18.272  1.00  0.00     0.010 C 
HETATM   11  C13 UNL     1      -5.139  -9.332  17.106  1.00  0.00     0.007 C 
HETATM   12  C14 UNL     1      -4.366 -10.113  16.066  1.00  0.00     0.007 C 
HETATM   13  C15 UNL     1      -4.579 -11.553  16.331  1.00  0.00     0.011 C 
HETATM   14  C16 UNL     1      -5.297 -11.625  17.656  1.00  0.00     0.026 C 
HETATM   15  C17 UNL     1      -5.378 -12.329  15.360  1.00  0.00     0.059 C 
HETATM   16  C19 UNL     1      -4.621 -13.542  14.855  1.00  0.00     0.179 C 
HETATM   17  O5  UNL     1      -3.557 -13.547  14.299  1.00  0.00    -0.293 OA
HETATM   18  C20 UNL     1      -5.487 -14.731  15.204  1.00  0.00     0.168 C 
ENDROOT
BRANCH   9  19
HETATM   19  C8  UNL     1      -6.542  -9.197  20.152  1.00  0.00    -0.002 C 
HETATM   20  C9  UNL     1      -6.539  -7.891  20.181  1.00  0.00    -0.027 C 
HETATM   21  C10 UNL     1      -6.403  -7.119  21.458  1.00  0.00     0.051 C 
BRANCH  20  22
HETATM   22  C11 UNL     1      -6.666  -7.117  18.969  1.00  0.00     0.265 C 
HETATM   23  O3  UNL     1      -6.311  -5.882  18.928  1.00  0.00    -0.302 OA
ENDBRANCH  20  22
ENDBRANCH   9  19
BRANCH  15  24
HETATM   24  C18 UNL     1      -5.899 -11.621  14.169  1.00  0.00     0.182 C 
BRANCH  24  25
HETATM   25  O4  UNL     1      -5.529 -12.172  12.952  1.00  0.00    -0.400 OA
ATOM     26  H4  UNL     1      -5.783 -11.666  12.189  1.00  0.00     0.209 HD
ENDBRANCH  24  25
ENDBRANCH  15  24
BRANCH  18  27
HETATM   27  O6  UNL     1      -6.657 -14.628  14.366  1.00  0.00    -0.375 OA
ATOM     28  H6  UNL     1      -6.338 -14.239  13.561  1.00  0.00     0.211 HD
ENDBRANCH  18  27
BRANCH  18  29
HETATM   29  C21 UNL     1      -4.828 -16.005  14.965  1.00  0.00     0.273 C 
HETATM   30  F1  UNL     1      -5.578 -17.130  14.881  1.00  0.00    -0.252 F 
ENDBRANCH  18  29
TORSDOF 6
ENDMDL
MODEL 3
REMARK VINA RESULT: -7.493668140      1.009      1.027
REMARK  6 active torsions:
REMARK  status: ('A' for Active; 'I' for Inactive)
REMARK    1  A    between atoms: C7_9  and  C8_10 
REMARK    2  A    between atoms: C9_11  and  C11_13 
REMARK    3  A    between atoms: C17_20  and  C18_21 
REMARK    4  A    between atoms: C18_21  and  O4_22 
REMARK    5  A    between atoms: C20_26  and  O6_27 
REMARK    6  A    between atoms: C20_26  and  C21_29 
ROOT
HETATM    1  C1  UNL     1      -4.942 -16.606  18.672  1.00  0.00     0.036 C 
HETATM    2  C2  UNL     1      -5.548 -15.464  17.938  1.00  0.00    -0.024 C 
HETATM    3  C3  UNL     1      -5.698 -15.257  16.689  1.00  0.00    -0.032 C 
HETATM    4  C4  UNL     1      -6.336 -14.039  16.054  1.00  0.00     0.066 C 
HETATM    5  C5  UNL     1      -6.419 -12.821  16.825  1.00  0.00     0.146 C 
HETATM    6  O1  UNL     1      -7.044 -12.781  18.063  1.00  0.00    -0.314 OA
HETATM    7  C6  UNL     1      -6.765 -11.650  18.835  1.00  0.00     0.267 C 
HETATM    8  O2  UNL     1      -6.912 -11.586  20.079  1.00  0.00    -0.265 OA
HETATM    9  C7  UNL     1      -6.257 -10.493  18.008  1.00  0.00     0.113 C 
HETATM   10  C12 UNL     1      -4.982 -10.907  17.274  1.00  0.00     0.010 C 
HETATM   11  C13 UNL     1      -4.907 -10.301  15.894  1.00  0.00     0.007 C 
HETATM   12  C14 UNL     1      -4.218 -11.330  15.025  1.00  0.00     0.007 C 
HETATM   13  C15 UNL     1      -4.388 -12.651  15.668  1.00  0.00     0.011 C 
HETATM   14  C16 UNL     1      -4.986 -12.374  17.025  1.00  0.00     0.026 C 
HETATM   15  C17 UNL     1      -5.258 -13.643  15.003  1.00  0.00     0.059 C 
HETATM   16  C19 UNL     1      -4.532 -14.953  14.762  1.00  0.00     0.179 C 
HETATM   17  O5  UNL     1      -3.521 -15.109  14.134  1.00  0.00    -0.293 OA
HETATM   18  C20 UNL     1      -5.348 -16.003  15.478  1.00  0.00     0.168 C 
ENDROOT
BRANCH   9  19
HETATM   19  C8  UNL     1      -6.040  -9.376  18.915  1.00  0.00    -0.002 C 
HETATM   20  C9  UNL     1      -6.198  -8.107  18.644  1.00  0.00    -0.027 C 
HETATM   21  C10 UNL     1      -5.945  -7.035  19.660  1.00  0.00     0.051 C 
BRANCH  20  22
HETATM   22  C11 UNL     1      -6.629  -7.671  17.337  1.00  0.00     0.265 C 
HETATM   23  O3  UNL     1      -7.639  -6.887  17.198  1.00  0.00    -0.302 OA
ENDBRANCH  20  22
ENDBRANCH   9  19
BRANCH  15  24
HETATM   24  C18 UNL     1      -5.891 -13.259  13.721  1.00  0.00     0.182 C 
BRANCH  24  25
HETATM   25  O4  UNL     1      -5.736 -14.177  12.694  1.00  0.00    -0.400 OA
ATOM     26  H4  UNL     1      -6.480 -14.252  12.107  1.00  0.00     0.209 HD
ENDBRANCH  24  25
ENDBRANCH  15  24
BRANCH  18  27
HETATM   27  O6  UNL     1      -6.588 -16.108  14.749  1.00  0.00    -0.375 OA
ATOM     28  H6  UNL     1      -6.718 -17.043  14.637  1.00  0.00     0.211 HD
ENDBRANCH  18  27
BRANCH  18  29
HETATM   29  C21 UNL     1      -4.696 -17.302  15.517  1.00  0.00     0.273 C 
HETATM   30  F1  UNL     1      -5.404 -18.385  15.919  1.00  0.00    -0.252 F 
ENDBRANCH  18  29
TORSDOF 6
ENDMDL
MODEL 4
REMARK VINA RESULT: -7.393313403      1.430      1.664
REMARK  6 active torsions:
REMARK  status: ('A' for Active; 'I' for Inactive)
REMARK    1  A    between atoms: C7_9  and  C8_10 
REMARK    2  A    between atoms: C9_11  and  C11_13 
REMARK    3  A    between atoms: C17_20  and  C18_21 
REMARK    4  A    between atoms: C18_21  and  O4_22 
REMARK    5  A    between atoms: C20_26  and  O6_27 
REMARK    6  A    between atoms: C20_26  and  C21_29 
ROOT
HETATM    1  C1  UNL     1      -4.534 -16.537  17.526  1.00  0.00     0.036 C 
HETATM    2  C2  UNL     1      -5.151 -15.287  17.008  1.00  0.00    -0.024 C 
HETATM    3  C3  UNL     1      -5.178 -14.791  15.834  1.00  0.00    -0.032 C 
HETATM    4  C4  UNL     1      -5.843 -13.493  15.426  1.00  0.00     0.066 C 
HETATM    5  C5  UNL     1      -6.117 -12.507  16.443  1.00  0.00     0.146 C 
HETATM    6  O1  UNL     1      -6.879 -12.805  17.564  1.00  0.00    -0.314 OA
HETATM    7  C6  UNL     1      -6.786 -11.883  18.610  1.00  0.00     0.267 C 
HETATM    8  O2  UNL     1      -7.078 -12.132  19.804  1.00  0.00    -0.265 OA
HETATM    9  C7  UNL     1      -6.292 -10.532  18.151  1.00  0.00     0.113 C 
HETATM   10  C12 UNL     1      -4.911 -10.681  17.512  1.00  0.00     0.010 C 
HETATM   11  C13 UNL     1      -4.735  -9.753  16.334  1.00  0.00     0.007 C 
HETATM   12  C14 UNL     1      -3.866 -10.499  15.345  1.00  0.00     0.007 C 
HETATM   13  C15 UNL     1      -3.992 -11.945  15.632  1.00  0.00     0.011 C 
HETATM   14  C16 UNL     1      -4.760 -12.041  16.927  1.00  0.00     0.026 C 
HETATM   15  C17 UNL     1      -4.693 -12.792  14.646  1.00  0.00     0.059 C 
HETATM   16  C19 UNL     1      -3.833 -13.960  14.200  1.00  0.00     0.179 C 
HETATM   17  O5  UNL     1      -2.749 -13.901  13.689  1.00  0.00    -0.293 OA
HETATM   18  C20 UNL     1      -4.630 -15.198  14.537  1.00  0.00     0.168 C 
ENDROOT
BRANCH   9  19
HETATM   19  C8  UNL     1      -6.275  -9.659  19.315  1.00  0.00    -0.002 C 
HETATM   20  C9  UNL     1      -6.363  -8.355  19.315  1.00  0.00    -0.027 C 
HETATM   21  C10 UNL     1      -6.336  -7.552  20.580  1.00  0.00     0.051 C 
BRANCH  20  22
HETATM   22  C11 UNL     1      -6.491  -7.615  18.082  1.00  0.00     0.265 C 
HETATM   23  O3  UNL     1      -7.273  -6.598  17.996  1.00  0.00    -0.302 OA
ENDBRANCH  20  22
ENDBRANCH   9  19
BRANCH  15  24
HETATM   24  C18 UNL     1      -5.209 -12.145  13.419  1.00  0.00     0.182 C 
BRANCH  24  25
HETATM   25  O4  UNL     1      -6.412 -12.651  12.952  1.00  0.00    -0.400 OA
ATOM     26  H4  UNL     1      -6.339 -13.442  12.431  1.00  0.00     0.209 HD
ENDBRANCH  24  25
ENDBRANCH  15  24
BRANCH  18  27
HETATM   27  O6  UNL     1      -5.767 -15.193  13.650  1.00  0.00    -0.375 OA
ATOM     28  H6  UNL     1      -6.514 -15.071  14.223  1.00  0.00     0.211 HD
ENDBRANCH  18  27
BRANCH  18  29
HETATM   29  C21 UNL     1      -3.876 -16.428  14.355  1.00  0.00     0.273 C 
HETATM   30  F1  UNL     1      -4.544 -17.600  14.232  1.00  0.00    -0.252 F 
ENDBRANCH  18  29
TORSDOF 6
ENDMDL
MODEL 5
REMARK VINA RESULT: -7.329369502      1.020      1.074
REMARK  6 active torsions:
REMARK  status: ('A' for Active; 'I' for Inactive)
REMARK    1  A    between atoms: C7_9  and  C8_10 
REMARK    2  A    between atoms: C9_11  and  C11_13 
REMARK    3  A    between atoms: C17_20  and  C18_21 
REMARK    4  A    between atoms: C18_21  and  O4_22 
REMARK    5  A    between atoms: C20_26  and  O6_27 
REMARK    6  A    between atoms: C20_26  and  C21_29 
ROOT
HETATM    1  C1  UNL     1      -6.012 -16.690  20.166  1.00  0.00     0.036 C 
HETATM    2  C2  UNL     1      -6.434 -15.628  19.215  1.00  0.00    -0.024 C 
HETATM    3  C3  UNL     1      -6.473 -15.612  17.941  1.00  0.00    -0.032 C 
HETATM    4  C4  UNL     1      -6.923 -14.456  17.073  1.00  0.00     0.066 C 
HETATM    5  C5  UNL     1      -6.920 -13.127  17.637  1.00  0.00     0.146 C 
HETATM    6  O1  UNL     1      -7.621 -12.823  18.795  1.00  0.00    -0.314 OA
HETATM    7  C6  UNL     1      -7.269 -11.616  19.405  1.00  0.00     0.267 C 
HETATM    8  O2  UNL     1      -7.494 -11.335  20.607  1.00  0.00    -0.265 OA
HETATM    9  C7  UNL     1      -6.577 -10.665  18.457  1.00  0.00     0.113 C 
HETATM   10  C12 UNL     1      -5.310 -11.320  17.907  1.00  0.00     0.010 C 
HETATM   11  C13 UNL     1      -5.072 -10.957  16.462  1.00  0.00     0.007 C 
HETATM   12  C14 UNL     1      -4.446 -12.178  15.825  1.00  0.00     0.007 C 
HETATM   13  C15 UNL     1      -4.808 -13.353  16.647  1.00  0.00     0.011 C 
HETATM   14  C16 UNL     1      -5.463 -12.800  17.889  1.00  0.00     0.026 C 
HETATM   15  C17 UNL     1      -5.737 -14.347  16.070  1.00  0.00     0.059 C 
HETATM   16  C19 UNL     1      -5.149 -15.745  16.097  1.00  0.00     0.179 C 
HETATM   17  O5  UNL     1      -4.122 -16.103  15.591  1.00  0.00    -0.293 OA
HETATM   18  C20 UNL     1      -6.126 -16.577  16.894  1.00  0.00     0.168 C 
ENDROOT
BRANCH   9  19
HETATM   19  C8  UNL     1      -6.298  -9.443  19.195  1.00  0.00    -0.002 C 
HETATM   20  C9  UNL     1      -6.291  -8.227  18.719  1.00  0.00    -0.027 C 
HETATM   21  C10 UNL     1      -5.989  -7.035  19.575  1.00  0.00     0.051 C 
BRANCH  20  22
HETATM   22  C11 UNL     1      -6.577  -7.968  17.328  1.00  0.00     0.265 C 
HETATM   23  O3  UNL     1      -5.699  -7.430  16.558  1.00  0.00    -0.302 OA
ENDBRANCH  20  22
ENDBRANCH   9  19
BRANCH  15  24
HETATM   24  C18 UNL     1      -6.233 -14.115  14.695  1.00  0.00     0.182 C 
BRANCH  24  25
HETATM   25  O4  UNL     1      -5.862 -15.078  13.769  1.00  0.00    -0.400 OA
ATOM     26  H4  UNL     1      -4.939 -15.083  13.544  1.00  0.00     0.209 HD
ENDBRANCH  24  25
ENDBRANCH  15  24
BRANCH  18  27
HETATM   27  O6  UNL     1      -7.317 -16.674  16.086  1.00  0.00    -0.375 OA
ATOM     28  H6  UNL     1      -7.826 -15.907  16.323  1.00  0.00     0.211 HD
ENDBRANCH  18  27
BRANCH  18  29
HETATM   29  C21 UNL     1      -5.630 -17.912  17.189  1.00  0.00     0.273 C 
HETATM   30  F1  UNL     1      -6.513 -18.893  17.490  1.00  0.00    -0.252 F 
ENDBRANCH  18  29
TORSDOF 6
ENDMDL
