MODEL 1
REMARK VINA RESULT: -6.391280240      0.000      0.000
REMARK  5 active torsions:
REMARK  status: ('A' for Active; 'I' for Inactive)
REMARK    1  A    between atoms: O1_2  and  C2_3 
REMARK    2  A    between atoms: C4_6  and  N1_7 
REMARK    3  A    between atoms: N1_7  and  S2_9 
REMARK    4  A    between atoms: S2_9  and  C5_12 
REMARK    5  A    between atoms: C10_17  and  C11_18 
ROOT
HETATM    1  S2  UNL     1      15.640  -7.163  -0.700  1.00  0.00     0.264 S 
HETATM    2  O2  UNL     1      16.580  -6.148  -1.432  1.00  0.00    -0.200 OA
HETATM    3  O3  UNL     1      15.806  -8.524  -1.378  1.00  0.00    -0.200 OA
ENDROOT
BRANCH   1   4
HETATM    4  N1  UNL     1      16.176  -7.207   0.901  1.00  0.00    -0.260 N 
ATOM      5  H1  UNL     1      16.891  -6.570   1.255  1.00  0.00     0.181 HD
BRANCH   4   6
HETATM    6  C4  UNL     1      15.601  -8.132   1.669  1.00  0.00     0.160 A 
HETATM    7  S1  UNL     1      16.293  -9.587   2.263  1.00  0.00    -0.061 SA
HETATM    8  C3  UNL     1      14.909 -10.204   3.078  1.00  0.00     0.109 A 
HETATM    9  C2  UNL     1      13.993  -9.241   2.837  1.00  0.00     0.150 A 
HETATM   10  N2  UNL     1      14.369  -8.205   2.124  1.00  0.00    -0.316 N 
ATOM     11  H2  UNL     1      13.705  -7.456   1.924  1.00  0.00     0.170 HD
BRANCH   9  12
HETATM   12  O1  UNL     1      12.650  -9.316   3.310  1.00  0.00    -0.340 OA
HETATM   13  C1  UNL     1      11.544  -9.633   2.611  1.00  0.00     0.211 C 
ENDBRANCH   9  12
ENDBRANCH   4   6
ENDBRANCH   1   4
BRANCH   1  14
HETATM   14  C5  UNL     1      14.068  -6.543  -1.071  1.00  0.00     0.080 A 
HETATM   15  C6  UNL     1      13.082  -7.523  -1.222  1.00  0.00     0.026 A 
HETATM   16  C7  UNL     1      11.874  -7.193  -1.666  1.00  0.00     0.009 A 
HETATM   17  C8  UNL     1      11.575  -5.879  -1.986  1.00  0.00    -0.051 A 
HETATM   18  C9  UNL     1      10.199  -5.623  -2.468  1.00  0.00     0.049 C 
HETATM   19  C10 UNL     1      12.488  -4.859  -1.861  1.00  0.00    -0.027 A 
HETATM   20  C14 UNL     1      13.752  -5.242  -1.386  1.00  0.00     0.037 A 
BRANCH  19  21
HETATM   21  C11 UNL     1      12.171  -3.531  -2.368  1.00  0.00    -0.077 C 
HETATM   22  C12 UNL     1      12.738  -3.205  -3.714  1.00  0.00     0.044 C 
HETATM   23  C13 UNL     1      11.942  -2.415  -1.416  1.00  0.00     0.044 C 
ENDBRANCH  19  21
ENDBRANCH   1  14
TORSDOF 5
ENDMDL
MODEL 2
REMARK VINA RESULT: -6.327263635      2.570      3.420
REMARK  5 active torsions:
REMARK  status: ('A' for Active; 'I' for Inactive)
REMARK    1  A    between atoms: O1_2  and  C2_3 
REMARK    2  A    between atoms: C4_6  and  N1_7 
REMARK    3  A    between atoms: N1_7  and  S2_9 
REMARK    4  A    between atoms: S2_9  and  C5_12 
REMARK    5  A    between atoms: C10_17  and  C11_18 
ROOT
HETATM    1  S2  UNL     1      17.417  -8.143  -0.935  1.00  0.00     0.264 S 
HETATM    2  O2  UNL     1      18.873  -8.344  -1.473  1.00  0.00    -0.200 OA
HETATM    3  O3  UNL     1      16.606  -9.385  -1.312  1.00  0.00    -0.200 OA
ENDROOT
BRANCH   1   4
HETATM    4  N1  UNL     1      17.566  -7.995   0.741  1.00  0.00    -0.260 N 
ATOM      5  H1  UNL     1      18.374  -7.552   1.180  1.00  0.00     0.181 HD
BRANCH   4   6
HETATM    6  C4  UNL     1      16.556  -8.498   1.449  1.00  0.00     0.160 A 
HETATM    7  S1  UNL     1      15.059  -7.745   1.829  1.00  0.00    -0.061 SA
HETATM    8  C3  UNL     1      14.387  -9.003   2.793  1.00  0.00     0.109 A 
HETATM    9  C2  UNL     1      15.370  -9.930   2.762  1.00  0.00     0.150 A 
HETATM   10  N2  UNL     1      16.453  -9.650   2.075  1.00  0.00    -0.316 N 
ATOM     11  H2  UNL     1      17.214 -10.327   2.026  1.00  0.00     0.170 HD
BRANCH   9  12
HETATM   12  O1  UNL     1      15.278 -11.175   3.448  1.00  0.00    -0.340 OA
HETATM   13  C1  UNL     1      14.266 -11.625   4.214  1.00  0.00     0.211 C 
ENDBRANCH   9  12
ENDBRANCH   4   6
ENDBRANCH   1   4
BRANCH   1  14
HETATM   14  C5  UNL     1      16.857  -6.805  -1.877  1.00  0.00     0.080 A 
HETATM   15  C6  UNL     1      17.513  -6.645  -3.101  1.00  0.00     0.026 A 
HETATM   16  C7  UNL     1      17.292  -5.565  -3.842  1.00  0.00     0.009 A 
HETATM   17  C8  UNL     1      16.411  -4.585  -3.416  1.00  0.00    -0.051 A 
HETATM   18  C9  UNL     1      16.236  -3.428  -4.321  1.00  0.00     0.049 C 
HETATM   19  C10 UNL     1      15.724  -4.671  -2.229  1.00  0.00    -0.027 A 
HETATM   20  C14 UNL     1      15.979  -5.826  -1.472  1.00  0.00     0.037 A 
BRANCH  19  21
HETATM   21  C11 UNL     1      14.941  -3.538  -1.755  1.00  0.00    -0.077 C 
HETATM   22  C12 UNL     1      15.624  -2.658  -0.756  1.00  0.00     0.044 C 
HETATM   23  C13 UNL     1      13.461  -3.636  -1.705  1.00  0.00     0.044 C 
ENDBRANCH  19  21
ENDBRANCH   1  14
TORSDOF 5
ENDMDL
MODEL 3
REMARK VINA RESULT: -6.296604532      4.237      5.594
REMARK  5 active torsions:
REMARK  status: ('A' for Active; 'I' for Inactive)
REMARK    1  A    between atoms: O1_2  and  C2_3 
REMARK    2  A    between atoms: C4_6  and  N1_7 
REMARK    3  A    between atoms: N1_7  and  S2_9 
REMARK    4  A    between atoms: S2_9  and  C5_12 
REMARK    5  A    between atoms: C10_17  and  C11_18 
ROOT
HETATM    1  S2  UNL     1      16.605  -7.987  -0.698  1.00  0.00     0.264 S 
HETATM    2  O2  UNL     1      16.857  -9.499  -1.013  1.00  0.00    -0.200 OA
HETATM    3  O3  UNL     1      15.164  -7.661  -1.098  1.00  0.00    -0.200 OA
ENDROOT
BRANCH   1   4
HETATM    4  N1  UNL     1      16.830  -7.824   0.968  1.00  0.00    -0.260 N 
ATOM      5  H1  UNL     1      17.554  -7.225   1.365  1.00  0.00     0.181 HD
BRANCH   4   6
HETATM    6  C4  UNL     1      15.995  -8.533   1.727  1.00  0.00     0.160 A 
HETATM    7  S1  UNL     1      16.301 -10.030   2.513  1.00  0.00    -0.061 SA
HETATM    8  C3  UNL     1      14.739 -10.274   3.195  1.00  0.00     0.109 A 
HETATM    9  C2  UNL     1      14.076  -9.177   2.767  1.00  0.00     0.150 A 
HETATM   10  N2  UNL     1      14.734  -8.314   2.029  1.00  0.00    -0.316 N 
ATOM     11  H2  UNL     1      14.267  -7.472   1.691  1.00  0.00     0.170 HD
BRANCH   9  12
HETATM   12  O1  UNL     1      12.705  -8.935   3.073  1.00  0.00    -0.340 OA
HETATM   13  C1  UNL     1      11.641  -9.700   2.765  1.00  0.00     0.211 C 
ENDBRANCH   9  12
ENDBRANCH   4   6
ENDBRANCH   1   4
BRANCH   1  14
HETATM   14  C5  UNL     1      17.681  -7.197  -1.800  1.00  0.00     0.080 A 
HETATM   15  C6  UNL     1      17.107  -6.868  -3.031  1.00  0.00     0.026 A 
HETATM   16  C7  UNL     1      17.865  -6.408  -4.020  1.00  0.00     0.009 A 
HETATM   17  C8  UNL     1      19.231  -6.249  -3.847  1.00  0.00    -0.051 A 
HETATM   18  C9  UNL     1      19.978  -5.726  -5.012  1.00  0.00     0.049 C 
HETATM   19  C10 UNL     1      19.868  -6.546  -2.666  1.00  0.00    -0.027 A 
HETATM   20  C14 UNL     1      19.037  -7.026  -1.642  1.00  0.00     0.037 A 
BRANCH  19  21
HETATM   21  C11 UNL     1      21.322  -6.516  -2.595  1.00  0.00    -0.077 C 
HETATM   22  C12 UNL     1      22.002  -7.832  -2.810  1.00  0.00     0.044 C 
HETATM   23  C13 UNL     1      21.997  -5.512  -1.735  1.00  0.00     0.044 C 
ENDBRANCH  19  21
ENDBRANCH   1  14
TORSDOF 5
ENDMDL
MODEL 4
REMARK VINA RESULT: -6.264999815      5.577      7.762
REMARK  5 active torsions:
REMARK  status: ('A' for Active; 'I' for Inactive)
REMARK    1  A    between atoms: O1_2  and  C2_3 
REMARK    2  A    between atoms: C4_6  and  N1_7 
REMARK    3  A    between atoms: N1_7  and  S2_9 
REMARK    4  A    between atoms: S2_9  and  C5_12 
REMARK    5  A    between atoms: C10_17  and  C11_18 
ROOT
HETATM    1  S2  UNL     1      19.921  -6.241  -1.769  1.00  0.00     0.264 S 
HETATM    2  O2  UNL     1      19.766  -5.205  -2.932  1.00  0.00    -0.200 OA
HETATM    3  O3  UNL     1      20.695  -7.442  -2.315  1.00  0.00    -0.200 OA
ENDROOT
BRANCH   1   4
HETATM    4  N1  UNL     1      20.795  -5.445  -0.563  1.00  0.00    -0.260 N 
ATOM      5  H1  UNL     1      20.342  -4.899   0.170  1.00  0.00     0.181 HD
BRANCH   4   6
HETATM    6  C4  UNL     1      22.119  -5.580  -0.637  1.00  0.00     0.160 A 
HETATM    7  S1  UNL     1      23.248  -4.508  -1.363  1.00  0.00    -0.061 SA
HETATM    8  C3  UNL     1      24.676  -5.428  -1.086  1.00  0.00     0.109 A 
HETATM    9  C2  UNL     1      24.186  -6.514  -0.448  1.00  0.00     0.150 A 
HETATM   10  N2  UNL     1      22.893  -6.564  -0.232  1.00  0.00    -0.316 N 
ATOM     11  H2  UNL     1      22.487  -7.366   0.250  1.00  0.00     0.170 HD
BRANCH   9  12
HETATM   12  O1  UNL     1      25.010  -7.594  -0.020  1.00  0.00    -0.340 OA
HETATM   13  C1  UNL     1      25.142  -8.809  -0.585  1.00  0.00     0.211 C 
ENDBRANCH   9  12
ENDBRANCH   4   6
ENDBRANCH   1   4
BRANCH   1  14
HETATM   14  C5  UNL     1      18.283  -6.718  -1.481  1.00  0.00     0.080 A 
HETATM   15  C6  UNL     1      17.342  -6.070  -2.286  1.00  0.00     0.026 A 
HETATM   16  C7  UNL     1      16.043  -6.225  -2.054  1.00  0.00     0.009 A 
HETATM   17  C8  UNL     1      15.604  -7.028  -1.014  1.00  0.00    -0.051 A 
HETATM   18  C9  UNL     1      14.137  -7.133  -0.848  1.00  0.00     0.049 C 
HETATM   19  C10 UNL     1      16.465  -7.700  -0.181  1.00  0.00    -0.027 A 
HETATM   20  C14 UNL     1      17.829  -7.517  -0.456  1.00  0.00     0.037 A 
BRANCH  19  21
HETATM   21  C11 UNL     1      15.952  -8.393   0.993  1.00  0.00    -0.077 C 
HETATM   22  C12 UNL     1      15.392  -7.511   2.064  1.00  0.00     0.044 C 
HETATM   23  C13 UNL     1      16.539  -9.696   1.395  1.00  0.00     0.044 C 
ENDBRANCH  19  21
ENDBRANCH   1  14
TORSDOF 5
ENDMDL
MODEL 5
REMARK VINA RESULT: -6.216887888      0.822      2.142
REMARK  5 active torsions:
REMARK  status: ('A' for Active; 'I' for Inactive)
REMARK    1  A    between atoms: O1_2  and  C2_3 
REMARK    2  A    between atoms: C4_6  and  N1_7 
REMARK    3  A    between atoms: N1_7  and  S2_9 
REMARK    4  A    between atoms: S2_9  and  C5_12 
REMARK    5  A    between atoms: C10_17  and  C11_18 
ROOT
HETATM    1  S2  UNL     1      15.631  -6.976  -0.407  1.00  0.00     0.264 S 
HETATM    2  O2  UNL     1      16.983  -6.509  -1.045  1.00  0.00    -0.200 OA
HETATM    3  O3  UNL     1      15.337  -8.387  -0.920  1.00  0.00    -0.200 OA
ENDROOT
BRANCH   1   4
HETATM    4  N1  UNL     1      15.889  -6.971   1.262  1.00  0.00    -0.260 N 
ATOM      5  H1  UNL     1      16.393  -6.220   1.734  1.00  0.00     0.181 HD
BRANCH   4   6
HETATM    6  C4  UNL     1      15.387  -8.017   1.918  1.00  0.00     0.160 A 
HETATM    7  S1  UNL     1      16.212  -9.435   2.426  1.00  0.00    -0.061 SA
HETATM    8  C3  UNL     1      14.871 -10.269   3.111  1.00  0.00     0.109 A 
HETATM    9  C2  UNL     1      13.864  -9.393   2.901  1.00  0.00     0.150 A 
HETATM   10  N2  UNL     1      14.152  -8.263   2.298  1.00  0.00    -0.316 N 
ATOM     11  H2  UNL     1      13.418  -7.577   2.125  1.00  0.00     0.170 HD
BRANCH   9  12
HETATM   12  O1  UNL     1      12.519  -9.655   3.292  1.00  0.00    -0.340 OA
HETATM   13  C1  UNL     1      11.415  -9.639   2.522  1.00  0.00     0.211 C 
ENDBRANCH   9  12
ENDBRANCH   4   6
ENDBRANCH   1   4
BRANCH   1  14
HETATM   14  C5  UNL     1      14.494  -5.879  -1.113  1.00  0.00     0.080 A 
HETATM   15  C6  UNL     1      14.889  -4.539  -1.083  1.00  0.00     0.026 A 
HETATM   16  C7  UNL     1      14.038  -3.583  -1.442  1.00  0.00     0.009 A 
HETATM   17  C8  UNL     1      12.753  -3.900  -1.851  1.00  0.00    -0.051 A 
HETATM   18  C9  UNL     1      11.892  -2.759  -2.233  1.00  0.00     0.049 C 
HETATM   19  C10 UNL     1      12.292  -5.193  -1.911  1.00  0.00    -0.027 A 
HETATM   20  C14 UNL     1      13.216  -6.177  -1.528  1.00  0.00     0.037 A 
BRANCH  19  21
HETATM   21  C11 UNL     1      10.885  -5.453  -2.187  1.00  0.00    -0.077 C 
HETATM   22  C12 UNL     1      10.026  -5.678  -0.983  1.00  0.00     0.044 C 
HETATM   23  C13 UNL     1      10.494  -6.111  -3.459  1.00  0.00     0.044 C 
ENDBRANCH  19  21
ENDBRANCH   1  14
TORSDOF 5
ENDMDL
