MODEL 1
REMARK VINA RESULT: -8.642572805      0.000      0.000
REMARK  6 active torsions:
REMARK  status: ('A' for Active; 'I' for Inactive)
REMARK    1  A    between atoms: C1_2  and  C2_3 
REMARK       I    between atoms: C1_2  and  N1_6 
REMARK    2  A    between atoms: C2_3  and  O2_4 
REMARK    3  A    between atoms: C5_9  and  C6_10 
REMARK    4  A    between atoms: C7_13  and  C8_14 
REMARK    5  A    between atoms: N4_19  and  C11_20 
REMARK    6  A    between atoms: C14_23  and  C15_24 
ROOT
HETATM    1  C6  UNL     1      10.761   6.297  -0.176  1.00  0.00     0.106 A 
HETATM    2  N2  UNL     1       9.758   6.550  -1.066  1.00  0.00    -0.333 N 
ATOM      3  H2  UNL     1       9.635   6.096  -1.972  1.00  0.00     0.168 HD
HETATM    4  C7  UNL     1       8.966   7.494  -0.549  1.00  0.00     0.101 A 
HETATM    5  N3  UNL     1       9.494   7.797   0.636  1.00  0.00    -0.283 N 
ATOM      6  H3  UNL     1       9.109   8.492   1.276  1.00  0.00     0.188 HD
HETATM    7  N4  UNL     1      10.591   7.074   0.880  1.00  0.00    -0.255 N 
ENDROOT
BRANCH   7   8
HETATM    8  C11 UNL     1      11.425   7.118   2.038  1.00  0.00     0.207 C 
HETATM    9  C12 UNL     1      10.712   7.131   3.337  1.00  0.00     0.055 C 
HETATM   10  C13 UNL     1      11.839   7.639   4.255  1.00  0.00     0.061 C 
HETATM   11  C14 UNL     1      12.627   8.493   3.296  1.00  0.00     0.017 C 
HETATM   12  N5  UNL     1      12.370   8.173   2.081  1.00  0.00    -0.370 N 
ATOM     13  H5  UNL     1      12.787   8.615   1.262  1.00  0.00     0.161 HD
BRANCH  11  14
HETATM   14  C15 UNL     1      13.555   9.538   3.773  1.00  0.00    -0.014 A 
HETATM   15  C16 UNL     1      14.921   9.396   3.670  1.00  0.00     0.015 A 
HETATM   16  C17 UNL     1      15.814  10.350   4.104  1.00  0.00     0.024 A 
HETATM   17  C18 UNL     1      15.321  11.509   4.672  1.00  0.00     0.034 A 
HETATM   18 CL1  UNL     1      16.449  12.752   5.239  1.00  0.00    -0.084 Cl
HETATM   19  C19 UNL     1      13.960  11.693   4.795  1.00  0.00     0.024 A 
HETATM   20  C20 UNL     1      13.108  10.706   4.344  1.00  0.00     0.015 A 
ENDBRANCH  11  14
ENDBRANCH   7   8
BRANCH   1  21
HETATM   21  C5  UNL     1      11.795   5.286  -0.486  1.00  0.00     0.058 C 
HETATM   22  C4  UNL     1      11.205   4.196  -1.353  1.00  0.00     0.032 C 
HETATM   23  C3  UNL     1      11.892   4.041  -2.673  1.00  0.00     0.126 C 
HETATM   24  N1  UNL     1      13.338   3.930  -2.526  1.00  0.00    -0.350 N 
HETATM   25  C1  UNL     1      14.130   3.079  -3.309  1.00  0.00     0.243 C 
HETATM   26  C22 UNL     1      13.934   4.767  -1.502  1.00  0.00     0.126 C 
HETATM   27  O1  UNL     1      15.372   3.042  -3.118  1.00  0.00    -0.271 OA
HETATM   28  C21 UNL     1      12.936   5.916  -1.298  1.00  0.00     0.032 C 
BRANCH  25  29
HETATM   29  C2  UNL     1      13.576   2.198  -4.374  1.00  0.00     0.267 C 
BRANCH  29  30
HETATM   30  O2  UNL     1      14.561   1.801  -5.268  1.00  0.00    -0.392 OA
ATOM     31  H2  UNL     1      14.526   0.867  -5.432  1.00  0.00     0.210 HD
ENDBRANCH  29  30
ENDBRANCH  25  29
ENDBRANCH   1  21
BRANCH   4  32
HETATM   32  C8  UNL     1       7.737   8.094  -1.167  1.00  0.00     0.055 A 
HETATM   33  C9  UNL     1       7.467   7.778  -2.587  1.00  0.00     0.013 A 
HETATM   34  C10 UNL     1       6.599   7.215  -1.534  1.00  0.00     0.013 A 
ENDBRANCH   4  32
TORSDOF 6
ENDMDL
MODEL 2
REMARK VINA RESULT: -8.573289997      3.616      4.814
REMARK  6 active torsions:
REMARK  status: ('A' for Active; 'I' for Inactive)
REMARK    1  A    between atoms: C1_2  and  C2_3 
REMARK       I    between atoms: C1_2  and  N1_6 
REMARK    2  A    between atoms: C2_3  and  O2_4 
REMARK    3  A    between atoms: C5_9  and  C6_10 
REMARK    4  A    between atoms: C7_13  and  C8_14 
REMARK    5  A    between atoms: N4_19  and  C11_20 
REMARK    6  A    between atoms: C14_23  and  C15_24 
ROOT
HETATM    1  C6  UNL     1       9.885   6.707  -0.825  1.00  0.00     0.106 A 
HETATM    2  N2  UNL     1       9.249   6.733  -2.033  1.00  0.00    -0.333 N 
ATOM      3  H2  UNL     1       9.574   6.283  -2.888  1.00  0.00     0.168 HD
HETATM    4  C7  UNL     1       8.128   7.448  -1.901  1.00  0.00     0.101 A 
HETATM    5  N3  UNL     1       8.099   7.842  -0.628  1.00  0.00    -0.283 N 
ATOM      6  H3  UNL     1       7.358   8.411  -0.219  1.00  0.00     0.188 HD
HETATM    7  N4  UNL     1       9.165   7.398   0.043  1.00  0.00    -0.255 N 
ENDROOT
BRANCH   7   8
HETATM    8  C11 UNL     1       9.483   7.614   1.418  1.00  0.00     0.207 C 
HETATM    9  C12 UNL     1      10.827   7.157   1.842  1.00  0.00     0.055 C 
HETATM   10  C13 UNL     1      10.626   7.114   3.367  1.00  0.00     0.061 C 
HETATM   11  C14 UNL     1       9.155   6.799   3.455  1.00  0.00     0.017 C 
HETATM   12  N5  UNL     1       8.560   7.091   2.357  1.00  0.00    -0.370 N 
ATOM     13  H5  UNL     1       7.562   6.964   2.184  1.00  0.00     0.161 HD
BRANCH  11  14
HETATM   14  C15 UNL     1       8.556   6.234   4.680  1.00  0.00    -0.014 A 
HETATM   15  C16 UNL     1       7.753   6.988   5.508  1.00  0.00     0.015 A 
HETATM   16  C17 UNL     1       7.178   6.493   6.657  1.00  0.00     0.024 A 
HETATM   17  C18 UNL     1       7.414   5.175   7.001  1.00  0.00     0.034 A 
HETATM   18 CL1  UNL     1       6.686   4.514   8.475  1.00  0.00    -0.084 Cl
HETATM   19  C19 UNL     1       8.211   4.385   6.201  1.00  0.00     0.024 A 
HETATM   20  C20 UNL     1       8.763   4.929   5.060  1.00  0.00     0.015 A 
ENDBRANCH  11  14
ENDBRANCH   7   8
BRANCH   1  21
HETATM   21  C5  UNL     1      11.163   5.980  -0.673  1.00  0.00     0.058 C 
HETATM   22  C4  UNL     1      11.020   4.571  -1.204  1.00  0.00     0.032 C 
HETATM   23  C3  UNL     1      11.969   4.250  -2.315  1.00  0.00     0.126 C 
HETATM   24  N1  UNL     1      13.345   4.593  -1.975  1.00  0.00    -0.350 N 
HETATM   25  C1  UNL     1      14.448   3.812  -2.346  1.00  0.00     0.243 C 
HETATM   26  C22 UNL     1      13.520   5.815  -1.214  1.00  0.00     0.126 C 
HETATM   27  O1  UNL     1      15.604   4.179  -2.012  1.00  0.00    -0.271 OA
HETATM   28  C21 UNL     1      12.265   6.650  -1.508  1.00  0.00     0.032 C 
BRANCH  25  29
HETATM   29  C2  UNL     1      14.331   2.551  -3.127  1.00  0.00     0.267 C 
BRANCH  29  30
HETATM   30  O2  UNL     1      14.380   2.792  -4.493  1.00  0.00    -0.392 OA
ATOM     31  H2  UNL     1      13.537   2.640  -4.903  1.00  0.00     0.210 HD
ENDBRANCH  29  30
ENDBRANCH  25  29
ENDBRANCH   1  21
BRANCH   4  32
HETATM   32  C8  UNL     1       7.107   7.750  -2.960  1.00  0.00     0.055 A 
HETATM   33  C9  UNL     1       6.230   8.922  -2.743  1.00  0.00     0.013 A 
HETATM   34  C10 UNL     1       7.261   8.963  -3.800  1.00  0.00     0.013 A 
ENDBRANCH   4  32
TORSDOF 6
ENDMDL
MODEL 3
REMARK VINA RESULT: -8.491496720      1.047      1.264
REMARK  6 active torsions:
REMARK  status: ('A' for Active; 'I' for Inactive)
REMARK    1  A    between atoms: C1_2  and  C2_3 
REMARK       I    between atoms: C1_2  and  N1_6 
REMARK    2  A    between atoms: C2_3  and  O2_4 
REMARK    3  A    between atoms: C5_9  and  C6_10 
REMARK    4  A    between atoms: C7_13  and  C8_14 
REMARK    5  A    between atoms: N4_19  and  C11_20 
REMARK    6  A    between atoms: C14_23  and  C15_24 
ROOT
HETATM    1  C6  UNL     1      10.516   6.301  -0.162  1.00  0.00     0.106 A 
HETATM    2  N2  UNL     1       9.693   6.671  -1.187  1.00  0.00    -0.333 N 
ATOM      3  H2  UNL     1       9.769   6.361  -2.155  1.00  0.00     0.168 HD
HETATM    4  C7  UNL     1       8.771   7.508  -0.703  1.00  0.00     0.101 A 
HETATM    5  N3  UNL     1       9.044   7.633   0.596  1.00  0.00    -0.283 N 
ATOM      6  H3  UNL     1       8.510   8.213   1.243  1.00  0.00     0.188 HD
HETATM    7  N4  UNL     1      10.108   6.902   0.942  1.00  0.00    -0.255 N 
ENDROOT
BRANCH   7   8
HETATM    8  C11 UNL     1      10.699   6.781   2.235  1.00  0.00     0.207 C 
HETATM    9  C12 UNL     1       9.926   7.381   3.349  1.00  0.00     0.055 C 
HETATM   10  C13 UNL     1      11.029   7.476   4.418  1.00  0.00     0.061 C 
HETATM   11  C14 UNL     1      12.252   7.656   3.556  1.00  0.00     0.017 C 
HETATM   12  N5  UNL     1      12.027   7.259   2.357  1.00  0.00    -0.370 N 
ATOM     13  H5  UNL     1      12.709   7.284   1.598  1.00  0.00     0.161 HD
BRANCH  11  14
HETATM   14  C15 UNL     1      13.504   8.220   4.096  1.00  0.00    -0.014 A 
HETATM   15  C16 UNL     1      13.987   7.856   5.335  1.00  0.00     0.015 A 
HETATM   16  C17 UNL     1      15.152   8.361   5.869  1.00  0.00     0.024 A 
HETATM   17  C18 UNL     1      15.876   9.278   5.130  1.00  0.00     0.034 A 
HETATM   18 CL1  UNL     1      17.377   9.944   5.795  1.00  0.00    -0.084 Cl
HETATM   19  C19 UNL     1      15.429   9.670   3.886  1.00  0.00     0.024 A 
HETATM   20  C20 UNL     1      14.256   9.134   3.396  1.00  0.00     0.015 A 
ENDBRANCH  11  14
ENDBRANCH   7   8
BRANCH   1  21
HETATM   21  C5  UNL     1      11.638   5.370  -0.409  1.00  0.00     0.058 C 
HETATM   22  C4  UNL     1      11.171   4.218  -1.271  1.00  0.00     0.032 C 
HETATM   23  C3  UNL     1      11.921   4.091  -2.559  1.00  0.00     0.126 C 
HETATM   24  N1  UNL     1      13.364   4.099  -2.354  1.00  0.00    -0.350 N 
HETATM   25  C1  UNL     1      14.252   3.298  -3.085  1.00  0.00     0.243 C 
HETATM   26  C22 UNL     1      13.850   5.002  -1.329  1.00  0.00     0.126 C 
HETATM   27  O1  UNL     1      15.485   3.365  -2.846  1.00  0.00    -0.271 OA
HETATM   28  C21 UNL     1      12.757   6.073  -1.191  1.00  0.00     0.032 C 
BRANCH  25  29
HETATM   29  C2  UNL     1      13.813   2.354  -4.149  1.00  0.00     0.267 C 
BRANCH  29  30
HETATM   30  O2  UNL     1      14.511   2.560  -5.331  1.00  0.00    -0.392 OA
ATOM     31  H2  UNL     1      14.185   3.319  -5.800  1.00  0.00     0.210 HD
ENDBRANCH  29  30
ENDBRANCH  25  29
ENDBRANCH   1  21
BRANCH   4  32
HETATM   32  C8  UNL     1       7.656   8.174  -1.455  1.00  0.00     0.055 A 
HETATM   33  C9  UNL     1       7.352   7.663  -2.810  1.00  0.00     0.013 A 
HETATM   34  C10 UNL     1       6.397   7.430  -1.707  1.00  0.00     0.013 A 
ENDBRANCH   4  32
TORSDOF 6
ENDMDL
MODEL 4
REMARK VINA RESULT: -8.413520068      4.189      7.552
REMARK  6 active torsions:
REMARK  status: ('A' for Active; 'I' for Inactive)
REMARK    1  A    between atoms: C1_2  and  C2_3 
REMARK       I    between atoms: C1_2  and  N1_6 
REMARK    2  A    between atoms: C2_3  and  O2_4 
REMARK    3  A    between atoms: C5_9  and  C6_10 
REMARK    4  A    between atoms: C7_13  and  C8_14 
REMARK    5  A    between atoms: N4_19  and  C11_20 
REMARK    6  A    between atoms: C14_23  and  C15_24 
ROOT
HETATM    1  C6  UNL     1      10.927   7.377   2.471  1.00  0.00     0.106 A 
HETATM    2  N2  UNL     1      10.295   7.933   3.545  1.00  0.00    -0.333 N 
ATOM      3  H2  UNL     1       9.288   8.062   3.646  1.00  0.00     0.168 HD
HETATM    4  C7  UNL     1      11.222   8.281   4.443  1.00  0.00     0.101 A 
HETATM    5  N3  UNL     1      12.391   7.934   3.906  1.00  0.00    -0.283 N 
ATOM      6  H3  UNL     1      13.295   8.073   4.358  1.00  0.00     0.188 HD
HETATM    7  N4  UNL     1      12.228   7.380   2.701  1.00  0.00    -0.255 N 
ENDROOT
BRANCH   7   8
HETATM    8  C11 UNL     1      13.241   6.886   1.825  1.00  0.00     0.207 C 
HETATM    9  C12 UNL     1      13.883   7.901   0.956  1.00  0.00     0.055 C 
HETATM   10  C13 UNL     1      14.516   6.983  -0.105  1.00  0.00     0.061 C 
HETATM   11  C14 UNL     1      13.547   5.829  -0.102  1.00  0.00     0.017 C 
HETATM   12  N5  UNL     1      12.862   5.811   0.983  1.00  0.00    -0.370 N 
ATOM     13  H5  UNL     1      12.146   5.120   1.208  1.00  0.00     0.161 HD
BRANCH  11  14
HETATM   14  C15 UNL     1      13.461   4.887  -1.234  1.00  0.00    -0.014 A 
HETATM   15  C16 UNL     1      12.274   4.650  -1.892  1.00  0.00     0.015 A 
HETATM   16  C17 UNL     1      12.158   3.779  -2.952  1.00  0.00     0.024 A 
HETATM   17  C18 UNL     1      13.287   3.106  -3.382  1.00  0.00     0.034 A 
HETATM   18 CL1  UNL     1      13.166   1.980  -4.744  1.00  0.00    -0.084 Cl
HETATM   19  C19 UNL     1      14.496   3.314  -2.753  1.00  0.00     0.024 A 
HETATM   20  C20 UNL     1      14.558   4.197  -1.696  1.00  0.00     0.015 A 
ENDBRANCH  11  14
ENDBRANCH   7   8
BRANCH   1  21
HETATM   21  C5  UNL     1      10.142   6.896   1.314  1.00  0.00     0.058 C 
HETATM   22  C4  UNL     1       8.665   7.086   1.579  1.00  0.00     0.032 C 
HETATM   23  C3  UNL     1       7.983   7.960   0.574  1.00  0.00     0.126 C 
HETATM   24  N1  UNL     1       8.267   7.543  -0.794  1.00  0.00    -0.350 N 
HETATM   25  C1  UNL     1       7.315   7.574  -1.823  1.00  0.00     0.243 C 
HETATM   26  C22 UNL     1       9.618   7.082  -1.046  1.00  0.00     0.126 C 
HETATM   27  O1  UNL     1       7.641   7.196  -2.977  1.00  0.00    -0.271 OA
HETATM   28  C21 UNL     1      10.469   7.723   0.061  1.00  0.00     0.032 C 
BRANCH  25  29
HETATM   29  C2  UNL     1       5.914   8.037  -1.626  1.00  0.00     0.267 C 
BRANCH  29  30
HETATM   30  O2  UNL     1       4.999   7.101  -2.087  1.00  0.00    -0.392 OA
ATOM     31  H2  UNL     1       4.720   7.295  -2.974  1.00  0.00     0.210 HD
ENDBRANCH  29  30
ENDBRANCH  25  29
ENDBRANCH   1  21
BRANCH   4  32
HETATM   32  C8  UNL     1      11.002   8.927   5.780  1.00  0.00     0.055 A 
HETATM   33  C9  UNL     1       9.651   8.817   6.373  1.00  0.00     0.013 A 
HETATM   34  C10 UNL     1      10.778   8.077   6.975  1.00  0.00     0.013 A 
ENDBRANCH   4  32
TORSDOF 6
ENDMDL
MODEL 5
REMARK VINA RESULT: -8.373263908      3.543      6.980
REMARK  6 active torsions:
REMARK  status: ('A' for Active; 'I' for Inactive)
REMARK    1  A    between atoms: C1_2  and  C2_3 
REMARK       I    between atoms: C1_2  and  N1_6 
REMARK    2  A    between atoms: C2_3  and  O2_4 
REMARK    3  A    between atoms: C5_9  and  C6_10 
REMARK    4  A    between atoms: C7_13  and  C8_14 
REMARK    5  A    between atoms: N4_19  and  C11_20 
REMARK    6  A    between atoms: C14_23  and  C15_24 
ROOT
HETATM    1  C6  UNL     1      12.088   6.604   0.294  1.00  0.00     0.106 A 
HETATM    2  N2  UNL     1      12.652   7.254   1.353  1.00  0.00    -0.333 N 
ATOM      3  H2  UNL     1      13.503   6.975   1.841  1.00  0.00     0.168 HD
HETATM    4  C7  UNL     1      11.899   8.320   1.641  1.00  0.00     0.101 A 
HETATM    5  N3  UNL     1      10.898   8.302   0.762  1.00  0.00    -0.283 N 
ATOM      6  H3  UNL     1      10.150   8.995   0.726  1.00  0.00     0.188 HD
HETATM    7  N4  UNL     1      10.999   7.259  -0.069  1.00  0.00    -0.255 N 
ENDROOT
BRANCH   7   8
HETATM    8  C11 UNL     1      10.119   6.907  -1.136  1.00  0.00     0.207 C 
HETATM    9  C12 UNL     1      10.564   7.313  -2.490  1.00  0.00     0.055 C 
HETATM   10  C13 UNL     1       9.231   7.206  -3.252  1.00  0.00     0.061 C 
HETATM   11  C14 UNL     1       8.246   7.519  -2.156  1.00  0.00     0.017 C 
HETATM   12  N5  UNL     1       8.776   7.340  -1.002  1.00  0.00    -0.370 N 
ATOM     13  H5  UNL     1       8.299   7.489  -0.112  1.00  0.00     0.161 HD
BRANCH  11  14
HETATM   14  C15 UNL     1       6.871   7.964  -2.454  1.00  0.00    -0.014 A 
HETATM   15  C16 UNL     1       6.602   8.855  -3.471  1.00  0.00     0.015 A 
HETATM   16  C17 UNL     1       5.332   9.290  -3.776  1.00  0.00     0.024 A 
HETATM   17  C18 UNL     1       4.271   8.813  -3.031  1.00  0.00     0.034 A 
HETATM   18 CL1  UNL     1       2.627   9.358  -3.403  1.00  0.00    -0.084 Cl
HETATM   19  C19 UNL     1       4.494   7.920  -2.004  1.00  0.00     0.024 A 
HETATM   20  C20 UNL     1       5.786   7.515  -1.739  1.00  0.00     0.015 A 
ENDBRANCH  11  14
ENDBRANCH   7   8
BRANCH   1  21
HETATM   21  C5  UNL     1      12.713   5.378  -0.245  1.00  0.00     0.058 C 
HETATM   22  C4  UNL     1      11.684   4.564  -0.999  1.00  0.00     0.032 C 
HETATM   23  C3  UNL     1      12.036   4.334  -2.435  1.00  0.00     0.126 C 
HETATM   24  N1  UNL     1      13.391   3.820  -2.589  1.00  0.00    -0.350 N 
HETATM   25  C1  UNL     1      13.745   2.850  -3.538  1.00  0.00     0.243 C 
HETATM   26  C22 UNL     1      14.383   4.376  -1.689  1.00  0.00     0.126 C 
HETATM   27  O1  UNL     1      14.939   2.460  -3.606  1.00  0.00    -0.271 OA
HETATM   28  C21 UNL     1      13.811   5.735  -1.258  1.00  0.00     0.032 C 
BRANCH  25  29
HETATM   29  C2  UNL     1      12.773   2.244  -4.488  1.00  0.00     0.267 C 
BRANCH  29  30
HETATM   30  O2  UNL     1      12.682   2.980  -5.661  1.00  0.00    -0.392 OA
ATOM     31  H2  UNL     1      12.421   2.435  -6.394  1.00  0.00     0.210 HD
ENDBRANCH  29  30
ENDBRANCH  25  29
ENDBRANCH   1  21
BRANCH   4  32
HETATM   32  C8  UNL     1      12.126   9.333   2.726  1.00  0.00     0.055 A 
HETATM   33  C9  UNL     1      11.337  10.583   2.663  1.00  0.00     0.013 A 
HETATM   34  C10 UNL     1      11.055   9.591   3.720  1.00  0.00     0.013 A 
ENDBRANCH   4  32
TORSDOF 6
ENDMDL
