MODEL 1
REMARK VINA RESULT: -7.309956360      0.000      0.000
REMARK  5 active torsions:
REMARK  status: ('A' for Active; 'I' for Inactive)
REMARK    1  A    between atoms: C2_2  and  N1_4 
REMARK    2  A    between atoms: N1_4  and  C4_5 
REMARK    3  A    between atoms: N1_4  and  C17_24 
REMARK    4  A    between atoms: C4_5  and  C5_6 
REMARK    5  A    between atoms: C14_17  and  O3_18 
ROOT
HETATM    1  C5  UNL     1      15.924 -13.473 -19.325  1.00  0.00    -0.046 C 
HETATM    2  C6  UNL     1      16.639 -13.644 -18.224  1.00  0.00    -0.013 C 
HETATM    3  C7  UNL     1      16.372 -14.673 -17.208  1.00  0.00     0.102 C 
HETATM    4  C8  UNL     1      14.956 -15.157 -17.131  1.00  0.00     0.233 C 
HETATM    5  C9  UNL     1      14.088 -14.402 -18.093  1.00  0.00     0.079 C 
HETATM    6  C10 UNL     1      14.762 -14.380 -19.480  1.00  0.00     0.045 C 
HETATM    7  O1  UNL     1      14.434 -14.875 -15.845  1.00  0.00    -0.194 OA
HETATM    8  O2  UNL     1      13.452 -15.651 -15.529  1.00  0.00    -0.195 OA
HETATM    9  C11 UNL     1      13.903 -16.957 -15.424  1.00  0.00     0.230 C 
HETATM   10  C12 UNL     1      12.672 -17.833 -15.366  1.00  0.00     0.077 C 
HETATM   11  C13 UNL     1      12.360 -18.143 -13.922  1.00  0.00     0.037 C 
HETATM   12  C14 UNL     1      12.481 -16.862 -13.098  1.00  0.00     0.118 C 
HETATM   13  C15 UNL     1      13.925 -16.433 -12.999  1.00  0.00     0.037 C 
HETATM   14  C16 UNL     1      14.672 -17.091 -14.116  1.00  0.00     0.077 C 
HETATM   15  O4  UNL     1      14.781 -17.297 -16.426  1.00  0.00    -0.195 OA
HETATM   16  O5  UNL     1      14.826 -16.505 -17.444  1.00  0.00    -0.194 OA
ENDROOT
BRANCH   1  17
HETATM   17  C4  UNL     1      16.252 -12.435 -20.283  1.00  0.00     0.093 C 
BRANCH  17  18
HETATM   18  N1  UNL     1      15.706 -11.149 -20.113  1.00  0.00    -0.382 N 
BRANCH  18  19
HETATM   19  C2  UNL     1      16.464 -10.293 -19.324  1.00  0.00     0.076 C 
HETATM   20  C1  UNL     1      15.984  -8.861 -19.627  1.00  0.00     0.032 C 
HETATM   21  C3  UNL     1      17.938 -10.270 -19.478  1.00  0.00     0.032 C 
ENDBRANCH  18  19
BRANCH  18  22
HETATM   22  C17 UNL     1      14.668 -10.708 -20.930  1.00  0.00     0.076 C 
HETATM   23  C18 UNL     1      14.914 -10.926 -22.434  1.00  0.00     0.032 C 
HETATM   24  C19 UNL     1      13.297 -11.256 -20.606  1.00  0.00     0.032 C 
ENDBRANCH  18  22
ENDBRANCH  17  18
ENDBRANCH   1  17
BRANCH  12  25
HETATM   25  O3  UNL     1      11.995 -17.063 -11.805  1.00  0.00    -0.396 OA
ATOM     26  H3  UNL     1      12.263 -16.353 -11.234  1.00  0.00     0.210 HD
ENDBRANCH  12  25
TORSDOF 5
ENDMDL
MODEL 2
REMARK VINA RESULT: -7.291494291      1.249      2.449
REMARK  5 active torsions:
REMARK  status: ('A' for Active; 'I' for Inactive)
REMARK    1  A    between atoms: C2_2  and  N1_4 
REMARK    2  A    between atoms: N1_4  and  C4_5 
REMARK    3  A    between atoms: N1_4  and  C17_24 
REMARK    4  A    between atoms: C4_5  and  C5_6 
REMARK    5  A    between atoms: C14_17  and  O3_18 
ROOT
HETATM    1  C5  UNL     1      15.906 -13.378 -19.089  1.00  0.00    -0.046 C 
HETATM    2  C6  UNL     1      14.851 -14.134 -19.351  1.00  0.00    -0.013 C 
HETATM    3  C7  UNL     1      14.180 -14.998 -18.368  1.00  0.00     0.102 C 
HETATM    4  C8  UNL     1      15.029 -15.461 -17.223  1.00  0.00     0.233 C 
HETATM    5  C9  UNL     1      16.440 -14.980 -17.387  1.00  0.00     0.079 C 
HETATM    6  C10 UNL     1      16.433 -13.472 -17.707  1.00  0.00     0.045 C 
HETATM    7  O1  UNL     1      15.104 -16.875 -17.238  1.00  0.00    -0.194 OA
HETATM    8  O2  UNL     1      15.379 -17.367 -16.077  1.00  0.00    -0.195 OA
HETATM    9  C11 UNL     1      14.341 -17.100 -15.198  1.00  0.00     0.230 C 
HETATM   10  C12 UNL     1      14.859 -17.419 -13.814  1.00  0.00     0.077 C 
HETATM   11  C13 UNL     1      14.418 -18.813 -13.436  1.00  0.00     0.037 C 
HETATM   12  C14 UNL     1      14.649 -19.748 -14.622  1.00  0.00     0.118 C 
HETATM   13  C15 UNL     1      13.685 -19.430 -15.740  1.00  0.00     0.037 C 
HETATM   14  C16 UNL     1      13.186 -18.037 -15.527  1.00  0.00     0.077 C 
HETATM   15  O4  UNL     1      13.852 -15.822 -15.328  1.00  0.00    -0.195 OA
HETATM   16  O5  UNL     1      14.583 -14.992 -15.993  1.00  0.00    -0.194 OA
ENDROOT
BRANCH   1  17
HETATM   17  C4  UNL     1      16.513 -12.550 -20.113  1.00  0.00     0.093 C 
BRANCH  17  18
HETATM   18  N1  UNL     1      15.869 -11.359 -20.499  1.00  0.00    -0.382 N 
BRANCH  18  19
HETATM   19  C2  UNL     1      16.598 -10.199 -20.265  1.00  0.00     0.076 C 
HETATM   20  C1  UNL     1      17.862 -10.613 -19.488  1.00  0.00     0.032 C 
HETATM   21  C3  UNL     1      15.985  -9.096 -19.488  1.00  0.00     0.032 C 
ENDBRANCH  18  19
BRANCH  18  22
HETATM   22  C17 UNL     1      14.749 -11.396 -21.326  1.00  0.00     0.076 C 
HETATM   23  C18 UNL     1      13.434 -11.013 -20.622  1.00  0.00     0.032 C 
HETATM   24  C19 UNL     1      14.842 -10.582 -22.596  1.00  0.00     0.032 C 
ENDBRANCH  18  22
ENDBRANCH  17  18
ENDBRANCH   1  17
BRANCH  12  25
HETATM   25  O3  UNL     1      14.455 -21.078 -14.243  1.00  0.00    -0.396 OA
ATOM     26  H3  UNL     1      13.896 -21.525 -14.868  1.00  0.00     0.210 HD
ENDBRANCH  12  25
TORSDOF 5
ENDMDL
MODEL 3
REMARK VINA RESULT: -7.208245719      1.064      1.571
REMARK  5 active torsions:
REMARK  status: ('A' for Active; 'I' for Inactive)
REMARK    1  A    between atoms: C2_2  and  N1_4 
REMARK    2  A    between atoms: N1_4  and  C4_5 
REMARK    3  A    between atoms: N1_4  and  C17_24 
REMARK    4  A    between atoms: C4_5  and  C5_6 
REMARK    5  A    between atoms: C14_17  and  O3_18 
ROOT
HETATM    1  C5  UNL     1      15.121 -13.800 -19.176  1.00  0.00    -0.046 C 
HETATM    2  C6  UNL     1      15.758 -13.657 -18.025  1.00  0.00    -0.013 C 
HETATM    3  C7  UNL     1      15.831 -14.687 -16.978  1.00  0.00     0.102 C 
HETATM    4  C8  UNL     1      14.711 -15.683 -16.969  1.00  0.00     0.233 C 
HETATM    5  C9  UNL     1      13.697 -15.345 -18.020  1.00  0.00     0.079 C 
HETATM    6  C10 UNL     1      14.416 -15.091 -19.361  1.00  0.00     0.045 C 
HETATM    7  O1  UNL     1      14.022 -15.600 -15.734  1.00  0.00    -0.194 OA
HETATM    8  O2  UNL     1      13.395 -16.690 -15.444  1.00  0.00    -0.195 OA
HETATM    9  C11 UNL     1      14.306 -17.715 -15.246  1.00  0.00     0.230 C 
HETATM   10  C12 UNL     1      13.509 -19.000 -15.224  1.00  0.00     0.077 C 
HETATM   11  C13 UNL     1      13.230 -19.378 -13.789  1.00  0.00     0.037 C 
HETATM   12  C14 UNL     1      12.781 -18.134 -13.023  1.00  0.00     0.118 C 
HETATM   13  C15 UNL     1      13.935 -17.175 -12.853  1.00  0.00     0.037 C 
HETATM   14  C16 UNL     1      14.963 -17.512 -13.886  1.00  0.00     0.077 C 
HETATM   15  O4  UNL     1      15.323 -17.707 -16.171  1.00  0.00    -0.195 OA
HETATM   16  O5  UNL     1      15.138 -16.982 -17.222  1.00  0.00    -0.194 OA
ENDROOT
BRANCH   1  17
HETATM   17  C4  UNL     1      15.096 -12.737 -20.162  1.00  0.00     0.093 C 
BRANCH  17  18
HETATM   18  N1  UNL     1      14.295 -11.604 -19.925  1.00  0.00    -0.382 N 
BRANCH  18  19
HETATM   19  C2  UNL     1      14.848 -10.400 -20.343  1.00  0.00     0.076 C 
HETATM   20  C1  UNL     1      14.967 -10.470 -21.877  1.00  0.00     0.032 C 
HETATM   21  C3  UNL     1      16.187 -10.000 -19.848  1.00  0.00     0.032 C 
ENDBRANCH  18  19
BRANCH  18  22
HETATM   22  C17 UNL     1      12.949 -11.745 -19.595  1.00  0.00     0.076 C 
HETATM   23  C18 UNL     1      12.212 -10.412 -19.371  1.00  0.00     0.032 C 
HETATM   24  C19 UNL     1      12.121 -12.570 -20.554  1.00  0.00     0.032 C 
ENDBRANCH  18  22
ENDBRANCH  17  18
ENDBRANCH   1  17
BRANCH  12  25
HETATM   25  O3  UNL     1      12.311 -18.482 -11.756  1.00  0.00    -0.396 OA
ATOM     26  H3  UNL     1      12.674 -17.903 -11.095  1.00  0.00     0.210 HD
ENDBRANCH  12  25
TORSDOF 5
ENDMDL
MODEL 4
REMARK VINA RESULT: -7.021251381      0.856      1.923
REMARK  5 active torsions:
REMARK  status: ('A' for Active; 'I' for Inactive)
REMARK    1  A    between atoms: C2_2  and  N1_4 
REMARK    2  A    between atoms: N1_4  and  C4_5 
REMARK    3  A    between atoms: N1_4  and  C17_24 
REMARK    4  A    between atoms: C4_5  and  C5_6 
REMARK    5  A    between atoms: C14_17  and  O3_18 
ROOT
HETATM    1  C5  UNL     1      15.543 -13.506 -19.322  1.00  0.00    -0.046 C 
HETATM    2  C6  UNL     1      16.161 -13.399 -18.157  1.00  0.00    -0.013 C 
HETATM    3  C7  UNL     1      16.134 -14.422 -17.101  1.00  0.00     0.102 C 
HETATM    4  C8  UNL     1      14.945 -15.334 -17.111  1.00  0.00     0.233 C 
HETATM    5  C9  UNL     1      13.983 -14.933 -18.190  1.00  0.00     0.079 C 
HETATM    6  C10 UNL     1      14.751 -14.744 -19.514  1.00  0.00     0.045 C 
HETATM    7  O1  UNL     1      14.234 -15.189 -15.894  1.00  0.00    -0.194 OA
HETATM    8  O2  UNL     1      13.523 -16.228 -15.611  1.00  0.00    -0.195 OA
HETATM    9  C11 UNL     1      14.352 -17.315 -15.384  1.00  0.00     0.230 C 
HETATM   10  C12 UNL     1      13.463 -18.538 -15.371  1.00  0.00     0.077 C 
HETATM   11  C13 UNL     1      13.123 -18.881 -13.941  1.00  0.00     0.037 C 
HETATM   12  C14 UNL     1      12.748 -17.600 -13.196  1.00  0.00     0.118 C 
HETATM   13  C15 UNL     1      13.964 -16.726 -13.005  1.00  0.00     0.037 C 
HETATM   14  C16 UNL     1      14.989 -17.147 -14.009  1.00  0.00     0.077 C 
HETATM   15  O4  UNL     1      15.389 -17.389 -16.284  1.00  0.00    -0.195 OA
HETATM   16  O5  UNL     1      15.282 -16.662 -17.344  1.00  0.00    -0.194 OA
ENDROOT
BRANCH   1  17
HETATM   17  C4  UNL     1      15.619 -12.453 -20.316  1.00  0.00     0.093 C 
BRANCH  17  18
HETATM   18  N1  UNL     1      14.843 -11.292 -20.143  1.00  0.00    -0.382 N 
BRANCH  18  19
HETATM   19  C2  UNL     1      13.508 -11.523 -19.836  1.00  0.00     0.076 C 
HETATM   20  C1  UNL     1      12.851 -12.105 -21.101  1.00  0.00     0.032 C 
HETATM   21  C3  UNL     1      12.648 -10.391 -19.415  1.00  0.00     0.032 C 
ENDBRANCH  18  19
BRANCH  18  22
HETATM   22  C17 UNL     1      15.453 -10.050 -19.984  1.00  0.00     0.076 C 
HETATM   23  C18 UNL     1      16.940 -10.126 -19.590  1.00  0.00     0.032 C 
HETATM   24  C19 UNL     1      15.338  -9.105 -21.157  1.00  0.00     0.032 C 
ENDBRANCH  18  22
ENDBRANCH  17  18
ENDBRANCH   1  17
BRANCH  12  25
HETATM   25  O3  UNL     1      12.224 -17.901 -11.937  1.00  0.00    -0.396 OA
ATOM     26  H3  UNL     1      11.641 -17.211 -11.645  1.00  0.00     0.210 HD
ENDBRANCH  12  25
TORSDOF 5
ENDMDL
MODEL 5
REMARK VINA RESULT: -7.021171393      5.149      7.389
REMARK  5 active torsions:
REMARK  status: ('A' for Active; 'I' for Inactive)
REMARK    1  A    between atoms: C2_2  and  N1_4 
REMARK    2  A    between atoms: N1_4  and  C4_5 
REMARK    3  A    between atoms: N1_4  and  C17_24 
REMARK    4  A    between atoms: C4_5  and  C5_6 
REMARK    5  A    between atoms: C14_17  and  O3_18 
ROOT
HETATM    1  C5  UNL     1       9.014 -12.721 -18.253  1.00  0.00    -0.046 C 
HETATM    2  C6  UNL     1       9.668 -12.805 -19.401  1.00  0.00    -0.013 C 
HETATM    3  C7  UNL     1      10.988 -13.431 -19.564  1.00  0.00     0.102 C 
HETATM    4  C8  UNL     1      11.847 -13.465 -18.337  1.00  0.00     0.233 C 
HETATM    5  C9  UNL     1      11.168 -12.762 -17.200  1.00  0.00     0.079 C 
HETATM    6  C10 UNL     1       9.720 -13.276 -17.073  1.00  0.00     0.045 C 
HETATM    7  O1  UNL     1      13.038 -12.737 -18.579  1.00  0.00    -0.194 OA
HETATM    8  O2  UNL     1      14.006 -13.104 -17.808  1.00  0.00    -0.195 OA
HETATM    9  C11 UNL     1      14.357 -14.415 -18.088  1.00  0.00     0.230 C 
HETATM   10  C12 UNL     1      15.257 -14.868 -16.962  1.00  0.00     0.077 C 
HETATM   11  C13 UNL     1      16.696 -14.709 -17.392  1.00  0.00     0.037 C 
HETATM   12  C14 UNL     1      16.868 -13.350 -18.068  1.00  0.00     0.118 C 
HETATM   13  C15 UNL     1      16.161 -13.331 -19.402  1.00  0.00     0.037 C 
HETATM   14  C16 UNL     1      15.144 -14.428 -19.393  1.00  0.00     0.077 C 
HETATM   15  O4  UNL     1      13.264 -15.225 -18.288  1.00  0.00    -0.195 OA
HETATM   16  O5  UNL     1      12.124 -14.757 -17.905  1.00  0.00    -0.194 OA
ENDROOT
BRANCH   1  17
HETATM   17  C4  UNL     1       7.711 -12.089 -18.171  1.00  0.00     0.093 C 
BRANCH  17  18
HETATM   18  N1  UNL     1       6.929 -12.283 -17.017  1.00  0.00    -0.382 N 
BRANCH  18  19
HETATM   19  C2  UNL     1       6.847 -11.181 -16.175  1.00  0.00     0.076 C 
HETATM   20  C1  UNL     1       5.351 -10.934 -15.904  1.00  0.00     0.032 C 
HETATM   21  C3  UNL     1       7.401  -9.880 -16.619  1.00  0.00     0.032 C 
ENDBRANCH  18  19
BRANCH  18  22
HETATM   22  C17 UNL     1       6.073 -13.377 -16.918  1.00  0.00     0.076 C 
HETATM   23  C18 UNL     1       5.676 -13.990 -18.274  1.00  0.00     0.032 C 
HETATM   24  C19 UNL     1       6.544 -14.503 -16.027  1.00  0.00     0.032 C 
ENDBRANCH  18  22
ENDBRANCH  17  18
ENDBRANCH   1  17
BRANCH  12  25
HETATM   25  O3  UNL     1      18.220 -13.078 -18.285  1.00  0.00    -0.396 OA
ATOM     26  H3  UNL     1      18.753 -13.830 -18.056  1.00  0.00     0.210 HD
ENDBRANCH  12  25
TORSDOF 5
ENDMDL
