MODEL 1
REMARK VINA RESULT: -6.253529676      0.000      0.000
REMARK  3 active torsions:
REMARK  status: ('A' for Active; 'I' for Inactive)
REMARK    1  A    between atoms: C4_5  and  N1_6 
REMARK    2  A    between atoms: N1_6  and  C5_8 
REMARK    3  A    between atoms: C5_8  and  C6_9 
ROOT
HETATM    1  C6  UNL     1     -41.735 -61.774  57.827  1.00  0.00     0.206 C 
HETATM    2  C7  UNL     1     -41.550 -61.926  56.357  1.00  0.00     0.062 C 
HETATM    3  C8  UNL     1     -40.246 -62.602  56.065  1.00  0.00     0.236 C 
HETATM    4  N2  UNL     1     -39.183 -62.110  56.873  1.00  0.00    -0.051 N 
ATOM      5  H21 UNL     1     -38.342 -61.977  56.311  1.00  0.00     0.279 HD
ATOM      6  H22 UNL     1     -38.855 -62.836  57.509  1.00  0.00     0.279 HD
HETATM    7  C9  UNL     1     -39.492 -60.917  57.596  1.00  0.00     0.463 C 
HETATM    8  N3  UNL     1     -40.688 -60.997  58.400  1.00  0.00    -0.045 N 
ATOM      9  H31 UNL     1     -40.466 -61.336  59.336  1.00  0.00     0.279 HD
ATOM     10  H32 UNL     1     -41.026 -60.061  58.629  1.00  0.00     0.279 HD
ENDROOT
BRANCH   1  11
HETATM   11  C5  UNL     1     -43.147 -61.266  58.154  1.00  0.00     0.147 C 
BRANCH  11  12
HETATM   12  N1  UNL     1     -43.303 -61.261  59.544  1.00  0.00    -0.415 N 
ATOM     13  H1  UNL     1     -43.060 -60.424  60.073  1.00  0.00     0.153 HD
BRANCH  12  14
HETATM   14  C4  UNL     1     -43.794 -62.401  60.226  1.00  0.00     0.079 C 
HETATM   15  C3  UNL     1     -45.023 -62.136  61.061  1.00  0.00     0.027 C 
HETATM   16  C2  UNL     1     -45.030 -63.357  61.962  1.00  0.00     0.039 C 
HETATM   17  C1  UNL     1     -43.591 -63.362  62.450  1.00  0.00     0.172 C 
HETATM   18  F1  UNL     1     -43.268 -64.549  63.021  1.00  0.00    -0.249 F 
HETATM   19  C10 UNL     1     -42.834 -63.096  61.143  1.00  0.00     0.062 C 
ENDBRANCH  12  14
ENDBRANCH  11  12
ENDBRANCH   1  11
TORSDOF 3
ENDMDL
MODEL 2
REMARK VINA RESULT: -6.219119280      2.826      5.968
REMARK  3 active torsions:
REMARK  status: ('A' for Active; 'I' for Inactive)
REMARK    1  A    between atoms: C4_5  and  N1_6 
REMARK    2  A    between atoms: N1_6  and  C5_8 
REMARK    3  A    between atoms: C5_8  and  C6_9 
ROOT
HETATM    1  C6  UNL     1     -43.885 -61.952  60.452  1.00  0.00     0.206 C 
HETATM    2  C7  UNL     1     -44.423 -62.914  61.453  1.00  0.00     0.062 C 
HETATM    3  C8  UNL     1     -45.912 -62.776  61.557  1.00  0.00     0.236 C 
HETATM    4  N2  UNL     1     -46.334 -61.418  61.570  1.00  0.00    -0.051 N 
ATOM      5  H21 UNL     1     -47.059 -61.278  62.274  1.00  0.00     0.279 HD
ATOM      6  H22 UNL     1     -46.866 -61.203  60.726  1.00  0.00     0.279 HD
HETATM    7  C9  UNL     1     -45.279 -60.470  61.748  1.00  0.00     0.463 C 
HETATM    8  N3  UNL     1     -44.187 -60.608  60.814  1.00  0.00    -0.045 N 
ATOM      9  H31 UNL     1     -44.358 -60.046  59.980  1.00  0.00     0.279 HD
ATOM     10  H32 UNL     1     -43.353 -60.141  61.171  1.00  0.00     0.279 HD
ENDROOT
BRANCH   1  11
HETATM   11  C5  UNL     1     -42.395 -62.212  60.186  1.00  0.00     0.147 C 
BRANCH  11  12
HETATM   12  N1  UNL     1     -41.837 -61.055  59.633  1.00  0.00    -0.415 N 
ATOM     13  H1  UNL     1     -41.783 -60.206  60.195  1.00  0.00     0.153 HD
BRANCH  12  14
HETATM   14  C4  UNL     1     -41.346 -61.047  58.305  1.00  0.00     0.079 C 
HETATM   15  C3  UNL     1     -41.580 -62.336  57.554  1.00  0.00     0.027 C 
HETATM   16  C2  UNL     1     -40.602 -62.183  56.403  1.00  0.00     0.039 C 
HETATM   17  C1  UNL     1     -39.338 -61.790  57.151  1.00  0.00     0.172 C 
HETATM   18  F1  UNL     1     -38.403 -61.287  56.307  1.00  0.00    -0.249 F 
HETATM   19  C10 UNL     1     -39.887 -60.748  58.134  1.00  0.00     0.062 C 
ENDBRANCH  12  14
ENDBRANCH  11  12
ENDBRANCH   1  11
TORSDOF 3
ENDMDL
MODEL 3
REMARK VINA RESULT: -6.205213328      2.607      5.886
REMARK  3 active torsions:
REMARK  status: ('A' for Active; 'I' for Inactive)
REMARK    1  A    between atoms: C4_5  and  N1_6 
REMARK    2  A    between atoms: N1_6  and  C5_8 
REMARK    3  A    between atoms: C5_8  and  C6_9 
ROOT
HETATM    1  C6  UNL     1     -43.624 -61.318  60.927  1.00  0.00     0.206 C 
HETATM    2  C7  UNL     1     -44.089 -62.547  61.628  1.00  0.00     0.062 C 
HETATM    3  C8  UNL     1     -45.530 -62.810  61.314  1.00  0.00     0.236 C 
HETATM    4  N2  UNL     1     -46.319 -61.626  61.345  1.00  0.00    -0.051 N 
ATOM      5  H21 UNL     1     -47.204 -61.801  61.821  1.00  0.00     0.279 HD
ATOM      6  H22 UNL     1     -46.665 -61.405  60.410  1.00  0.00     0.279 HD
HETATM    7  C9  UNL     1     -45.664 -60.491  61.913  1.00  0.00     0.463 C 
HETATM    8  N3  UNL     1     -44.383 -60.180  61.323  1.00  0.00    -0.045 N 
ATOM      9  H31 UNL     1     -44.499 -59.540  60.537  1.00  0.00     0.279 HD
ATOM     10  H32 UNL     1     -43.837 -59.590  61.950  1.00  0.00     0.279 HD
ENDROOT
BRANCH   1  11
HETATM   11  C5  UNL     1     -42.105 -61.143  61.075  1.00  0.00     0.147 C 
BRANCH  11  12
HETATM   12  N1  UNL     1     -41.603 -60.624  59.877  1.00  0.00    -0.415 N 
ATOM     13  H1  UNL     1     -41.849 -59.674  59.599  1.00  0.00     0.153 HD
BRANCH  12  14
HETATM   14  C4  UNL     1     -40.756 -61.398  59.047  1.00  0.00     0.079 C 
HETATM   15  C3  UNL     1     -39.832 -60.581  58.177  1.00  0.00     0.027 C 
HETATM   16  C2  UNL     1     -39.413 -61.614  57.147  1.00  0.00     0.039 C 
HETATM   17  C1  UNL     1     -40.763 -62.182  56.745  1.00  0.00     0.172 C 
HETATM   18  F1  UNL     1     -40.625 -63.348  56.066  1.00  0.00    -0.249 F 
HETATM   19  C10 UNL     1     -41.431 -62.359  58.115  1.00  0.00     0.062 C 
ENDBRANCH  12  14
ENDBRANCH  11  12
ENDBRANCH   1  11
TORSDOF 3
ENDMDL
MODEL 4
REMARK VINA RESULT: -6.198538282      4.802      6.305
REMARK  3 active torsions:
REMARK  status: ('A' for Active; 'I' for Inactive)
REMARK    1  A    between atoms: C4_5  and  N1_6 
REMARK    2  A    between atoms: N1_6  and  C5_8 
REMARK    3  A    between atoms: C5_8  and  C6_9 
ROOT
HETATM    1  C6  UNL     1     -38.734 -58.958  62.308  1.00  0.00     0.206 C 
HETATM    2  C7  UNL     1     -38.444 -59.927  63.402  1.00  0.00     0.062 C 
HETATM    3  C8  UNL     1     -37.472 -59.334  64.376  1.00  0.00     0.236 C 
HETATM    4  N2  UNL     1     -36.409 -58.641  63.732  1.00  0.00    -0.051 N 
ATOM      5  H21 UNL     1     -35.519 -58.861  64.180  1.00  0.00     0.279 HD
ATOM      6  H22 UNL     1     -36.464 -57.642  63.932  1.00  0.00     0.279 HD
HETATM    7  C9  UNL     1     -36.324 -58.863  62.323  1.00  0.00     0.463 C 
HETATM    8  N3  UNL     1     -37.549 -58.608  61.602  1.00  0.00    -0.045 N 
ATOM      9  H31 UNL     1     -37.589 -57.634  61.302  1.00  0.00     0.279 HD
ATOM     10  H32 UNL     1     -37.528 -59.071  60.693  1.00  0.00     0.279 HD
ENDROOT
BRANCH   1  11
HETATM   11  C5  UNL     1     -39.874 -59.467  61.413  1.00  0.00     0.147 C 
BRANCH  11  12
HETATM   12  N1  UNL     1     -39.329 -59.851  60.183  1.00  0.00    -0.415 N 
ATOM     13  H1  UNL     1     -38.317 -59.854  60.061  1.00  0.00     0.153 HD
BRANCH  12  14
HETATM   14  C4  UNL     1     -40.164 -60.238  59.106  1.00  0.00     0.079 C 
HETATM   15  C3  UNL     1     -41.145 -61.333  59.450  1.00  0.00     0.027 C 
HETATM   16  C2  UNL     1     -41.548 -61.807  58.066  1.00  0.00     0.039 C 
HETATM   17  C1  UNL     1     -40.185 -61.986  57.416  1.00  0.00     0.172 C 
HETATM   18  F1  UNL     1     -40.293 -62.099  56.069  1.00  0.00    -0.249 F 
HETATM   19  C10 UNL     1     -39.475 -60.700  57.859  1.00  0.00     0.062 C 
ENDBRANCH  12  14
ENDBRANCH  11  12
ENDBRANCH   1  11
TORSDOF 3
ENDMDL
MODEL 5
REMARK VINA RESULT: -6.114769186      0.839      1.283
REMARK  3 active torsions:
REMARK  status: ('A' for Active; 'I' for Inactive)
REMARK    1  A    between atoms: C4_5  and  N1_6 
REMARK    2  A    between atoms: N1_6  and  C5_8 
REMARK    3  A    between atoms: C5_8  and  C6_9 
ROOT
HETATM    1  C6  UNL     1     -41.607 -62.142  58.112  1.00  0.00     0.206 C 
HETATM    2  C7  UNL     1     -41.612 -62.119  56.623  1.00  0.00     0.062 C 
HETATM    3  C8  UNL     1     -40.281 -62.560  56.093  1.00  0.00     0.236 C 
HETATM    4  N2  UNL     1     -39.192 -61.996  56.815  1.00  0.00    -0.051 N 
ATOM      5  H21 UNL     1     -38.464 -61.684  56.173  1.00  0.00     0.279 HD
ATOM      6  H22 UNL     1     -38.683 -62.725  57.316  1.00  0.00     0.279 HD
HETATM    7  C9  UNL     1     -39.556 -60.940  57.707  1.00  0.00     0.463 C 
HETATM    8  N3  UNL     1     -40.606 -61.277  58.639  1.00  0.00    -0.045 N 
ATOM      9  H31 UNL     1     -40.211 -61.670  59.493  1.00  0.00     0.279 HD
ATOM     10  H32 UNL     1     -41.032 -60.430  59.016  1.00  0.00     0.279 HD
ENDROOT
BRANCH   1  11
HETATM   11  C5  UNL     1     -43.016 -61.886  58.669  1.00  0.00     0.147 C 
BRANCH  11  12
HETATM   12  N1  UNL     1     -42.901 -61.077  59.804  1.00  0.00    -0.415 N 
ATOM     13  H1  UNL     1     -42.537 -60.128  59.710  1.00  0.00     0.153 HD
BRANCH  12  14
HETATM   14  C4  UNL     1     -43.282 -61.555  61.081  1.00  0.00     0.079 C 
HETATM   15  C3  UNL     1     -42.127 -62.016  61.936  1.00  0.00     0.027 C 
HETATM   16  C2  UNL     1     -42.852 -62.840  62.985  1.00  0.00     0.039 C 
HETATM   17  C1  UNL     1     -43.730 -63.715  62.106  1.00  0.00     0.172 C 
HETATM   18  F1  UNL     1     -44.708 -64.316  62.829  1.00  0.00    -0.249 F 
HETATM   19  C10 UNL     1     -44.268 -62.684  61.104  1.00  0.00     0.062 C 
ENDBRANCH  12  14
ENDBRANCH  11  12
ENDBRANCH   1  11
TORSDOF 3
ENDMDL
