MODEL 1
REMARK VINA RESULT: -5.628998452      0.000      0.000
REMARK  4 active torsions:
REMARK  status: ('A' for Active; 'I' for Inactive)
REMARK    1  A    between atoms: C2_2  and  N1_3 
REMARK    2  A    between atoms: N1_3  and  C3_6 
REMARK    3  A    between atoms: C3_6  and  C4_7 
REMARK    4  A    between atoms: C8_15  and  O1_16 
ROOT
HETATM    1  C4  UNL     1     -46.610 -61.819  63.463  1.00  0.00     0.112 C 
HETATM    2 CL1  UNL     1     -46.874 -60.842  62.013  1.00  0.00    -0.113 Cl
HETATM    3  C5  UNL     1     -45.256 -62.563  63.355  1.00  0.00     0.033 C 
HETATM    4  C6  UNL     1     -44.139 -61.563  63.654  1.00  0.00     0.030 C 
HETATM    5  C7  UNL     1     -44.206 -61.336  65.158  1.00  0.00     0.235 C 
HETATM    6  N2  UNL     1     -45.575 -61.539  65.615  1.00  0.00    -0.047 N 
ATOM      7  H21 UNL     1     -45.724 -61.206  66.568  1.00  0.00     0.280 HD
ATOM      8  H22 UNL     1     -45.793 -62.522  65.776  1.00  0.00     0.280 HD
HETATM    9  C8  UNL     1     -46.475 -60.915  64.657  1.00  0.00     0.344 C 
ENDROOT
BRANCH   1  10
HETATM   10  C3  UNL     1     -47.660 -62.877  63.668  1.00  0.00     0.262 C 
BRANCH  10  11
HETATM   11  N1  UNL     1     -48.371 -63.206  62.465  1.00  0.00    -0.073 N 
ATOM     12  H12 UNL     1     -48.143 -62.581  61.692  1.00  0.00     0.277 HD
ATOM     13  H11 UNL     1     -49.367 -62.993  62.527  1.00  0.00     0.277 HD
BRANCH  11  14
HETATM   14  C2  UNL     1     -48.117 -64.599  62.148  1.00  0.00     0.228 C 
HETATM   15  C1  UNL     1     -49.105 -65.535  62.814  1.00  0.00     0.034 C 
ENDBRANCH  11  14
ENDBRANCH  10  11
ENDBRANCH   1  10
BRANCH   9  16
HETATM   16  O1  UNL     1     -47.696 -60.752  65.324  1.00  0.00    -0.368 OA
ATOM     17  H1  UNL     1     -47.573 -60.639  66.259  1.00  0.00     0.212 HD
ENDBRANCH   9  16
TORSDOF 4
ENDMDL
MODEL 2
REMARK VINA RESULT: -5.341202488      2.093      4.223
REMARK  4 active torsions:
REMARK  status: ('A' for Active; 'I' for Inactive)
REMARK    1  A    between atoms: C2_2  and  N1_3 
REMARK    2  A    between atoms: N1_3  and  C3_6 
REMARK    3  A    between atoms: C3_6  and  C4_7 
REMARK    4  A    between atoms: C8_15  and  O1_16 
ROOT
HETATM    1  C4  UNL     1     -46.122 -61.622  63.960  1.00  0.00     0.112 C 
HETATM    2 CL1  UNL     1     -45.069 -61.494  65.375  1.00  0.00    -0.113 Cl
HETATM    3  C5  UNL     1     -45.668 -62.808  63.073  1.00  0.00     0.033 C 
HETATM    4  C6  UNL     1     -46.152 -64.102  63.726  1.00  0.00     0.030 C 
HETATM    5  C7  UNL     1     -47.653 -64.133  63.474  1.00  0.00     0.235 C 
HETATM    6  N2  UNL     1     -48.151 -62.768  63.369  1.00  0.00    -0.047 N 
ATOM      7  H21 UNL     1     -49.170 -62.718  63.403  1.00  0.00     0.280 HD
ATOM      8  H22 UNL     1     -48.025 -62.375  62.437  1.00  0.00     0.280 HD
HETATM    9  C8  UNL     1     -47.517 -61.967  64.405  1.00  0.00     0.344 C 
ENDROOT
BRANCH   1  10
HETATM   10  C3  UNL     1     -46.092 -60.400  63.083  1.00  0.00     0.262 C 
BRANCH  10  11
HETATM   11  N1  UNL     1     -46.015 -59.175  63.827  1.00  0.00    -0.073 N 
ATOM     12  H12 UNL     1     -46.124 -59.318  64.830  1.00  0.00     0.277 HD
ATOM     13  H11 UNL     1     -46.829 -58.577  63.683  1.00  0.00     0.277 HD
BRANCH  11  14
HETATM   14  C2  UNL     1     -44.769 -58.511  63.491  1.00  0.00     0.228 C 
HETATM   15  C1  UNL     1     -44.031 -59.201  62.362  1.00  0.00     0.034 C 
ENDBRANCH  11  14
ENDBRANCH  10  11
ENDBRANCH   1  10
BRANCH   9  16
HETATM   16  O1  UNL     1     -48.311 -60.823  64.550  1.00  0.00    -0.368 OA
ATOM     17  H1  UNL     1     -48.185 -60.412  65.398  1.00  0.00     0.212 HD
ENDBRANCH   9  16
TORSDOF 4
ENDMDL
MODEL 3
REMARK VINA RESULT: -5.338257747      3.084      4.450
REMARK  4 active torsions:
REMARK  status: ('A' for Active; 'I' for Inactive)
REMARK    1  A    between atoms: C2_2  and  N1_3 
REMARK    2  A    between atoms: N1_3  and  C3_6 
REMARK    3  A    between atoms: C3_6  and  C4_7 
REMARK    4  A    between atoms: C8_15  and  O1_16 
ROOT
HETATM    1  C4  UNL     1     -45.414 -62.421  62.316  1.00  0.00     0.112 C 
HETATM    2 CL1  UNL     1     -44.221 -61.567  63.303  1.00  0.00    -0.113 Cl
HETATM    3  C5  UNL     1     -45.648 -63.842  62.887  1.00  0.00     0.033 C 
HETATM    4  C6  UNL     1     -46.546 -63.718  64.117  1.00  0.00     0.030 C 
HETATM    5  C7  UNL     1     -47.932 -63.415  63.564  1.00  0.00     0.235 C 
HETATM    6  N2  UNL     1     -47.800 -62.713  62.293  1.00  0.00    -0.047 N 
ATOM      7  H21 UNL     1     -48.681 -62.307  61.976  1.00  0.00     0.280 HD
ATOM      8  H22 UNL     1     -47.650 -63.347  61.509  1.00  0.00     0.280 HD
HETATM    9  C8  UNL     1     -46.742 -61.723  62.423  1.00  0.00     0.344 C 
ENDROOT
BRANCH   1  10
HETATM   10  C3  UNL     1     -44.983 -62.603  60.886  1.00  0.00     0.262 C 
BRANCH  10  11
HETATM   11  N1  UNL     1     -44.070 -61.589  60.439  1.00  0.00    -0.073 N 
ATOM     12  H12 UNL     1     -43.567 -61.148  61.209  1.00  0.00     0.277 HD
ATOM     13  H11 UNL     1     -44.548 -60.758  60.091  1.00  0.00     0.277 HD
BRANCH  11  14
HETATM   14  C2  UNL     1     -43.180 -62.175  59.454  1.00  0.00     0.228 C 
HETATM   15  C1  UNL     1     -43.104 -61.356  58.182  1.00  0.00     0.034 C 
ENDBRANCH  11  14
ENDBRANCH  10  11
ENDBRANCH   1  10
BRANCH   9  16
HETATM   16  O1  UNL     1     -46.935 -60.812  61.378  1.00  0.00    -0.368 OA
ATOM     17  H1  UNL     1     -46.417 -60.025  61.497  1.00  0.00     0.212 HD
ENDBRANCH   9  16
TORSDOF 4
ENDMDL
MODEL 4
REMARK VINA RESULT: -5.330565431      2.583      4.182
REMARK  4 active torsions:
REMARK  status: ('A' for Active; 'I' for Inactive)
REMARK    1  A    between atoms: C2_2  and  N1_3 
REMARK    2  A    between atoms: N1_3  and  C3_6 
REMARK    3  A    between atoms: C3_6  and  C4_7 
REMARK    4  A    between atoms: C8_15  and  O1_16 
ROOT
HETATM    1  C4  UNL     1     -45.957 -62.331  62.647  1.00  0.00     0.112 C 
HETATM    2 CL1  UNL     1     -45.040 -61.470  63.890  1.00  0.00    -0.113 Cl
HETATM    3  C5  UNL     1     -45.830 -63.859  62.865  1.00  0.00     0.033 C 
HETATM    4  C6  UNL     1     -46.752 -64.253  64.018  1.00  0.00     0.030 C 
HETATM    5  C7  UNL     1     -48.159 -64.177  63.441  1.00  0.00     0.235 C 
HETATM    6  N2  UNL     1     -48.188 -63.184  62.373  1.00  0.00    -0.047 N 
ATOM      7  H21 UNL     1     -49.137 -62.943  62.087  1.00  0.00     0.280 HD
ATOM      8  H22 UNL     1     -47.866 -63.559  61.481  1.00  0.00     0.280 HD
HETATM    9  C8  UNL     1     -47.421 -62.025  62.804  1.00  0.00     0.344 C 
ENDROOT
BRANCH   1  10
HETATM   10  C3  UNL     1     -45.467 -62.059  61.250  1.00  0.00     0.262 C 
BRANCH  10  11
HETATM   11  N1  UNL     1     -44.698 -60.852  61.149  1.00  0.00    -0.073 N 
ATOM     12  H12 UNL     1     -44.669 -60.331  62.025  1.00  0.00     0.277 HD
ATOM     13  H11 UNL     1     -45.157 -60.141  60.579  1.00  0.00     0.277 HD
BRANCH  11  14
HETATM   14  C2  UNL     1     -43.374 -61.191  60.658  1.00  0.00     0.228 C 
HETATM   15  C1  UNL     1     -43.402 -62.319  59.647  1.00  0.00     0.034 C 
ENDBRANCH  11  14
ENDBRANCH  10  11
ENDBRANCH   1  10
BRANCH   9  16
HETATM   16  O1  UNL     1     -47.821 -60.969  61.977  1.00  0.00    -0.368 OA
ATOM     17  H1  UNL     1     -47.556 -61.108  61.075  1.00  0.00     0.212 HD
ENDBRANCH   9  16
TORSDOF 4
ENDMDL
MODEL 5
REMARK VINA RESULT: -5.227051897      4.146      5.137
REMARK  4 active torsions:
REMARK  status: ('A' for Active; 'I' for Inactive)
REMARK    1  A    between atoms: C2_2  and  N1_3 
REMARK    2  A    between atoms: N1_3  and  C3_6 
REMARK    3  A    between atoms: C3_6  and  C4_7 
REMARK    4  A    between atoms: C8_15  and  O1_16 
ROOT
HETATM    1  C4  UNL     1     -43.710 -62.218  61.285  1.00  0.00     0.112 C 
HETATM    2 CL1  UNL     1     -42.722 -60.922  61.970  1.00  0.00    -0.113 Cl
HETATM    3  C5  UNL     1     -43.225 -63.587  61.822  1.00  0.00     0.033 C 
HETATM    4  C6  UNL     1     -43.748 -63.751  63.248  1.00  0.00     0.030 C 
HETATM    5  C7  UNL     1     -45.237 -64.031  63.093  1.00  0.00     0.235 C 
HETATM    6  N2  UNL     1     -45.720 -63.401  61.870  1.00  0.00    -0.047 N 
ATOM      7  H21 UNL     1     -46.738 -63.380  61.815  1.00  0.00     0.280 HD
ATOM      8  H22 UNL     1     -45.548 -63.970  61.042  1.00  0.00     0.280 HD
HETATM    9  C8  UNL     1     -45.126 -62.076  61.772  1.00  0.00     0.344 C 
ENDROOT
BRANCH   1  10
HETATM   10  C3  UNL     1     -43.631 -62.297  59.785  1.00  0.00     0.262 C 
BRANCH  10  11
HETATM   11  N1  UNL     1     -43.246 -61.056  59.175  1.00  0.00    -0.073 N 
ATOM     12  H12 UNL     1     -42.393 -60.670  59.578  1.00  0.00     0.277 HD
ATOM     13  H11 UNL     1     -43.874 -60.289  59.415  1.00  0.00     0.277 HD
BRANCH  11  14
HETATM   14  C2  UNL     1     -43.141 -61.262  57.741  1.00  0.00     0.228 C 
HETATM   15  C1  UNL     1     -42.629 -62.644  57.391  1.00  0.00     0.034 C 
ENDBRANCH  11  14
ENDBRANCH  10  11
ENDBRANCH   1  10
BRANCH   9  16
HETATM   16  O1  UNL     1     -45.918 -61.365  60.862  1.00  0.00    -0.368 OA
ATOM     17  H1  UNL     1     -46.372 -61.945  60.262  1.00  0.00     0.212 HD
ENDBRANCH   9  16
TORSDOF 4
ENDMDL
