MODEL 1
REMARK VINA RESULT: -5.979585906      0.000      0.000
REMARK  1 active torsions:
REMARK  status: ('A' for Active; 'I' for Inactive)
REMARK    1  A    between atoms: C2_5  and  C3_6 
ROOT
HETATM    1  F1  UNL     1      15.234  55.282  18.766  1.00  0.00    -0.181 F 
HETATM    2  C1  UNL     1      14.535  54.226  18.305  1.00  0.00     0.246 A 
HETATM    3  N1  UNL     1      13.895  54.118  17.133  1.00  0.00    -0.311 N 
ATOM      4  H1  UNL     1      13.855  54.845  16.419  1.00  0.00     0.170 HD
HETATM    5  C2  UNL     1      13.310  52.905  17.037  1.00  0.00     0.195 A 
HETATM    6  N2  UNL     1      13.620  52.277  18.202  1.00  0.00    -0.311 N 
ATOM      7  H2  UNL     1      13.322  51.331  18.442  1.00  0.00     0.170 HD
HETATM    8  C4  UNL     1      14.361  53.050  18.991  1.00  0.00     0.246 A 
HETATM    9  F5  UNL     1      14.859  52.767  20.235  1.00  0.00    -0.181 F 
ENDROOT
BRANCH   5  10
HETATM   10  C3  UNL     1      12.506  52.358  15.907  1.00  0.00     0.449 C 
HETATM   11  F2  UNL     1      13.287  52.394  14.773  1.00  0.00    -0.163 F 
HETATM   12  F3  UNL     1      11.391  53.145  15.712  1.00  0.00    -0.163 F 
HETATM   13  F4  UNL     1      12.133  51.055  16.129  1.00  0.00    -0.163 F 
ENDBRANCH   5  10
TORSDOF 1
ENDMDL
MODEL 2
REMARK VINA RESULT: -5.971212565      0.048      1.658
REMARK  1 active torsions:
REMARK  status: ('A' for Active; 'I' for Inactive)
REMARK    1  A    between atoms: C2_5  and  C3_6 
ROOT
HETATM    1  F1  UNL     1      14.918  52.789  20.165  1.00  0.00    -0.181 F 
HETATM    2  C1  UNL     1      14.390  53.060  18.955  1.00  0.00     0.246 A 
HETATM    3  N1  UNL     1      13.663  52.244  18.179  1.00  0.00    -0.311 N 
ATOM      4  H1  UNL     1      13.409  51.285  18.415  1.00  0.00     0.170 HD
HETATM    5  C2  UNL     1      13.316  52.879  17.038  1.00  0.00     0.195 A 
HETATM    6  N2  UNL     1      13.865  54.117  17.151  1.00  0.00    -0.311 N 
ATOM      7  H2  UNL     1      13.783  54.847  16.443  1.00  0.00     0.170 HD
HETATM    8  C4  UNL     1      14.521  54.258  18.299  1.00  0.00     0.246 A 
HETATM    9  F5  UNL     1      15.200  55.354  18.762  1.00  0.00    -0.181 F 
ENDROOT
BRANCH   5  10
HETATM   10  C3  UNL     1      12.506  52.353  15.903  1.00  0.00     0.449 C 
HETATM   11  F2  UNL     1      13.282  52.408  14.766  1.00  0.00    -0.163 F 
HETATM   12  F3  UNL     1      11.391  53.145  15.727  1.00  0.00    -0.163 F 
HETATM   13  F4  UNL     1      12.133  51.047  16.103  1.00  0.00    -0.163 F 
ENDBRANCH   5  10
TORSDOF 1
ENDMDL
MODEL 3
REMARK VINA RESULT: -5.958680471      0.053      2.031
REMARK  1 active torsions:
REMARK  status: ('A' for Active; 'I' for Inactive)
REMARK    1  A    between atoms: C2_5  and  C3_6 
ROOT
HETATM    1  F1  UNL     1      14.918  52.777  20.157  1.00  0.00    -0.181 F 
HETATM    2  C1  UNL     1      14.391  53.059  18.949  1.00  0.00     0.246 A 
HETATM    3  N1  UNL     1      13.657  52.253  18.170  1.00  0.00    -0.311 N 
ATOM      4  H1  UNL     1      13.396  51.294  18.400  1.00  0.00     0.170 HD
HETATM    5  C2  UNL     1      13.314  52.898  17.033  1.00  0.00     0.195 A 
HETATM    6  N2  UNL     1      13.872  54.132  17.153  1.00  0.00    -0.311 N 
ATOM      7  H2  UNL     1      13.795  54.867  16.450  1.00  0.00     0.170 HD
HETATM    8  C4  UNL     1      14.530  54.260  18.301  1.00  0.00     0.246 A 
HETATM    9  F5  UNL     1      15.218  55.348  18.770  1.00  0.00    -0.181 F 
ENDROOT
BRANCH   5  10
HETATM   10  C3  UNL     1      12.499  52.386  15.895  1.00  0.00     0.449 C 
HETATM   11  F2  UNL     1      12.121  51.094  16.190  1.00  0.00    -0.163 F 
HETATM   12  F3  UNL     1      13.262  52.382  14.747  1.00  0.00    -0.163 F 
HETATM   13  F4  UNL     1      11.361  53.131  15.705  1.00  0.00    -0.163 F 
ENDBRANCH   5  10
TORSDOF 1
ENDMDL
MODEL 4
REMARK VINA RESULT: -5.939897691      0.060      2.031
REMARK  1 active torsions:
REMARK  status: ('A' for Active; 'I' for Inactive)
REMARK    1  A    between atoms: C2_5  and  C3_6 
ROOT
HETATM    1  F1  UNL     1      14.920  52.791  20.176  1.00  0.00    -0.181 F 
HETATM    2  C1  UNL     1      14.398  53.061  18.963  1.00  0.00     0.246 A 
HETATM    3  N1  UNL     1      13.685  52.242  18.180  1.00  0.00    -0.311 N 
ATOM      4  H1  UNL     1      13.438  51.279  18.410  1.00  0.00     0.170 HD
HETATM    5  C2  UNL     1      13.340  52.878  17.039  1.00  0.00     0.195 A 
HETATM    6  N2  UNL     1      13.876  54.121  17.160  1.00  0.00    -0.311 N 
ATOM      7  H2  UNL     1      13.793  54.854  16.455  1.00  0.00     0.170 HD
HETATM    8  C4  UNL     1      14.523  54.264  18.314  1.00  0.00     0.246 A 
HETATM    9  F5  UNL     1      15.188  55.364  18.786  1.00  0.00    -0.181 F 
ENDROOT
BRANCH   5  10
HETATM   10  C3  UNL     1      12.543  52.350  15.896  1.00  0.00     0.449 C 
HETATM   11  F2  UNL     1      11.426  53.143  15.753  1.00  0.00    -0.163 F 
HETATM   12  F3  UNL     1      12.148  51.057  16.169  1.00  0.00    -0.163 F 
HETATM   13  F4  UNL     1      13.249  52.390  14.718  1.00  0.00    -0.163 F 
ENDBRANCH   5  10
TORSDOF 1
ENDMDL
MODEL 5
REMARK VINA RESULT: -5.822757910      1.157      1.826
REMARK  1 active torsions:
REMARK  status: ('A' for Active; 'I' for Inactive)
REMARK    1  A    between atoms: C2_5  and  C3_6 
ROOT
HETATM    1  F1  UNL     1      14.732  55.456  19.249  1.00  0.00    -0.181 F 
HETATM    2  C1  UNL     1      14.604  54.260  18.641  1.00  0.00     0.246 A 
HETATM    3  N1  UNL     1      14.476  54.020  17.330  1.00  0.00    -0.311 N 
ATOM      4  H1  UNL     1      14.459  54.734  16.602  1.00  0.00     0.170 HD
HETATM    5  C2  UNL     1      14.372  52.690  17.113  1.00  0.00     0.195 A 
HETATM    6  N2  UNL     1      14.441  52.131  18.349  1.00  0.00    -0.311 N 
ATOM      7  H2  UNL     1      14.391  51.128  18.529  1.00  0.00     0.170 HD
HETATM    8  C4  UNL     1      14.582  53.054  19.296  1.00  0.00     0.246 A 
HETATM    9  F5  UNL     1      14.682  52.876  20.650  1.00  0.00    -0.181 F 
ENDROOT
BRANCH   5  10
HETATM   10  C3  UNL     1      14.222  51.980  15.811  1.00  0.00     0.449 C 
HETATM   11  F2  UNL     1      13.295  50.974  15.979  1.00  0.00    -0.163 F 
HETATM   12  F3  UNL     1      15.431  51.424  15.447  1.00  0.00    -0.163 F 
HETATM   13  F4  UNL     1      13.769  52.817  14.821  1.00  0.00    -0.163 F 
ENDBRANCH   5  10
TORSDOF 1
ENDMDL
