MODEL 1
REMARK VINA RESULT: -5.949930615      0.000      0.000
REMARK  1 active torsions:
REMARK  status: ('A' for Active; 'I' for Inactive)
REMARK    1  A    between atoms: C1_2  and  C2_5 
ROOT
HETATM    1  C2  UNL     1      13.385  52.322  16.428  1.00  0.00     0.276 C 
HETATM    2  N1  UNL     1      13.220  50.899  16.694  1.00  0.00    -0.124 NA
HETATM    3  N2  UNL     1      12.085  50.988  15.839  1.00  0.00    -0.086 NA
HETATM    4  C3  UNL     1      11.891  52.327  16.427  1.00  0.00     0.292 C 
HETATM    5  F4  UNL     1      11.299  53.200  15.537  1.00  0.00    -0.202 F 
HETATM    6 CL1  UNL     1      11.160  52.241  18.016  1.00  0.00    -0.061 Cl
ENDROOT
BRANCH   1   7
HETATM    7  C1  UNL     1      14.102  53.112  17.461  1.00  0.00     0.411 C 
HETATM    8  F1  UNL     1      13.683  54.417  17.543  1.00  0.00    -0.169 F 
HETATM    9  F2  UNL     1      13.997  52.465  18.693  1.00  0.00    -0.169 F 
HETATM   10  F3  UNL     1      15.442  53.139  17.116  1.00  0.00    -0.169 F 
ENDBRANCH   1   7
TORSDOF 1
ENDMDL
MODEL 2
REMARK VINA RESULT: -5.807418429      2.000      3.351
REMARK  1 active torsions:
REMARK  status: ('A' for Active; 'I' for Inactive)
REMARK    1  A    between atoms: C1_2  and  C2_5 
ROOT
HETATM    1  C2  UNL     1      13.533  51.648  16.997  1.00  0.00     0.276 C 
HETATM    2  N1  UNL     1      14.557  51.855  15.982  1.00  0.00    -0.124 NA
HETATM    3  N2  UNL     1      15.465  51.921  17.077  1.00  0.00    -0.086 NA
HETATM    4  C3  UNL     1      14.367  52.593  17.797  1.00  0.00     0.292 C 
HETATM    5  F4  UNL     1      14.413  52.346  19.154  1.00  0.00    -0.202 F 
HETATM    6 CL1  UNL     1      14.216  54.275  17.331  1.00  0.00    -0.061 Cl
ENDROOT
BRANCH   1   7
HETATM    7  C1  UNL     1      12.148  52.047  16.635  1.00  0.00     0.411 C 
HETATM    8  F1  UNL     1      11.417  52.520  17.697  1.00  0.00    -0.169 F 
HETATM    9  F2  UNL     1      12.193  52.976  15.594  1.00  0.00    -0.169 F 
HETATM   10  F3  UNL     1      11.495  50.923  16.163  1.00  0.00    -0.169 F 
ENDBRANCH   1   7
TORSDOF 1
ENDMDL
MODEL 3
REMARK VINA RESULT: -5.771493405      1.993      3.292
REMARK  1 active torsions:
REMARK  status: ('A' for Active; 'I' for Inactive)
REMARK    1  A    between atoms: C1_2  and  C2_5 
ROOT
HETATM    1  C2  UNL     1      13.556  51.631  16.949  1.00  0.00     0.276 C 
HETATM    2  N1  UNL     1      14.570  51.870  15.931  1.00  0.00    -0.124 NA
HETATM    3  N2  UNL     1      15.484  51.937  17.021  1.00  0.00    -0.086 NA
HETATM    4  C3  UNL     1      14.378  52.579  17.757  1.00  0.00     0.292 C 
HETATM    5  F4  UNL     1      14.437  52.314  19.110  1.00  0.00    -0.202 F 
HETATM    6 CL1  UNL     1      14.195  54.265  17.315  1.00  0.00    -0.061 Cl
ENDROOT
BRANCH   1   7
HETATM    7  C1  UNL     1      12.162  52.010  16.600  1.00  0.00     0.411 C 
HETATM    8  F1  UNL     1      12.083  53.073  15.734  1.00  0.00    -0.169 F 
HETATM    9  F2  UNL     1      11.493  50.893  16.097  1.00  0.00    -0.169 F 
HETATM   10  F3  UNL     1      11.524  52.389  17.767  1.00  0.00    -0.169 F 
ENDBRANCH   1   7
TORSDOF 1
ENDMDL
MODEL 4
REMARK VINA RESULT: -5.752060982      2.033      3.260
REMARK  1 active torsions:
REMARK  status: ('A' for Active; 'I' for Inactive)
REMARK    1  A    between atoms: C1_2  and  C2_5 
ROOT
HETATM    1  C2  UNL     1      12.992  52.423  17.853  1.00  0.00     0.276 C 
HETATM    2  N1  UNL     1      13.724  51.174  18.013  1.00  0.00    -0.124 NA
HETATM    3  N2  UNL     1      14.879  51.999  18.125  1.00  0.00    -0.086 NA
HETATM    4  C3  UNL     1      14.220  52.858  17.123  1.00  0.00     0.292 C 
HETATM    5  F4  UNL     1      14.565  54.186  17.275  1.00  0.00    -0.202 F 
HETATM    6 CL1  UNL     1      14.375  52.207  15.503  1.00  0.00    -0.061 Cl
ENDROOT
BRANCH   1   7
HETATM    7  C1  UNL     1      11.707  52.349  17.111  1.00  0.00     0.411 C 
HETATM    8  F1  UNL     1      11.493  53.418  16.276  1.00  0.00    -0.169 F 
HETATM    9  F2  UNL     1      11.644  51.140  16.417  1.00  0.00    -0.169 F 
HETATM   10  F3  UNL     1      10.682  52.350  18.041  1.00  0.00    -0.169 F 
ENDBRANCH   1   7
TORSDOF 1
ENDMDL
MODEL 5
REMARK VINA RESULT: -5.743122589      1.309      1.617
REMARK  1 active torsions:
REMARK  status: ('A' for Active; 'I' for Inactive)
REMARK    1  A    between atoms: C1_2  and  C2_5 
ROOT
HETATM    1  C2  UNL     1      13.267  52.721  16.715  1.00  0.00     0.276 C 
HETATM    2  N1  UNL     1      13.628  51.383  16.265  1.00  0.00    -0.124 NA
HETATM    3  N2  UNL     1      12.249  51.076  16.443  1.00  0.00    -0.086 NA
HETATM    4  C3  UNL     1      12.315  51.987  17.601  1.00  0.00     0.292 C 
HETATM    5  F4  UNL     1      11.109  52.618  17.831  1.00  0.00    -0.202 F 
HETATM    6 CL1  UNL     1      13.055  51.221  18.992  1.00  0.00    -0.061 Cl
ENDROOT
BRANCH   1   7
HETATM    7  C1  UNL     1      14.349  53.526  17.337  1.00  0.00     0.411 C 
HETATM    8  F1  UNL     1      14.198  53.693  18.692  1.00  0.00    -0.169 F 
HETATM    9  F2  UNL     1      15.585  52.956  17.029  1.00  0.00    -0.169 F 
HETATM   10  F3  UNL     1      14.317  54.787  16.768  1.00  0.00    -0.169 F 
ENDBRANCH   1   7
TORSDOF 1
ENDMDL
