MODEL 1
REMARK VINA RESULT: -5.994178125      0.000      0.000
REMARK  1 active torsions:
REMARK  status: ('A' for Active; 'I' for Inactive)
REMARK    1  A    between atoms: C3_7  and  C4_9 
ROOT
HETATM    1  F1  UNL     1      15.069  54.841  18.447  1.00  0.00    -0.217 F 
HETATM    2  C1  UNL     1      14.071  54.361  17.697  1.00  0.00     0.219 C 
HETATM    3  C2  UNL     1      14.210  53.246  17.007  1.00  0.00     0.116 C 
HETATM    4  N1  UNL     1      15.254  52.312  16.823  1.00  0.00    -0.297 N 
ATOM      5  H1  UNL     1      16.274  52.344  16.826  1.00  0.00     0.182 HD
HETATM    6  N2  UNL     1      14.289  51.330  16.639  1.00  0.00    -0.081 NA
HETATM    7  C3  UNL     1      13.424  52.389  16.095  1.00  0.00     0.333 C 
HETATM    8  F2  UNL     1      13.701  52.572  14.769  1.00  0.00    -0.205 F 
ENDROOT
BRANCH   7   9
HETATM    9  C4  UNL     1      11.977  52.245  16.441  1.00  0.00     0.447 C 
HETATM   10  F3  UNL     1      11.301  53.301  15.830  1.00  0.00    -0.166 F 
HETATM   11  F4  UNL     1      11.823  52.315  17.819  1.00  0.00    -0.166 F 
HETATM   12  F5  UNL     1      11.523  51.038  15.943  1.00  0.00    -0.166 F 
ENDBRANCH   7   9
TORSDOF 1
ENDMDL
MODEL 2
REMARK VINA RESULT: -5.981417347      0.930      1.516
REMARK  1 active torsions:
REMARK  status: ('A' for Active; 'I' for Inactive)
REMARK    1  A    between atoms: C3_7  and  C4_9 
ROOT
HETATM    1  F1  UNL     1      14.917  55.026  18.469  1.00  0.00    -0.217 F 
HETATM    2  C1  UNL     1      14.128  54.352  17.623  1.00  0.00     0.219 C 
HETATM    3  C2  UNL     1      14.140  53.034  17.583  1.00  0.00     0.116 C 
HETATM    4  N1  UNL     1      14.845  52.022  18.273  1.00  0.00    -0.297 N 
ATOM      5  H1  UNL     1      15.763  51.937  18.709  1.00  0.00     0.182 HD
HETATM    6  N2  UNL     1      13.745  51.192  18.099  1.00  0.00    -0.081 NA
HETATM    7  C3  UNL     1      13.479  51.930  16.854  1.00  0.00     0.333 C 
HETATM    8  F2  UNL     1      14.223  51.399  15.838  1.00  0.00    -0.205 F 
ENDROOT
BRANCH   7   9
HETATM    9  C4  UNL     1      12.030  52.139  16.555  1.00  0.00     0.447 C 
HETATM   10  F3  UNL     1      11.541  50.942  16.033  1.00  0.00    -0.166 F 
HETATM   11  F4  UNL     1      11.894  53.156  15.619  1.00  0.00    -0.166 F 
HETATM   12  F5  UNL     1      11.377  52.447  17.734  1.00  0.00    -0.166 F 
ENDBRANCH   7   9
TORSDOF 1
ENDMDL
MODEL 3
REMARK VINA RESULT: -5.857269663      0.940      1.442
REMARK  1 active torsions:
REMARK  status: ('A' for Active; 'I' for Inactive)
REMARK    1  A    between atoms: C3_7  and  C4_9 
ROOT
HETATM    1  F1  UNL     1      14.877  55.044  18.494  1.00  0.00    -0.217 F 
HETATM    2  C1  UNL     1      14.129  54.363  17.618  1.00  0.00     0.219 C 
HETATM    3  C2  UNL     1      14.154  53.046  17.576  1.00  0.00     0.116 C 
HETATM    4  N1  UNL     1      14.843  52.040  18.292  1.00  0.00    -0.297 N 
ATOM      5  H1  UNL     1      15.744  51.963  18.763  1.00  0.00     0.182 HD
HETATM    6  N2  UNL     1      13.758  51.199  18.075  1.00  0.00    -0.081 NA
HETATM    7  C3  UNL     1      13.533  51.937  16.821  1.00  0.00     0.333 C 
HETATM    8  F2  UNL     1      14.321  51.415  15.834  1.00  0.00    -0.205 F 
ENDROOT
BRANCH   7   9
HETATM    9  C4  UNL     1      12.095  52.132  16.467  1.00  0.00     0.447 C 
HETATM   10  F3  UNL     1      11.431  52.509  17.634  1.00  0.00    -0.166 F 
HETATM   11  F4  UNL     1      11.571  50.938  15.987  1.00  0.00    -0.166 F 
HETATM   12  F5  UNL     1      12.006  53.138  15.523  1.00  0.00    -0.166 F 
ENDBRANCH   7   9
TORSDOF 1
ENDMDL
MODEL 4
REMARK VINA RESULT: -5.786703373      1.704      3.473
REMARK  1 active torsions:
REMARK  status: ('A' for Active; 'I' for Inactive)
REMARK    1  A    between atoms: C3_7  and  C4_9 
ROOT
HETATM    1  F1  UNL     1      10.379  53.516  15.774  1.00  0.00    -0.217 F 
HETATM    2  C1  UNL     1      11.438  53.482  16.591  1.00  0.00     0.219 C 
HETATM    3  C2  UNL     1      12.223  52.424  16.649  1.00  0.00     0.116 C 
HETATM    4  N1  UNL     1      12.248  51.166  16.006  1.00  0.00    -0.297 N 
ATOM      5  H1  UNL     1      11.552  50.531  15.614  1.00  0.00     0.182 HD
HETATM    6  N2  UNL     1      13.630  51.170  16.139  1.00  0.00    -0.081 NA
HETATM    7  C3  UNL     1      13.435  51.966  17.361  1.00  0.00     0.333 C 
HETATM    8  F2  UNL     1      13.189  51.135  18.417  1.00  0.00    -0.205 F 
ENDROOT
BRANCH   7   9
HETATM    9  C4  UNL     1      14.475  53.014  17.590  1.00  0.00     0.447 C 
HETATM   10  F3  UNL     1      14.528  53.249  18.964  1.00  0.00    -0.166 F 
HETATM   11  F4  UNL     1      14.113  54.178  16.923  1.00  0.00    -0.166 F 
HETATM   12  F5  UNL     1      15.691  52.533  17.142  1.00  0.00    -0.166 F 
ENDBRANCH   7   9
TORSDOF 1
ENDMDL
MODEL 5
REMARK VINA RESULT: -5.737549746      1.704      3.444
REMARK  1 active torsions:
REMARK  status: ('A' for Active; 'I' for Inactive)
REMARK    1  A    between atoms: C3_7  and  C4_9 
ROOT
HETATM    1  F1  UNL     1      10.413  53.529  15.754  1.00  0.00    -0.217 F 
HETATM    2  C1  UNL     1      11.458  53.484  16.588  1.00  0.00     0.219 C 
HETATM    3  C2  UNL     1      12.235  52.421  16.652  1.00  0.00     0.116 C 
HETATM    4  N1  UNL     1      12.264  51.167  16.001  1.00  0.00    -0.297 N 
ATOM      5  H1  UNL     1      11.572  50.538  15.592  1.00  0.00     0.182 HD
HETATM    6  N2  UNL     1      13.644  51.162  16.157  1.00  0.00    -0.081 NA
HETATM    7  C3  UNL     1      13.433  51.951  17.382  1.00  0.00     0.333 C 
HETATM    8  F2  UNL     1      13.164  51.113  18.427  1.00  0.00    -0.205 F 
ENDROOT
BRANCH   7   9
HETATM    9  C4  UNL     1      14.475  52.991  17.635  1.00  0.00     0.447 C 
HETATM   10  F3  UNL     1      15.684  52.489  17.156  1.00  0.00    -0.166 F 
HETATM   11  F4  UNL     1      14.567  53.229  19.001  1.00  0.00    -0.166 F 
HETATM   12  F5  UNL     1      14.129  54.138  16.946  1.00  0.00    -0.166 F 
ENDBRANCH   7   9
TORSDOF 1
ENDMDL
