MODEL 1
REMARK VINA RESULT: -3.765871678      0.000      0.000
REMARK  10 active torsions:
REMARK  status: ('A' for Active; 'I' for Inactive)
REMARK    1  A    between atoms: C2_2  and  C3_3 
REMARK    2  A    between atoms: C3_3  and  C4_4 
REMARK    3  A    between atoms: C5_8  and  N3_9 
REMARK    4  A    between atoms: C6_14  and  N5_15 
REMARK    5  A    between atoms: N5_15  and  N6_17 
REMARK    6  A    between atoms: N6_17  and  C7_19 
REMARK    7  A    between atoms: C7_19  and  C8_20 
REMARK    8  A    between atoms: C8_20  and  N7_22 
REMARK    9  A    between atoms: C8_20  and  N8_26 
REMARK   10  A    between atoms: N10_34  and  N11_36 
ROOT
HETATM    1  C4  UNL     1      66.965  61.680 273.220  1.00  0.00     0.098 A 
HETATM    2  N1  UNL     1      67.474  62.757 272.635  1.00  0.00    -0.266 N 
ATOM      3  H1  UNL     1      68.340  63.159 272.994  1.00  0.00     0.189 HD
HETATM    4  N2  UNL     1      66.873  63.326 271.581  1.00  0.00    -0.064 N 
HETATM    5  C5  UNL     1      67.395  64.417 270.991  1.00  0.00     0.713 A 
HETATM    6  N4  UNL     1      66.729  64.921 269.944  1.00  0.00    -0.019 N 
ATOM      7  H4  UNL     1      67.112  65.749 269.487  1.00  0.00     0.203 HD
HETATM    8  C6  UNL     1      65.589  64.403 269.458  1.00  0.00     0.712 A 
HETATM    9  N9  UNL     1      65.109  63.307 270.087  1.00  0.00    -0.168 N 
ATOM     10  H9  UNL     1      64.245  62.884 269.748  1.00  0.00     0.186 HD
HETATM   11  C10 UNL     1      65.723  62.760 271.133  1.00  0.00     0.206 A 
HETATM   12  C11 UNL     1      65.167  61.645 271.715  1.00  0.00     0.169 A 
HETATM   13  N10 UNL     1      64.086  61.076 271.329  1.00  0.00    -0.289 N 
ATOM     14  H10 UNL     1      63.750  60.250 271.826  1.00  0.00     0.188 HD
HETATM   15  N12 UNL     1      65.824  61.125 272.770  1.00  0.00    -0.327 N 
ATOM     16  H12 UNL     1      65.451  60.297 273.235  1.00  0.00     0.169 HD
ENDROOT
BRANCH   8  17
HETATM   17  N5  UNL     1      64.960  64.911 268.438  1.00  0.00    -0.136 N 
ATOM     18  H5  UNL     1      65.463  65.286 267.634  1.00  0.00     0.205 HD
BRANCH  17  19
HETATM   19  N6  UNL     1      63.571  64.919 268.496  1.00  0.00    -0.318 N 
ATOM     20  H6  UNL     1      63.042  64.063 268.329  1.00  0.00     0.180 HD
BRANCH  19  21
HETATM   21  C7  UNL     1      62.891  66.153 268.794  1.00  0.00     0.208 C 
BRANCH  21  22
HETATM   22  C8  UNL     1      61.676  65.944 269.668  1.00  0.00     0.295 C 
HETATM   23  C9  UNL     1      61.849  66.864 270.883  1.00  0.00     0.080 C 
BRANCH  22  24
HETATM   24  N7  UNL     1      61.655  64.553 270.059  1.00  0.00    -0.043 N 
ATOM     25  H73 UNL     1      61.816  64.418 271.057  1.00  0.00     0.277 HD
ATOM     26  H72 UNL     1      60.722  64.142 270.018  1.00  0.00     0.277 HD
ATOM     27  H71 UNL     1      62.332  64.060 269.477  1.00  0.00     0.277 HD
ENDBRANCH  22  24
BRANCH  22  28
HETATM   28  N8  UNL     1      60.454  66.305 269.043  1.00  0.00    -0.043 N 
ATOM     29  H83 UNL     1      59.905  65.475 268.821  1.00  0.00     0.277 HD
ATOM     30  H82 UNL     1      59.827  66.752 269.712  1.00  0.00     0.277 HD
ATOM     31  H81 UNL     1      60.572  66.890 268.216  1.00  0.00     0.277 HD
ENDBRANCH  22  28
ENDBRANCH  21  22
ENDBRANCH  19  21
ENDBRANCH  17  19
ENDBRANCH   8  17
BRANCH   5  32
HETATM   32  N3  UNL     1      68.491  64.930 271.444  1.00  0.00    -0.232 N 
ATOM     33  H32 UNL     1      68.717  65.921 271.364  1.00  0.00     0.174 HD
ATOM     34  H31 UNL     1      69.176  64.333 271.908  1.00  0.00     0.174 HD
ENDBRANCH   5  32
BRANCH  13  35
HETATM   35  N11 UNL     1      63.358  61.564 270.242  1.00  0.00    -0.344 N 
ATOM     36 2H11 UNL     1      63.700  61.366 269.302  1.00  0.00     0.176 HD
ATOM     37 1H11 UNL     1      62.505  62.106 270.377  1.00  0.00     0.176 HD
ENDBRANCH  13  35
BRANCH   1  38
HETATM   38  C3  UNL     1      67.650  61.075 274.381  1.00  0.00     0.077 C 
BRANCH  38  39
HETATM   39  C2  UNL     1      69.069  61.607 274.409  1.00  0.00     0.003 C 
HETATM   40  C1  UNL     1      69.221  62.738 275.402  1.00  0.00     0.005 C 
ENDBRANCH  38  39
ENDBRANCH   1  38
TORSDOF 10
ENDMDL
MODEL 2
REMARK VINA RESULT: -3.347046160      8.237     10.590
REMARK  10 active torsions:
REMARK  status: ('A' for Active; 'I' for Inactive)
REMARK    1  A    between atoms: C2_2  and  C3_3 
REMARK    2  A    between atoms: C3_3  and  C4_4 
REMARK    3  A    between atoms: C5_8  and  N3_9 
REMARK    4  A    between atoms: C6_14  and  N5_15 
REMARK    5  A    between atoms: N5_15  and  N6_17 
REMARK    6  A    between atoms: N6_17  and  C7_19 
REMARK    7  A    between atoms: C7_19  and  C8_20 
REMARK    8  A    between atoms: C8_20  and  N7_22 
REMARK    9  A    between atoms: C8_20  and  N8_26 
REMARK   10  A    between atoms: N10_34  and  N11_36 
ROOT
HETATM    1  C4  UNL     1      71.616  65.624 277.879  1.00  0.00     0.098 A 
HETATM    2  N1  UNL     1      70.352  65.969 277.668  1.00  0.00    -0.266 N 
ATOM      3  H1  UNL     1      69.844  65.550 276.889  1.00  0.00     0.189 HD
HETATM    4  N2  UNL     1      69.731  66.855 278.457  1.00  0.00    -0.064 N 
HETATM    5  C5  UNL     1      68.449  67.200 278.237  1.00  0.00     0.713 A 
HETATM    6  N4  UNL     1      67.906  68.094 279.073  1.00  0.00    -0.019 N 
ATOM      7  H4  UNL     1      66.934  68.366 278.919  1.00  0.00     0.203 HD
HETATM    8  C6  UNL     1      68.561  68.654 280.104  1.00  0.00     0.712 A 
HETATM    9  N9  UNL     1      69.846  68.272 280.280  1.00  0.00    -0.168 N 
ATOM     10  H9  UNL     1      70.378  68.675 281.051  1.00  0.00     0.186 HD
HETATM   11  C10 UNL     1      70.443  67.390 279.482  1.00  0.00     0.206 A 
HETATM   12  C11 UNL     1      71.753  67.057 279.732  1.00  0.00     0.169 A 
HETATM   13  N10 UNL     1      72.465  67.532 280.685  1.00  0.00    -0.289 N 
ATOM     14  H10 UNL     1      73.431  67.224 280.790  1.00  0.00     0.188 HD
HETATM   15  N12 UNL     1      72.315  66.158 278.899  1.00  0.00    -0.327 N 
ATOM     16  H12 UNL     1      73.285  65.878 279.043  1.00  0.00     0.169 HD
ENDROOT
BRANCH   8  17
HETATM   17  N5  UNL     1      68.012  69.520 280.904  1.00  0.00    -0.136 N 
ATOM     18  H5  UNL     1      67.880  69.322 281.896  1.00  0.00     0.205 HD
BRANCH  17  19
HETATM   19  N6  UNL     1      67.613  70.729 280.344  1.00  0.00    -0.318 N 
ATOM     20  H6  UNL     1      68.263  71.278 279.782  1.00  0.00     0.180 HD
BRANCH  19  21
HETATM   21  C7  UNL     1      66.269  71.194 280.570  1.00  0.00     0.208 C 
BRANCH  21  22
HETATM   22  C8  UNL     1      65.351  70.892 279.408  1.00  0.00     0.295 C 
HETATM   23  C9  UNL     1      66.202  71.013 278.137  1.00  0.00     0.080 C 
BRANCH  22  24
HETATM   24  N7  UNL     1      64.289  71.873 279.425  1.00  0.00    -0.043 N 
ATOM     25  H73 UNL     1      64.421  72.614 278.737  1.00  0.00     0.277 HD
ATOM     26  H72 UNL     1      63.407  71.510 279.064  1.00  0.00     0.277 HD
ATOM     27  H71 UNL     1      64.213  72.225 280.379  1.00  0.00     0.277 HD
ENDBRANCH  22  24
BRANCH  22  28
HETATM   28  N8  UNL     1      64.817  69.577 279.428  1.00  0.00    -0.043 N 
ATOM     29  H83 UNL     1      65.491  68.921 279.822  1.00  0.00     0.277 HD
ATOM     30  H82 UNL     1      64.076  69.501 280.124  1.00  0.00     0.277 HD
ATOM     31  H81 UNL     1      64.490  69.253 278.518  1.00  0.00     0.277 HD
ENDBRANCH  22  28
ENDBRANCH  21  22
ENDBRANCH  19  21
ENDBRANCH  17  19
ENDBRANCH   8  17
BRANCH   5  32
HETATM   32  N3  UNL     1      67.802  66.672 277.250  1.00  0.00    -0.232 N 
ATOM     33  H32 UNL     1      67.045  67.151 276.761  1.00  0.00     0.174 HD
ATOM     34  H31 UNL     1      68.044  65.735 276.930  1.00  0.00     0.174 HD
ENDBRANCH   5  32
BRANCH  13  35
HETATM   35  N11 UNL     1      71.942  68.465 281.583  1.00  0.00    -0.344 N 
ATOM     36 2H11 UNL     1      72.592  69.006 282.153  1.00  0.00     0.176 HD
ATOM     37 1H11 UNL     1      70.936  68.607 281.672  1.00  0.00     0.176 HD
ENDBRANCH  13  35
BRANCH   1  38
HETATM   38  C3  UNL     1      72.275  64.644 276.992  1.00  0.00     0.077 C 
BRANCH  38  39
HETATM   39  C2  UNL     1      71.190  63.898 276.242  1.00  0.00     0.003 C 
HETATM   40  C1  UNL     1      71.641  62.508 275.846  1.00  0.00     0.005 C 
ENDBRANCH  38  39
ENDBRANCH   1  38
TORSDOF 10
ENDMDL
MODEL 3
REMARK VINA RESULT: -3.192498667      8.754     10.454
REMARK  10 active torsions:
REMARK  status: ('A' for Active; 'I' for Inactive)
REMARK    1  A    between atoms: C2_2  and  C3_3 
REMARK    2  A    between atoms: C3_3  and  C4_4 
REMARK    3  A    between atoms: C5_8  and  N3_9 
REMARK    4  A    between atoms: C6_14  and  N5_15 
REMARK    5  A    between atoms: N5_15  and  N6_17 
REMARK    6  A    between atoms: N6_17  and  C7_19 
REMARK    7  A    between atoms: C7_19  and  C8_20 
REMARK    8  A    between atoms: C8_20  and  N7_22 
REMARK    9  A    between atoms: C8_20  and  N8_26 
REMARK   10  A    between atoms: N10_34  and  N11_36 
ROOT
HETATM    1  C4  UNL     1      70.650  67.745 280.803  1.00  0.00     0.098 A 
HETATM    2  N1  UNL     1      69.881  68.673 281.360  1.00  0.00    -0.266 N 
ATOM      3  H1  UNL     1      70.189  69.124 282.221  1.00  0.00     0.189 HD
HETATM    4  N2  UNL     1      68.710  69.028 280.814  1.00  0.00    -0.064 N 
HETATM    5  C5  UNL     1      67.937  69.969 281.384  1.00  0.00     0.713 A 
HETATM    6  N4  UNL     1      66.782  70.263 280.771  1.00  0.00    -0.019 N 
ATOM      7  H4  UNL     1      66.184  70.974 281.192  1.00  0.00     0.203 HD
HETATM    8  C6  UNL     1      66.364  69.678 279.637  1.00  0.00     0.712 A 
HETATM    9  N9  UNL     1      67.179  68.739 279.106  1.00  0.00    -0.168 N 
ATOM     10  H9  UNL     1      66.897  68.271 278.245  1.00  0.00     0.186 HD
HETATM   11  C10 UNL     1      68.338  68.402 279.667  1.00  0.00     0.206 A 
HETATM   12  C11 UNL     1      69.107  67.437 279.062  1.00  0.00     0.169 A 
HETATM   13  N10 UNL     1      68.799  66.820 277.982  1.00  0.00    -0.289 N 
ATOM     14  H10 UNL     1      69.436  66.117 277.608  1.00  0.00     0.188 HD
HETATM   15  N12 UNL     1      70.272  67.130 279.666  1.00  0.00    -0.327 N 
ATOM     16  H12 UNL     1      70.879  66.420 279.254  1.00  0.00     0.169 HD
ENDROOT
BRANCH   8  17
HETATM   17  N5  UNL     1      65.237  69.980 279.060  1.00  0.00    -0.136 N 
ATOM     18  H5  UNL     1      64.377  69.471 279.268  1.00  0.00     0.205 HD
BRANCH  17  19
HETATM   19  N6  UNL     1      65.259  71.028 278.147  1.00  0.00    -0.318 N 
ATOM     20  H6  UNL     1      64.691  71.861 278.303  1.00  0.00     0.180 HD
BRANCH  19  21
HETATM   21  C7  UNL     1      66.095  70.921 276.979  1.00  0.00     0.208 C 
BRANCH  21  22
HETATM   22  C8  UNL     1      65.660  71.853 275.872  1.00  0.00     0.295 C 
HETATM   23  C9  UNL     1      66.939  72.468 275.291  1.00  0.00     0.080 C 
BRANCH  22  24
HETATM   24  N7  UNL     1      64.811  72.864 276.462  1.00  0.00    -0.043 N 
ATOM     25  H73 UNL     1      64.606  72.687 277.446  1.00  0.00     0.277 HD
ATOM     26  H72 UNL     1      65.283  73.759 276.583  1.00  0.00     0.277 HD
ATOM     27  H71 UNL     1      63.971  72.932 275.888  1.00  0.00     0.277 HD
ENDBRANCH  22  24
BRANCH  22  28
HETATM   28  N8  UNL     1      64.990  71.200 274.805  1.00  0.00    -0.043 N 
ATOM     29  H83 UNL     1      64.612  70.304 275.112  1.00  0.00     0.277 HD
ATOM     30  H82 UNL     1      64.121  71.683 274.577  1.00  0.00     0.277 HD
ATOM     31  H81 UNL     1      65.565  71.080 273.971  1.00  0.00     0.277 HD
ENDBRANCH  22  28
ENDBRANCH  21  22
ENDBRANCH  19  21
ENDBRANCH  17  19
ENDBRANCH   8  17
BRANCH   5  32
HETATM   32  N3  UNL     1      68.322  70.543 282.475  1.00  0.00    -0.232 N 
ATOM     33  H32 UNL     1      69.273  70.470 282.837  1.00  0.00     0.174 HD
ATOM     34  H31 UNL     1      67.661  71.102 283.015  1.00  0.00     0.174 HD
ENDBRANCH   5  32
BRANCH  13  35
HETATM   35  N11 UNL     1      67.607  67.093 277.307  1.00  0.00    -0.344 N 
ATOM     36 2H11 UNL     1      67.651  67.640 276.448  1.00  0.00     0.176 HD
ATOM     37 1H11 UNL     1      66.711  66.756 277.659  1.00  0.00     0.176 HD
ENDBRANCH  13  35
BRANCH   1  38
HETATM   38  C3  UNL     1      71.935  67.375 281.428  1.00  0.00     0.077 C 
BRANCH  38  39
HETATM   39  C2  UNL     1      72.976  67.288 280.330  1.00  0.00     0.003 C 
HETATM   40  C1  UNL     1      72.801  66.039 279.494  1.00  0.00     0.005 C 
ENDBRANCH  38  39
ENDBRANCH   1  38
TORSDOF 10
ENDMDL
MODEL 4
REMARK VINA RESULT: -2.845181231      1.187      1.552
REMARK  10 active torsions:
REMARK  status: ('A' for Active; 'I' for Inactive)
REMARK    1  A    between atoms: C2_2  and  C3_3 
REMARK    2  A    between atoms: C3_3  and  C4_4 
REMARK    3  A    between atoms: C5_8  and  N3_9 
REMARK    4  A    between atoms: C6_14  and  N5_15 
REMARK    5  A    between atoms: N5_15  and  N6_17 
REMARK    6  A    between atoms: N6_17  and  C7_19 
REMARK    7  A    between atoms: C7_19  and  C8_20 
REMARK    8  A    between atoms: C8_20  and  N7_22 
REMARK    9  A    between atoms: C8_20  and  N8_26 
REMARK   10  A    between atoms: N10_34  and  N11_36 
ROOT
HETATM    1  C4  UNL     1      67.813  62.364 274.079  1.00  0.00     0.098 A 
HETATM    2  N1  UNL     1      68.231  63.327 273.267  1.00  0.00    -0.266 N 
ATOM      3  H1  UNL     1      69.046  63.882 273.529  1.00  0.00     0.189 HD
HETATM    4  N2  UNL     1      67.604  63.586 272.112  1.00  0.00    -0.064 N 
HETATM    5  C5  UNL     1      68.033  64.564 271.294  1.00  0.00     0.713 A 
HETATM    6  N4  UNL     1      67.348  64.755 270.159  1.00  0.00    -0.019 N 
ATOM      7  H4  UNL     1      67.661  65.494 269.529  1.00  0.00     0.203 HD
HETATM    8  C6  UNL     1      66.274  64.033 269.800  1.00  0.00     0.712 A 
HETATM    9  N9  UNL     1      65.885  63.063 270.658  1.00  0.00    -0.168 N 
ATOM     10  H9  UNL     1      65.073  62.493 270.420  1.00  0.00     0.186 HD
HETATM   11  C10 UNL     1      66.523  62.825 271.801  1.00  0.00     0.206 A 
HETATM   12  C11 UNL     1      66.061  61.819 272.616  1.00  0.00     0.169 A 
HETATM   13  N10 UNL     1      65.048  61.076 272.366  1.00  0.00    -0.289 N 
ATOM     14  H10 UNL     1      64.780  60.353 273.034  1.00  0.00     0.188 HD
HETATM   15  N12 UNL     1      66.740  61.614 273.762  1.00  0.00    -0.327 N 
ATOM     16  H12 UNL     1      66.436  60.878 274.400  1.00  0.00     0.169 HD
ENDROOT
BRANCH   8  17
HETATM   17  N5  UNL     1      65.624  64.238 268.691  1.00  0.00    -0.136 N 
ATOM     18  H5  UNL     1      65.788  63.665 267.863  1.00  0.00     0.205 HD
BRANCH  17  19
HETATM   19  N6  UNL     1      64.694  65.272 268.688  1.00  0.00    -0.318 N 
ATOM     20  H6  UNL     1      64.824  66.081 268.080  1.00  0.00     0.180 HD
BRANCH  19  21
HETATM   21  C7  UNL     1      63.548  65.184 269.554  1.00  0.00     0.208 C 
BRANCH  21  22
HETATM   22  C8  UNL     1      62.545  66.285 269.297  1.00  0.00     0.295 C 
HETATM   23  C9  UNL     1      61.399  65.654 268.496  1.00  0.00     0.080 C 
BRANCH  22  24
HETATM   24  N7  UNL     1      63.216  67.314 268.534  1.00  0.00    -0.043 N 
ATOM     25  H73 UNL     1      64.179  67.467 268.832  1.00  0.00     0.277 HD
ATOM     26  H72 UNL     1      63.416  67.031 267.575  1.00  0.00     0.277 HD
ATOM     27  H71 UNL     1      62.645  68.158 268.588  1.00  0.00     0.277 HD
ENDBRANCH  22  24
BRANCH  22  28
HETATM   28  N8  UNL     1      61.978  66.829 270.478  1.00  0.00    -0.043 N 
ATOM     29  H83 UNL     1      60.972  66.667 270.502  1.00  0.00     0.277 HD
ATOM     30  H82 UNL     1      62.259  66.286 271.295  1.00  0.00     0.277 HD
ATOM     31  H81 UNL     1      62.186  67.819 270.616  1.00  0.00     0.277 HD
ENDBRANCH  22  28
ENDBRANCH  21  22
ENDBRANCH  19  21
ENDBRANCH  17  19
ENDBRANCH   8  17
BRANCH   5  32
HETATM   32  N3  UNL     1      69.065  65.269 271.622  1.00  0.00    -0.232 N 
ATOM     33  H32 UNL     1      70.015  65.035 271.332  1.00  0.00     0.174 HD
ATOM     34  H31 UNL     1      68.947  66.103 272.197  1.00  0.00     0.174 HD
ENDBRANCH   5  32
BRANCH  13  35
HETATM   35  N11 UNL     1      64.303  61.236 271.195  1.00  0.00    -0.344 N 
ATOM     36 2H11 UNL     1      64.757  61.660 270.387  1.00  0.00     0.176 HD
ATOM     37 1H11 UNL     1      63.329  60.939 271.143  1.00  0.00     0.176 HD
ENDBRANCH  13  35
BRANCH   1  38
HETATM   38  C3  UNL     1      68.524  62.102 275.346  1.00  0.00     0.077 C 
BRANCH  38  39
HETATM   39  C2  UNL     1      69.654  63.106 275.458  1.00  0.00     0.003 C 
HETATM   40  C1  UNL     1      69.158  64.451 275.944  1.00  0.00     0.005 C 
ENDBRANCH  38  39
ENDBRANCH   1  38
TORSDOF 10
ENDMDL
MODEL 5
REMARK VINA RESULT: -2.449275917      8.253     10.323
REMARK  10 active torsions:
REMARK  status: ('A' for Active; 'I' for Inactive)
REMARK    1  A    between atoms: C2_2  and  C3_3 
REMARK    2  A    between atoms: C3_3  and  C4_4 
REMARK    3  A    between atoms: C5_8  and  N3_9 
REMARK    4  A    between atoms: C6_14  and  N5_15 
REMARK    5  A    between atoms: N5_15  and  N6_17 
REMARK    6  A    between atoms: N6_17  and  C7_19 
REMARK    7  A    between atoms: C7_19  and  C8_20 
REMARK    8  A    between atoms: C8_20  and  N7_22 
REMARK    9  A    between atoms: C8_20  and  N8_26 
REMARK   10  A    between atoms: N10_34  and  N11_36 
ROOT
HETATM    1  C4  UNL     1      71.434  65.649 277.701  1.00  0.00     0.098 A 
HETATM    2  N1  UNL     1      71.782  66.307 278.800  1.00  0.00    -0.266 N 
ATOM      3  H1  UNL     1      72.721  66.186 279.178  1.00  0.00     0.189 HD
HETATM    4  N2  UNL     1      70.923  67.125 279.423  1.00  0.00    -0.064 N 
HETATM    5  C5  UNL     1      71.283  67.790 280.537  1.00  0.00     0.713 A 
HETATM    6  N4  UNL     1      70.363  68.587 281.095  1.00  0.00    -0.019 N 
ATOM      7  H4  UNL     1      70.620  69.097 281.941  1.00  0.00     0.203 HD
HETATM    8  C6  UNL     1      69.122  68.757 280.610  1.00  0.00     0.712 A 
HETATM    9  N9  UNL     1      68.813  68.066 279.489  1.00  0.00    -0.168 N 
ATOM     10  H9  UNL     1      67.880  68.169 279.089  1.00  0.00     0.186 HD
HETATM   11  C10 UNL     1      69.682  67.258 278.888  1.00  0.00     0.206 A 
HETATM   12  C11 UNL     1      69.287  66.593 277.752  1.00  0.00     0.169 A 
HETATM   13  N10 UNL     1      68.129  66.685 277.210  1.00  0.00    -0.289 N 
ATOM     14  H10 UNL     1      67.928  66.150 276.366  1.00  0.00     0.188 HD
HETATM   15  N12 UNL     1      70.201  65.786 277.178  1.00  0.00    -0.327 N 
ATOM     16  H12 UNL     1      69.955  65.271 276.332  1.00  0.00     0.169 HD
ENDROOT
BRANCH   8  17
HETATM   17  N5  UNL     1      68.245  69.538 281.170  1.00  0.00    -0.136 N 
ATOM     18  H5  UNL     1      67.917  69.376 282.123  1.00  0.00     0.205 HD
BRANCH  17  19
HETATM   19  N6  UNL     1      67.775  70.604 280.411  1.00  0.00    -0.318 N 
ATOM     20  H6  UNL     1      68.367  71.033 279.700  1.00  0.00     0.180 HD
BRANCH  19  21
HETATM   21  C7  UNL     1      66.440  71.092 280.643  1.00  0.00     0.208 C 
BRANCH  21  22
HETATM   22  C8  UNL     1      65.513  70.806 279.484  1.00  0.00     0.295 C 
HETATM   23  C9  UNL     1      66.364  70.892 278.211  1.00  0.00     0.080 C 
BRANCH  22  24
HETATM   24  N7  UNL     1      64.479  71.816 279.495  1.00  0.00    -0.043 N 
ATOM     25  H73 UNL     1      64.412  72.327 278.615  1.00  0.00     0.277 HD
ATOM     26  H72 UNL     1      63.538  71.423 279.492  1.00  0.00     0.277 HD
ATOM     27  H71 UNL     1      64.652  72.425 280.295  1.00  0.00     0.277 HD
ENDBRANCH  22  24
BRANCH  22  28
HETATM   28  N8  UNL     1      64.942  69.507 279.516  1.00  0.00    -0.043 N 
ATOM     29  H83 UNL     1      64.002  69.517 279.119  1.00  0.00     0.277 HD
ATOM     30  H82 UNL     1      65.405  68.894 278.845  1.00  0.00     0.277 HD
ATOM     31  H81 UNL     1      64.935  69.084 280.444  1.00  0.00     0.277 HD
ENDBRANCH  22  28
ENDBRANCH  21  22
ENDBRANCH  19  21
ENDBRANCH  17  19
ENDBRANCH   8  17
BRANCH   5  32
HETATM   32  N3  UNL     1      72.472  67.639 281.019  1.00  0.00    -0.232 N 
ATOM     33  H32 UNL     1      73.150  68.400 281.075  1.00  0.00     0.174 HD
ATOM     34  H31 UNL     1      72.767  66.726 281.365  1.00  0.00     0.174 HD
ENDBRANCH   5  32
BRANCH  13  35
HETATM   35  N11 UNL     1      67.138  67.504 277.755  1.00  0.00    -0.344 N 
ATOM     36 2H11 UNL     1      66.778  68.272 277.188  1.00  0.00     0.176 HD
ATOM     37 1H11 UNL     1      66.778  67.345 278.696  1.00  0.00     0.176 HD
ENDBRANCH  13  35
BRANCH   1  38
HETATM   38  C3  UNL     1      72.401  64.753 277.037  1.00  0.00     0.077 C 
BRANCH  38  39
HETATM   39  C2  UNL     1      71.615  63.679 276.312  1.00  0.00     0.003 C 
HETATM   40  C1  UNL     1      72.400  62.389 276.207  1.00  0.00     0.005 C 
ENDBRANCH  38  39
ENDBRANCH   1  38
TORSDOF 10
ENDMDL
