MODEL 1
REMARK VINA RESULT: -7.368294448      0.000      0.000
REMARK  12 active torsions:
REMARK  status: ('A' for Active; 'I' for Inactive)
REMARK    1  A    between atoms: N3_4  and  C2_6 
REMARK    2  A    between atoms: C2_6  and  C3_7 
REMARK    3  A    between atoms: C3_7  and  C4_8 
REMARK    4  A    between atoms: C4_8  and  C5_9 
REMARK    5  A    between atoms: C5_9  and  N4_10 
REMARK    6  A    between atoms: C7_12  and  O1_13 
REMARK    7  A    between atoms: C8_15  and  C9_16 
REMARK    8  A    between atoms: C9_16  and  N5_17 
REMARK       I    between atoms: N5_17  and  C10_19 
REMARK    9  A    between atoms: C10_19  and  C11_21 
REMARK   10  A    between atoms: C11_21  and  C12_22 
REMARK   11  A    between atoms: C12_22  and  C13_23 
REMARK   12  A    between atoms: C13_23  and  N6_24 
ROOT
HETATM    1  N4  UNL     1     -15.871  27.159 -21.605  1.00  0.00    -0.382 N 
HETATM    2  C6  UNL     1     -14.753  26.872 -22.401  1.00  0.00     0.156 A 
HETATM    3  C7  UNL     1     -14.707  25.502 -21.718  1.00  0.00     0.160 A 
HETATM    4  C8  UNL     1     -15.894  25.990 -20.858  1.00  0.00     0.131 A 
ENDROOT
BRANCH   4   5
HETATM    5  C9  UNL     1     -16.996  25.004 -20.999  1.00  0.00     0.150 C 
BRANCH   5   6
HETATM    6  N5  UNL     1     -17.052  24.159 -19.831  1.00  0.00    -0.359 N 
HETATM    7  C10 UNL     1     -17.369  22.773 -19.836  1.00  0.00     0.217 C 
HETATM    8  O2  UNL     1     -17.616  22.210 -20.916  1.00  0.00    -0.274 OA
ATOM      9  H5  UNL     1     -16.848  24.591 -18.929  1.00  0.00     0.162 HD
BRANCH   7  10
HETATM   10  C11 UNL     1     -17.399  22.040 -18.578  1.00  0.00     0.104 C 
BRANCH  10  11
HETATM   11  C12 UNL     1     -16.091  21.761 -17.927  1.00  0.00     0.029 C 
BRANCH  11  12
HETATM   12  C13 UNL     1     -16.044  22.402 -16.565  1.00  0.00     0.122 C 
BRANCH  12  13
HETATM   13  N6  UNL     1     -14.648  22.672 -16.235  1.00  0.00    -0.367 N 
HETATM   14  C14 UNL     1     -14.136  23.821 -16.486  1.00  0.00     0.196 C 
HETATM   15  N7  UNL     1     -12.786  24.119 -16.180  1.00  0.00    -0.067 NA
HETATM   16  N8  UNL     1     -14.947  24.815 -17.088  1.00  0.00    -0.067 NA
ATOM     17  H6  UNL     1     -14.077  21.945 -15.804  1.00  0.00     0.161 HD
ENDBRANCH  12  13
ENDBRANCH  11  12
ENDBRANCH  10  11
ENDBRANCH   7  10
ENDBRANCH   5   6
ENDBRANCH   4   5
BRANCH   1  18
HETATM   18  C5  UNL     1     -16.929  27.958 -21.973  1.00  0.00     0.059 C 
BRANCH  18  19
HETATM   19  C4  UNL     1     -16.894  29.413 -21.619  1.00  0.00     0.046 C 
BRANCH  19  20
HETATM   20  C3  UNL     1     -16.357  30.253 -22.780  1.00  0.00     0.025 C 
BRANCH  20  21
HETATM   21  C2  UNL     1     -14.911  30.641 -22.523  1.00  0.00     0.122 C 
BRANCH  21  22
HETATM   22  N3  UNL     1     -14.551  31.616 -23.513  1.00  0.00    -0.367 N 
HETATM   23  C1  UNL     1     -13.520  32.364 -23.344  1.00  0.00     0.196 C 
HETATM   24  N1  UNL     1     -13.193  33.311 -24.333  1.00  0.00    -0.067 NA
HETATM   25  N2  UNL     1     -12.733  32.233 -22.181  1.00  0.00    -0.067 NA
ATOM     26  H3  UNL     1     -15.118  31.717 -24.355  1.00  0.00     0.161 HD
ENDBRANCH  21  22
ENDBRANCH  20  21
ENDBRANCH  19  20
ENDBRANCH  18  19
ENDBRANCH   1  18
BRANCH   3  27
HETATM   27  O1  UNL     1     -13.590  25.276 -20.953  1.00  0.00    -0.392 OA
ATOM     28  H1  UNL     1     -13.154  24.449 -21.119  1.00  0.00     0.210 HD
ENDBRANCH   3  27
TORSDOF 12
ENDMDL
MODEL 2
REMARK VINA RESULT: -7.341071546      5.789      8.190
REMARK  12 active torsions:
REMARK  status: ('A' for Active; 'I' for Inactive)
REMARK    1  A    between atoms: N3_4  and  C2_6 
REMARK    2  A    between atoms: C2_6  and  C3_7 
REMARK    3  A    between atoms: C3_7  and  C4_8 
REMARK    4  A    between atoms: C4_8  and  C5_9 
REMARK    5  A    between atoms: C5_9  and  N4_10 
REMARK    6  A    between atoms: C7_12  and  O1_13 
REMARK    7  A    between atoms: C8_15  and  C9_16 
REMARK    8  A    between atoms: C9_16  and  N5_17 
REMARK       I    between atoms: N5_17  and  C10_19 
REMARK    9  A    between atoms: C10_19  and  C11_21 
REMARK   10  A    between atoms: C11_21  and  C12_22 
REMARK   11  A    between atoms: C12_22  and  C13_23 
REMARK   12  A    between atoms: C13_23  and  N6_24 
ROOT
HETATM    1  N4  UNL     1     -10.164  26.347 -17.569  1.00  0.00    -0.382 N 
HETATM    2  C6  UNL     1      -9.749  27.312 -16.639  1.00  0.00     0.156 A 
HETATM    3  C7  UNL     1     -11.144  27.208 -16.016  1.00  0.00     0.160 A 
HETATM    4  C8  UNL     1     -11.480  26.215 -17.151  1.00  0.00     0.131 A 
ENDROOT
BRANCH   4   5
HETATM    5  C9  UNL     1     -11.971  24.960 -16.528  1.00  0.00     0.150 C 
BRANCH   5   6
HETATM    6  N5  UNL     1     -13.387  24.814 -16.767  1.00  0.00    -0.359 N 
HETATM    7  C10 UNL     1     -14.184  23.721 -16.330  1.00  0.00     0.217 C 
HETATM    8  O2  UNL     1     -13.654  22.803 -15.682  1.00  0.00    -0.274 OA
ATOM      9  H5  UNL     1     -13.853  25.555 -17.291  1.00  0.00     0.162 HD
BRANCH   7  10
HETATM   10  C11 UNL     1     -15.605  23.697 -16.649  1.00  0.00     0.104 C 
BRANCH  10  11
HETATM   11  C12 UNL     1     -16.218  22.367 -16.907  1.00  0.00     0.029 C 
BRANCH  11  12
HETATM   12  C13 UNL     1     -16.844  22.341 -18.276  1.00  0.00     0.122 C 
BRANCH  12  13
HETATM   13  N6  UNL     1     -16.917  20.952 -18.719  1.00  0.00    -0.367 N 
HETATM   14  C14 UNL     1     -16.020  20.477 -19.503  1.00  0.00     0.196 C 
HETATM   15  N7  UNL     1     -16.058  19.135 -19.954  1.00  0.00    -0.067 NA
HETATM   16  N8  UNL     1     -14.965  21.322 -19.929  1.00  0.00    -0.067 NA
ATOM     17  H6  UNL     1     -17.683  20.358 -18.406  1.00  0.00     0.161 HD
ENDBRANCH  12  13
ENDBRANCH  11  12
ENDBRANCH  10  11
ENDBRANCH   7  10
ENDBRANCH   5   6
ENDBRANCH   4   5
BRANCH   1  18
HETATM   18  C5  UNL     1      -9.354  25.399 -18.150  1.00  0.00     0.059 C 
BRANCH  18  19
HETATM   19  C4  UNL     1      -8.026  25.099 -17.523  1.00  0.00     0.046 C 
BRANCH  19  20
HETATM   20  C3  UNL     1      -8.116  23.898 -16.580  1.00  0.00     0.025 C 
BRANCH  20  21
HETATM   21  C2  UNL     1      -8.318  24.367 -15.149  1.00  0.00     0.122 C 
BRANCH  21  22
HETATM   22  N3  UNL     1      -7.300  25.341 -14.875  1.00  0.00    -0.367 N 
HETATM   23  C1  UNL     1      -7.504  26.270 -14.010  1.00  0.00     0.196 C 
HETATM   24  N1  UNL     1      -6.486  27.209 -13.763  1.00  0.00    -0.067 NA
HETATM   25  N2  UNL     1      -8.734  26.340 -13.325  1.00  0.00    -0.067 NA
ATOM     26  H3  UNL     1      -6.409  25.296 -15.369  1.00  0.00     0.161 HD
ENDBRANCH  21  22
ENDBRANCH  20  21
ENDBRANCH  19  20
ENDBRANCH  18  19
ENDBRANCH   1  18
BRANCH   3  27
HETATM   27  O1  UNL     1     -11.901  28.349 -16.105  1.00  0.00    -0.392 OA
ATOM     28  H1  UNL     1     -12.029  28.808 -15.284  1.00  0.00     0.210 HD
ENDBRANCH   3  27
TORSDOF 12
ENDMDL
MODEL 3
REMARK VINA RESULT: -7.196648563      5.794      8.280
REMARK  12 active torsions:
REMARK  status: ('A' for Active; 'I' for Inactive)
REMARK    1  A    between atoms: N3_4  and  C2_6 
REMARK    2  A    between atoms: C2_6  and  C3_7 
REMARK    3  A    between atoms: C3_7  and  C4_8 
REMARK    4  A    between atoms: C4_8  and  C5_9 
REMARK    5  A    between atoms: C5_9  and  N4_10 
REMARK    6  A    between atoms: C7_12  and  O1_13 
REMARK    7  A    between atoms: C8_15  and  C9_16 
REMARK    8  A    between atoms: C9_16  and  N5_17 
REMARK       I    between atoms: N5_17  and  C10_19 
REMARK    9  A    between atoms: C10_19  and  C11_21 
REMARK   10  A    between atoms: C11_21  and  C12_22 
REMARK   11  A    between atoms: C12_22  and  C13_23 
REMARK   12  A    between atoms: C13_23  and  N6_24 
ROOT
HETATM    1  N4  UNL     1     -10.174  26.311 -17.534  1.00  0.00    -0.382 N 
HETATM    2  C6  UNL     1      -9.710  27.234 -16.585  1.00  0.00     0.156 A 
HETATM    3  C7  UNL     1     -11.093  27.151 -15.933  1.00  0.00     0.160 A 
HETATM    4  C8  UNL     1     -11.484  26.205 -17.090  1.00  0.00     0.131 A 
ENDROOT
BRANCH   4   5
HETATM    5  C9  UNL     1     -11.999  24.945 -16.495  1.00  0.00     0.150 C 
BRANCH   5   6
HETATM    6  N5  UNL     1     -13.413  24.821 -16.755  1.00  0.00    -0.359 N 
HETATM    7  C10 UNL     1     -14.233  23.740 -16.329  1.00  0.00     0.217 C 
HETATM    8  O2  UNL     1     -13.726  22.815 -15.673  1.00  0.00    -0.274 OA
ATOM      9  H5  UNL     1     -13.860  25.569 -17.286  1.00  0.00     0.162 HD
BRANCH   7  10
HETATM   10  C11 UNL     1     -15.649  23.738 -16.668  1.00  0.00     0.104 C 
BRANCH  10  11
HETATM   11  C12 UNL     1     -16.281  22.416 -16.925  1.00  0.00     0.029 C 
BRANCH  11  12
HETATM   12  C13 UNL     1     -16.864  22.381 -18.313  1.00  0.00     0.122 C 
BRANCH  12  13
HETATM   13  N6  UNL     1     -16.917  20.991 -18.752  1.00  0.00    -0.367 N 
HETATM   14  C14 UNL     1     -15.994  20.516 -19.505  1.00  0.00     0.196 C 
HETATM   15  N7  UNL     1     -16.012  19.172 -19.951  1.00  0.00    -0.067 NA
HETATM   16  N8  UNL     1     -14.930  21.363 -19.901  1.00  0.00    -0.067 NA
ATOM     17  H6  UNL     1     -17.691  20.394 -18.459  1.00  0.00     0.161 HD
ENDBRANCH  12  13
ENDBRANCH  11  12
ENDBRANCH  10  11
ENDBRANCH   7  10
ENDBRANCH   5   6
ENDBRANCH   4   5
BRANCH   1  18
HETATM   18  C5  UNL     1      -9.407  25.359 -18.164  1.00  0.00     0.059 C 
BRANCH  18  19
HETATM   19  C4  UNL     1      -7.967  25.662 -18.447  1.00  0.00     0.046 C 
BRANCH  19  20
HETATM   20  C3  UNL     1      -7.041  24.885 -17.510  1.00  0.00     0.025 C 
BRANCH  20  21
HETATM   21  C2  UNL     1      -7.857  24.024 -16.560  1.00  0.00     0.122 C 
BRANCH  21  22
HETATM   22  N3  UNL     1      -7.736  24.604 -15.253  1.00  0.00    -0.367 N 
HETATM   23  C1  UNL     1      -8.542  24.260 -14.312  1.00  0.00     0.196 C 
HETATM   24  N1  UNL     1      -8.396  24.845 -13.040  1.00  0.00    -0.067 NA
HETATM   25  N2  UNL     1      -9.554  23.310 -14.559  1.00  0.00    -0.067 NA
ATOM     26  H3  UNL     1      -7.007  25.293 -15.069  1.00  0.00     0.161 HD
ENDBRANCH  21  22
ENDBRANCH  20  21
ENDBRANCH  19  20
ENDBRANCH  18  19
ENDBRANCH   1  18
BRANCH   3  27
HETATM   27  O1  UNL     1     -11.818  28.316 -15.968  1.00  0.00    -0.392 OA
ATOM     28  H1  UNL     1     -12.585  28.325 -15.410  1.00  0.00     0.210 HD
ENDBRANCH   3  27
TORSDOF 12
ENDMDL
MODEL 4
REMARK VINA RESULT: -7.062946965      2.615      5.316
REMARK  12 active torsions:
REMARK  status: ('A' for Active; 'I' for Inactive)
REMARK    1  A    between atoms: N3_4  and  C2_6 
REMARK    2  A    between atoms: C2_6  and  C3_7 
REMARK    3  A    between atoms: C3_7  and  C4_8 
REMARK    4  A    between atoms: C4_8  and  C5_9 
REMARK    5  A    between atoms: C5_9  and  N4_10 
REMARK    6  A    between atoms: C7_12  and  O1_13 
REMARK    7  A    between atoms: C8_15  and  C9_16 
REMARK    8  A    between atoms: C9_16  and  N5_17 
REMARK       I    between atoms: N5_17  and  C10_19 
REMARK    9  A    between atoms: C10_19  and  C11_21 
REMARK   10  A    between atoms: C11_21  and  C12_22 
REMARK   11  A    between atoms: C12_22  and  C13_23 
REMARK   12  A    between atoms: C13_23  and  N6_24 
ROOT
HETATM    1  N4  UNL     1     -16.544  22.174 -19.574  1.00  0.00    -0.382 N 
HETATM    2  C6  UNL     1     -17.174  20.976 -19.944  1.00  0.00     0.156 A 
HETATM    3  C7  UNL     1     -16.305  20.278 -18.895  1.00  0.00     0.160 A 
HETATM    4  C8  UNL     1     -15.647  21.655 -18.653  1.00  0.00     0.131 A 
ENDROOT
BRANCH   4   5
HETATM    5  C9  UNL     1     -15.758  21.967 -17.205  1.00  0.00     0.150 C 
BRANCH   5   6
HETATM    6  N5  UNL     1     -14.509  22.502 -16.720  1.00  0.00    -0.359 N 
HETATM    7  C10 UNL     1     -14.170  23.882 -16.680  1.00  0.00     0.217 C 
HETATM    8  O2  UNL     1     -14.992  24.723 -17.082  1.00  0.00    -0.274 OA
ATOM      9  H5  UNL     1     -13.815  21.838 -16.377  1.00  0.00     0.162 HD
BRANCH   7  10
HETATM   10  C11 UNL     1     -12.866  24.285 -16.172  1.00  0.00     0.104 C 
BRANCH  10  11
HETATM   11  C12 UNL     1     -11.768  24.432 -17.165  1.00  0.00     0.029 C 
BRANCH  11  12
HETATM   12  C13 UNL     1     -10.834  25.535 -16.745  1.00  0.00     0.122 C 
BRANCH  12  13
HETATM   13  N6  UNL     1     -11.636  26.681 -16.328  1.00  0.00    -0.367 N 
HETATM   14  C14 UNL     1     -11.076  27.812 -16.100  1.00  0.00     0.196 C 
HETATM   15  N7  UNL     1     -11.821  28.945 -15.695  1.00  0.00    -0.067 NA
HETATM   16  N8  UNL     1      -9.672  27.926 -16.259  1.00  0.00    -0.067 NA
ATOM     17  H6  UNL     1     -12.644  26.581 -16.216  1.00  0.00     0.161 HD
ENDBRANCH  12  13
ENDBRANCH  11  12
ENDBRANCH  10  11
ENDBRANCH   7  10
ENDBRANCH   5   6
ENDBRANCH   4   5
BRANCH   1  18
HETATM   18  C5  UNL     1     -17.126  23.421 -19.590  1.00  0.00     0.059 C 
BRANCH  18  19
HETATM   19  C4  UNL     1     -17.163  24.185 -20.879  1.00  0.00     0.046 C 
BRANCH  19  20
HETATM   20  C3  UNL     1     -16.750  25.643 -20.671  1.00  0.00     0.025 C 
BRANCH  20  21
HETATM   21  C2  UNL     1     -15.657  26.025 -21.654  1.00  0.00     0.122 C 
BRANCH  21  22
HETATM   22  N3  UNL     1     -16.209  27.009 -22.541  1.00  0.00    -0.367 N 
HETATM   23  C1  UNL     1     -15.907  28.251 -22.404  1.00  0.00     0.196 C 
HETATM   24  N1  UNL     1     -16.465  29.191 -23.291  1.00  0.00    -0.067 NA
HETATM   25  N2  UNL     1     -15.031  28.657 -21.377  1.00  0.00    -0.067 NA
ATOM     26  H3  UNL     1     -16.845  26.721 -23.285  1.00  0.00     0.161 HD
ENDBRANCH  21  22
ENDBRANCH  20  21
ENDBRANCH  19  20
ENDBRANCH  18  19
ENDBRANCH   1  18
BRANCH   3  27
HETATM   27  O1  UNL     1     -15.406  19.373 -19.401  1.00  0.00    -0.392 OA
ATOM     28  H1  UNL     1     -14.497  19.560 -19.204  1.00  0.00     0.210 HD
ENDBRANCH   3  27
TORSDOF 12
ENDMDL
MODEL 5
REMARK VINA RESULT: -7.033533704      5.656      9.388
REMARK  12 active torsions:
REMARK  status: ('A' for Active; 'I' for Inactive)
REMARK    1  A    between atoms: N3_4  and  C2_6 
REMARK    2  A    between atoms: C2_6  and  C3_7 
REMARK    3  A    between atoms: C3_7  and  C4_8 
REMARK    4  A    between atoms: C4_8  and  C5_9 
REMARK    5  A    between atoms: C5_9  and  N4_10 
REMARK    6  A    between atoms: C7_12  and  O1_13 
REMARK    7  A    between atoms: C8_15  and  C9_16 
REMARK    8  A    between atoms: C9_16  and  N5_17 
REMARK       I    between atoms: N5_17  and  C10_19 
REMARK    9  A    between atoms: C10_19  and  C11_21 
REMARK   10  A    between atoms: C11_21  and  C12_22 
REMARK   11  A    between atoms: C12_22  and  C13_23 
REMARK   12  A    between atoms: C13_23  and  N6_24 
ROOT
HETATM    1  N4  UNL     1     -12.752  25.012 -16.970  1.00  0.00    -0.382 N 
HETATM    2  C6  UNL     1     -12.822  25.674 -18.206  1.00  0.00     0.156 A 
HETATM    3  C7  UNL     1     -11.468  26.302 -17.864  1.00  0.00     0.160 A 
HETATM    4  C8  UNL     1     -11.570  25.570 -16.508  1.00  0.00     0.131 A 
ENDROOT
BRANCH   4   5
HETATM    5  C9  UNL     1     -10.343  24.750 -16.338  1.00  0.00     0.150 C 
BRANCH   5   6
HETATM    6  N5  UNL     1      -9.538  25.286 -15.266  1.00  0.00    -0.359 N 
HETATM    7  C10 UNL     1      -8.727  24.517 -14.388  1.00  0.00     0.217 C 
HETATM    8  O2  UNL     1      -8.676  23.283 -14.530  1.00  0.00    -0.274 OA
ATOM      9  H5  UNL     1      -9.553  26.296 -15.128  1.00  0.00     0.162 HD
BRANCH   7  10
HETATM   10  C11 UNL     1      -7.970  25.188 -13.340  1.00  0.00     0.104 C 
BRANCH  10  11
HETATM   11  C12 UNL     1      -6.748  25.926 -13.755  1.00  0.00     0.029 C 
BRANCH  11  12
HETATM   12  C13 UNL     1      -7.074  27.376 -13.993  1.00  0.00     0.122 C 
BRANCH  12  13
HETATM   13  N6  UNL     1      -6.487  27.773 -15.269  1.00  0.00    -0.367 N 
HETATM   14  C14 UNL     1      -7.242  28.065 -16.264  1.00  0.00     0.196 C 
HETATM   15  N7  UNL     1      -6.709  28.454 -17.516  1.00  0.00    -0.067 NA
HETATM   16  N8  UNL     1      -8.648  27.992 -16.101  1.00  0.00    -0.067 NA
ATOM     17  H6  UNL     1      -5.474  27.819 -15.370  1.00  0.00     0.161 HD
ENDBRANCH  12  13
ENDBRANCH  11  12
ENDBRANCH  10  11
ENDBRANCH   7  10
ENDBRANCH   5   6
ENDBRANCH   4   5
BRANCH   1  18
HETATM   18  C5  UNL     1     -13.271  23.766 -16.702  1.00  0.00     0.059 C 
BRANCH  18  19
HETATM   19  C4  UNL     1     -14.678  23.662 -16.198  1.00  0.00     0.046 C 
BRANCH  19  20
HETATM   20  C3  UNL     1     -15.270  22.282 -16.488  1.00  0.00     0.025 C 
BRANCH  20  21
HETATM   21  C2  UNL     1     -16.250  22.363 -17.646  1.00  0.00     0.122 C 
BRANCH  21  22
HETATM   22  N3  UNL     1     -16.389  21.037 -18.178  1.00  0.00    -0.367 N 
HETATM   23  C1  UNL     1     -15.778  20.702 -19.258  1.00  0.00     0.196 C 
HETATM   24  N1  UNL     1     -15.935  19.394 -19.753  1.00  0.00    -0.067 NA
HETATM   25  N2  UNL     1     -14.968  21.638 -19.932  1.00  0.00    -0.067 NA
ATOM     26  H3  UNL     1     -16.976  20.356 -17.695  1.00  0.00     0.161 HD
ENDBRANCH  21  22
ENDBRANCH  20  21
ENDBRANCH  19  20
ENDBRANCH  18  19
ENDBRANCH   1  18
BRANCH   3  27
HETATM   27  O1  UNL     1     -11.489  27.665 -17.704  1.00  0.00    -0.392 OA
ATOM     28  H1  UNL     1     -10.770  28.018 -17.193  1.00  0.00     0.210 HD
ENDBRANCH   3  27
TORSDOF 12
ENDMDL
