MODEL 1
REMARK VINA RESULT: -8.531007250      0.000      0.000
REMARK  7 active torsions:
REMARK  status: ('A' for Active; 'I' for Inactive)
REMARK    1  A    between atoms: C2_2  and  C3_3 
REMARK    2  A    between atoms: C3_3  and  O1_4 
REMARK    3  A    between atoms: O1_4  and  C4_5 
REMARK    4  A    between atoms: C9_11  and  C10_12 
REMARK    5  A    between atoms: C10_12  and  C11_13 
REMARK    6  A    between atoms: C13_15  and  N1_16 
REMARK    7  A    between atoms: C14_20  and  C15_21 
ROOT
HETATM    1  C10 UNL     1      18.643 225.778  44.242  1.00  0.00     0.070 C 
ENDROOT
BRANCH   1   2
HETATM    2  C9  UNL     1      18.191 224.527  44.955  1.00  0.00     0.052 A 
HETATM    3  S1  UNL     1      17.950 222.969  44.293  1.00  0.00    -0.075 SA
HETATM    4  C8  UNL     1      17.455 222.157  45.731  1.00  0.00     0.036 A 
HETATM    5  C7  UNL     1      17.068 220.855  46.071  1.00  0.00     0.021 A 
HETATM    6  C21 UNL     1      17.509 223.162  46.643  1.00  0.00     0.084 A 
HETATM    7  C6  UNL     1      16.726 220.552  47.364  1.00  0.00     0.004 A 
HETATM    8  C5  UNL     1      16.782 221.556  48.268  1.00  0.00     0.039 A 
HETATM    9  C4  UNL     1      17.160 222.877  47.996  1.00  0.00     0.096 A 
HETATM   10  N2  UNL     1      17.886 224.347  46.218  1.00  0.00    -0.351 N 
ATOM     11  H2  UNL     1      17.941 225.129  46.871  1.00  0.00     0.166 HD
BRANCH   9  12
HETATM   12  O1  UNL     1      17.181 223.773  48.943  1.00  0.00    -0.349 OA
BRANCH  12  13
HETATM   13  C3  UNL     1      17.197 224.656  49.876  1.00  0.00     0.175 C 
BRANCH  13  14
HETATM   14  C2  UNL     1      16.384 224.246  51.132  1.00  0.00     0.022 C 
HETATM   15  C1  UNL     1      17.342 223.830  52.204  1.00  0.00     0.007 C 
ENDBRANCH  13  14
ENDBRANCH  12  13
ENDBRANCH   9  12
ENDBRANCH   1   2
BRANCH   1  16
HETATM   16  C11 UNL     1      18.489 225.513  42.791  1.00  0.00    -0.000 C 
HETATM   17  C12 UNL     1      19.662 226.091  41.978  1.00  0.00     0.038 C 
HETATM   18  C13 UNL     1      18.618 226.261  40.882  1.00  0.00     0.188 C 
HETATM   19  C14 UNL     1      17.643 226.479  41.987  1.00  0.00     0.024 C 
BRANCH  18  20
HETATM   20  N1  UNL     1      18.555 225.050  40.141  1.00  0.00    -0.075 N 
ATOM     21  H13 UNL     1      19.330 224.948  39.487  1.00  0.00     0.274 HD
ATOM     22  H12 UNL     1      18.748 224.228  40.713  1.00  0.00     0.274 HD
ATOM     23  H11 UNL     1      17.645 225.006  39.683  1.00  0.00     0.274 HD
ENDBRANCH  18  20
BRANCH  19  24
HETATM   24  C15 UNL     1      16.236 226.086  41.851  1.00  0.00    -0.008 C 
HETATM   25  C16 UNL     1      15.473 226.457  43.106  1.00  0.00     0.005 C 
HETATM   26  C17 UNL     1      14.145 227.018  42.652  1.00  0.00     0.005 C 
HETATM   27  C18 UNL     1      14.389 227.571  41.269  1.00  0.00    -0.018 C 
HETATM   28  C19 UNL     1      14.898 228.989  41.291  1.00  0.00     0.010 C 
HETATM   29  C20 UNL     1      15.437 226.604  40.755  1.00  0.00     0.009 C 
ENDBRANCH  19  24
ENDBRANCH   1  16
TORSDOF 7
ENDMDL
MODEL 2
REMARK VINA RESULT: -8.055412474      1.792      2.832
REMARK  7 active torsions:
REMARK  status: ('A' for Active; 'I' for Inactive)
REMARK    1  A    between atoms: C2_2  and  C3_3 
REMARK    2  A    between atoms: C3_3  and  O1_4 
REMARK    3  A    between atoms: O1_4  and  C4_5 
REMARK    4  A    between atoms: C9_11  and  C10_12 
REMARK    5  A    between atoms: C10_12  and  C11_13 
REMARK    6  A    between atoms: C13_15  and  N1_16 
REMARK    7  A    between atoms: C14_20  and  C15_21 
ROOT
HETATM    1  C10 UNL     1      18.131 225.439  43.390  1.00  0.00     0.070 C 
ENDROOT
BRANCH   1   2
HETATM    2  C9  UNL     1      17.859 224.223  44.243  1.00  0.00     0.052 A 
HETATM    3  S1  UNL     1      17.710 222.597  43.738  1.00  0.00    -0.075 SA
HETATM    4  C8  UNL     1      17.416 221.881  45.279  1.00  0.00     0.036 A 
HETATM    5  C7  UNL     1      17.182 220.586  45.760  1.00  0.00     0.021 A 
HETATM    6  C21 UNL     1      17.453 222.966  46.095  1.00  0.00     0.084 A 
HETATM    7  C6  UNL     1      16.981 220.374  47.100  1.00  0.00     0.004 A 
HETATM    8  C5  UNL     1      17.019 221.458  47.908  1.00  0.00     0.039 A 
HETATM    9  C4  UNL     1      17.247 222.776  47.494  1.00  0.00     0.096 A 
HETATM   10  N2  UNL     1      17.680 224.134  45.540  1.00  0.00    -0.351 N 
ATOM     11  H2  UNL     1      17.717 224.974  46.118  1.00  0.00     0.166 HD
BRANCH   9  12
HETATM   12  O1  UNL     1      17.264 223.753  48.356  1.00  0.00    -0.349 OA
BRANCH  12  13
HETATM   13  C3  UNL     1      17.280 224.713  49.210  1.00  0.00     0.175 C 
BRANCH  13  14
HETATM   14  C2  UNL     1      16.685 224.326  50.590  1.00  0.00     0.022 C 
HETATM   15  C1  UNL     1      15.199 224.211  50.452  1.00  0.00     0.007 C 
ENDBRANCH  13  14
ENDBRANCH  12  13
ENDBRANCH   9  12
ENDBRANCH   1   2
BRANCH   1  16
HETATM   16  C11 UNL     1      16.844 225.794  42.745  1.00  0.00    -0.000 C 
HETATM   17  C12 UNL     1      15.683 224.935  43.279  1.00  0.00     0.038 C 
HETATM   18  C13 UNL     1      15.108 225.115  41.881  1.00  0.00     0.188 C 
HETATM   19  C14 UNL     1      16.523 225.144  41.415  1.00  0.00     0.024 C 
BRANCH  18  20
HETATM   20  N1  UNL     1      14.356 226.320  41.864  1.00  0.00    -0.075 N 
ATOM     21  H13 UNL     1      13.854 226.459  40.988  1.00  0.00     0.274 HD
ATOM     22  H12 UNL     1      13.547 226.288  42.484  1.00  0.00     0.274 HD
ATOM     23  H11 UNL     1      14.988 227.091  42.081  1.00  0.00     0.274 HD
ENDBRANCH  18  20
BRANCH  19  24
HETATM   24  C15 UNL     1      16.923 225.930  40.242  1.00  0.00    -0.008 C 
HETATM   25  C16 UNL     1      18.211 225.377  39.667  1.00  0.00     0.005 C 
HETATM   26  C17 UNL     1      18.052 225.392  38.165  1.00  0.00     0.005 C 
HETATM   27  C18 UNL     1      16.567 225.301  37.912  1.00  0.00    -0.018 C 
HETATM   28  C19 UNL     1      16.070 223.879  37.877  1.00  0.00     0.010 C 
HETATM   29  C20 UNL     1      16.026 226.057  39.109  1.00  0.00     0.009 C 
ENDBRANCH  19  24
ENDBRANCH   1  16
TORSDOF 7
ENDMDL
MODEL 3
REMARK VINA RESULT: -7.560268012      3.247      7.116
REMARK  7 active torsions:
REMARK  status: ('A' for Active; 'I' for Inactive)
REMARK    1  A    between atoms: C2_2  and  C3_3 
REMARK    2  A    between atoms: C3_3  and  O1_4 
REMARK    3  A    between atoms: O1_4  and  C4_5 
REMARK    4  A    between atoms: C9_11  and  C10_12 
REMARK    5  A    between atoms: C10_12  and  C11_13 
REMARK    6  A    between atoms: C13_15  and  N1_16 
REMARK    7  A    between atoms: C14_20  and  C15_21 
ROOT
HETATM    1  C10 UNL     1      19.324 225.909  40.545  1.00  0.00     0.070 C 
ENDROOT
BRANCH   1   2
HETATM    2  C9  UNL     1      18.051 225.642  39.778  1.00  0.00     0.052 A 
HETATM    3  S1  UNL     1      17.887 225.215  38.131  1.00  0.00    -0.075 SA
HETATM    4  C8  UNL     1      16.167 225.100  38.071  1.00  0.00     0.036 A 
HETATM    5  C7  UNL     1      15.211 224.797  37.093  1.00  0.00     0.021 A 
HETATM    6  C21 UNL     1      15.829 225.405  39.351  1.00  0.00     0.084 A 
HETATM    7  C6  UNL     1      13.877 224.800  37.409  1.00  0.00     0.004 A 
HETATM    8  C5  UNL     1      13.546 225.104  38.684  1.00  0.00     0.039 A 
HETATM    9  C4  UNL     1      14.448 225.416  39.709  1.00  0.00     0.096 A 
HETATM   10  N2  UNL     1      16.806 225.673  40.188  1.00  0.00    -0.351 N 
ATOM     11  H2  UNL     1      16.595 225.906  41.158  1.00  0.00     0.166 HD
BRANCH   9  12
HETATM   12  O1  UNL     1      14.025 225.696  40.909  1.00  0.00    -0.349 OA
BRANCH  12  13
HETATM   13  C3  UNL     1      13.604 225.973  42.091  1.00  0.00     0.175 C 
BRANCH  13  14
HETATM   14  C2  UNL     1      14.579 226.867  42.903  1.00  0.00     0.022 C 
HETATM   15  C1  UNL     1      14.898 228.082  42.090  1.00  0.00     0.007 C 
ENDBRANCH  13  14
ENDBRANCH  12  13
ENDBRANCH   9  12
ENDBRANCH   1   2
BRANCH   1  16
HETATM   16  C11 UNL     1      18.941 225.992  41.976  1.00  0.00    -0.000 C 
HETATM   17  C12 UNL     1      20.079 226.568  42.837  1.00  0.00     0.038 C 
HETATM   18  C13 UNL     1      19.500 225.676  43.927  1.00  0.00     0.188 C 
HETATM   19  C14 UNL     1      19.121 224.749  42.824  1.00  0.00     0.024 C 
BRANCH  18  20
HETATM   20  N1  UNL     1      18.476 226.401  44.594  1.00  0.00    -0.075 N 
ATOM     21  H13 UNL     1      17.628 225.851  44.728  1.00  0.00     0.274 HD
ATOM     22  H12 UNL     1      18.689 226.568  45.578  1.00  0.00     0.274 HD
ATOM     23  H11 UNL     1      18.308 227.263  44.076  1.00  0.00     0.274 HD
ENDBRANCH  18  20
BRANCH  19  24
HETATM   24  C15 UNL     1      17.930 223.899  42.917  1.00  0.00    -0.008 C 
HETATM   25  C16 UNL     1      18.339 222.466  43.186  1.00  0.00     0.005 C 
HETATM   26  C17 UNL     1      17.369 221.927  44.212  1.00  0.00     0.005 C 
HETATM   27  C18 UNL     1      16.882 223.130  44.982  1.00  0.00    -0.018 C 
HETATM   28  C19 UNL     1      17.786 223.489  46.133  1.00  0.00     0.010 C 
HETATM   29  C20 UNL     1      16.901 224.190  43.899  1.00  0.00     0.009 C 
ENDBRANCH  19  24
ENDBRANCH   1  16
TORSDOF 7
ENDMDL
MODEL 4
REMARK VINA RESULT: -7.138074158      2.841      7.645
REMARK  7 active torsions:
REMARK  status: ('A' for Active; 'I' for Inactive)
REMARK    1  A    between atoms: C2_2  and  C3_3 
REMARK    2  A    between atoms: C3_3  and  O1_4 
REMARK    3  A    between atoms: O1_4  and  C4_5 
REMARK    4  A    between atoms: C9_11  and  C10_12 
REMARK    5  A    between atoms: C10_12  and  C11_13 
REMARK    6  A    between atoms: C13_15  and  N1_16 
REMARK    7  A    between atoms: C14_20  and  C15_21 
ROOT
HETATM    1  C10 UNL     1      17.898 225.520  43.800  1.00  0.00     0.070 C 
ENDROOT
BRANCH   1   2
HETATM    2  C9  UNL     1      17.744 225.522  42.299  1.00  0.00     0.052 A 
HETATM    3  S1  UNL     1      18.978 225.483  41.116  1.00  0.00    -0.075 SA
HETATM    4  C8  UNL     1      17.980 225.509  39.710  1.00  0.00     0.036 A 
HETATM    5  C7  UNL     1      18.190 225.500  38.325  1.00  0.00     0.021 A 
HETATM    6  C21 UNL     1      16.738 225.547  40.258  1.00  0.00     0.084 A 
HETATM    7  C6  UNL     1      17.122 225.529  37.465  1.00  0.00     0.004 A 
HETATM    8  C5  UNL     1      15.888 225.566  38.016  1.00  0.00     0.039 A 
HETATM    9  C4  UNL     1      15.608 225.578  39.389  1.00  0.00     0.096 A 
HETATM   10  N2  UNL     1      16.654 225.551  41.569  1.00  0.00    -0.351 N 
ATOM     11  H2  UNL     1      15.740 225.578  42.021  1.00  0.00     0.166 HD
BRANCH   9  12
HETATM   12  O1  UNL     1      14.378 225.615  39.818  1.00  0.00    -0.349 OA
BRANCH  12  13
HETATM   13  C3  UNL     1      13.165 225.647  40.243  1.00  0.00     0.175 C 
BRANCH  13  14
HETATM   14  C2  UNL     1      12.968 224.937  41.609  1.00  0.00     0.022 C 
HETATM   15  C1  UNL     1      13.338 225.893  42.699  1.00  0.00     0.007 C 
ENDBRANCH  13  14
ENDBRANCH  12  13
ENDBRANCH   9  12
ENDBRANCH   1   2
BRANCH   1  16
HETATM   16  C11 UNL     1      18.011 224.098  44.207  1.00  0.00    -0.000 C 
HETATM   17  C12 UNL     1      17.035 223.202  43.424  1.00  0.00     0.038 C 
HETATM   18  C13 UNL     1      17.023 222.364  44.695  1.00  0.00     0.188 C 
HETATM   19  C14 UNL     1      17.223 223.650  45.421  1.00  0.00     0.024 C 
BRANCH  18  20
HETATM   20  N1  UNL     1      18.102 221.442  44.628  1.00  0.00    -0.075 N 
ATOM     21  H13 UNL     1      18.963 221.868  44.286  1.00  0.00     0.274 HD
ATOM     22  H12 UNL     1      18.441 221.165  45.549  1.00  0.00     0.274 HD
ATOM     23  H11 UNL     1      17.805 220.647  44.062  1.00  0.00     0.274 HD
ENDBRANCH  18  20
BRANCH  19  24
HETATM   24  C15 UNL     1      17.967 223.706  46.684  1.00  0.00    -0.008 C 
HETATM   25  C16 UNL     1      17.343 224.733  47.606  1.00  0.00     0.005 C 
HETATM   26  C17 UNL     1      17.339 224.123  48.988  1.00  0.00     0.005 C 
HETATM   27  C18 UNL     1      17.316 222.630  48.774  1.00  0.00    -0.018 C 
HETATM   28  C19 UNL     1      15.920 222.087  48.611  1.00  0.00     0.010 C 
HETATM   29  C20 UNL     1      18.119 222.511  47.494  1.00  0.00     0.009 C 
ENDBRANCH  19  24
ENDBRANCH   1  16
TORSDOF 7
ENDMDL
MODEL 5
REMARK VINA RESULT: -7.053031041      2.748      7.653
REMARK  7 active torsions:
REMARK  status: ('A' for Active; 'I' for Inactive)
REMARK    1  A    between atoms: C2_2  and  C3_3 
REMARK    2  A    between atoms: C3_3  and  O1_4 
REMARK    3  A    between atoms: O1_4  and  C4_5 
REMARK    4  A    between atoms: C9_11  and  C10_12 
REMARK    5  A    between atoms: C10_12  and  C11_13 
REMARK    6  A    between atoms: C13_15  and  N1_16 
REMARK    7  A    between atoms: C14_20  and  C15_21 
ROOT
HETATM    1  C10 UNL     1      17.375 225.085  44.579  1.00  0.00     0.070 C 
ENDROOT
BRANCH   1   2
HETATM    2  C9  UNL     1      17.540 225.164  43.081  1.00  0.00     0.052 A 
HETATM    3  S1  UNL     1      18.979 225.424  42.195  1.00  0.00    -0.075 SA
HETATM    4  C8  UNL     1      18.309 225.373  40.607  1.00  0.00     0.036 A 
HETATM    5  C7  UNL     1      18.802 225.497  39.301  1.00  0.00     0.021 A 
HETATM    6  C21 UNL     1      16.995 225.155  40.872  1.00  0.00     0.084 A 
HETATM    7  C6  UNL     1      17.950 225.399  38.231  1.00  0.00     0.004 A 
HETATM    8  C5  UNL     1      16.643 225.182  38.501  1.00  0.00     0.039 A 
HETATM    9  C4  UNL     1      16.085 225.049  39.779  1.00  0.00     0.096 A 
HETATM   10  N2  UNL     1      16.641 225.054  42.133  1.00  0.00    -0.351 N 
ATOM     11  H2  UNL     1      15.663 224.889  42.376  1.00  0.00     0.166 HD
BRANCH   9  12
HETATM   12  O1  UNL     1      14.808 224.840  39.931  1.00  0.00    -0.349 OA
BRANCH  12  13
HETATM   13  C3  UNL     1      13.548 224.640  40.082  1.00  0.00     0.175 C 
BRANCH  13  14
HETATM   14  C2  UNL     1      12.863 225.674  41.014  1.00  0.00     0.022 C 
HETATM   15  C1  UNL     1      13.214 225.344  42.431  1.00  0.00     0.007 C 
ENDBRANCH  13  14
ENDBRANCH  12  13
ENDBRANCH   9  12
ENDBRANCH   1   2
BRANCH   1  16
HETATM   16  C11 UNL     1      17.601 223.667  44.950  1.00  0.00    -0.000 C 
HETATM   17  C12 UNL     1      16.664 222.720  44.179  1.00  0.00     0.038 C 
HETATM   18  C13 UNL     1      16.754 221.858  45.431  1.00  0.00     0.188 C 
HETATM   19  C14 UNL     1      16.887 223.140  46.179  1.00  0.00     0.024 C 
BRANCH  18  20
HETATM   20  N1  UNL     1      17.891 221.015  45.308  1.00  0.00    -0.075 N 
ATOM     21  H13 UNL     1      18.532 221.324  44.577  1.00  0.00     0.274 HD
ATOM     22  H12 UNL     1      18.531 221.100  46.098  1.00  0.00     0.274 HD
ATOM     23  H11 UNL     1      17.564 220.060  45.166  1.00  0.00     0.274 HD
ENDBRANCH  18  20
BRANCH  19  24
HETATM   24  C15 UNL     1      17.669 223.223  47.418  1.00  0.00    -0.008 C 
HETATM   25  C16 UNL     1      17.672 224.647  47.931  1.00  0.00     0.005 C 
HETATM   26  C17 UNL     1      17.493 224.565  49.429  1.00  0.00     0.005 C 
HETATM   27  C18 UNL     1      16.757 223.272  49.680  1.00  0.00    -0.018 C 
HETATM   28  C19 UNL     1      15.261 223.427  49.583  1.00  0.00     0.010 C 
HETATM   29  C20 UNL     1      17.307 222.408  48.563  1.00  0.00     0.009 C 
ENDBRANCH  19  24
ENDBRANCH   1  16
TORSDOF 7
ENDMDL
