MODEL 1
REMARK VINA RESULT: -9.992065239      0.000      0.000
REMARK  5 active torsions:
REMARK  status: ('A' for Active; 'I' for Inactive)
REMARK    1  A    between atoms: C4_6  and  C5_7 
REMARK    2  A    between atoms: C5_7  and  N2_8 
REMARK    3  A    between atoms: N2_8  and  C6_11 
REMARK    4  A    between atoms: C9_14  and  C10_15 
REMARK    5  A    between atoms: N5_25  and  C16_26 
ROOT
HETATM    1  C6  UNL     1      18.386 226.041  44.202  1.00  0.00     0.186 C 
HETATM    2  C7  UNL     1      17.034 226.039  43.609  1.00  0.00     0.037 C 
HETATM    3  C8  UNL     1      16.975 226.555  42.159  1.00  0.00     0.040 C 
HETATM    4  C9  UNL     1      18.031 225.746  41.444  1.00  0.00    -0.035 C 
HETATM    5  C20 UNL     1      19.341 226.277  41.852  1.00  0.00     0.040 C 
HETATM    6  C21 UNL     1      19.565 225.878  43.319  1.00  0.00     0.037 C 
ENDROOT
BRANCH   4   7
HETATM    7  C10 UNL     1      17.753 225.370  40.068  1.00  0.00     0.112 A 
HETATM    8  N3  UNL     1      18.728 225.387  39.101  1.00  0.00    -0.326 N 
HETATM    9  C11 UNL     1      18.284 224.929  37.943  1.00  0.00     0.134 A 
ATOM     10  H3  UNL     1      19.681 225.715  39.258  1.00  0.00     0.169 HD
HETATM   11  N4  UNL     1      18.872 224.744  36.746  1.00  0.00    -0.350 N 
HETATM   12  C15 UNL     1      16.963 224.588  38.119  1.00  0.00     0.081 A 
HETATM   13  C12 UNL     1      18.216 224.232  35.694  1.00  0.00     0.090 A 
ATOM     14  H4  UNL     1      19.852 225.002  36.635  1.00  0.00     0.166 HD
HETATM   15  C13 UNL     1      16.904 223.882  35.839  1.00  0.00     0.019 A 
HETATM   16  C14 UNL     1      16.247 224.047  37.041  1.00  0.00     0.035 A 
HETATM   17  N5  UNL     1      16.669 224.871  39.417  1.00  0.00    -0.325 N 
BRANCH  17  18
HETATM   18  C16 UNL     1      15.401 224.703  40.056  1.00  0.00     0.092 C 
HETATM   19  C17 UNL     1      14.439 225.919  39.928  1.00  0.00     0.026 C 
HETATM   20  C18 UNL     1      13.269 224.951  39.770  1.00  0.00     0.004 C 
HETATM   21  C19 UNL     1      14.339 223.977  39.242  1.00  0.00     0.026 C 
ENDBRANCH  17  18
ENDBRANCH   4   7
BRANCH   1  22
HETATM   22  N2  UNL     1      18.470 224.874  45.131  1.00  0.00    -0.067 N 
ATOM     23  H22 UNL     1      18.201 225.122  46.083  1.00  0.00     0.277 HD
ATOM     24  H21 UNL     1      19.435 224.599  45.315  1.00  0.00     0.277 HD
BRANCH  22  25
HETATM   25  C5  UNL     1      17.678 223.771  44.611  1.00  0.00     0.272 C 
BRANCH  25  26
HETATM   26  C4  UNL     1      17.312 222.879  45.765  1.00  0.00    -0.017 A 
HETATM   27  C3  UNL     1      16.537 221.741  45.521  1.00  0.00     0.096 A 
HETATM   28  N1  UNL     1      16.173 220.954  46.535  1.00  0.00    -0.375 N 
HETATM   29  C2  UNL     1      16.512 221.188  47.818  1.00  0.00     0.087 A 
ATOM     30  H1  UNL     1      15.607 220.131  46.328  1.00  0.00     0.164 HD
HETATM   31  C1  UNL     1      17.272 222.295  48.080  1.00  0.00     0.018 A 
HETATM   32  C22 UNL     1      17.674 223.144  47.057  1.00  0.00     0.011 A 
ENDBRANCH  25  26
ENDBRANCH  22  25
ENDBRANCH   1  22
TORSDOF 5
ENDMDL
MODEL 2
REMARK VINA RESULT: -9.458194556      1.672      2.253
REMARK  5 active torsions:
REMARK  status: ('A' for Active; 'I' for Inactive)
REMARK    1  A    between atoms: C4_6  and  C5_7 
REMARK    2  A    between atoms: C5_7  and  N2_8 
REMARK    3  A    between atoms: N2_8  and  C6_11 
REMARK    4  A    between atoms: C9_14  and  C10_15 
REMARK    5  A    between atoms: N5_25  and  C16_26 
ROOT
HETATM    1  C6  UNL     1      18.549 224.644  44.389  1.00  0.00     0.186 C 
HETATM    2  C7  UNL     1      18.680 225.886  43.603  1.00  0.00     0.037 C 
HETATM    3  C8  UNL     1      18.690 225.676  42.078  1.00  0.00     0.040 C 
HETATM    4  C9  UNL     1      17.461 224.836  41.820  1.00  0.00    -0.035 C 
HETATM    5  C20 UNL     1      17.763 223.468  42.270  1.00  0.00     0.040 C 
HETATM    6  C21 UNL     1      17.826 223.490  43.805  1.00  0.00     0.037 C 
ENDROOT
BRANCH   4   7
HETATM    7  C10 UNL     1      16.733 225.093  40.589  1.00  0.00     0.112 A 
HETATM    8  N3  UNL     1      17.377 225.413  39.419  1.00  0.00    -0.326 N 
HETATM    9  C11 UNL     1      16.536 225.523  38.405  1.00  0.00     0.134 A 
ATOM     10  H3  UNL     1      18.385 225.551  39.342  1.00  0.00     0.169 HD
HETATM   11  N4  UNL     1      16.709 225.793  37.098  1.00  0.00    -0.350 N 
HETATM   12  C15 UNL     1      15.274 225.272  38.894  1.00  0.00     0.081 A 
HETATM   13  C12 UNL     1      15.687 225.831  36.230  1.00  0.00     0.090 A 
ATOM     14  H4  UNL     1      17.652 225.976  36.754  1.00  0.00     0.166 HD
HETATM   15  C13 UNL     1      14.424 225.585  36.685  1.00  0.00     0.019 A 
HETATM   16  C14 UNL     1      14.183 225.301  38.013  1.00  0.00     0.035 A 
HETATM   17  N5  UNL     1      15.426 225.019  40.222  1.00  0.00    -0.325 N 
BRANCH  17  18
HETATM   18  C16 UNL     1      14.382 224.728  41.154  1.00  0.00     0.092 C 
HETATM   19  C17 UNL     1      14.552 225.390  42.552  1.00  0.00     0.026 C 
HETATM   20  C18 UNL     1      13.045 225.631  42.598  1.00  0.00     0.004 C 
HETATM   21  C19 UNL     1      13.145 225.609  41.061  1.00  0.00     0.026 C 
ENDBRANCH  17  18
ENDBRANCH   4   7
BRANCH   1  22
HETATM   22  N2  UNL     1      17.767 224.971  45.619  1.00  0.00    -0.067 N 
ATOM     23  H22 UNL     1      16.827 224.576  45.592  1.00  0.00     0.277 HD
ATOM     24  H21 UNL     1      17.512 225.958  45.660  1.00  0.00     0.277 HD
BRANCH  22  25
HETATM   25  C5  UNL     1      18.503 224.548  46.799  1.00  0.00     0.272 C 
BRANCH  25  26
HETATM   26  C4  UNL     1      17.741 223.422  47.442  1.00  0.00    -0.017 A 
HETATM   27  C3  UNL     1      17.059 223.663  48.639  1.00  0.00     0.096 A 
HETATM   28  N1  UNL     1      16.404 222.669  49.243  1.00  0.00    -0.375 N 
HETATM   29  C2  UNL     1      16.353 221.412  48.763  1.00  0.00     0.087 A 
ATOM     30  H1  UNL     1      15.917 222.873  50.115  1.00  0.00     0.164 HD
HETATM   31  C1  UNL     1      17.011 221.153  47.592  1.00  0.00     0.018 A 
HETATM   32  C22 UNL     1      17.707 222.155  46.927  1.00  0.00     0.011 A 
ENDBRANCH  25  26
ENDBRANCH  22  25
ENDBRANCH   1  22
TORSDOF 5
ENDMDL
MODEL 3
REMARK VINA RESULT: -8.806121959      1.561      1.940
REMARK  5 active torsions:
REMARK  status: ('A' for Active; 'I' for Inactive)
REMARK    1  A    between atoms: C4_6  and  C5_7 
REMARK    2  A    between atoms: C5_7  and  N2_8 
REMARK    3  A    between atoms: N2_8  and  C6_11 
REMARK    4  A    between atoms: C9_14  and  C10_15 
REMARK    5  A    between atoms: N5_25  and  C16_26 
ROOT
HETATM    1  C6  UNL     1      18.804 225.109  43.875  1.00  0.00     0.186 C 
HETATM    2  C7  UNL     1      18.047 226.324  43.520  1.00  0.00     0.037 C 
HETATM    3  C8  UNL     1      17.966 226.605  42.008  1.00  0.00     0.040 C 
HETATM    4  C9  UNL     1      17.472 225.303  41.424  1.00  0.00    -0.035 C 
HETATM    5  C20 UNL     1      18.598 224.356  41.450  1.00  0.00     0.040 C 
HETATM    6  C21 UNL     1      18.850 223.978  42.918  1.00  0.00     0.037 C 
ENDROOT
BRANCH   4   7
HETATM    7  C10 UNL     1      16.572 225.390  40.286  1.00  0.00     0.112 A 
HETATM    8  N3  UNL     1      17.022 225.705  39.028  1.00  0.00    -0.326 N 
HETATM    9  C11 UNL     1      16.056 225.647  38.127  1.00  0.00     0.134 A 
ATOM     10  H3  UNL     1      17.988 225.954  38.814  1.00  0.00     0.169 HD
HETATM   11  N4  UNL     1      16.032 225.848  36.797  1.00  0.00    -0.350 N 
HETATM   12  C15 UNL     1      14.905 225.283  38.788  1.00  0.00     0.081 A 
HETATM   13  C12 UNL     1      14.915 225.708  36.069  1.00  0.00     0.090 A 
ATOM     14  H4  UNL     1      16.895 226.117  36.325  1.00  0.00     0.166 HD
HETATM   15  C13 UNL     1      13.758 225.345  36.696  1.00  0.00     0.019 A 
HETATM   16  C14 UNL     1      13.719 225.124  38.057  1.00  0.00     0.035 A 
HETATM   17  N5  UNL     1      15.249 225.138  40.096  1.00  0.00    -0.325 N 
BRANCH  17  18
HETATM   18  C16 UNL     1      14.373 224.789  41.170  1.00  0.00     0.092 C 
HETATM   19  C17 UNL     1      14.541 225.648  42.457  1.00  0.00     0.026 C 
HETATM   20  C18 UNL     1      13.028 225.619  42.650  1.00  0.00     0.004 C 
HETATM   21  C19 UNL     1      12.985 225.414  41.124  1.00  0.00     0.026 C 
ENDBRANCH  17  18
ENDBRANCH   4   7
BRANCH   1  22
HETATM   22  N2  UNL     1      18.166 224.522  45.092  1.00  0.00    -0.067 N 
ATOM     23  H22 UNL     1      17.395 225.096  45.435  1.00  0.00     0.277 HD
ATOM     24  H21 UNL     1      18.772 224.584  45.911  1.00  0.00     0.277 HD
BRANCH  22  25
HETATM   25  C5  UNL     1      17.751 223.156  44.822  1.00  0.00     0.272 C 
BRANCH  25  26
HETATM   26  C4  UNL     1      17.289 222.547  46.118  1.00  0.00    -0.017 A 
HETATM   27  C3  UNL     1      16.468 221.416  46.079  1.00  0.00     0.096 A 
HETATM   28  N1  UNL     1      16.019 220.881  47.217  1.00  0.00    -0.375 N 
HETATM   29  C2  UNL     1      16.315 221.370  48.437  1.00  0.00     0.087 A 
ATOM     30  H1  UNL     1      15.421 220.057  47.159  1.00  0.00     0.164 HD
HETATM   31  C1  UNL     1      17.119 222.475  48.499  1.00  0.00     0.018 A 
HETATM   32  C22 UNL     1      17.609 223.068  47.342  1.00  0.00     0.011 A 
ENDBRANCH  25  26
ENDBRANCH  22  25
ENDBRANCH   1  22
TORSDOF 5
ENDMDL
MODEL 4
REMARK VINA RESULT: -8.708784297      1.813      2.329
REMARK  5 active torsions:
REMARK  status: ('A' for Active; 'I' for Inactive)
REMARK    1  A    between atoms: C4_6  and  C5_7 
REMARK    2  A    between atoms: C5_7  and  N2_8 
REMARK    3  A    between atoms: N2_8  and  C6_11 
REMARK    4  A    between atoms: C9_14  and  C10_15 
REMARK    5  A    between atoms: N5_25  and  C16_26 
ROOT
HETATM    1  C6  UNL     1      18.052 223.719  44.632  1.00  0.00     0.186 C 
HETATM    2  C7  UNL     1      17.182 224.893  44.426  1.00  0.00     0.037 C 
HETATM    3  C8  UNL     1      17.414 225.634  43.097  1.00  0.00     0.040 C 
HETATM    4  C9  UNL     1      17.337 224.541  42.056  1.00  0.00    -0.035 C 
HETATM    5  C20 UNL     1      18.585 223.767  42.141  1.00  0.00     0.040 C 
HETATM    6  C21 UNL     1      18.545 222.969  43.453  1.00  0.00     0.037 C 
ENDROOT
BRANCH   4   7
HETATM    7  C10 UNL     1      16.737 224.889  40.779  1.00  0.00     0.112 A 
HETATM    8  N3  UNL     1      17.499 225.225  39.688  1.00  0.00    -0.326 N 
HETATM    9  C11 UNL     1      16.761 225.422  38.609  1.00  0.00     0.134 A 
ATOM     10  H3  UNL     1      18.516 225.313  39.707  1.00  0.00     0.169 HD
HETATM   11  N4  UNL     1      17.065 225.738  37.337  1.00  0.00    -0.350 N 
HETATM   12  C15 UNL     1      15.449 225.217  38.971  1.00  0.00     0.081 A 
HETATM   13  C12 UNL     1      16.129 225.867  36.385  1.00  0.00     0.090 A 
ATOM     14  H4  UNL     1      18.042 225.886  37.087  1.00  0.00     0.166 HD
HETATM   15  C13 UNL     1      14.819 225.667  36.713  1.00  0.00     0.019 A 
HETATM   16  C14 UNL     1      14.445 225.339  38.000  1.00  0.00     0.035 A 
HETATM   17  N5  UNL     1      15.467 224.899  40.294  1.00  0.00    -0.325 N 
BRANCH  17  18
HETATM   18  C16 UNL     1      14.330 224.623  41.116  1.00  0.00     0.092 C 
HETATM   19  C17 UNL     1      14.092 225.643  42.266  1.00  0.00     0.026 C 
HETATM   20  C18 UNL     1      12.589 225.530  42.028  1.00  0.00     0.004 C 
HETATM   21  C19 UNL     1      12.995 225.137  40.595  1.00  0.00     0.026 C 
ENDBRANCH  17  18
ENDBRANCH   4   7
BRANCH   1  22
HETATM   22  N2  UNL     1      17.267 222.707  45.399  1.00  0.00    -0.067 N 
ATOM     23  H22 UNL     1      16.986 221.918  44.816  1.00  0.00     0.277 HD
ATOM     24  H21 UNL     1      16.337 223.048  45.646  1.00  0.00     0.277 HD
BRANCH  22  25
HETATM   25  C5  UNL     1      18.019 222.280  46.568  1.00  0.00     0.272 C 
BRANCH  25  26
HETATM   26  C4  UNL     1      17.395 222.918  47.778  1.00  0.00    -0.017 A 
HETATM   27  C3  UNL     1      16.433 222.204  48.499  1.00  0.00     0.096 A 
HETATM   28  N1  UNL     1      15.842 222.765  49.556  1.00  0.00    -0.375 N 
HETATM   29  C2  UNL     1      16.118 224.010  49.990  1.00  0.00     0.087 A 
ATOM     30  H1  UNL     1      15.143 222.221  50.063  1.00  0.00     0.164 HD
HETATM   31  C1  UNL     1      17.058 224.727  49.302  1.00  0.00     0.018 A 
HETATM   32  C22 UNL     1      17.699 224.185  48.194  1.00  0.00     0.011 A 
ENDBRANCH  25  26
ENDBRANCH  22  25
ENDBRANCH   1  22
TORSDOF 5
ENDMDL
MODEL 5
REMARK VINA RESULT: -8.121061477      2.768      5.004
REMARK  5 active torsions:
REMARK  status: ('A' for Active; 'I' for Inactive)
REMARK    1  A    between atoms: C4_6  and  C5_7 
REMARK    2  A    between atoms: C5_7  and  N2_8 
REMARK    3  A    between atoms: N2_8  and  C6_11 
REMARK    4  A    between atoms: C9_14  and  C10_15 
REMARK    5  A    between atoms: N5_25  and  C16_26 
ROOT
HETATM    1  C6  UNL     1      18.063 222.951  47.010  1.00  0.00     0.186 C 
HETATM    2  C7  UNL     1      18.137 224.344  46.528  1.00  0.00     0.037 C 
HETATM    3  C8  UNL     1      18.138 224.488  44.995  1.00  0.00     0.040 C 
HETATM    4  C9  UNL     1      16.940 223.681  44.555  1.00  0.00    -0.035 C 
HETATM    5  C20 UNL     1      17.300 222.260  44.679  1.00  0.00     0.040 C 
HETATM    6  C21 UNL     1      17.378 221.932  46.179  1.00  0.00     0.037 C 
ENDROOT
BRANCH   4   7
HETATM    7  C10 UNL     1      16.189 224.183  43.416  1.00  0.00     0.112 A 
HETATM    8  N3  UNL     1      14.822 224.299  43.444  1.00  0.00    -0.326 N 
HETATM    9  C11 UNL     1      14.349 224.854  42.341  1.00  0.00     0.134 A 
ATOM     10  H3  UNL     1      14.239 223.992  44.224  1.00  0.00     0.169 HD
HETATM   11  N4  UNL     1      13.106 225.179  41.941  1.00  0.00    -0.350 N 
HETATM   12  C15 UNL     1      15.426 225.126  41.529  1.00  0.00     0.081 A 
HETATM   13  C12 UNL     1      12.862 225.769  40.761  1.00  0.00     0.090 A 
ATOM     14  H4  UNL     1      12.321 224.970  42.556  1.00  0.00     0.166 HD
HETATM   15  C13 UNL     1      13.910 226.054  39.935  1.00  0.00     0.019 A 
HETATM   16  C14 UNL     1      15.207 225.746  40.290  1.00  0.00     0.035 A 
HETATM   17  N5  UNL     1      16.527 224.704  42.206  1.00  0.00    -0.325 N 
BRANCH  17  18
HETATM   18  C16 UNL     1      17.880 224.760  41.746  1.00  0.00     0.092 C 
HETATM   19  C17 UNL     1      18.050 225.237  40.276  1.00  0.00     0.026 C 
HETATM   20  C18 UNL     1      19.302 226.005  40.691  1.00  0.00     0.004 C 
HETATM   21  C19 UNL     1      18.642 226.034  42.083  1.00  0.00     0.026 C 
ENDBRANCH  17  18
ENDBRANCH   4   7
BRANCH   1  22
HETATM   22  N2  UNL     1      17.282 222.957  48.284  1.00  0.00    -0.067 N 
ATOM     23  H22 UNL     1      17.703 222.356  48.993  1.00  0.00     0.277 HD
ATOM     24  H21 UNL     1      16.389 222.472  48.189  1.00  0.00     0.277 HD
BRANCH  22  25
HETATM   25  C5  UNL     1      17.115 224.322  48.754  1.00  0.00     0.272 C 
BRANCH  25  26
HETATM   26  C4  UNL     1      16.462 224.269  50.108  1.00  0.00    -0.017 A 
HETATM   27  C3  UNL     1      15.068 224.335  50.190  1.00  0.00     0.096 A 
HETATM   28  N1  UNL     1      14.470 224.324  51.383  1.00  0.00    -0.375 N 
HETATM   29  C2  UNL     1      15.140 224.249  52.550  1.00  0.00     0.087 A 
ATOM     30  H1  UNL     1      13.452 224.375  51.414  1.00  0.00     0.164 HD
HETATM   31  C1  UNL     1      16.505 224.180  52.494  1.00  0.00     0.018 A 
HETATM   32  C22 UNL     1      17.171 224.190  51.275  1.00  0.00     0.011 A 
ENDBRANCH  25  26
ENDBRANCH  22  25
ENDBRANCH   1  22
TORSDOF 5
ENDMDL
