MODEL 1
REMARK VINA RESULT: -6.970516602      0.000      0.000
REMARK  12 active torsions:
REMARK  status: ('A' for Active; 'I' for Inactive)
REMARK    1  A    between atoms: C2_2  and  C5_5 
REMARK    2  A    between atoms: C5_5  and  O2_7 
REMARK    3  A    between atoms: O2_7  and  N1_8 
REMARK    4  A    between atoms: N1_8  and  C6_9 
REMARK    5  A    between atoms: C6_9  and  N2_10 
REMARK    6  A    between atoms: C6_9  and  C10_23 
REMARK       I    between atoms: N2_10  and  C7_12 
REMARK    7  A    between atoms: C7_12  and  C8_14 
REMARK    8  A    between atoms: C8_14  and  N3_15 
REMARK    9  A    between atoms: C8_14  and  C9_20 
REMARK   10  A    between atoms: C10_23  and  O7_25 
REMARK   11  A    between atoms: O7_25  and  C11_26 
REMARK   12  A    between atoms: C11_26  and  C12_27 
ROOT
HETATM    1  C6  UNL     1     -41.638   8.549 -18.822  1.00  0.00     0.307 C 
ENDROOT
BRANCH   1   2
HETATM    2  N1  UNL     1     -41.317   9.039 -17.487  1.00  0.00    -0.055 NA
BRANCH   2   3
HETATM    3  O2  UNL     1     -42.329   8.733 -16.643  1.00  0.00    -0.204 OA
BRANCH   3   4
HETATM    4  C5  UNL     1     -42.233   8.715 -15.255  1.00  0.00     0.284 C 
HETATM    5  O1  UNL     1     -41.834   7.708 -14.676  1.00  0.00    -0.263 OA
BRANCH   4   6
HETATM    6  C2  UNL     1     -42.654   9.971 -14.542  1.00  0.00     0.038 C 
HETATM    7  C1  UNL     1     -43.731  10.698 -15.278  1.00  0.00     0.025 C 
HETATM    8  C3  UNL     1     -43.298   9.510 -13.196  1.00  0.00     0.025 C 
HETATM    9  C4  UNL     1     -41.496  10.822 -14.188  1.00  0.00     0.025 C 
ENDBRANCH   4   6
ENDBRANCH   3   4
ENDBRANCH   2   3
ENDBRANCH   1   2
BRANCH   1  10
HETATM   10  N2  UNL     1     -41.943   7.173 -18.815  1.00  0.00    -0.329 N 
HETATM   11  C7  UNL     1     -42.922   6.662 -19.700  1.00  0.00     0.278 C 
HETATM   12  O3  UNL     1     -43.536   7.424 -20.467  1.00  0.00    -0.269 OA
ATOM     13  H2  UNL     1     -41.459   6.547 -18.172  1.00  0.00     0.164 HD
BRANCH  11  14
HETATM   14  C8  UNL     1     -43.214   5.195 -19.702  1.00  0.00     0.346 C 
HETATM   15  S1  UNL     1     -44.885   4.911 -19.195  1.00  0.00    -0.034 SA
BRANCH  14  16
HETATM   16  N3  UNL     1     -42.840   4.642 -20.970  1.00  0.00    -0.041 N 
ATOM     17  H33 UNL     1     -41.871   4.323 -20.981  1.00  0.00     0.277 HD
ATOM     18  H32 UNL     1     -43.290   3.743 -21.147  1.00  0.00     0.277 HD
ATOM     19  H31 UNL     1     -43.032   5.322 -21.704  1.00  0.00     0.277 HD
ENDBRANCH  14  16
BRANCH  14  20
HETATM   20  C9  UNL     1     -42.235   4.654 -18.661  1.00  0.00     0.232 C 
HETATM   21  O4  UNL     1     -42.486   4.660 -17.456  1.00  0.00    -0.645 OA
HETATM   22  O5  UNL     1     -41.021   4.136 -19.074  1.00  0.00    -0.645 OA
ENDBRANCH  14  20
ENDBRANCH  11  14
ENDBRANCH   1  10
BRANCH   1  23
HETATM   23  C10 UNL     1     -40.491   8.907 -19.679  1.00  0.00     0.300 C 
HETATM   24  O6  UNL     1     -39.349   9.162 -19.206  1.00  0.00    -0.261 OA
BRANCH  23  25
HETATM   25  O7  UNL     1     -40.719   8.939 -21.016  1.00  0.00    -0.311 OA
BRANCH  25  26
HETATM   26  C11 UNL     1     -40.358   8.046 -22.012  1.00  0.00     0.258 C 
BRANCH  26  27
HETATM   27  C12 UNL     1     -39.830   6.738 -21.566  1.00  0.00     0.137 A 
HETATM   28  N4  UNL     1     -39.714   5.535 -22.235  1.00  0.00    -0.272 N 
HETATM   29  N5  UNL     1     -39.206   4.973 -21.188  1.00  0.00    -0.240 N 
ATOM     30  H4  UNL     1     -39.940   5.218 -23.178  1.00  0.00     0.190 HD
HETATM   31  N6  UNL     1     -39.304   6.107 -20.521  1.00  0.00    -0.272 N 
ATOM     32  H5  UNL     1     -38.866   4.037 -20.968  1.00  0.00     0.208 HD
ATOM     33  H6  UNL     1     -39.068   6.390 -19.570  1.00  0.00     0.190 HD
ENDBRANCH  26  27
ENDBRANCH  25  26
ENDBRANCH  23  25
ENDBRANCH   1  23
TORSDOF 12
ENDMDL
MODEL 2
REMARK VINA RESULT: -6.884003373      1.588      1.796
REMARK  12 active torsions:
REMARK  status: ('A' for Active; 'I' for Inactive)
REMARK    1  A    between atoms: C2_2  and  C5_5 
REMARK    2  A    between atoms: C5_5  and  O2_7 
REMARK    3  A    between atoms: O2_7  and  N1_8 
REMARK    4  A    between atoms: N1_8  and  C6_9 
REMARK    5  A    between atoms: C6_9  and  N2_10 
REMARK    6  A    between atoms: C6_9  and  C10_23 
REMARK       I    between atoms: N2_10  and  C7_12 
REMARK    7  A    between atoms: C7_12  and  C8_14 
REMARK    8  A    between atoms: C8_14  and  N3_15 
REMARK    9  A    between atoms: C8_14  and  C9_20 
REMARK   10  A    between atoms: C10_23  and  O7_25 
REMARK   11  A    between atoms: O7_25  and  C11_26 
REMARK   12  A    between atoms: C11_26  and  C12_27 
ROOT
HETATM    1  C6  UNL     1     -41.681   8.551 -18.330  1.00  0.00     0.307 C 
ENDROOT
BRANCH   1   2
HETATM    2  N1  UNL     1     -41.365   9.018 -16.986  1.00  0.00    -0.055 NA
BRANCH   2   3
HETATM    3  O2  UNL     1     -42.226   8.460 -16.105  1.00  0.00    -0.204 OA
BRANCH   3   4
HETATM    4  C5  UNL     1     -42.194   8.650 -14.727  1.00  0.00     0.284 C 
HETATM    5  O1  UNL     1     -41.707   7.791 -13.996  1.00  0.00    -0.263 OA
BRANCH   4   6
HETATM    6  C2  UNL     1     -42.792   9.933 -14.217  1.00  0.00     0.038 C 
HETATM    7  C1  UNL     1     -43.982  10.352 -15.017  1.00  0.00     0.025 C 
HETATM    8  C3  UNL     1     -43.333   9.621 -12.786  1.00  0.00     0.025 C 
HETATM    9  C4  UNL     1     -41.774  10.996 -14.063  1.00  0.00     0.025 C 
ENDBRANCH   4   6
ENDBRANCH   3   4
ENDBRANCH   2   3
ENDBRANCH   1   2
BRANCH   1  10
HETATM   10  N2  UNL     1     -41.389   7.181 -18.491  1.00  0.00    -0.329 N 
HETATM   11  C7  UNL     1     -42.332   6.326 -19.109  1.00  0.00     0.278 C 
HETATM   12  O3  UNL     1     -43.430   6.769 -19.489  1.00  0.00    -0.269 OA
ATOM     13  H2  UNL     1     -40.499   6.808 -18.161  1.00  0.00     0.164 HD
BRANCH  11  14
HETATM   14  C8  UNL     1     -41.996   4.881 -19.300  1.00  0.00     0.346 C 
HETATM   15  S1  UNL     1     -42.466   3.957 -17.867  1.00  0.00    -0.034 SA
BRANCH  14  16
HETATM   16  N3  UNL     1     -42.542   4.429 -20.545  1.00  0.00    -0.041 N 
ATOM     17  H33 UNL     1     -43.126   3.601 -20.434  1.00  0.00     0.277 HD
ATOM     18  H32 UNL     1     -43.256   5.062 -20.906  1.00  0.00     0.277 HD
ATOM     19  H31 UNL     1     -41.783   4.281 -21.211  1.00  0.00     0.277 HD
ENDBRANCH  14  16
BRANCH  14  20
HETATM   20  C9  UNL     1     -40.475   4.904 -19.451  1.00  0.00     0.232 C 
HETATM   21  O4  UNL     1     -39.727   4.332 -18.659  1.00  0.00    -0.645 OA
HETATM   22  O5  UNL     1     -39.907   5.589 -20.510  1.00  0.00    -0.645 OA
ENDBRANCH  14  20
ENDBRANCH  11  14
ENDBRANCH   1  10
BRANCH   1  23
HETATM   23  C10 UNL     1     -40.947   9.436 -19.257  1.00  0.00     0.300 C 
HETATM   24  O6  UNL     1     -39.687   9.503 -19.268  1.00  0.00    -0.261 OA
BRANCH  23  25
HETATM   25  O7  UNL     1     -41.697  10.172 -20.114  1.00  0.00    -0.311 OA
BRANCH  25  26
HETATM   26  C11 UNL     1     -42.020   9.953 -21.443  1.00  0.00     0.258 C 
BRANCH  26  27
HETATM   27  C12 UNL     1     -41.728   8.606 -21.981  1.00  0.00     0.137 A 
HETATM   28  N4  UNL     1     -42.568   7.554 -22.287  1.00  0.00    -0.272 N 
HETATM   29  N5  UNL     1     -41.565   6.827 -22.656  1.00  0.00    -0.240 N 
ATOM     30  H4  UNL     1     -43.576   7.408 -22.241  1.00  0.00     0.190 HD
HETATM   31  N6  UNL     1     -40.735   7.813 -22.372  1.00  0.00    -0.272 N 
ATOM     32  H5  UNL     1     -41.458   5.880 -23.019  1.00  0.00     0.208 HD
ATOM     33  H6  UNL     1     -39.723   7.924 -22.430  1.00  0.00     0.190 HD
ENDBRANCH  26  27
ENDBRANCH  25  26
ENDBRANCH  23  25
ENDBRANCH   1  23
TORSDOF 12
ENDMDL
MODEL 3
REMARK VINA RESULT: -6.881713111      0.629      1.373
REMARK  12 active torsions:
REMARK  status: ('A' for Active; 'I' for Inactive)
REMARK    1  A    between atoms: C2_2  and  C5_5 
REMARK    2  A    between atoms: C5_5  and  O2_7 
REMARK    3  A    between atoms: O2_7  and  N1_8 
REMARK    4  A    between atoms: N1_8  and  C6_9 
REMARK    5  A    between atoms: C6_9  and  N2_10 
REMARK    6  A    between atoms: C6_9  and  C10_23 
REMARK       I    between atoms: N2_10  and  C7_12 
REMARK    7  A    between atoms: C7_12  and  C8_14 
REMARK    8  A    between atoms: C8_14  and  N3_15 
REMARK    9  A    between atoms: C8_14  and  C9_20 
REMARK   10  A    between atoms: C10_23  and  O7_25 
REMARK   11  A    between atoms: O7_25  and  C11_26 
REMARK   12  A    between atoms: C11_26  and  C12_27 
ROOT
HETATM    1  C6  UNL     1     -41.639   8.423 -18.774  1.00  0.00     0.307 C 
ENDROOT
BRANCH   1   2
HETATM    2  N1  UNL     1     -41.359   8.869 -17.415  1.00  0.00    -0.055 NA
BRANCH   2   3
HETATM    3  O2  UNL     1     -42.487   8.782 -16.675  1.00  0.00    -0.204 OA
BRANCH   3   4
HETATM    4  C5  UNL     1     -42.977   9.787 -15.846  1.00  0.00     0.284 C 
HETATM    5  O1  UNL     1     -43.638  10.709 -16.317  1.00  0.00    -0.263 OA
BRANCH   4   6
HETATM    6  C2  UNL     1     -42.636   9.671 -14.386  1.00  0.00     0.038 C 
HETATM    7  C1  UNL     1     -42.116   8.315 -14.038  1.00  0.00     0.025 C 
HETATM    8  C3  UNL     1     -41.450  10.656 -14.138  1.00  0.00     0.025 C 
HETATM    9  C4  UNL     1     -43.748  10.122 -13.520  1.00  0.00     0.025 C 
ENDBRANCH   4   6
ENDBRANCH   3   4
ENDBRANCH   2   3
ENDBRANCH   1   2
BRANCH   1  10
HETATM   10  N2  UNL     1     -41.954   7.050 -18.821  1.00  0.00    -0.329 N 
HETATM   11  C7  UNL     1     -42.931   6.580 -19.730  1.00  0.00     0.278 C 
HETATM   12  O3  UNL     1     -43.535   7.375 -20.472  1.00  0.00    -0.269 OA
ATOM     13  H2  UNL     1     -41.478   6.396 -18.200  1.00  0.00     0.164 HD
BRANCH  11  14
HETATM   14  C8  UNL     1     -43.233   5.117 -19.790  1.00  0.00     0.346 C 
HETATM   15  S1  UNL     1     -44.894   4.821 -19.259  1.00  0.00    -0.034 SA
BRANCH  14  16
HETATM   16  N3  UNL     1     -42.890   4.616 -21.088  1.00  0.00    -0.041 N 
ATOM     17  H33 UNL     1     -42.077   5.090 -21.483  1.00  0.00     0.277 HD
ATOM     18  H32 UNL     1     -42.502   3.674 -21.048  1.00  0.00     0.277 HD
ATOM     19  H31 UNL     1     -43.705   4.674 -21.697  1.00  0.00     0.277 HD
ENDBRANCH  14  16
BRANCH  14  20
HETATM   20  C9  UNL     1     -42.236   4.524 -18.795  1.00  0.00     0.232 C 
HETATM   21  O4  UNL     1     -41.154   4.055 -19.148  1.00  0.00    -0.645 OA
HETATM   22  O5  UNL     1     -42.547   4.509 -17.447  1.00  0.00    -0.645 OA
ENDBRANCH  14  20
ENDBRANCH  11  14
ENDBRANCH   1  10
BRANCH   1  23
HETATM   23  C10 UNL     1     -40.461   8.799 -19.582  1.00  0.00     0.300 C 
HETATM   24  O6  UNL     1     -39.328   9.005 -19.066  1.00  0.00    -0.261 OA
BRANCH  23  25
HETATM   25  O7  UNL     1     -40.652   8.902 -20.921  1.00  0.00    -0.311 OA
BRANCH  25  26
HETATM   26  C11 UNL     1     -40.331   8.026 -21.945  1.00  0.00     0.258 C 
BRANCH  26  27
HETATM   27  C12 UNL     1     -39.816   6.699 -21.542  1.00  0.00     0.137 A 
HETATM   28  N4  UNL     1     -39.682   5.526 -22.259  1.00  0.00    -0.272 N 
HETATM   29  N5  UNL     1     -39.204   4.918 -21.224  1.00  0.00    -0.240 N 
ATOM     30  H4  UNL     1     -39.880   5.250 -23.221  1.00  0.00     0.190 HD
HETATM   31  N6  UNL     1     -39.321   6.022 -20.511  1.00  0.00    -0.272 N 
ATOM     32  H5  UNL     1     -38.871   3.972 -21.035  1.00  0.00     0.208 HD
ATOM     33  H6  UNL     1     -39.112   6.263 -19.542  1.00  0.00     0.190 HD
ENDBRANCH  26  27
ENDBRANCH  25  26
ENDBRANCH  23  25
ENDBRANCH   1  23
TORSDOF 12
ENDMDL
MODEL 4
REMARK VINA RESULT: -6.783277241      1.815      2.490
REMARK  12 active torsions:
REMARK  status: ('A' for Active; 'I' for Inactive)
REMARK    1  A    between atoms: C2_2  and  C5_5 
REMARK    2  A    between atoms: C5_5  and  O2_7 
REMARK    3  A    between atoms: O2_7  and  N1_8 
REMARK    4  A    between atoms: N1_8  and  C6_9 
REMARK    5  A    between atoms: C6_9  and  N2_10 
REMARK    6  A    between atoms: C6_9  and  C10_23 
REMARK       I    between atoms: N2_10  and  C7_12 
REMARK    7  A    between atoms: C7_12  and  C8_14 
REMARK    8  A    between atoms: C8_14  and  N3_15 
REMARK    9  A    between atoms: C8_14  and  C9_20 
REMARK   10  A    between atoms: C10_23  and  O7_25 
REMARK   11  A    between atoms: O7_25  and  C11_26 
REMARK   12  A    between atoms: C11_26  and  C12_27 
ROOT
HETATM    1  C6  UNL     1     -42.548   7.787 -16.762  1.00  0.00     0.307 C 
ENDROOT
BRANCH   1   2
HETATM    2  N1  UNL     1     -41.720   7.585 -15.579  1.00  0.00    -0.055 NA
BRANCH   2   3
HETATM    3  O2  UNL     1     -42.412   7.963 -14.480  1.00  0.00    -0.204 OA
BRANCH   3   4
HETATM    4  C5  UNL     1     -41.854   8.544 -13.345  1.00  0.00     0.284 C 
HETATM    5  O1  UNL     1     -41.157   7.874 -12.587  1.00  0.00    -0.263 OA
BRANCH   4   6
HETATM    6  C2  UNL     1     -42.170   9.997 -13.117  1.00  0.00     0.038 C 
HETATM    7  C1  UNL     1     -41.453  10.884 -14.080  1.00  0.00     0.025 C 
HETATM    8  C3  UNL     1     -43.689  10.166 -13.435  1.00  0.00     0.025 C 
HETATM    9  C4  UNL     1     -41.988  10.387 -11.701  1.00  0.00     0.025 C 
ENDBRANCH   4   6
ENDBRANCH   3   4
ENDBRANCH   2   3
ENDBRANCH   1   2
BRANCH   1  10
HETATM   10  N2  UNL     1     -42.428   6.718 -17.673  1.00  0.00    -0.329 N 
HETATM   11  C7  UNL     1     -43.298   5.606 -17.575  1.00  0.00     0.278 C 
HETATM   12  O3  UNL     1     -44.152   5.552 -16.673  1.00  0.00    -0.269 OA
ATOM     13  H2  UNL     1     -41.715   6.746 -18.401  1.00  0.00     0.164 HD
BRANCH  11  14
HETATM   14  C8  UNL     1     -43.179   4.493 -18.567  1.00  0.00     0.346 C 
HETATM   15  S1  UNL     1     -42.954   2.954 -17.723  1.00  0.00    -0.034 SA
BRANCH  14  16
HETATM   16  N3  UNL     1     -44.282   4.553 -19.479  1.00  0.00    -0.041 N 
ATOM     17  H33 UNL     1     -45.165   4.298 -19.036  1.00  0.00     0.277 HD
ATOM     18  H32 UNL     1     -44.521   5.512 -19.734  1.00  0.00     0.277 HD
ATOM     19  H31 UNL     1     -44.077   3.976 -20.294  1.00  0.00     0.277 HD
ENDBRANCH  14  16
BRANCH  14  20
HETATM   20  C9  UNL     1     -41.921   4.869 -19.348  1.00  0.00     0.232 C 
HETATM   21  O4  UNL     1     -41.970   5.421 -20.447  1.00  0.00    -0.645 OA
HETATM   22  O5  UNL     1     -40.677   4.584 -18.813  1.00  0.00    -0.645 OA
ENDBRANCH  14  20
ENDBRANCH  11  14
ENDBRANCH   1  10
BRANCH   1  23
HETATM   23  C10 UNL     1     -42.159   9.098 -17.318  1.00  0.00     0.300 C 
HETATM   24  O6  UNL     1     -42.918  10.105 -17.265  1.00  0.00    -0.261 OA
BRANCH  23  25
HETATM   25  O7  UNL     1     -40.929   9.175 -17.885  1.00  0.00    -0.311 OA
BRANCH  25  26
HETATM   26  C11 UNL     1     -40.559   9.408 -19.200  1.00  0.00     0.258 C 
BRANCH  26  27
HETATM   27  C12 UNL     1     -40.037   8.248 -19.955  1.00  0.00     0.137 A 
HETATM   28  N4  UNL     1     -39.274   7.173 -19.546  1.00  0.00    -0.272 N 
HETATM   29  N5  UNL     1     -39.266   6.689 -20.744  1.00  0.00    -0.240 N 
ATOM     30  H4  UNL     1     -38.875   6.878 -18.654  1.00  0.00     0.190 HD
HETATM   31  N6  UNL     1     -39.994   7.705 -21.168  1.00  0.00    -0.272 N 
ATOM     32  H5  UNL     1     -38.863   5.861 -21.183  1.00  0.00     0.208 HD
ATOM     33  H6  UNL     1     -40.377   7.971 -22.076  1.00  0.00     0.190 HD
ENDBRANCH  26  27
ENDBRANCH  25  26
ENDBRANCH  23  25
ENDBRANCH   1  23
TORSDOF 12
ENDMDL
MODEL 5
REMARK VINA RESULT: -6.762352010      2.575      4.048
REMARK  12 active torsions:
REMARK  status: ('A' for Active; 'I' for Inactive)
REMARK    1  A    between atoms: C2_2  and  C5_5 
REMARK    2  A    between atoms: C5_5  and  O2_7 
REMARK    3  A    between atoms: O2_7  and  N1_8 
REMARK    4  A    between atoms: N1_8  and  C6_9 
REMARK    5  A    between atoms: C6_9  and  N2_10 
REMARK    6  A    between atoms: C6_9  and  C10_23 
REMARK       I    between atoms: N2_10  and  C7_12 
REMARK    7  A    between atoms: C7_12  and  C8_14 
REMARK    8  A    between atoms: C8_14  and  N3_15 
REMARK    9  A    between atoms: C8_14  and  C9_20 
REMARK   10  A    between atoms: C10_23  and  O7_25 
REMARK   11  A    between atoms: O7_25  and  C11_26 
REMARK   12  A    between atoms: C11_26  and  C12_27 
ROOT
HETATM    1  C6  UNL     1     -40.961   9.264 -19.017  1.00  0.00     0.307 C 
ENDROOT
BRANCH   1   2
HETATM    2  N1  UNL     1     -41.401   8.477 -17.872  1.00  0.00    -0.055 NA
BRANCH   2   3
HETATM    3  O2  UNL     1     -41.360   9.245 -16.760  1.00  0.00    -0.204 OA
BRANCH   3   4
HETATM    4  C5  UNL     1     -42.474   9.763 -16.105  1.00  0.00     0.284 C 
HETATM    5  O1  UNL     1     -43.374  10.298 -16.747  1.00  0.00    -0.263 OA
BRANCH   4   6
HETATM    6  C2  UNL     1     -42.483   9.639 -14.607  1.00  0.00     0.038 C 
HETATM    7  C1  UNL     1     -41.969   8.312 -14.151  1.00  0.00     0.025 C 
HETATM    8  C3  UNL     1     -41.461  10.694 -14.077  1.00  0.00     0.025 C 
HETATM    9  C4  UNL     1     -43.798   9.996 -14.030  1.00  0.00     0.025 C 
ENDBRANCH   4   6
ENDBRANCH   3   4
ENDBRANCH   2   3
ENDBRANCH   1   2
BRANCH   1  10
HETATM   10  N2  UNL     1     -41.997   9.450 -19.954  1.00  0.00    -0.329 N 
HETATM   11  C7  UNL     1     -42.150  10.700 -20.600  1.00  0.00     0.278 C 
HETATM   12  O3  UNL     1     -41.391  11.646 -20.327  1.00  0.00    -0.269 OA
ATOM     13  H2  UNL     1     -42.637   8.684 -20.167  1.00  0.00     0.164 HD
BRANCH  11  14
HETATM   14  C8  UNL     1     -43.235  10.874 -21.615  1.00  0.00     0.346 C 
HETATM   15  S1  UNL     1     -44.642   9.901 -21.166  1.00  0.00    -0.034 SA
BRANCH  14  16
HETATM   16  N3  UNL     1     -43.475  12.272 -21.815  1.00  0.00    -0.041 N 
ATOM     17  H33 UNL     1     -43.573  12.777 -20.934  1.00  0.00     0.277 HD
ATOM     18  H32 UNL     1     -42.652  12.759 -22.170  1.00  0.00     0.277 HD
ATOM     19  H31 UNL     1     -44.287  12.390 -22.421  1.00  0.00     0.277 HD
ENDBRANCH  14  16
BRANCH  14  20
HETATM   20  C9  UNL     1     -42.592  10.335 -22.893  1.00  0.00     0.232 C 
HETATM   21  O4  UNL     1     -41.569   9.652 -22.877  1.00  0.00    -0.645 OA
HETATM   22  O5  UNL     1     -43.172  10.617 -24.117  1.00  0.00    -0.645 OA
ENDBRANCH  14  20
ENDBRANCH  11  14
ENDBRANCH   1  10
BRANCH   1  23
HETATM   23  C10 UNL     1     -39.775   8.573 -19.561  1.00  0.00     0.300 C 
HETATM   24  O6  UNL     1     -38.621   8.730 -19.074  1.00  0.00    -0.261 OA
BRANCH  23  25
HETATM   25  O7  UNL     1     -39.986   7.743 -20.612  1.00  0.00    -0.311 OA
BRANCH  25  26
HETATM   26  C11 UNL     1     -40.537   6.472 -20.658  1.00  0.00     0.258 C 
BRANCH  26  27
HETATM   27  C12 UNL     1     -40.171   5.553 -19.559  1.00  0.00     0.137 A 
HETATM   28  N4  UNL     1     -39.292   4.489 -19.525  1.00  0.00    -0.272 N 
HETATM   29  N5  UNL     1     -39.574   4.262 -18.284  1.00  0.00    -0.240 N 
ATOM     30  H4  UNL     1     -38.669   4.056 -20.207  1.00  0.00     0.190 HD
HETATM   31  N6  UNL     1     -40.423   5.272 -18.284  1.00  0.00    -0.272 N 
ATOM     32  H5  UNL     1     -39.265   3.581 -17.590  1.00  0.00     0.208 HD
ATOM     33  H6  UNL     1     -41.036   5.679 -17.578  1.00  0.00     0.190 HD
ENDBRANCH  26  27
ENDBRANCH  25  26
ENDBRANCH  23  25
ENDBRANCH   1  23
TORSDOF 12
ENDMDL
