MODEL 1
REMARK VINA RESULT: -7.833928896      0.000      0.000
REMARK  9 active torsions:
REMARK  status: ('A' for Active; 'I' for Inactive)
REMARK    1  A    between atoms: O1_2  and  C2_3 
REMARK    2  A    between atoms: C2_3  and  O2_4 
REMARK    3  A    between atoms: O2_4  and  N1_5 
REMARK    4  A    between atoms: N1_5  and  C3_7 
REMARK    5  A    between atoms: C4_8  and  C5_9 
REMARK    6  A    between atoms: C5_9  and  O3_10 
REMARK    7  A    between atoms: C5_9  and  C6_12 
REMARK    8  A    between atoms: C6_12  and  N2_13 
REMARK    9  A    between atoms: C9_20  and  N5_21 
ROOT
HETATM    1  N2  UNL     1     -42.789   2.521 -20.303  1.00  0.00    -0.285 N 
HETATM    2  N3  UNL     1     -42.179   1.441 -20.763  1.00  0.00    -0.307 N 
ATOM      3  H3  UNL     1     -41.235   1.175 -20.485  1.00  0.00     0.186 HD
HETATM    4  C7  UNL     1     -42.902   0.738 -21.615  1.00  0.00     0.139 A 
HETATM    5  C8  UNL     1     -44.100   1.399 -21.738  1.00  0.00     0.097 A 
HETATM    6  N4  UNL     1     -45.205   1.134 -22.470  1.00  0.00    -0.188 N 
ATOM      7  H4  UNL     1     -45.244   0.310 -23.069  1.00  0.00     0.184 HD
HETATM    8  C9  UNL     1     -46.236   1.964 -22.395  1.00  0.00     0.677 A 
HETATM    9  N6  UNL     1     -46.171   3.036 -21.607  1.00  0.00    -0.180 N 
ATOM     10  H6  UNL     1     -46.977   3.660 -21.565  1.00  0.00     0.185 HD
HETATM   11  C10 UNL     1     -45.069   3.339 -20.849  1.00  0.00     0.160 A 
HETATM   12  C11 UNL     1     -45.080   4.516 -20.026  1.00  0.00     0.120 C 
HETATM   13  N7  UNL     1     -45.121   5.493 -19.362  1.00  0.00    -0.190 NA
HETATM   14  C12 UNL     1     -44.005   2.509 -20.910  1.00  0.00     0.117 A 
ENDROOT
BRANCH   8  15
HETATM   15  N5  UNL     1     -47.307   1.726 -23.096  1.00  0.00    -0.234 N 
ATOM     16  H52 UNL     1     -47.376   0.882 -23.664  1.00  0.00     0.174 HD
ATOM     17  H51 UNL     1     -48.083   2.388 -23.073  1.00  0.00     0.174 HD
ENDBRANCH   8  15
BRANCH   1  18
HETATM   18  C6  UNL     1     -42.250   3.448 -19.370  1.00  0.00     0.187 C 
BRANCH  18  19
HETATM   19  C5  UNL     1     -41.382   4.530 -20.018  1.00  0.00     0.190 C 
BRANCH  19  20
HETATM   20  C4  UNL     1     -41.417   5.773 -19.221  1.00  0.00     0.078 A 
HETATM   21  C3  UNL     1     -40.596   6.854 -19.470  1.00  0.00     0.147 A 
HETATM   22  C14 UNL     1     -40.645   7.998 -18.722  1.00  0.00     0.280 A 
HETATM   23  N9  UNL     1     -41.508   8.125 -17.694  1.00  0.00    -0.273 N 
HETATM   24  O5  UNL     1     -39.896   9.009 -18.933  1.00  0.00    -0.265 OA
HETATM   25  C13 UNL     1     -42.306   7.078 -17.448  1.00  0.00     0.327 A 
ATOM     26  H9  UNL     1     -41.552   8.975 -17.133  1.00  0.00     0.173 HD
HETATM   27  N8  UNL     1     -42.275   5.948 -18.167  1.00  0.00    -0.307 N 
HETATM   28  O4  UNL     1     -43.125   7.168 -16.490  1.00  0.00    -0.247 OA
ATOM     29  H8  UNL     1     -42.913   5.192 -17.921  1.00  0.00     0.170 HD
BRANCH  21  30
HETATM   30  N1  UNL     1     -39.672   6.781 -20.541  1.00  0.00    -0.257 N 
ATOM     31  H1  UNL     1     -38.669   6.839 -20.361  1.00  0.00     0.194 HD
BRANCH  30  32
HETATM   32  O2  UNL     1     -40.131   6.632 -21.807  1.00  0.00    -0.254 OA
BRANCH  32  33
HETATM   33  C2  UNL     1     -40.551   7.924 -22.215  1.00  0.00     0.369 C 
BRANCH  33  34
HETATM   34  O1  UNL     1     -41.834   7.832 -22.675  1.00  0.00    -0.369 OA
HETATM   35  C1  UNL     1     -42.715   8.643 -21.995  1.00  0.00     0.204 C 
ENDBRANCH  33  34
ENDBRANCH  32  33
ENDBRANCH  30  32
ENDBRANCH  21  30
ENDBRANCH  19  20
BRANCH  19  36
HETATM   36  O3  UNL     1     -40.047   4.047 -20.055  1.00  0.00    -0.388 OA
ATOM     37  H3  UNL     1     -40.053   3.116 -19.870  1.00  0.00     0.210 HD
ENDBRANCH  19  36
ENDBRANCH  18  19
ENDBRANCH   1  18
TORSDOF 9
ENDMDL
MODEL 2
REMARK VINA RESULT: -7.424355115      2.840      6.818
REMARK  9 active torsions:
REMARK  status: ('A' for Active; 'I' for Inactive)
REMARK    1  A    between atoms: O1_2  and  C2_3 
REMARK    2  A    between atoms: C2_3  and  O2_4 
REMARK    3  A    between atoms: O2_4  and  N1_5 
REMARK    4  A    between atoms: N1_5  and  C3_7 
REMARK    5  A    between atoms: C4_8  and  C5_9 
REMARK    6  A    between atoms: C5_9  and  O3_10 
REMARK    7  A    between atoms: C5_9  and  C6_12 
REMARK    8  A    between atoms: C6_12  and  N2_13 
REMARK    9  A    between atoms: C9_20  and  N5_21 
ROOT
HETATM    1  N2  UNL     1     -41.236   4.536 -19.511  1.00  0.00    -0.285 N 
HETATM    2  N3  UNL     1     -40.380   4.170 -20.451  1.00  0.00    -0.307 N 
ATOM      3  H3  UNL     1     -40.346   3.226 -20.834  1.00  0.00     0.186 HD
HETATM    4  C7  UNL     1     -39.573   5.136 -20.848  1.00  0.00     0.139 A 
HETATM    5  C8  UNL     1     -39.915   6.247 -20.115  1.00  0.00     0.097 A 
HETATM    6  N4  UNL     1     -39.426   7.506 -20.106  1.00  0.00    -0.188 N 
ATOM      7  H4  UNL     1     -38.660   7.770 -20.726  1.00  0.00     0.184 HD
HETATM    8  C9  UNL     1     -39.957   8.394 -19.275  1.00  0.00     0.677 A 
HETATM    9  N6  UNL     1     -40.957   8.035 -18.471  1.00  0.00    -0.180 N 
ATOM     10  H6  UNL     1     -41.350   8.735 -17.841  1.00  0.00     0.185 HD
HETATM   11  C10 UNL     1     -41.481   6.768 -18.451  1.00  0.00     0.160 A 
HETATM   12  C11 UNL     1     -42.560   6.464 -17.553  1.00  0.00     0.120 C 
HETATM   13  N7  UNL     1     -43.444   6.247 -16.799  1.00  0.00    -0.190 NA
HETATM   14  C12 UNL     1     -40.956   5.846 -19.287  1.00  0.00     0.117 A 
ENDROOT
BRANCH   8  15
HETATM   15  N5  UNL     1     -39.496   9.610 -19.250  1.00  0.00    -0.234 N 
ATOM     16  H52 UNL     1     -39.222  10.077 -20.114  1.00  0.00     0.174 HD
ATOM     17  H51 UNL     1     -39.410  10.099 -18.359  1.00  0.00     0.174 HD
ENDBRANCH   8  15
BRANCH   1  18
HETATM   18  C6  UNL     1     -42.221   3.704 -18.912  1.00  0.00     0.187 C 
BRANCH  18  19
HETATM   19  C5  UNL     1     -43.626   3.920 -19.478  1.00  0.00     0.190 C 
BRANCH  19  20
HETATM   20  C4  UNL     1     -43.956   2.873 -20.466  1.00  0.00     0.078 A 
HETATM   21  C3  UNL     1     -45.154   2.833 -21.152  1.00  0.00     0.147 A 
HETATM   22  C14 UNL     1     -45.441   1.857 -22.066  1.00  0.00     0.280 A 
HETATM   23  N9  UNL     1     -44.557   0.876 -22.343  1.00  0.00    -0.273 N 
HETATM   24  O5  UNL     1     -46.540   1.799 -22.712  1.00  0.00    -0.265 OA
HETATM   25  C13 UNL     1     -43.395   0.911 -21.678  1.00  0.00     0.327 A 
ATOM     26  H9  UNL     1     -44.763   0.146 -23.024  1.00  0.00     0.173 HD
HETATM   27  N8  UNL     1     -43.093   1.857 -20.779  1.00  0.00    -0.307 N 
HETATM   28  O4  UNL     1     -42.548   0.005 -21.916  1.00  0.00    -0.247 OA
ATOM     29  H8  UNL     1     -42.187   1.819 -20.312  1.00  0.00     0.170 HD
BRANCH  21  30
HETATM   30  N1  UNL     1     -46.119   3.840 -20.907  1.00  0.00    -0.257 N 
ATOM     31  H1  UNL     1     -46.114   4.703 -21.453  1.00  0.00     0.194 HD
BRANCH  30  32
HETATM   32  O2  UNL     1     -47.050   3.649 -19.942  1.00  0.00    -0.254 OA
BRANCH  32  33
HETATM   33  C2  UNL     1     -47.567   4.937 -19.649  1.00  0.00     0.369 C 
BRANCH  33  34
HETATM   34  O1  UNL     1     -46.736   5.537 -18.747  1.00  0.00    -0.369 OA
HETATM   35  C1  UNL     1     -46.464   6.854 -19.050  1.00  0.00     0.204 C 
ENDBRANCH  33  34
ENDBRANCH  32  33
ENDBRANCH  30  32
ENDBRANCH  21  30
ENDBRANCH  19  20
BRANCH  19  36
HETATM   36  O3  UNL     1     -44.544   3.836 -18.397  1.00  0.00    -0.388 OA
ATOM     37  H3  UNL     1     -44.155   3.314 -17.706  1.00  0.00     0.210 HD
ENDBRANCH  19  36
ENDBRANCH  18  19
ENDBRANCH   1  18
TORSDOF 9
ENDMDL
MODEL 3
REMARK VINA RESULT: -7.393607852      7.209      9.330
REMARK  9 active torsions:
REMARK  status: ('A' for Active; 'I' for Inactive)
REMARK    1  A    between atoms: O1_2  and  C2_3 
REMARK    2  A    between atoms: C2_3  and  O2_4 
REMARK    3  A    between atoms: O2_4  and  N1_5 
REMARK    4  A    between atoms: N1_5  and  C3_7 
REMARK    5  A    between atoms: C4_8  and  C5_9 
REMARK    6  A    between atoms: C5_9  and  O3_10 
REMARK    7  A    between atoms: C5_9  and  C6_12 
REMARK    8  A    between atoms: C6_12  and  N2_13 
REMARK    9  A    between atoms: C9_20  and  N5_21 
ROOT
HETATM    1  N2  UNL     1     -43.009   1.224 -14.401  1.00  0.00    -0.285 N 
HETATM    2  N3  UNL     1     -43.571   0.768 -13.294  1.00  0.00    -0.307 N 
ATOM      3  H3  UNL     1     -43.057   0.250 -12.583  1.00  0.00     0.186 HD
HETATM    4  C7  UNL     1     -44.858   1.044 -13.193  1.00  0.00     0.139 A 
HETATM    5  C8  UNL     1     -45.190   1.746 -14.326  1.00  0.00     0.097 A 
HETATM    6  N4  UNL     1     -46.360   2.276 -14.748  1.00  0.00    -0.188 N 
ATOM      7  H4  UNL     1     -47.204   2.186 -14.182  1.00  0.00     0.184 HD
HETATM    8  C9  UNL     1     -46.391   2.914 -15.910  1.00  0.00     0.677 A 
HETATM    9  N6  UNL     1     -45.280   3.024 -16.638  1.00  0.00    -0.180 N 
ATOM     10  H6  UNL     1     -45.329   3.520 -17.528  1.00  0.00     0.185 HD
HETATM   11  C10 UNL     1     -44.075   2.501 -16.244  1.00  0.00     0.160 A 
HETATM   12  C11 UNL     1     -42.926   2.665 -17.089  1.00  0.00     0.120 C 
HETATM   13  N7  UNL     1     -42.000   2.814 -17.809  1.00  0.00    -0.190 NA
HETATM   14  C12 UNL     1     -44.019   1.846 -15.065  1.00  0.00     0.117 A 
ENDROOT
BRANCH   8  15
HETATM   15  N5  UNL     1     -47.510   3.427 -16.334  1.00  0.00    -0.234 N 
ATOM     16  H52 UNL     1     -47.745   3.402 -17.326  1.00  0.00     0.174 HD
ATOM     17  H51 UNL     1     -48.155   3.853 -15.669  1.00  0.00     0.174 HD
ENDBRANCH   8  15
BRANCH   1  18
HETATM   18  C6  UNL     1     -41.641   1.081 -14.760  1.00  0.00     0.187 C 
BRANCH  18  19
HETATM   19  C5  UNL     1     -40.852   0.180 -13.807  1.00  0.00     0.190 C 
BRANCH  19  20
HETATM   20  C4  UNL     1     -39.428   0.131 -14.195  1.00  0.00     0.078 A 
HETATM   21  C3  UNL     1     -38.584  -0.903 -13.841  1.00  0.00     0.147 A 
HETATM   22  C14 UNL     1     -37.268  -0.933 -14.213  1.00  0.00     0.280 A 
HETATM   23  N9  UNL     1     -36.727   0.057 -14.951  1.00  0.00    -0.273 N 
HETATM   24  O5  UNL     1     -36.469  -1.877 -13.898  1.00  0.00    -0.265 OA
HETATM   25  C13 UNL     1     -37.543   1.062 -15.296  1.00  0.00     0.327 A 
ATOM     26  H9  UNL     1     -35.748   0.042 -15.234  1.00  0.00     0.173 HD
HETATM   27  N8  UNL     1     -38.834   1.112 -14.943  1.00  0.00    -0.307 N 
HETATM   28  O4  UNL     1     -37.064   2.005 -15.987  1.00  0.00    -0.247 OA
ATOM     29  H8  UNL     1     -39.394   1.910 -15.242  1.00  0.00     0.170 HD
BRANCH  21  30
HETATM   30  N1  UNL     1     -39.097  -1.975 -13.070  1.00  0.00    -0.257 N 
ATOM     31  H1  UNL     1     -39.420  -2.829 -13.526  1.00  0.00     0.194 HD
BRANCH  30  32
HETATM   32  O2  UNL     1     -39.156  -1.856 -11.722  1.00  0.00    -0.254 OA
BRANCH  32  33
HETATM   33  C2  UNL     1     -39.489  -3.147 -11.238  1.00  0.00     0.369 C 
BRANCH  33  34
HETATM   34  O1  UNL     1     -40.541  -3.620 -11.970  1.00  0.00    -0.369 OA
HETATM   35  C1  UNL     1     -40.766  -4.967 -11.790  1.00  0.00     0.204 C 
ENDBRANCH  33  34
ENDBRANCH  32  33
ENDBRANCH  30  32
ENDBRANCH  21  30
ENDBRANCH  19  20
BRANCH  19  36
HETATM   36  O3  UNL     1     -40.953   0.738 -12.504  1.00  0.00    -0.388 OA
ATOM     37  H3  UNL     1     -41.380   1.583 -12.566  1.00  0.00     0.210 HD
ENDBRANCH  19  36
ENDBRANCH  18  19
ENDBRANCH   1  18
TORSDOF 9
ENDMDL
MODEL 4
REMARK VINA RESULT: -7.392659011      1.097      2.318
REMARK  9 active torsions:
REMARK  status: ('A' for Active; 'I' for Inactive)
REMARK    1  A    between atoms: O1_2  and  C2_3 
REMARK    2  A    between atoms: C2_3  and  O2_4 
REMARK    3  A    between atoms: O2_4  and  N1_5 
REMARK    4  A    between atoms: N1_5  and  C3_7 
REMARK    5  A    between atoms: C4_8  and  C5_9 
REMARK    6  A    between atoms: C5_9  and  O3_10 
REMARK    7  A    between atoms: C5_9  and  C6_12 
REMARK    8  A    between atoms: C6_12  and  N2_13 
REMARK    9  A    between atoms: C9_20  and  N5_21 
ROOT
HETATM    1  N2  UNL     1     -44.794   3.389 -20.269  1.00  0.00    -0.285 N 
HETATM    2  N3  UNL     1     -45.792   4.245 -20.121  1.00  0.00    -0.307 N 
ATOM      3  H3  UNL     1     -45.778   5.002 -19.438  1.00  0.00     0.186 HD
HETATM    4  C7  UNL     1     -46.807   4.031 -20.936  1.00  0.00     0.139 A 
HETATM    5  C8  UNL     1     -46.464   2.940 -21.698  1.00  0.00     0.097 A 
HETATM    6  N4  UNL     1     -47.119   2.287 -22.683  1.00  0.00    -0.188 N 
ATOM      7  H4  UNL     1     -48.046   2.592 -22.981  1.00  0.00     0.184 HD
HETATM    8  C9  UNL     1     -46.537   1.241 -23.255  1.00  0.00     0.677 A 
HETATM    9  N6  UNL     1     -45.326   0.854 -22.856  1.00  0.00    -0.180 N 
ATOM     10  H6  UNL     1     -44.899   0.048 -23.311  1.00  0.00     0.185 HD
HETATM   11  C10 UNL     1     -44.630   1.491 -21.861  1.00  0.00     0.160 A 
HETATM   12  C11 UNL     1     -43.329   1.009 -21.491  1.00  0.00     0.120 C 
HETATM   13  N7  UNL     1     -42.262   0.584 -21.208  1.00  0.00    -0.190 NA
HETATM   14  C12 UNL     1     -45.203   2.558 -21.262  1.00  0.00     0.117 A 
ENDROOT
BRANCH   8  15
HETATM   15  N5  UNL     1     -47.155   0.597 -24.202  1.00  0.00    -0.234 N 
ATOM     16  H52 UNL     1     -46.676   0.380 -25.076  1.00  0.00     0.174 HD
ATOM     17  H51 UNL     1     -48.123   0.306 -24.067  1.00  0.00     0.174 HD
ENDBRANCH   8  15
BRANCH   1  18
HETATM   18  C6  UNL     1     -43.577   3.394 -19.533  1.00  0.00     0.187 C 
BRANCH  18  19
HETATM   19  C5  UNL     1     -42.515   4.328 -20.118  1.00  0.00     0.190 C 
BRANCH  19  20
HETATM   20  C4  UNL     1     -42.280   5.476 -19.220  1.00  0.00     0.078 A 
HETATM   21  C3  UNL     1     -41.420   6.512 -19.527  1.00  0.00     0.147 A 
HETATM   22  C14 UNL     1     -41.218   7.569 -18.683  1.00  0.00     0.280 A 
HETATM   23  N9  UNL     1     -41.856   7.651 -17.498  1.00  0.00    -0.273 N 
HETATM   24  O5  UNL     1     -40.429   8.537 -18.945  1.00  0.00    -0.265 OA
HETATM   25  C13 UNL     1     -42.690   6.647 -17.196  1.00  0.00     0.327 A 
ATOM     26  H9  UNL     1     -41.711   8.436 -16.864  1.00  0.00     0.173 HD
HETATM   27  N8  UNL     1     -42.904   5.603 -18.006  1.00  0.00    -0.307 N 
HETATM   28  O4  UNL     1     -43.302   6.696 -16.092  1.00  0.00    -0.247 OA
ATOM     29  H8  UNL     1     -43.554   4.875 -17.710  1.00  0.00     0.170 HD
BRANCH  21  30
HETATM   30  N1  UNL     1     -40.726   6.484 -20.761  1.00  0.00    -0.257 N 
ATOM     31  H1  UNL     1     -39.753   6.177 -20.798  1.00  0.00     0.194 HD
BRANCH  30  32
HETATM   32  O2  UNL     1     -41.364   6.868 -21.893  1.00  0.00    -0.254 OA
BRANCH  32  33
HETATM   33  C2  UNL     1     -40.689   8.034 -22.336  1.00  0.00     0.369 C 
BRANCH  33  34
HETATM   34  O1  UNL     1     -41.620   8.915 -22.807  1.00  0.00    -0.369 OA
HETATM   35  C1  UNL     1     -42.297   9.577 -21.806  1.00  0.00     0.204 C 
ENDBRANCH  33  34
ENDBRANCH  32  33
ENDBRANCH  30  32
ENDBRANCH  21  30
ENDBRANCH  19  20
BRANCH  19  36
HETATM   36  O3  UNL     1     -41.309   3.588 -20.240  1.00  0.00    -0.388 OA
ATOM     37  H3  UNL     1     -41.171   3.095 -19.440  1.00  0.00     0.210 HD
ENDBRANCH  19  36
ENDBRANCH  18  19
ENDBRANCH   1  18
TORSDOF 9
ENDMDL
MODEL 5
REMARK VINA RESULT: -7.380720831      1.777      4.157
REMARK  9 active torsions:
REMARK  status: ('A' for Active; 'I' for Inactive)
REMARK    1  A    between atoms: O1_2  and  C2_3 
REMARK    2  A    between atoms: C2_3  and  O2_4 
REMARK    3  A    between atoms: O2_4  and  N1_5 
REMARK    4  A    between atoms: N1_5  and  C3_7 
REMARK    5  A    between atoms: C4_8  and  C5_9 
REMARK    6  A    between atoms: C5_9  and  O3_10 
REMARK    7  A    between atoms: C5_9  and  C6_12 
REMARK    8  A    between atoms: C6_12  and  N2_13 
REMARK    9  A    between atoms: C9_20  and  N5_21 
ROOT
HETATM    1  N2  UNL     1     -44.447   4.746 -19.933  1.00  0.00    -0.285 N 
HETATM    2  N3  UNL     1     -45.669   4.803 -20.436  1.00  0.00    -0.307 N 
ATOM      3  H3  UNL     1     -46.308   5.578 -20.257  1.00  0.00     0.186 HD
HETATM    4  C7  UNL     1     -45.990   3.768 -21.188  1.00  0.00     0.139 A 
HETATM    5  C8  UNL     1     -44.890   2.944 -21.195  1.00  0.00     0.097 A 
HETATM    6  N4  UNL     1     -44.657   1.755 -21.794  1.00  0.00    -0.188 N 
ATOM      7  H4  UNL     1     -45.376   1.316 -22.370  1.00  0.00     0.184 HD
HETATM    8  C9  UNL     1     -43.479   1.171 -21.622  1.00  0.00     0.677 A 
HETATM    9  N6  UNL     1     -42.550   1.758 -20.869  1.00  0.00    -0.180 N 
ATOM     10  H6  UNL     1     -41.652   1.290 -20.751  1.00  0.00     0.185 HD
HETATM   11  C10 UNL     1     -42.748   2.963 -20.244  1.00  0.00     0.160 A 
HETATM   12  C11 UNL     1     -41.693   3.527 -19.449  1.00  0.00     0.120 C 
HETATM   13  N7  UNL     1     -40.806   3.961 -18.799  1.00  0.00    -0.190 NA
HETATM   14  C12 UNL     1     -43.940   3.577 -20.404  1.00  0.00     0.117 A 
ENDROOT
BRANCH   8  15
HETATM   15  N5  UNL     1     -43.239   0.024 -22.189  1.00  0.00    -0.234 N 
ATOM     16  H52 UNL     1     -43.752  -0.256 -23.025  1.00  0.00     0.174 HD
ATOM     17  H51 UNL     1     -42.531  -0.595 -21.796  1.00  0.00     0.174 HD
ENDBRANCH   8  15
BRANCH   1  18
HETATM   18  C6  UNL     1     -43.842   5.728 -19.102  1.00  0.00     0.187 C 
BRANCH  18  19
HETATM   19  C5  UNL     1     -43.531   7.036 -19.832  1.00  0.00     0.190 C 
BRANCH  19  20
HETATM   20  C4  UNL     1     -42.074   7.194 -20.020  1.00  0.00     0.078 A 
HETATM   21  C3  UNL     1     -41.310   8.084 -19.292  1.00  0.00     0.147 A 
HETATM   22  C14 UNL     1     -39.962   8.214 -19.477  1.00  0.00     0.280 A 
HETATM   23  N9  UNL     1     -39.307   7.469 -20.391  1.00  0.00    -0.273 N 
HETATM   24  O5  UNL     1     -39.235   9.029 -18.817  1.00  0.00    -0.265 OA
HETATM   25  C13 UNL     1     -40.044   6.605 -21.100  1.00  0.00     0.327 A 
ATOM     26  H9  UNL     1     -38.301   7.559 -20.535  1.00  0.00     0.173 HD
HETATM   27  N8  UNL     1     -41.365   6.461 -20.935  1.00  0.00    -0.307 N 
HETATM   28  O4  UNL     1     -39.457   5.894 -21.964  1.00  0.00    -0.247 OA
ATOM     29  H8  UNL     1     -41.862   5.782 -21.512  1.00  0.00     0.170 HD
BRANCH  21  30
HETATM   30  N1  UNL     1     -41.943   8.890 -18.313  1.00  0.00    -0.257 N 
ATOM     31  H1  UNL     1     -42.366   9.781 -18.575  1.00  0.00     0.194 HD
BRANCH  30  32
HETATM   32  O2  UNL     1     -41.981   8.468 -17.027  1.00  0.00    -0.254 OA
BRANCH  32  33
HETATM   33  C2  UNL     1     -42.261   9.623 -16.253  1.00  0.00     0.369 C 
BRANCH  33  34
HETATM   34  O1  UNL     1     -41.475   9.591 -15.137  1.00  0.00    -0.369 OA
HETATM   35  C1  UNL     1     -41.837   8.605 -14.245  1.00  0.00     0.204 C 
ENDBRANCH  33  34
ENDBRANCH  32  33
ENDBRANCH  30  32
ENDBRANCH  21  30
ENDBRANCH  19  20
BRANCH  19  36
HETATM   36  O3  UNL     1     -44.153   6.977 -21.108  1.00  0.00    -0.388 OA
ATOM     37  H3  UNL     1     -44.490   6.099 -21.243  1.00  0.00     0.210 HD
ENDBRANCH  19  36
ENDBRANCH  18  19
ENDBRANCH   1  18
TORSDOF 9
ENDMDL
