MODEL 1
REMARK VINA RESULT: -8.259663107      0.000      0.000
REMARK  18 active torsions:
REMARK  status: ('A' for Active; 'I' for Inactive)
REMARK    1  A    between atoms: O1_2  and  C2_3 
REMARK    2  A    between atoms: C2_3  and  C3_5 
REMARK    3  A    between atoms: C4_6  and  S1_7 
REMARK    4  A    between atoms: S1_7  and  C5_8 
REMARK    5  A    between atoms: C5_8  and  C6_9 
REMARK    6  A    between atoms: C9_12  and  C10_13 
REMARK    7  A    between atoms: C10_13  and  O3_14 
REMARK    8  A    between atoms: C10_13  and  C13_23 
REMARK    9  A    between atoms: O3_14  and  C11_15 
REMARK   10  A    between atoms: N1_17  and  O4_18 
REMARK   11  A    between atoms: C16_28  and  O7_29 
REMARK   12  A    between atoms: C17_32  and  N4_33 
REMARK   13  A    between atoms: C19_42  and  N8_43 
REMARK   14  A    between atoms: C20_46  and  C21_47 
REMARK   15  A    between atoms: C21_47  and  O9_49 
REMARK   16  A    between atoms: C23_52  and  C24_53 
REMARK   17  A    between atoms: C24_53  and  O11_55 
REMARK   18  A    between atoms: C26_57  and  O12_58 
ROOT
HETATM    1  C13 UNL     1      42.567 -21.998  37.846  1.00  0.00     0.262 C 
HETATM    2  O6  UNL     1      42.200 -22.229  38.908  1.00  0.00    -0.278 OA
HETATM    3  C14 UNL     1      44.090 -21.527  37.914  1.00  0.00     0.141 C 
HETATM    4  N3  UNL     1      45.191 -21.184  37.961  1.00  0.00    -0.188 NA
ENDROOT
BRANCH   1   5
HETATM    5  C10 UNL     1      42.102 -21.982  36.454  1.00  0.00     0.248 C 
BRANCH   5   6
HETATM    6  C9  UNL     1      41.927 -20.659  35.873  1.00  0.00    -0.018 A 
HETATM    7  C8  UNL     1      42.528 -20.391  34.551  1.00  0.00     0.011 A 
HETATM    8  C7  UNL     1      42.292 -19.082  34.180  1.00  0.00     0.011 A 
HETATM    9  C6  UNL     1      41.643 -18.128  34.796  1.00  0.00    -0.015 A 
HETATM   10  C16 UNL     1      41.075 -18.421  36.051  1.00  0.00     0.073 A 
HETATM   11  C15 UNL     1      41.260 -19.708  36.519  1.00  0.00     0.047 A 
BRANCH   9  12
HETATM   12  C5  UNL     1      41.277 -16.744  34.223  1.00  0.00     0.122 C 
BRANCH  12  13
HETATM   13  S1  UNL     1      40.342 -16.674  32.886  1.00  0.00    -0.100 SA
BRANCH  13  14
HETATM   14  C4  UNL     1      39.287 -17.679  31.993  1.00  0.00     0.125 C 
HETATM   15  C3  UNL     1      39.107 -18.041  30.707  1.00  0.00     0.099 C 
HETATM   16  C26 UNL     1      37.962 -18.956  30.610  1.00  0.00     0.178 C 
HETATM   17  C17 UNL     1      37.591 -19.249  32.024  1.00  0.00     0.245 C 
HETATM   18  C23 UNL     1      38.276 -20.317  30.045  1.00  0.00     0.195 C 
HETATM   19  O8  UNL     1      38.277 -18.350  32.797  1.00  0.00    -0.303 OA
HETATM   20  C20 UNL     1      37.977 -20.627  32.228  1.00  0.00     0.212 C 
HETATM   21  O10 UNL     1      38.561 -21.172  31.054  1.00  0.00    -0.367 OA
BRANCH  15  22
HETATM   22  C2  UNL     1      39.910 -17.575  29.553  1.00  0.00     0.295 C 
HETATM   23  O2  UNL     1      41.076 -17.821  29.320  1.00  0.00    -0.259 OA
BRANCH  22  24
HETATM   24  O1  UNL     1      39.263 -16.733  28.611  1.00  0.00    -0.323 OA
HETATM   25  C1  UNL     1      38.951 -15.414  29.099  1.00  0.00     0.213 C 
ENDBRANCH  22  24
ENDBRANCH  15  22
BRANCH  16  26
HETATM   26  O12 UNL     1      36.881 -18.495  29.901  1.00  0.00    -0.377 OA
ATOM     27  H12 UNL     1      37.078 -17.947  29.151  1.00  0.00     0.211 HD
ENDBRANCH  16  26
BRANCH  17  28
HETATM   28  N4  UNL     1      36.202 -18.880  32.271  1.00  0.00    -0.067 N 
HETATM   29  N5  UNL     1      35.892 -17.599  32.616  1.00  0.00    -0.112 N 
HETATM   30  C18 UNL     1      34.554 -17.496  32.800  1.00  0.00     0.705 A 
ATOM     31  H5  UNL     1      36.561 -16.837  32.720  1.00  0.00     0.206 HD
HETATM   32  N6  UNL     1      33.907 -16.428  33.112  1.00  0.00    -0.233 N 
HETATM   33  N7  UNL     1      33.996 -18.743  32.559  1.00  0.00    -0.020 N 
ATOM     34  H62 UNL     1      34.317 -15.512  33.289  1.00  0.00     0.174 HD
ATOM     35  H61 UNL     1      32.899 -16.351  33.250  1.00  0.00     0.174 HD
HETATM   36  C19 UNL     1      35.033 -19.476  32.259  1.00  0.00     0.710 A 
ATOM     37  H7  UNL     1      33.015 -19.019  32.606  1.00  0.00     0.203 HD
BRANCH  36  38
HETATM   38  N8  UNL     1      34.899 -20.760  31.963  1.00  0.00    -0.233 N 
ATOM     39  H82 UNL     1      34.740 -21.065  31.002  1.00  0.00     0.174 HD
ATOM     40  H81 UNL     1      34.944 -21.490  32.674  1.00  0.00     0.174 HD
ENDBRANCH  36  38
ENDBRANCH  17  28
BRANCH  20  41
HETATM   41  C21 UNL     1      39.024 -20.940  33.304  1.00  0.00     0.148 C 
HETATM   42  C22 UNL     1      38.466 -21.207  34.667  1.00  0.00     0.042 C 
BRANCH  41  43
HETATM   43  O9  UNL     1      39.979 -21.807  32.835  1.00  0.00    -0.393 OA
ATOM     44  H9  UNL     1      40.796 -21.712  33.309  1.00  0.00     0.210 HD
ENDBRANCH  41  43
ENDBRANCH  20  41
BRANCH  18  45
HETATM   45  C24 UNL     1      37.060 -20.900  29.315  1.00  0.00     0.146 C 
HETATM   46  C25 UNL     1      37.207 -22.419  29.303  1.00  0.00     0.042 C 
BRANCH  45  47
HETATM   47  O11 UNL     1      36.983 -20.539  27.993  1.00  0.00    -0.393 OA
ATOM     48  H11 UNL     1      36.270 -19.940  27.802  1.00  0.00     0.210 HD
ENDBRANCH  45  47
ENDBRANCH  18  45
ENDBRANCH  13  14
ENDBRANCH  12  13
ENDBRANCH   9  12
BRANCH  10  49
HETATM   49  O7  UNL     1      40.390 -17.525  36.785  1.00  0.00    -0.360 OA
ATOM     50  H7  UNL     1      39.753 -17.767  37.447  1.00  0.00     0.217 HD
ENDBRANCH  10  49
ENDBRANCH   5   6
BRANCH   5  51
HETATM   51  O3  UNL     1      41.014 -22.828  36.265  1.00  0.00    -0.314 OA
BRANCH  51  52
HETATM   52  C11 UNL     1      40.983 -23.767  35.275  1.00  0.00     0.185 A 
HETATM   53  C12 UNL     1      40.087 -24.821  35.194  1.00  0.00     0.210 A 
HETATM   54  N1  UNL     1      40.358 -25.535  34.111  1.00  0.00    -0.109 N 
HETATM   55  O5  UNL     1      41.399 -24.954  33.511  1.00  0.00    -0.127 OA
HETATM   56  N2  UNL     1      41.779 -23.932  34.164  1.00  0.00    -0.216 N 
ATOM     57  H2  UNL     1      42.556 -23.325  33.904  1.00  0.00     0.199 HD
BRANCH  54  58
HETATM   58  O4  UNL     1      39.756 -26.667  33.648  1.00  0.00    -0.262 OA
ATOM     59  H4  UNL     1      39.408 -27.406  34.133  1.00  0.00     0.247 HD
ENDBRANCH  54  58
ENDBRANCH  51  52
ENDBRANCH   5  51
ENDBRANCH   1   5
TORSDOF 18
ENDMDL
MODEL 2
REMARK VINA RESULT: -8.246932102      3.062      4.963
REMARK  18 active torsions:
REMARK  status: ('A' for Active; 'I' for Inactive)
REMARK    1  A    between atoms: O1_2  and  C2_3 
REMARK    2  A    between atoms: C2_3  and  C3_5 
REMARK    3  A    between atoms: C4_6  and  S1_7 
REMARK    4  A    between atoms: S1_7  and  C5_8 
REMARK    5  A    between atoms: C5_8  and  C6_9 
REMARK    6  A    between atoms: C9_12  and  C10_13 
REMARK    7  A    between atoms: C10_13  and  O3_14 
REMARK    8  A    between atoms: C10_13  and  C13_23 
REMARK    9  A    between atoms: O3_14  and  C11_15 
REMARK   10  A    between atoms: N1_17  and  O4_18 
REMARK   11  A    between atoms: C16_28  and  O7_29 
REMARK   12  A    between atoms: C17_32  and  N4_33 
REMARK   13  A    between atoms: C19_42  and  N8_43 
REMARK   14  A    between atoms: C20_46  and  C21_47 
REMARK   15  A    between atoms: C21_47  and  O9_49 
REMARK   16  A    between atoms: C23_52  and  C24_53 
REMARK   17  A    between atoms: C24_53  and  O11_55 
REMARK   18  A    between atoms: C26_57  and  O12_58 
ROOT
HETATM    1  C13 UNL     1      44.657 -22.718  37.002  1.00  0.00     0.262 C 
HETATM    2  O6  UNL     1      44.520 -23.637  37.676  1.00  0.00    -0.278 OA
HETATM    3  C14 UNL     1      45.778 -21.775  37.635  1.00  0.00     0.141 C 
HETATM    4  N3  UNL     1      46.588 -21.091  38.090  1.00  0.00    -0.188 NA
ENDROOT
BRANCH   1   5
HETATM    5  C10 UNL     1      44.140 -22.119  35.767  1.00  0.00     0.248 C 
BRANCH   5   6
HETATM    6  C9  UNL     1      42.691 -22.014  35.685  1.00  0.00    -0.018 A 
HETATM    7  C8  UNL     1      41.930 -23.186  35.210  1.00  0.00     0.011 A 
HETATM    8  C7  UNL     1      40.582 -22.889  35.164  1.00  0.00     0.011 A 
HETATM    9  C6  UNL     1      39.943 -21.790  35.475  1.00  0.00    -0.015 A 
HETATM   10  C16 UNL     1      40.700 -20.695  35.932  1.00  0.00     0.073 A 
HETATM   11  C15 UNL     1      42.066 -20.887  36.011  1.00  0.00     0.047 A 
BRANCH   9  12
HETATM   12  C5  UNL     1      38.414 -21.607  35.561  1.00  0.00     0.122 C 
BRANCH  12  13
HETATM   13  S1  UNL     1      37.627 -20.989  34.271  1.00  0.00    -0.100 SA
BRANCH  13  14
HETATM   14  C4  UNL     1      37.942 -19.984  32.925  1.00  0.00     0.125 C 
HETATM   15  C3  UNL     1      37.251 -19.446  31.900  1.00  0.00     0.099 C 
HETATM   16  C26 UNL     1      38.160 -18.666  31.051  1.00  0.00     0.178 C 
HETATM   17  C17 UNL     1      39.451 -18.646  31.796  1.00  0.00     0.245 C 
HETATM   18  C23 UNL     1      37.815 -17.205  30.916  1.00  0.00     0.195 C 
HETATM   19  O8  UNL     1      39.331 -19.570  32.800  1.00  0.00    -0.303 OA
HETATM   20  C20 UNL     1      39.590 -17.283  32.255  1.00  0.00     0.212 C 
HETATM   21  O10 UNL     1      38.478 -16.494  31.856  1.00  0.00    -0.367 OA
BRANCH  15  22
HETATM   22  C2  UNL     1      35.804 -19.627  31.639  1.00  0.00     0.295 C 
HETATM   23  O2  UNL     1      35.184 -20.670  31.621  1.00  0.00    -0.259 OA
BRANCH  22  24
HETATM   24  O1  UNL     1      35.045 -18.460  31.363  1.00  0.00    -0.323 OA
HETATM   25  C1  UNL     1      34.526 -17.792  32.529  1.00  0.00     0.213 C 
ENDBRANCH  22  24
ENDBRANCH  15  22
BRANCH  16  26
HETATM   26  O12 UNL     1      38.335 -19.131  29.771  1.00  0.00    -0.377 OA
ATOM     27  H12 UNL     1      38.340 -18.473  29.086  1.00  0.00     0.211 HD
ENDBRANCH  16  26
BRANCH  17  28
HETATM   28  N4  UNL     1      40.519 -19.208  30.976  1.00  0.00    -0.067 N 
HETATM   29  N5  UNL     1      41.208 -18.405  30.117  1.00  0.00    -0.112 N 
HETATM   30  C18 UNL     1      42.138 -19.143  29.465  1.00  0.00     0.705 A 
ATOM     31  H5  UNL     1      41.049 -17.407  29.986  1.00  0.00     0.206 HD
HETATM   32  N6  UNL     1      42.982 -18.709  28.596  1.00  0.00    -0.233 N 
HETATM   33  N7  UNL     1      42.043 -20.448  29.924  1.00  0.00    -0.020 N 
ATOM     34  H62 UNL     1      43.052 -17.750  28.258  1.00  0.00     0.174 HD
ATOM     35  H61 UNL     1      43.683 -19.265  28.104  1.00  0.00     0.174 HD
HETATM   36  C19 UNL     1      41.076 -20.382  30.799  1.00  0.00     0.710 A 
ATOM     37  H7  UNL     1      42.594 -21.261  29.647  1.00  0.00     0.203 HD
BRANCH  36  38
HETATM   38  N8  UNL     1      40.682 -21.458  31.464  1.00  0.00    -0.233 N 
ATOM     39  H82 UNL     1      40.047 -22.135  31.041  1.00  0.00     0.174 HD
ATOM     40  H81 UNL     1      40.990 -21.650  32.417  1.00  0.00     0.174 HD
ENDBRANCH  36  38
ENDBRANCH  17  28
BRANCH  20  41
HETATM   41  C21 UNL     1      39.662 -17.025  33.765  1.00  0.00     0.148 C 
HETATM   42  C22 UNL     1      40.985 -16.525  34.257  1.00  0.00     0.042 C 
BRANCH  41  43
HETATM   43  O9  UNL     1      38.539 -16.378  34.217  1.00  0.00    -0.393 OA
ATOM     44  H9  UNL     1      38.403 -15.559  33.756  1.00  0.00     0.210 HD
ENDBRANCH  41  43
ENDBRANCH  20  41
BRANCH  18  45
HETATM   45  C24 UNL     1      38.273 -16.658  29.557  1.00  0.00     0.146 C 
HETATM   46  C25 UNL     1      38.870 -15.273  29.790  1.00  0.00     0.042 C 
BRANCH  45  47
HETATM   47  O11 UNL     1      37.248 -16.460  28.667  1.00  0.00    -0.393 OA
ATOM     48  H11 UNL     1      37.316 -15.647  28.181  1.00  0.00     0.210 HD
ENDBRANCH  45  47
ENDBRANCH  18  45
ENDBRANCH  13  14
ENDBRANCH  12  13
ENDBRANCH   9  12
BRANCH  10  49
HETATM   49  O7  UNL     1      40.161 -19.511  36.278  1.00  0.00    -0.360 OA
ATOM     50  H7  UNL     1      39.588 -19.394  37.026  1.00  0.00     0.217 HD
ENDBRANCH  10  49
ENDBRANCH   5   6
BRANCH   5  51
HETATM   51  O3  UNL     1      44.728 -22.682  34.637  1.00  0.00    -0.314 OA
BRANCH  51  52
HETATM   52  C11 UNL     1      44.653 -22.096  33.407  1.00  0.00     0.185 A 
HETATM   53  C12 UNL     1      44.995 -20.785  33.118  1.00  0.00     0.210 A 
HETATM   54  N1  UNL     1      44.786 -20.558  31.830  1.00  0.00    -0.109 N 
HETATM   55  O5  UNL     1      44.322 -21.694  31.304  1.00  0.00    -0.127 OA
HETATM   56  N2  UNL     1      44.236 -22.597  32.194  1.00  0.00    -0.216 N 
ATOM     57  H2  UNL     1      43.908 -23.549  32.034  1.00  0.00     0.199 HD
BRANCH  54  58
HETATM   58  O4  UNL     1      44.959 -19.411  31.114  1.00  0.00    -0.262 OA
ATOM     59  H4  UNL     1      44.773 -19.237  30.199  1.00  0.00     0.247 HD
ENDBRANCH  54  58
ENDBRANCH  51  52
ENDBRANCH   5  51
ENDBRANCH   1   5
TORSDOF 18
ENDMDL
MODEL 3
REMARK VINA RESULT: -8.045190761      3.077      8.281
REMARK  18 active torsions:
REMARK  status: ('A' for Active; 'I' for Inactive)
REMARK    1  A    between atoms: O1_2  and  C2_3 
REMARK    2  A    between atoms: C2_3  and  C3_5 
REMARK    3  A    between atoms: C4_6  and  S1_7 
REMARK    4  A    between atoms: S1_7  and  C5_8 
REMARK    5  A    between atoms: C5_8  and  C6_9 
REMARK    6  A    between atoms: C9_12  and  C10_13 
REMARK    7  A    between atoms: C10_13  and  O3_14 
REMARK    8  A    between atoms: C10_13  and  C13_23 
REMARK    9  A    between atoms: O3_14  and  C11_15 
REMARK   10  A    between atoms: N1_17  and  O4_18 
REMARK   11  A    between atoms: C16_28  and  O7_29 
REMARK   12  A    between atoms: C17_32  and  N4_33 
REMARK   13  A    between atoms: C19_42  and  N8_43 
REMARK   14  A    between atoms: C20_46  and  C21_47 
REMARK   15  A    between atoms: C21_47  and  O9_49 
REMARK   16  A    between atoms: C23_52  and  C24_53 
REMARK   17  A    between atoms: C24_53  and  O11_55 
REMARK   18  A    between atoms: C26_57  and  O12_58 
ROOT
HETATM    1  C13 UNL     1      34.650 -16.508  31.765  1.00  0.00     0.262 C 
HETATM    2  O6  UNL     1      33.606 -16.242  31.371  1.00  0.00    -0.278 OA
HETATM    3  C14 UNL     1      34.899 -15.734  33.138  1.00  0.00     0.141 C 
HETATM    4  N3  UNL     1      35.082 -15.174  34.131  1.00  0.00    -0.188 NA
ENDROOT
BRANCH   1   5
HETATM    5  C10 UNL     1      35.831 -17.309  31.423  1.00  0.00     0.248 C 
BRANCH   5   6
HETATM    6  C9  UNL     1      35.965 -18.561  32.154  1.00  0.00    -0.018 A 
HETATM    7  C8  UNL     1      34.896 -19.569  32.015  1.00  0.00     0.011 A 
HETATM    8  C7  UNL     1      35.175 -20.668  32.804  1.00  0.00     0.011 A 
HETATM    9  C6  UNL     1      36.194 -20.914  33.587  1.00  0.00    -0.015 A 
HETATM   10  C16 UNL     1      37.199 -19.934  33.689  1.00  0.00     0.073 A 
HETATM   11  C15 UNL     1      37.012 -18.787  32.940  1.00  0.00     0.047 A 
BRANCH   9  12
HETATM   12  C5  UNL     1      36.510 -22.248  34.294  1.00  0.00     0.122 C 
BRANCH  12  13
HETATM   13  S1  UNL     1      37.663 -23.215  33.660  1.00  0.00    -0.100 SA
BRANCH  13  14
HETATM   14  C4  UNL     1      39.306 -23.132  33.194  1.00  0.00     0.125 C 
HETATM   15  C3  UNL     1      40.394 -23.926  33.239  1.00  0.00     0.099 C 
HETATM   16  C26 UNL     1      41.544 -23.214  32.665  1.00  0.00     0.178 C 
HETATM   17  C17 UNL     1      40.969 -21.962  32.097  1.00  0.00     0.245 C 
HETATM   18  C23 UNL     1      42.177 -23.879  31.469  1.00  0.00     0.195 C 
HETATM   19  O8  UNL     1      39.690 -21.871  32.578  1.00  0.00    -0.303 OA
HETATM   20  C20 UNL     1      41.056 -22.133  30.664  1.00  0.00     0.212 C 
HETATM   21  O10 UNL     1      41.622 -23.394  30.335  1.00  0.00    -0.367 OA
BRANCH  15  22
HETATM   22  C2  UNL     1      40.449 -25.294  33.803  1.00  0.00     0.295 C 
HETATM   23  O2  UNL     1      39.744 -26.239  33.512  1.00  0.00    -0.259 OA
BRANCH  22  24
HETATM   24  O1  UNL     1      41.420 -25.543  34.807  1.00  0.00    -0.323 OA
HETATM   25  C1  UNL     1      42.511 -26.386  34.391  1.00  0.00     0.213 C 
ENDBRANCH  22  24
ENDBRANCH  15  22
BRANCH  16  26
HETATM   26  O12 UNL     1      42.574 -22.938  33.530  1.00  0.00    -0.377 OA
ATOM     27  H12 UNL     1      42.796 -22.020  33.633  1.00  0.00     0.211 HD
ENDBRANCH  16  26
BRANCH  17  28
HETATM   28  N4  UNL     1      41.611 -20.794  32.689  1.00  0.00    -0.067 N 
HETATM   29  N5  UNL     1      41.196 -20.335  33.903  1.00  0.00    -0.112 N 
HETATM   30  C18 UNL     1      41.927 -19.247  34.244  1.00  0.00     0.705 A 
ATOM     31  H5  UNL     1      40.451 -20.745  34.466  1.00  0.00     0.206 HD
HETATM   32  N6  UNL     1      41.822 -18.569  35.334  1.00  0.00    -0.233 N 
HETATM   33  N7  UNL     1      42.837 -19.011  33.224  1.00  0.00    -0.020 N 
ATOM     34  H62 UNL     1      41.153 -18.743  36.083  1.00  0.00     0.174 HD
ATOM     35  H61 UNL     1      42.373 -17.750  35.590  1.00  0.00     0.174 HD
HETATM   36  C19 UNL     1      42.574 -19.962  32.370  1.00  0.00     0.710 A 
ATOM     37  H7  UNL     1      43.539 -18.273  33.158  1.00  0.00     0.203 HD
BRANCH  36  38
HETATM   38  N8  UNL     1      43.252 -20.068  31.237  1.00  0.00    -0.233 N 
ATOM     39  H82 UNL     1      43.769 -20.918  31.011  1.00  0.00     0.174 HD
ATOM     40  H81 UNL     1      43.288 -19.312  30.553  1.00  0.00     0.174 HD
ENDBRANCH  36  38
ENDBRANCH  17  28
BRANCH  20  41
HETATM   41  C21 UNL     1      39.757 -22.122  29.848  1.00  0.00     0.148 C 
HETATM   42  C22 UNL     1      38.836 -20.980  30.145  1.00  0.00     0.042 C 
BRANCH  41  43
HETATM   43  O9  UNL     1      39.994 -22.410  28.527  1.00  0.00    -0.393 OA
ATOM     44  H9  UNL     1      39.275 -22.124  27.976  1.00  0.00     0.210 HD
ENDBRANCH  41  43
ENDBRANCH  20  41
BRANCH  18  45
HETATM   45  C24 UNL     1      43.674 -23.554  31.391  1.00  0.00     0.146 C 
HETATM   46  C25 UNL     1      44.138 -23.835  29.965  1.00  0.00     0.042 C 
BRANCH  45  47
HETATM   47  O11 UNL     1      44.455 -24.355  32.186  1.00  0.00    -0.393 OA
ATOM     48  H11 UNL     1      45.315 -24.532  31.822  1.00  0.00     0.210 HD
ENDBRANCH  45  47
ENDBRANCH  18  45
ENDBRANCH  13  14
ENDBRANCH  12  13
ENDBRANCH   9  12
BRANCH  10  49
HETATM   49  O7  UNL     1      38.292 -20.066  34.464  1.00  0.00    -0.360 OA
ATOM     50  H7  UNL     1      38.697 -19.343  34.927  1.00  0.00     0.217 HD
ENDBRANCH  10  49
ENDBRANCH   5   6
BRANCH   5  51
HETATM   51  O3  UNL     1      36.990 -16.539  31.410  1.00  0.00    -0.314 OA
BRANCH  51  52
HETATM   52  C11 UNL     1      37.619 -16.187  30.252  1.00  0.00     0.185 A 
HETATM   53  C12 UNL     1      37.538 -16.874  29.052  1.00  0.00     0.210 A 
HETATM   54  N1  UNL     1      38.283 -16.255  28.148  1.00  0.00    -0.109 N 
HETATM   55  O5  UNL     1      38.828 -15.197  28.751  1.00  0.00    -0.127 OA
HETATM   56  N2  UNL     1      38.461 -15.135  29.966  1.00  0.00    -0.216 N 
ATOM     57  H2  UNL     1      38.746 -14.416  30.630  1.00  0.00     0.199 HD
BRANCH  54  58
HETATM   58  O4  UNL     1      38.520 -16.586  26.848  1.00  0.00    -0.262 OA
ATOM     59  H4  UNL     1      37.948 -17.012  26.219  1.00  0.00     0.247 HD
ENDBRANCH  54  58
ENDBRANCH  51  52
ENDBRANCH   5  51
ENDBRANCH   1   5
TORSDOF 18
ENDMDL
MODEL 4
REMARK VINA RESULT: -8.025438415      2.916      8.293
REMARK  18 active torsions:
REMARK  status: ('A' for Active; 'I' for Inactive)
REMARK    1  A    between atoms: O1_2  and  C2_3 
REMARK    2  A    between atoms: C2_3  and  C3_5 
REMARK    3  A    between atoms: C4_6  and  S1_7 
REMARK    4  A    between atoms: S1_7  and  C5_8 
REMARK    5  A    between atoms: C5_8  and  C6_9 
REMARK    6  A    between atoms: C9_12  and  C10_13 
REMARK    7  A    between atoms: C10_13  and  O3_14 
REMARK    8  A    between atoms: C10_13  and  C13_23 
REMARK    9  A    between atoms: O3_14  and  C11_15 
REMARK   10  A    between atoms: N1_17  and  O4_18 
REMARK   11  A    between atoms: C16_28  and  O7_29 
REMARK   12  A    between atoms: C17_32  and  N4_33 
REMARK   13  A    between atoms: C19_42  and  N8_43 
REMARK   14  A    between atoms: C20_46  and  C21_47 
REMARK   15  A    between atoms: C21_47  and  O9_49 
REMARK   16  A    between atoms: C23_52  and  C24_53 
REMARK   17  A    between atoms: C24_53  and  O11_55 
REMARK   18  A    between atoms: C26_57  and  O12_58 
ROOT
HETATM    1  C13 UNL     1      39.023 -16.250  29.233  1.00  0.00     0.262 C 
HETATM    2  O6  UNL     1      39.280 -15.756  28.230  1.00  0.00    -0.278 OA
HETATM    3  C14 UNL     1      37.436 -16.350  29.370  1.00  0.00     0.141 C 
HETATM    4  N3  UNL     1      36.289 -16.421  29.472  1.00  0.00    -0.188 NA
ENDROOT
BRANCH   1   5
HETATM    5  C10 UNL     1      39.663 -16.809  30.429  1.00  0.00     0.248 C 
BRANCH   5   6
HETATM    6  C9  UNL     1      39.970 -18.231  30.364  1.00  0.00    -0.018 A 
HETATM    7  C8  UNL     1      38.952 -19.188  30.838  1.00  0.00     0.011 A 
HETATM    8  C7  UNL     1      39.432 -20.480  30.735  1.00  0.00     0.011 A 
HETATM    9  C6  UNL     1      40.580 -20.927  30.293  1.00  0.00    -0.015 A 
HETATM   10  C16 UNL     1      41.524 -19.985  29.841  1.00  0.00     0.073 A 
HETATM   11  C15 UNL     1      41.143 -18.658  29.907  1.00  0.00     0.047 A 
BRANCH   9  12
HETATM   12  C5  UNL     1      40.961 -22.401  30.049  1.00  0.00     0.122 C 
BRANCH  12  13
HETATM   13  S1  UNL     1      41.312 -23.342  31.336  1.00  0.00    -0.100 SA
BRANCH  13  14
HETATM   14  C4  UNL     1      41.620 -23.179  33.010  1.00  0.00     0.125 C 
HETATM   15  C3  UNL     1      42.388 -23.775  33.943  1.00  0.00     0.099 C 
HETATM   16  C26 UNL     1      42.156 -23.141  35.247  1.00  0.00     0.178 C 
HETATM   17  C17 UNL     1      41.290 -21.965  34.949  1.00  0.00     0.245 C 
HETATM   18  C23 UNL     1      43.374 -22.522  35.885  1.00  0.00     0.195 C 
HETATM   19  O8  UNL     1      40.859 -22.122  33.658  1.00  0.00    -0.303 OA
HETATM   20  C20 UNL     1      42.143 -20.817  35.156  1.00  0.00     0.212 C 
HETATM   21  O10 UNL     1      43.451 -21.216  35.539  1.00  0.00    -0.367 OA
BRANCH  15  22
HETATM   22  C2  UNL     1      43.309 -24.912  33.713  1.00  0.00     0.295 C 
HETATM   23  O2  UNL     1      44.134 -25.024  32.829  1.00  0.00    -0.259 OA
BRANCH  22  24
HETATM   24  O1  UNL     1      43.221 -26.009  34.609  1.00  0.00    -0.323 OA
HETATM   25  C1  UNL     1      44.375 -26.189  35.452  1.00  0.00     0.213 C 
ENDBRANCH  22  24
ENDBRANCH  15  22
BRANCH  16  26
HETATM   26  O12 UNL     1      41.592 -23.938  36.212  1.00  0.00    -0.377 OA
ATOM     27  H12 UNL     1      41.891 -23.792  37.101  1.00  0.00     0.211 HD
ENDBRANCH  16  26
BRANCH  17  28
HETATM   28  N4  UNL     1      40.047 -22.044  35.707  1.00  0.00    -0.067 N 
HETATM   29  N5  UNL     1      39.854 -21.225  36.779  1.00  0.00    -0.112 N 
HETATM   30  C18 UNL     1      38.641 -21.482  37.325  1.00  0.00     0.705 A 
ATOM     31  H5  UNL     1      40.517 -20.529  37.118  1.00  0.00     0.206 HD
HETATM   32  N6  UNL     1      38.118 -20.882  38.337  1.00  0.00    -0.233 N 
HETATM   33  N7  UNL     1      38.044 -22.487  36.578  1.00  0.00    -0.020 N 
ATOM     34  H62 UNL     1      38.558 -20.144  38.886  1.00  0.00     0.174 HD
ATOM     35  H61 UNL     1      37.205 -21.076  38.749  1.00  0.00     0.174 HD
HETATM   36  C19 UNL     1      38.938 -22.744  35.663  1.00  0.00     0.710 A 
ATOM     37  H7  UNL     1      37.129 -22.918  36.712  1.00  0.00     0.203 HD
BRANCH  36  38
HETATM   38  N8  UNL     1      38.725 -23.673  34.743  1.00  0.00    -0.233 N 
ATOM     39  H82 UNL     1      39.207 -23.642  33.844  1.00  0.00     0.174 HD
ATOM     40  H81 UNL     1      38.077 -24.446  34.890  1.00  0.00     0.174 HD
ENDBRANCH  36  38
ENDBRANCH  17  28
BRANCH  20  41
HETATM   41  C21 UNL     1      42.409 -19.882  33.970  1.00  0.00     0.148 C 
HETATM   42  C22 UNL     1      43.487 -20.339  33.036  1.00  0.00     0.042 C 
BRANCH  41  43
HETATM   43  O9  UNL     1      41.237 -19.441  33.407  1.00  0.00    -0.393 OA
ATOM     44  H9  UNL     1      40.955 -20.011  32.702  1.00  0.00     0.210 HD
ENDBRANCH  41  43
ENDBRANCH  20  41
BRANCH  18  45
HETATM   45  C24 UNL     1      43.268 -22.558  37.415  1.00  0.00     0.146 C 
HETATM   46  C25 UNL     1      44.203 -21.488  37.972  1.00  0.00     0.042 C 
BRANCH  45  47
HETATM   47  O11 UNL     1      43.703 -23.736  37.970  1.00  0.00    -0.393 OA
ATOM     48  H11 UNL     1      43.009 -24.368  38.116  1.00  0.00     0.210 HD
ENDBRANCH  45  47
ENDBRANCH  18  45
ENDBRANCH  13  14
ENDBRANCH  12  13
ENDBRANCH   9  12
BRANCH  10  49
HETATM   49  O7  UNL     1      42.739 -20.318  29.369  1.00  0.00    -0.360 OA
ATOM     50  H7  UNL     1      42.877 -20.763  28.542  1.00  0.00     0.217 HD
ENDBRANCH  10  49
ENDBRANCH   5   6
BRANCH   5  51
HETATM   51  O3  UNL     1      38.999 -16.430  31.592  1.00  0.00    -0.314 OA
BRANCH  51  52
HETATM   52  C11 UNL     1      39.610 -16.426  32.812  1.00  0.00     0.185 A 
HETATM   53  C12 UNL     1      38.962 -16.386  34.036  1.00  0.00     0.210 A 
HETATM   54  N1  UNL     1      39.867 -16.383  35.004  1.00  0.00    -0.109 N 
HETATM   55  O5  UNL     1      41.065 -16.421  34.418  1.00  0.00    -0.127 OA
HETATM   56  N2  UNL     1      40.944 -16.447  33.153  1.00  0.00    -0.216 N 
ATOM     57  H2  UNL     1      41.718 -16.477  32.490  1.00  0.00     0.199 HD
BRANCH  54  58
HETATM   58  O4  UNL     1      39.689 -16.324  36.354  1.00  0.00    -0.262 OA
ATOM     59  H4  UNL     1      40.334 -16.211  37.043  1.00  0.00     0.247 HD
ENDBRANCH  54  58
ENDBRANCH  51  52
ENDBRANCH   5  51
ENDBRANCH   1   5
TORSDOF 18
ENDMDL
MODEL 5
REMARK VINA RESULT: -7.957618786      2.952      7.707
REMARK  18 active torsions:
REMARK  status: ('A' for Active; 'I' for Inactive)
REMARK    1  A    between atoms: O1_2  and  C2_3 
REMARK    2  A    between atoms: C2_3  and  C3_5 
REMARK    3  A    between atoms: C4_6  and  S1_7 
REMARK    4  A    between atoms: S1_7  and  C5_8 
REMARK    5  A    between atoms: C5_8  and  C6_9 
REMARK    6  A    between atoms: C9_12  and  C10_13 
REMARK    7  A    between atoms: C10_13  and  O3_14 
REMARK    8  A    between atoms: C10_13  and  C13_23 
REMARK    9  A    between atoms: O3_14  and  C11_15 
REMARK   10  A    between atoms: N1_17  and  O4_18 
REMARK   11  A    between atoms: C16_28  and  O7_29 
REMARK   12  A    between atoms: C17_32  and  N4_33 
REMARK   13  A    between atoms: C19_42  and  N8_43 
REMARK   14  A    between atoms: C20_46  and  C21_47 
REMARK   15  A    between atoms: C21_47  and  O9_49 
REMARK   16  A    between atoms: C23_52  and  C24_53 
REMARK   17  A    between atoms: C24_53  and  O11_55 
REMARK   18  A    between atoms: C26_57  and  O12_58 
ROOT
HETATM    1  C13 UNL     1      34.012 -16.310  32.323  1.00  0.00     0.262 C 
HETATM    2  O6  UNL     1      33.253 -15.846  31.599  1.00  0.00    -0.278 OA
HETATM    3  C14 UNL     1      34.133 -15.379  33.613  1.00  0.00     0.141 C 
HETATM    4  N3  UNL     1      34.223 -14.707  34.547  1.00  0.00    -0.188 NA
ENDROOT
BRANCH   1   5
HETATM    5  C10 UNL     1      34.913 -17.461  32.452  1.00  0.00     0.248 C 
BRANCH   5   6
HETATM    6  C9  UNL     1      36.215 -17.307  31.821  1.00  0.00    -0.018 A 
HETATM    7  C8  UNL     1      37.366 -16.944  32.671  1.00  0.00     0.011 A 
HETATM    8  C7  UNL     1      38.502 -16.806  31.897  1.00  0.00     0.011 A 
HETATM    9  C6  UNL     1      38.676 -16.957  30.609  1.00  0.00    -0.015 A 
HETATM   10  C16 UNL     1      37.558 -17.311  29.830  1.00  0.00     0.073 A 
HETATM   11  C15 UNL     1      36.365 -17.469  30.510  1.00  0.00     0.047 A 
BRANCH   9  12
HETATM   12  C5  UNL     1      40.021 -16.956  29.855  1.00  0.00     0.122 C 
BRANCH  12  13
HETATM   13  S1  UNL     1      40.896 -18.334  29.817  1.00  0.00    -0.100 SA
BRANCH  13  14
HETATM   14  C4  UNL     1      41.076 -19.777  30.717  1.00  0.00     0.125 C 
HETATM   15  C3  UNL     1      40.972 -20.168  32.002  1.00  0.00     0.099 C 
HETATM   16  C26 UNL     1      41.288 -21.598  32.107  1.00  0.00     0.178 C 
HETATM   17  C17 UNL     1      41.413 -22.063  30.697  1.00  0.00     0.245 C 
HETATM   18  C23 UNL     1      40.182 -22.460  32.660  1.00  0.00     0.195 C 
HETATM   19  O8  UNL     1      41.452 -20.935  29.921  1.00  0.00    -0.303 OA
HETATM   20  C20 UNL     1      40.251 -22.895  30.478  1.00  0.00     0.212 C 
HETATM   21  O10 UNL     1      39.438 -22.950  31.642  1.00  0.00    -0.367 OA
BRANCH  15  22
HETATM   22  C2  UNL     1      40.622 -19.298  33.149  1.00  0.00     0.295 C 
HETATM   23  O2  UNL     1      39.656 -19.392  33.877  1.00  0.00    -0.259 OA
BRANCH  22  24
HETATM   24  O1  UNL     1      41.499 -18.219  33.435  1.00  0.00    -0.323 OA
HETATM   25  C1  UNL     1      41.084 -17.382  34.531  1.00  0.00     0.213 C 
ENDBRANCH  22  24
ENDBRANCH  15  22
BRANCH  16  26
HETATM   26  O12 UNL     1      42.409 -21.915  32.833  1.00  0.00    -0.377 OA
ATOM     27  H12 UNL     1      42.428 -22.786  33.211  1.00  0.00     0.211 HD
ENDBRANCH  16  26
BRANCH  17  28
HETATM   28  N4  UNL     1      42.730 -22.647  30.469  1.00  0.00    -0.067 N 
HETATM   29  N5  UNL     1      43.009 -23.894  30.943  1.00  0.00    -0.112 N 
HETATM   30  C18 UNL     1      44.284 -24.220  30.620  1.00  0.00     0.705 A 
ATOM     31  H5  UNL     1      42.361 -24.488  31.460  1.00  0.00     0.206 HD
HETATM   32  N6  UNL     1      44.877 -25.330  30.887  1.00  0.00    -0.233 N 
HETATM   33  N7  UNL     1      44.828 -23.156  29.916  1.00  0.00    -0.020 N 
ATOM     34  H62 UNL     1      44.477 -26.112  31.404  1.00  0.00     0.174 HD
ATOM     35  H61 UNL     1      45.837 -25.576  30.643  1.00  0.00     0.174 HD
HETATM   36  C19 UNL     1      43.848 -22.294  29.881  1.00  0.00     0.710 A 
ATOM     37  H7  UNL     1      45.765 -23.068  29.523  1.00  0.00     0.203 HD
BRANCH  36  38
HETATM   38  N8  UNL     1      43.991 -21.122  29.282  1.00  0.00    -0.233 N 
ATOM     39  H82 UNL     1      44.041 -20.257  29.823  1.00  0.00     0.174 HD
ATOM     40  H81 UNL     1      44.052 -21.033  28.268  1.00  0.00     0.174 HD
ENDBRANCH  36  38
ENDBRANCH  17  28
BRANCH  20  41
HETATM   41  C21 UNL     1      39.254 -22.485  29.388  1.00  0.00     0.148 C 
HETATM   42  C22 UNL     1      38.237 -21.472  29.813  1.00  0.00     0.042 C 
BRANCH  41  43
HETATM   43  O9  UNL     1      39.884 -22.276  28.187  1.00  0.00    -0.393 OA
ATOM     44  H9  UNL     1      39.319 -22.498  27.456  1.00  0.00     0.210 HD
ENDBRANCH  41  43
ENDBRANCH  20  41
BRANCH  18  45
HETATM   45  C24 UNL     1      40.754 -23.675  33.401  1.00  0.00     0.146 C 
HETATM   46  C25 UNL     1      39.644 -24.716  33.516  1.00  0.00     0.042 C 
BRANCH  45  47
HETATM   47  O11 UNL     1      41.128 -23.408  34.694  1.00  0.00    -0.393 OA
ATOM     48  H11 UNL     1      42.054 -23.219  34.793  1.00  0.00     0.210 HD
ENDBRANCH  45  47
ENDBRANCH  18  45
ENDBRANCH  13  14
ENDBRANCH  12  13
ENDBRANCH   9  12
BRANCH  10  49
HETATM   49  O7  UNL     1      37.606 -17.490  28.497  1.00  0.00    -0.360 OA
ATOM     50  H7  UNL     1      36.895 -17.261  27.911  1.00  0.00     0.217 HD
ENDBRANCH  10  49
ENDBRANCH   5   6
BRANCH   5  51
HETATM   51  O3  UNL     1      34.271 -18.654  32.134  1.00  0.00    -0.314 OA
BRANCH  51  52
HETATM   52  C11 UNL     1      34.682 -19.858  32.630  1.00  0.00     0.185 A 
HETATM   53  C12 UNL     1      35.537 -20.741  31.993  1.00  0.00     0.210 A 
HETATM   54  N1  UNL     1      35.706 -21.808  32.760  1.00  0.00    -0.109 N 
HETATM   55  O5  UNL     1      34.979 -21.616  33.862  1.00  0.00    -0.127 OA
HETATM   56  N2  UNL     1      34.378 -20.497  33.812  1.00  0.00    -0.216 N 
ATOM     57  H2  UNL     1      33.763 -20.128  34.537  1.00  0.00     0.199 HD
BRANCH  54  58
HETATM   58  O4  UNL     1      36.438 -22.934  32.527  1.00  0.00    -0.262 OA
ATOM     59  H4  UNL     1      36.261 -23.658  31.936  1.00  0.00     0.247 HD
ENDBRANCH  54  58
ENDBRANCH  51  52
ENDBRANCH   5  51
ENDBRANCH   1   5
TORSDOF 18
ENDMDL
