MODEL 1
REMARK VINA RESULT: -7.376481388      0.000      0.000
REMARK  17 active torsions:
REMARK  status: ('A' for Active; 'I' for Inactive)
REMARK    1  A    between atoms: C2_2  and  O1_3 
REMARK    2  A    between atoms: O1_3  and  C3_4 
REMARK    3  A    between atoms: C4_9  and  N3_10 
REMARK    4  A    between atoms: C7_13  and  O2_14 
REMARK    5  A    between atoms: C8_16  and  N4_17 
REMARK    6  A    between atoms: C10_24  and  N6_25 
REMARK    7  A    between atoms: C12_27  and  C13_28 
REMARK       I    between atoms: C13_28  and  N7_30 
REMARK    8  A    between atoms: N7_30  and  C14_32 
REMARK    9  A    between atoms: C18_38  and  N9_39 
REMARK   10  A    between atoms: N9_39  and  C19_40 
REMARK   11  A    between atoms: N9_39  and  C22_47 
REMARK   12  A    between atoms: C19_40  and  C20_41 
REMARK   13  A    between atoms: C20_41  and  C21_42 
REMARK   14  A    between atoms: C21_42  and  N10_43 
REMARK   15  A    between atoms: C23_50  and  N12_51 
REMARK   16  A    between atoms: N13_54  and  N14_55 
REMARK   17  A    between atoms: C24_58  and  O4_59 
ROOT
HETATM    1  C13 UNL     1      45.746 -21.520  33.788  1.00  0.00     0.275 C 
HETATM    2  O3  UNL     1      45.663 -22.667  33.292  1.00  0.00    -0.266 OA
HETATM    3  N7  UNL     1      44.640 -20.694  33.997  1.00  0.00    -0.319 N 
ATOM      4  H7  UNL     1      44.859 -19.791  34.416  1.00  0.00     0.169 HD
ENDROOT
BRANCH   3   5
HETATM    5  C14 UNL     1      43.268 -20.898  33.725  1.00  0.00     0.066 C 
HETATM    6  C15 UNL     1      42.416 -21.055  34.713  1.00  0.00     0.122 C 
HETATM    7  N8  UNL     1      40.995 -21.277  34.652  1.00  0.00    -0.350 N 
HETATM    8  C16 UNL     1      40.181 -20.838  35.765  1.00  0.00     0.156 C 
HETATM    9  C17 UNL     1      40.306 -21.918  33.591  1.00  0.00     0.122 C 
HETATM   10  S1  UNL     1      39.001 -22.838  34.056  1.00  0.00    -0.061 SA
HETATM   11  C18 UNL     1      40.605 -21.886  32.163  1.00  0.00     0.248 C 
HETATM   12  N15 UNL     1      41.841 -21.320  31.768  1.00  0.00    -0.370 N 
HETATM   13  C25 UNL     1      42.903 -20.916  32.292  1.00  0.00     0.116 C 
ATOM     14  H15 UNL     1      41.877 -21.208  30.754  1.00  0.00     0.161 HD
BRANCH  11  15
HETATM   15  N9  UNL     1      39.496 -21.357  31.348  1.00  0.00    -0.336 N 
BRANCH  15  16
HETATM   16  C19 UNL     1      38.995 -20.046  31.720  1.00  0.00     0.129 C 
BRANCH  16  17
HETATM   17  C20 UNL     1      39.037 -19.092  30.550  1.00  0.00     0.047 C 
BRANCH  17  18
HETATM   18  C21 UNL     1      40.359 -18.372  30.461  1.00  0.00     0.231 C 
BRANCH  18  19
HETATM   19  N10 UNL     1      41.128 -18.886  29.314  1.00  0.00    -0.079 N 
ATOM     20 3H10 UNL     1      42.050 -18.456  29.245  1.00  0.00     0.274 HD
ATOM     21 2H10 UNL     1      41.425 -19.852  29.453  1.00  0.00     0.274 HD
ATOM     22 1H10 UNL     1      40.585 -18.770  28.457  1.00  0.00     0.274 HD
ENDBRANCH  18  19
ENDBRANCH  17  18
ENDBRANCH  16  17
ENDBRANCH  15  16
BRANCH  15  23
HETATM   23  C22 UNL     1      38.906 -22.027  30.262  1.00  0.00     0.175 A 
HETATM   24  N11 UNL     1      37.658 -22.570  30.201  1.00  0.00    -0.171 N 
HETATM   25  C23 UNL     1      37.503 -23.106  28.984  1.00  0.00     0.700 A 
ATOM     26  H11 UNL     1      36.966 -22.569  30.950  1.00  0.00     0.186 HD
HETATM   27  N13 UNL     1      38.628 -22.912  28.278  1.00  0.00    -0.067 N 
HETATM   28  C24 UNL     1      39.504 -22.257  29.029  1.00  0.00     0.224 A 
BRANCH  25  29
HETATM   29  N12 UNL     1      36.445 -23.707  28.562  1.00  0.00    -0.233 N 
ATOM     30 2H12 UNL     1      36.049 -24.562  28.954  1.00  0.00     0.174 HD
ATOM     31 1H12 UNL     1      35.867 -23.405  27.778  1.00  0.00     0.174 HD
ENDBRANCH  25  29
BRANCH  27  32
HETATM   32  N14 UNL     1      38.817 -23.346  26.945  1.00  0.00    -0.322 N 
ATOM     33 2H14 UNL     1      38.168 -23.225  26.168  1.00  0.00     0.178 HD
ATOM     34 1H14 UNL     1      39.646 -23.841  26.613  1.00  0.00     0.178 HD
ENDBRANCH  27  32
BRANCH  28  35
HETATM   35  O4  UNL     1      40.783 -21.862  28.675  1.00  0.00    -0.342 OA
ATOM     36  H4  UNL     1      41.016 -21.417  27.870  1.00  0.00     0.219 HD
ENDBRANCH  28  35
ENDBRANCH  15  23
ENDBRANCH  11  15
ENDBRANCH   3   5
BRANCH   1  37
HETATM   37  C12 UNL     1      47.115 -21.082  34.144  1.00  0.00     0.136 A 
HETATM   38  C11 UNL     1      48.190 -20.652  33.417  1.00  0.00     0.155 A 
HETATM   39  N6  UNL     1      48.922 -20.475  34.554  1.00  0.00    -0.242 N 
HETATM   40  N16 UNL     1      47.879 -20.891  35.218  1.00  0.00    -0.282 N 
HETATM   41  C26 UNL     1      47.620 -21.082  36.657  1.00  0.00     0.179 C 
BRANCH  39  42
HETATM   42  C10 UNL     1      50.243 -20.007  34.735  1.00  0.00     0.195 A 
HETATM   43  C3  UNL     1      51.291 -20.890  34.862  1.00  0.00     0.205 A 
HETATM   44  N1  UNL     1      52.515 -20.343  35.042  1.00  0.00    -0.262 N 
HETATM   45  N2  UNL     1      52.723 -19.037  35.097  1.00  0.00    -0.130 N 
ATOM     46  H1  UNL     1      53.316 -20.968  35.142  1.00  0.00     0.189 HD
HETATM   47  C4  UNL     1      51.719 -18.149  34.975  1.00  0.00     0.696 A 
ATOM     48  H2  UNL     1      53.673 -18.692  35.235  1.00  0.00     0.205 HD
HETATM   49  N5  UNL     1      50.494 -18.658  34.796  1.00  0.00    -0.169 N 
ATOM     50  H5  UNL     1      49.710 -18.013  34.701  1.00  0.00     0.186 HD
BRANCH  43  51
HETATM   51  O1  UNL     1      51.119 -22.267  34.809  1.00  0.00    -0.332 OA
BRANCH  51  52
HETATM   52  C2  UNL     1      51.488 -23.135  35.861  1.00  0.00     0.173 C 
HETATM   53  C1  UNL     1      50.878 -22.785  37.186  1.00  0.00     0.034 C 
ENDBRANCH  51  52
ENDBRANCH  43  51
BRANCH  47  54
HETATM   54  N3  UNL     1      51.923 -16.739  35.044  1.00  0.00    -0.214 N 
HETATM   55  C5  UNL     1      50.927 -15.850  35.608  1.00  0.00     0.144 C 
HETATM   56  C6  UNL     1      50.827 -14.577  34.793  1.00  0.00     0.054 C 
HETATM   57  C7  UNL     1      51.472 -14.707  33.437  1.00  0.00     0.151 C 
HETATM   58  C8  UNL     1      52.941 -15.057  33.543  1.00  0.00     0.230 C 
HETATM   59  C9  UNL     1      53.153 -16.135  34.561  1.00  0.00     0.176 C 
BRANCH  57  60
HETATM   60  O2  UNL     1      50.752 -15.642  32.700  1.00  0.00    -0.393 OA
ATOM     61  H2  UNL     1      50.956 -16.507  33.036  1.00  0.00     0.210 HD
ENDBRANCH  57  60
BRANCH  58  62
HETATM   62  N4  UNL     1      53.434 -15.426  32.228  1.00  0.00    -0.071 N 
ATOM     63  H43 UNL     1      52.775 -16.013  31.716  1.00  0.00     0.274 HD
ATOM     64  H42 UNL     1      53.453 -14.636  31.584  1.00  0.00     0.274 HD
ATOM     65  H41 UNL     1      54.349 -15.866  32.329  1.00  0.00     0.274 HD
ENDBRANCH  58  62
ENDBRANCH  47  54
ENDBRANCH  39  42
ENDBRANCH   1  37
TORSDOF 17
ENDMDL
MODEL 2
REMARK VINA RESULT: -7.289474597      3.448      5.070
REMARK  17 active torsions:
REMARK  status: ('A' for Active; 'I' for Inactive)
REMARK    1  A    between atoms: C2_2  and  O1_3 
REMARK    2  A    between atoms: O1_3  and  C3_4 
REMARK    3  A    between atoms: C4_9  and  N3_10 
REMARK    4  A    between atoms: C7_13  and  O2_14 
REMARK    5  A    between atoms: C8_16  and  N4_17 
REMARK    6  A    between atoms: C10_24  and  N6_25 
REMARK    7  A    between atoms: C12_27  and  C13_28 
REMARK       I    between atoms: C13_28  and  N7_30 
REMARK    8  A    between atoms: N7_30  and  C14_32 
REMARK    9  A    between atoms: C18_38  and  N9_39 
REMARK   10  A    between atoms: N9_39  and  C19_40 
REMARK   11  A    between atoms: N9_39  and  C22_47 
REMARK   12  A    between atoms: C19_40  and  C20_41 
REMARK   13  A    between atoms: C20_41  and  C21_42 
REMARK   14  A    between atoms: C21_42  and  N10_43 
REMARK   15  A    between atoms: C23_50  and  N12_51 
REMARK   16  A    between atoms: N13_54  and  N14_55 
REMARK   17  A    between atoms: C24_58  and  O4_59 
ROOT
HETATM    1  C13 UNL     1      42.338 -21.684  33.927  1.00  0.00     0.275 C 
HETATM    2  O3  UNL     1      42.048 -22.682  33.229  1.00  0.00    -0.266 OA
HETATM    3  N7  UNL     1      41.508 -20.569  34.051  1.00  0.00    -0.319 N 
ATOM      4  H7  UNL     1      41.871 -19.836  34.659  1.00  0.00     0.169 HD
ENDROOT
BRANCH   3   5
HETATM    5  C14 UNL     1      40.250 -20.284  33.476  1.00  0.00     0.066 C 
HETATM    6  C15 UNL     1      39.168 -20.882  33.924  1.00  0.00     0.122 C 
HETATM    7  N8  UNL     1      37.807 -20.737  33.478  1.00  0.00    -0.350 N 
HETATM    8  C16 UNL     1      36.742 -20.984  34.426  1.00  0.00     0.156 C 
HETATM    9  C17 UNL     1      37.403 -20.389  32.164  1.00  0.00     0.122 C 
HETATM   10  S1  UNL     1      36.004 -21.123  31.643  1.00  0.00    -0.061 SA
HETATM   11  C18 UNL     1      38.061 -19.494  31.218  1.00  0.00     0.248 C 
HETATM   12  N15 UNL     1      39.368 -19.053  31.538  1.00  0.00    -0.370 N 
HETATM   13  C25 UNL     1      40.266 -19.297  32.374  1.00  0.00     0.116 C 
ATOM     14  H15 UNL     1      39.666 -18.318  30.896  1.00  0.00     0.161 HD
BRANCH  11  15
HETATM   15  N9  UNL     1      37.211 -18.366  30.797  1.00  0.00    -0.336 N 
BRANCH  15  16
HETATM   16  C19 UNL     1      37.253 -18.022  29.386  1.00  0.00     0.129 C 
BRANCH  16  17
HETATM   17  C20 UNL     1      37.461 -16.539  29.191  1.00  0.00     0.047 C 
BRANCH  17  18
HETATM   18  C21 UNL     1      38.914 -16.155  29.315  1.00  0.00     0.231 C 
BRANCH  18  19
HETATM   19  N10 UNL     1      39.030 -14.886  30.054  1.00  0.00    -0.079 N 
ATOM     20 3H10 UNL     1      38.280 -14.236  29.822  1.00  0.00     0.274 HD
ATOM     21 2H10 UNL     1      38.824 -15.000  31.047  1.00  0.00     0.274 HD
ATOM     22 1H10 UNL     1      39.953 -14.480  29.897  1.00  0.00     0.274 HD
ENDBRANCH  18  19
ENDBRANCH  17  18
ENDBRANCH  16  17
ENDBRANCH  15  16
BRANCH  15  23
HETATM   23  C22 UNL     1      36.384 -17.617  31.653  1.00  0.00     0.175 A 
HETATM   24  N11 UNL     1      35.026 -17.658  31.741  1.00  0.00    -0.171 N 
HETATM   25  C23 UNL     1      34.650 -16.788  32.687  1.00  0.00     0.700 A 
ATOM     26  H11 UNL     1      34.406 -18.247  31.185  1.00  0.00     0.186 HD
HETATM   27  N13 UNL     1      35.743 -16.199  33.194  1.00  0.00    -0.067 N 
HETATM   28  C24 UNL     1      36.819 -16.683  32.585  1.00  0.00     0.224 A 
BRANCH  25  29
HETATM   29  N12 UNL     1      33.436 -16.557  33.048  1.00  0.00    -0.233 N 
ATOM     30 2H12 UNL     1      32.654 -16.365  32.421  1.00  0.00     0.174 HD
ATOM     31 1H12 UNL     1      33.100 -16.534  34.011  1.00  0.00     0.174 HD
ENDBRANCH  25  29
BRANCH  27  32
HETATM   32  N14 UNL     1      35.721 -15.225  34.219  1.00  0.00    -0.322 N 
ATOM     33 2H14 UNL     1      36.205 -14.326  34.215  1.00  0.00     0.178 HD
ATOM     34 1H14 UNL     1      35.207 -15.323  35.096  1.00  0.00     0.178 HD
ENDBRANCH  27  32
BRANCH  28  35
HETATM   35  O4  UNL     1      38.140 -16.340  32.817  1.00  0.00    -0.342 OA
ATOM     36  H4  UNL     1      38.471 -15.936  33.611  1.00  0.00     0.219 HD
ENDBRANCH  28  35
ENDBRANCH  15  23
ENDBRANCH  11  15
ENDBRANCH   3   5
BRANCH   1  37
HETATM   37  C12 UNL     1      43.642 -21.757  34.624  1.00  0.00     0.136 A 
HETATM   38  C11 UNL     1      44.921 -22.015  34.216  1.00  0.00     0.155 A 
HETATM   39  N6  UNL     1      45.390 -21.846  35.485  1.00  0.00    -0.242 N 
HETATM   40  N16 UNL     1      44.158 -21.606  35.843  1.00  0.00    -0.282 N 
HETATM   41  C26 UNL     1      43.540 -21.274  37.140  1.00  0.00     0.179 C 
BRANCH  39  42
HETATM   42  C10 UNL     1      46.704 -21.920  35.999  1.00  0.00     0.195 A 
HETATM   43  C3  UNL     1      47.055 -22.907  36.893  1.00  0.00     0.205 A 
HETATM   44  N1  UNL     1      48.333 -22.887  37.335  1.00  0.00    -0.262 N 
HETATM   45  N2  UNL     1      49.219 -21.983  36.946  1.00  0.00    -0.130 N 
ATOM     46  H1  UNL     1      48.629 -23.603  37.999  1.00  0.00     0.189 HD
HETATM   47  C4  UNL     1      48.907 -21.008  36.073  1.00  0.00     0.696 A 
ATOM     48  H2  UNL     1      50.167 -22.027  37.319  1.00  0.00     0.205 HD
HETATM   49  N5  UNL     1      47.648 -20.999  35.617  1.00  0.00    -0.169 N 
ATOM     50  H5  UNL     1      47.377 -20.272  34.955  1.00  0.00     0.186 HD
BRANCH  43  51
HETATM   51  O1  UNL     1      46.159 -23.876  37.326  1.00  0.00    -0.332 OA
BRANCH  51  52
HETATM   52  C2  UNL     1      46.071 -24.306  38.669  1.00  0.00     0.173 C 
HETATM   53  C1  UNL     1      45.514 -23.275  39.606  1.00  0.00     0.034 C 
ENDBRANCH  51  52
ENDBRANCH  43  51
BRANCH  47  54
HETATM   54  N3  UNL     1      49.844 -20.018  35.653  1.00  0.00    -0.214 N 
HETATM   55  C5  UNL     1      49.420 -18.714  35.185  1.00  0.00     0.144 C 
HETATM   56  C6  UNL     1      50.259 -18.274  34.003  1.00  0.00     0.054 C 
HETATM   57  C7  UNL     1      51.031 -19.413  33.386  1.00  0.00     0.151 C 
HETATM   58  C8  UNL     1      51.965 -20.065  34.382  1.00  0.00     0.230 C 
HETATM   59  C9  UNL     1      51.273 -20.274  35.694  1.00  0.00     0.176 C 
BRANCH  57  60
HETATM   60  O2  UNL     1      50.119 -20.312  32.842  1.00  0.00    -0.393 OA
ATOM     61  H2  UNL     1      50.494 -20.671  32.046  1.00  0.00     0.210 HD
ENDBRANCH  57  60
BRANCH  58  62
HETATM   62  N4  UNL     1      52.472 -21.301  33.815  1.00  0.00    -0.071 N 
ATOM     63  H43 UNL     1      52.336 -21.350  32.805  1.00  0.00     0.274 HD
ATOM     64  H42 UNL     1      53.491 -21.345  33.823  1.00  0.00     0.274 HD
ATOM     65  H41 UNL     1      52.046 -22.089  34.303  1.00  0.00     0.274 HD
ENDBRANCH  58  62
ENDBRANCH  47  54
ENDBRANCH  39  42
ENDBRANCH   1  37
TORSDOF 17
ENDMDL
MODEL 3
REMARK VINA RESULT: -7.265055622      1.186      1.441
REMARK  17 active torsions:
REMARK  status: ('A' for Active; 'I' for Inactive)
REMARK    1  A    between atoms: C2_2  and  O1_3 
REMARK    2  A    between atoms: O1_3  and  C3_4 
REMARK    3  A    between atoms: C4_9  and  N3_10 
REMARK    4  A    between atoms: C7_13  and  O2_14 
REMARK    5  A    between atoms: C8_16  and  N4_17 
REMARK    6  A    between atoms: C10_24  and  N6_25 
REMARK    7  A    between atoms: C12_27  and  C13_28 
REMARK       I    between atoms: C13_28  and  N7_30 
REMARK    8  A    between atoms: N7_30  and  C14_32 
REMARK    9  A    between atoms: C18_38  and  N9_39 
REMARK   10  A    between atoms: N9_39  and  C19_40 
REMARK   11  A    between atoms: N9_39  and  C22_47 
REMARK   12  A    between atoms: C19_40  and  C20_41 
REMARK   13  A    between atoms: C20_41  and  C21_42 
REMARK   14  A    between atoms: C21_42  and  N10_43 
REMARK   15  A    between atoms: C23_50  and  N12_51 
REMARK   16  A    between atoms: N13_54  and  N14_55 
REMARK   17  A    between atoms: C24_58  and  O4_59 
ROOT
HETATM    1  C13 UNL     1      46.406 -21.583  33.245  1.00  0.00     0.275 C 
HETATM    2  O3  UNL     1      46.498 -22.489  32.385  1.00  0.00    -0.266 OA
HETATM    3  N7  UNL     1      45.185 -21.089  33.709  1.00  0.00    -0.319 N 
ATOM      4  H7  UNL     1      45.265 -20.358  34.415  1.00  0.00     0.169 HD
ENDROOT
BRANCH   3   5
HETATM    5  C14 UNL     1      43.858 -21.431  33.366  1.00  0.00     0.066 C 
HETATM    6  C15 UNL     1      43.116 -22.119  34.206  1.00  0.00     0.122 C 
HETATM    7  N8  UNL     1      41.757 -22.567  34.049  1.00  0.00    -0.350 N 
HETATM    8  C16 UNL     1      40.954 -22.759  35.237  1.00  0.00     0.156 C 
HETATM    9  C17 UNL     1      41.126 -22.868  32.815  1.00  0.00     0.122 C 
HETATM   10  S1  UNL     1      40.042 -24.128  32.870  1.00  0.00    -0.061 SA
HETATM   11  C18 UNL     1      41.318 -22.230  31.517  1.00  0.00     0.248 C 
HETATM   12  N15 UNL     1      42.403 -21.329  31.387  1.00  0.00    -0.370 N 
HETATM   13  C25 UNL     1      43.407 -20.964  32.038  1.00  0.00     0.116 C 
ATOM     14  H15 UNL     1      42.350 -20.829  30.499  1.00  0.00     0.161 HD
BRANCH  11  15
HETATM   15  N9  UNL     1      40.080 -21.650  30.964  1.00  0.00    -0.336 N 
BRANCH  15  16
HETATM   16  C19 UNL     1      39.638 -20.399  31.555  1.00  0.00     0.129 C 
BRANCH  16  17
HETATM   17  C20 UNL     1      39.407 -19.347  30.496  1.00  0.00     0.047 C 
BRANCH  17  18
HETATM   18  C21 UNL     1      37.976 -18.870  30.482  1.00  0.00     0.231 C 
BRANCH  18  19
HETATM   19  N10 UNL     1      37.350 -19.217  29.195  1.00  0.00    -0.079 N 
ATOM     20 3H10 UNL     1      37.279 -18.413  28.572  1.00  0.00     0.274 HD
ATOM     21 2H10 UNL     1      37.958 -19.798  28.616  1.00  0.00     0.274 HD
ATOM     22 1H10 UNL     1      36.444 -19.656  29.361  1.00  0.00     0.274 HD
ENDBRANCH  18  19
ENDBRANCH  17  18
ENDBRANCH  16  17
ENDBRANCH  15  16
BRANCH  15  23
HETATM   23  C22 UNL     1      39.317 -22.220  29.930  1.00  0.00     0.175 A 
HETATM   24  N11 UNL     1      39.692 -22.421  28.636  1.00  0.00    -0.171 N 
HETATM   25  C23 UNL     1      38.664 -22.992  27.995  1.00  0.00     0.700 A 
ATOM     26  H11 UNL     1      40.595 -22.178  28.228  1.00  0.00     0.186 HD
HETATM   27  N13 UNL     1      37.651 -23.154  28.859  1.00  0.00    -0.067 N 
HETATM   28  C24 UNL     1      38.016 -22.693  30.049  1.00  0.00     0.224 A 
BRANCH  25  29
HETATM   29  N12 UNL     1      38.654 -23.331  26.753  1.00  0.00    -0.233 N 
ATOM     30 2H12 UNL     1      38.558 -22.693  25.963  1.00  0.00     0.174 HD
ATOM     31 1H12 UNL     1      38.740 -24.284  26.400  1.00  0.00     0.174 HD
ENDBRANCH  25  29
BRANCH  27  32
HETATM   32  N14 UNL     1      36.403 -23.733  28.526  1.00  0.00    -0.322 N 
ATOM     33 2H14 UNL     1      36.195 -24.295  27.701  1.00  0.00     0.178 HD
ATOM     34 1H14 UNL     1      35.558 -23.643  29.091  1.00  0.00     0.178 HD
ENDBRANCH  27  32
BRANCH  28  35
HETATM   35  O4  UNL     1      37.263 -22.676  31.211  1.00  0.00    -0.342 OA
ATOM     36  H4  UNL     1      36.338 -22.885  31.268  1.00  0.00     0.219 HD
ENDBRANCH  28  35
ENDBRANCH  15  23
ENDBRANCH  11  15
ENDBRANCH   3   5
BRANCH   1  37
HETATM   37  C12 UNL     1      47.694 -21.054  33.746  1.00  0.00     0.136 A 
HETATM   38  C11 UNL     1      48.853 -20.652  33.141  1.00  0.00     0.155 A 
HETATM   39  N6  UNL     1      49.404 -20.333  34.347  1.00  0.00    -0.242 N 
HETATM   40  N16 UNL     1      48.286 -20.726  34.894  1.00  0.00    -0.282 N 
HETATM   41  C26 UNL     1      47.823 -20.785  36.293  1.00  0.00     0.179 C 
BRANCH  39  42
HETATM   42  C10 UNL     1      50.670 -19.793  34.667  1.00  0.00     0.195 A 
HETATM   43  C3  UNL     1      51.741 -20.617  34.928  1.00  0.00     0.205 A 
HETATM   44  N1  UNL     1      52.907 -20.004  35.234  1.00  0.00    -0.262 N 
HETATM   45  N2  UNL     1      53.040 -18.687  35.286  1.00  0.00    -0.130 N 
ATOM     46  H1  UNL     1      53.722 -20.583  35.435  1.00  0.00     0.189 HD
HETATM   47  C4  UNL     1      52.012 -17.856  35.035  1.00  0.00     0.696 A 
ATOM     48  H2  UNL     1      53.949 -18.291  35.524  1.00  0.00     0.205 HD
HETATM   49  N5  UNL     1      50.843 -18.432  34.730  1.00  0.00    -0.169 N 
ATOM     50  H5  UNL     1      50.042 -17.831  34.534  1.00  0.00     0.186 HD
BRANCH  43  51
HETATM   51  O1  UNL     1      51.647 -22.002  34.883  1.00  0.00    -0.332 OA
BRANCH  51  52
HETATM   52  C2  UNL     1      51.859 -22.830  36.007  1.00  0.00     0.173 C 
HETATM   53  C1  UNL     1      50.901 -22.586  37.137  1.00  0.00     0.034 C 
ENDBRANCH  51  52
ENDBRANCH  43  51
BRANCH  47  54
HETATM   54  N3  UNL     1      52.134 -16.436  35.099  1.00  0.00    -0.214 N 
HETATM   55  C5  UNL     1      51.122 -15.610  35.726  1.00  0.00     0.144 C 
HETATM   56  C6  UNL     1      50.897 -14.344  34.925  1.00  0.00     0.054 C 
HETATM   57  C7  UNL     1      51.468 -14.433  33.532  1.00  0.00     0.151 C 
HETATM   58  C8  UNL     1      52.958 -14.694  33.550  1.00  0.00     0.230 C 
HETATM   59  C9  UNL     1      53.295 -15.758  34.548  1.00  0.00     0.176 C 
BRANCH  57  60
HETATM   60  O2  UNL     1      50.763 -15.409  32.834  1.00  0.00    -0.393 OA
ATOM     61  H2  UNL     1      50.090 -14.979  32.320  1.00  0.00     0.210 HD
ENDBRANCH  57  60
BRANCH  58  62
HETATM   62  N4  UNL     1      53.394 -15.030  32.206  1.00  0.00    -0.071 N 
ATOM     63  H43 UNL     1      52.829 -15.768  31.788  1.00  0.00     0.274 HD
ATOM     64  H42 UNL     1      53.186 -14.292  31.534  1.00  0.00     0.274 HD
ATOM     65  H41 UNL     1      54.387 -15.265  32.230  1.00  0.00     0.274 HD
ENDBRANCH  58  62
ENDBRANCH  47  54
ENDBRANCH  39  42
ENDBRANCH   1  37
TORSDOF 17
ENDMDL
MODEL 4
REMARK VINA RESULT: -7.255777046      3.194      4.305
REMARK  17 active torsions:
REMARK  status: ('A' for Active; 'I' for Inactive)
REMARK    1  A    between atoms: C2_2  and  O1_3 
REMARK    2  A    between atoms: O1_3  and  C3_4 
REMARK    3  A    between atoms: C4_9  and  N3_10 
REMARK    4  A    between atoms: C7_13  and  O2_14 
REMARK    5  A    between atoms: C8_16  and  N4_17 
REMARK    6  A    between atoms: C10_24  and  N6_25 
REMARK    7  A    between atoms: C12_27  and  C13_28 
REMARK       I    between atoms: C13_28  and  N7_30 
REMARK    8  A    between atoms: N7_30  and  C14_32 
REMARK    9  A    between atoms: C18_38  and  N9_39 
REMARK   10  A    between atoms: N9_39  and  C19_40 
REMARK   11  A    between atoms: N9_39  and  C22_47 
REMARK   12  A    between atoms: C19_40  and  C20_41 
REMARK   13  A    between atoms: C20_41  and  C21_42 
REMARK   14  A    between atoms: C21_42  and  N10_43 
REMARK   15  A    between atoms: C23_50  and  N12_51 
REMARK   16  A    between atoms: N13_54  and  N14_55 
REMARK   17  A    between atoms: C24_58  and  O4_59 
ROOT
HETATM    1  C13 UNL     1      43.375 -20.996  32.420  1.00  0.00     0.275 C 
HETATM    2  O3  UNL     1      42.945 -22.112  32.049  1.00  0.00    -0.266 OA
HETATM    3  N7  UNL     1      42.563 -19.868  32.554  1.00  0.00    -0.319 N 
ATOM      4  H7  UNL     1      43.050 -19.031  32.872  1.00  0.00     0.169 HD
ENDROOT
BRANCH   3   5
HETATM    5  C14 UNL     1      41.180 -19.691  32.324  1.00  0.00     0.066 C 
HETATM    6  C15 UNL     1      40.301 -20.275  33.108  1.00  0.00     0.122 C 
HETATM    7  N8  UNL     1      38.863 -20.226  33.043  1.00  0.00    -0.350 N 
HETATM    8  C16 UNL     1      38.113 -20.408  34.267  1.00  0.00     0.156 C 
HETATM    9  C17 UNL     1      38.098 -20.037  31.865  1.00  0.00     0.122 C 
HETATM   10  S1  UNL     1      36.659 -20.871  31.822  1.00  0.00    -0.061 SA
HETATM   11  C18 UNL     1      38.416 -19.226  30.695  1.00  0.00     0.248 C 
HETATM   12  N15 UNL     1      39.731 -18.708  30.599  1.00  0.00    -0.370 N 
HETATM   13  C25 UNL     1      40.835 -18.829  31.174  1.00  0.00     0.116 C 
ATOM     14  H15 UNL     1      39.797 -18.037  29.833  1.00  0.00     0.161 HD
BRANCH  11  15
HETATM   15  N9  UNL     1      37.414 -18.181  30.420  1.00  0.00    -0.336 N 
BRANCH  15  16
HETATM   16  C19 UNL     1      37.277 -17.772  29.034  1.00  0.00     0.129 C 
BRANCH  16  17
HETATM   17  C20 UNL     1      37.428 -16.276  28.887  1.00  0.00     0.047 C 
BRANCH  17  18
HETATM   18  C21 UNL     1      38.876 -15.854  28.907  1.00  0.00     0.231 C 
BRANCH  18  19
HETATM   19  N10 UNL     1      39.060 -14.758  29.875  1.00  0.00    -0.079 N 
ATOM     20 3H10 UNL     1      38.214 -14.200  29.989  1.00  0.00     0.274 HD
ATOM     21 2H10 UNL     1      39.139 -15.101  30.833  1.00  0.00     0.274 HD
ATOM     22 1H10 UNL     1      39.862 -14.190  29.603  1.00  0.00     0.274 HD
ENDBRANCH  18  19
ENDBRANCH  17  18
ENDBRANCH  16  17
ENDBRANCH  15  16
BRANCH  15  23
HETATM   23  C22 UNL     1      36.606 -17.566  31.393  1.00  0.00     0.175 A 
HETATM   24  N11 UNL     1      35.262 -17.706  31.564  1.00  0.00    -0.171 N 
HETATM   25  C23 UNL     1      34.900 -16.948  32.606  1.00  0.00     0.700 A 
ATOM     26  H11 UNL     1      34.642 -18.285  30.997  1.00  0.00     0.186 HD
HETATM   27  N13 UNL     1      35.988 -16.333  33.094  1.00  0.00    -0.067 N 
HETATM   28  C24 UNL     1      37.046 -16.689  32.376  1.00  0.00     0.224 A 
BRANCH  25  29
HETATM   29  N12 UNL     1      33.702 -16.831  33.065  1.00  0.00    -0.233 N 
ATOM     30 2H12 UNL     1      32.892 -17.371  32.759  1.00  0.00     0.174 HD
ATOM     31 1H12 UNL     1      33.409 -16.180  33.793  1.00  0.00     0.174 HD
ENDBRANCH  25  29
BRANCH  27  32
HETATM   32  N14 UNL     1      35.978 -15.455  34.203  1.00  0.00    -0.322 N 
ATOM     33 2H14 UNL     1      35.594 -14.510  34.227  1.00  0.00     0.178 HD
ATOM     34 1H14 UNL     1      36.368 -15.680  35.119  1.00  0.00     0.178 HD
ENDBRANCH  27  32
BRANCH  28  35
HETATM   35  O4  UNL     1      38.357 -16.279  32.553  1.00  0.00    -0.342 OA
ATOM     36  H4  UNL     1      38.649 -15.376  32.596  1.00  0.00     0.219 HD
ENDBRANCH  28  35
ENDBRANCH  15  23
ENDBRANCH  11  15
ENDBRANCH   3   5
BRANCH   1  37
HETATM   37  C12 UNL     1      44.826 -20.941  32.708  1.00  0.00     0.136 A 
HETATM   38  C11 UNL     1      45.913 -20.488  32.014  1.00  0.00     0.155 A 
HETATM   39  N6  UNL     1      46.744 -20.823  33.042  1.00  0.00    -0.242 N 
HETATM   40  N16 UNL     1      45.686 -21.249  33.678  1.00  0.00    -0.282 N 
HETATM   41  C26 UNL     1      45.495 -21.855  35.009  1.00  0.00     0.179 C 
BRANCH  39  42
HETATM   42  C10 UNL     1      48.142 -20.675  33.183  1.00  0.00     0.195 A 
HETATM   43  C3  UNL     1      49.005 -21.605  32.650  1.00  0.00     0.205 A 
HETATM   44  N1  UNL     1      50.324 -21.380  32.847  1.00  0.00    -0.262 N 
HETATM   45  N2  UNL     1      50.787 -20.331  33.510  1.00  0.00    -0.130 N 
ATOM     46  H1  UNL     1      50.994 -22.049  32.468  1.00  0.00     0.189 HD
HETATM   47  C4  UNL     1      49.969 -19.404  34.040  1.00  0.00     0.696 A 
ATOM     48  H2  UNL     1      51.795 -20.222  33.621  1.00  0.00     0.205 HD
HETATM   49  N5  UNL     1      48.656 -19.599  33.864  1.00  0.00    -0.169 N 
ATOM     50  H5  UNL     1      48.007 -18.916  34.255  1.00  0.00     0.186 HD
BRANCH  43  51
HETATM   51  O1  UNL     1      48.563 -22.718  31.947  1.00  0.00    -0.332 OA
BRANCH  51  52
HETATM   52  C2  UNL     1      48.271 -23.957  32.560  1.00  0.00     0.173 C 
HETATM   53  C1  UNL     1      46.854 -24.414  32.370  1.00  0.00     0.034 C 
ENDBRANCH  51  52
ENDBRANCH  43  51
BRANCH  47  54
HETATM   54  N3  UNL     1      50.449 -18.275  34.768  1.00  0.00    -0.214 N 
HETATM   55  C5  UNL     1      49.555 -17.249  35.265  1.00  0.00     0.144 C 
HETATM   56  C6  UNL     1      50.172 -15.876  35.090  1.00  0.00     0.054 C 
HETATM   57  C7  UNL     1      51.336 -15.883  34.132  1.00  0.00     0.151 C 
HETATM   58  C8  UNL     1      52.437 -16.814  34.591  1.00  0.00     0.230 C 
HETATM   59  C9  UNL     1      51.865 -18.117  35.057  1.00  0.00     0.176 C 
BRANCH  57  60
HETATM   60  O2  UNL     1      50.856 -16.206  32.866  1.00  0.00    -0.393 OA
ATOM     61  H2  UNL     1      51.142 -15.533  32.259  1.00  0.00     0.210 HD
ENDBRANCH  57  60
BRANCH  58  62
HETATM   62  N4  UNL     1      53.395 -16.979  33.512  1.00  0.00    -0.071 N 
ATOM     63  H43 UNL     1      53.664 -16.090  33.092  1.00  0.00     0.274 HD
ATOM     64  H42 UNL     1      54.315 -17.262  33.849  1.00  0.00     0.274 HD
ATOM     65  H41 UNL     1      53.015 -17.634  32.828  1.00  0.00     0.274 HD
ENDBRANCH  58  62
ENDBRANCH  47  54
ENDBRANCH  39  42
ENDBRANCH   1  37
TORSDOF 17
ENDMDL
MODEL 5
REMARK VINA RESULT: -7.189191754      1.302      2.489
REMARK  17 active torsions:
REMARK  status: ('A' for Active; 'I' for Inactive)
REMARK    1  A    between atoms: C2_2  and  O1_3 
REMARK    2  A    between atoms: O1_3  and  C3_4 
REMARK    3  A    between atoms: C4_9  and  N3_10 
REMARK    4  A    between atoms: C7_13  and  O2_14 
REMARK    5  A    between atoms: C8_16  and  N4_17 
REMARK    6  A    between atoms: C10_24  and  N6_25 
REMARK    7  A    between atoms: C12_27  and  C13_28 
REMARK       I    between atoms: C13_28  and  N7_30 
REMARK    8  A    between atoms: N7_30  and  C14_32 
REMARK    9  A    between atoms: C18_38  and  N9_39 
REMARK   10  A    between atoms: N9_39  and  C19_40 
REMARK   11  A    between atoms: N9_39  and  C22_47 
REMARK   12  A    between atoms: C19_40  and  C20_41 
REMARK   13  A    between atoms: C20_41  and  C21_42 
REMARK   14  A    between atoms: C21_42  and  N10_43 
REMARK   15  A    between atoms: C23_50  and  N12_51 
REMARK   16  A    between atoms: N13_54  and  N14_55 
REMARK   17  A    between atoms: C24_58  and  O4_59 
ROOT
HETATM    1  C13 UNL     1      45.824 -21.413  33.753  1.00  0.00     0.275 C 
HETATM    2  O3  UNL     1      45.634 -22.650  33.788  1.00  0.00    -0.266 OA
HETATM    3  N7  UNL     1      44.834 -20.496  33.396  1.00  0.00    -0.319 N 
ATOM      4  H7  UNL     1      45.131 -19.521  33.420  1.00  0.00     0.169 HD
ENDROOT
BRANCH   3   5
HETATM    5  C14 UNL     1      43.490 -20.691  33.006  1.00  0.00     0.066 C 
HETATM    6  C15 UNL     1      42.531 -20.661  33.905  1.00  0.00     0.122 C 
HETATM    7  N8  UNL     1      41.115 -20.838  33.719  1.00  0.00    -0.350 N 
HETATM    8  C16 UNL     1      40.213 -20.202  34.654  1.00  0.00     0.156 C 
HETATM    9  C17 UNL     1      40.509 -21.612  32.697  1.00  0.00     0.122 C 
HETATM   10  S1  UNL     1      39.115 -22.401  33.148  1.00  0.00    -0.061 SA
HETATM   11  C18 UNL     1      40.957 -21.815  31.324  1.00  0.00     0.248 C 
HETATM   12  N15 UNL     1      42.256 -21.363  30.988  1.00  0.00    -0.370 N 
HETATM   13  C25 UNL     1      43.276 -20.920  31.561  1.00  0.00     0.116 C 
ATOM     14  H15 UNL     1      42.404 -21.412  29.980  1.00  0.00     0.161 HD
BRANCH  11  15
HETATM   15  N9  UNL     1      39.970 -21.381  30.319  1.00  0.00    -0.336 N 
BRANCH  15  16
HETATM   16  C19 UNL     1      39.827 -22.232  29.151  1.00  0.00     0.129 C 
BRANCH  16  17
HETATM   17  C20 UNL     1      38.886 -23.381  29.423  1.00  0.00     0.047 C 
BRANCH  17  18
HETATM   18  C21 UNL     1      38.514 -24.114  28.158  1.00  0.00     0.231 C 
BRANCH  18  19
HETATM   19  N10 UNL     1      38.934 -23.327  26.986  1.00  0.00    -0.079 N 
ATOM     20 3H10 UNL     1      38.654 -23.764  26.109  1.00  0.00     0.274 HD
ATOM     21 2H10 UNL     1      38.403 -22.460  26.895  1.00  0.00     0.274 HD
ATOM     22 1H10 UNL     1      39.940 -23.159  27.029  1.00  0.00     0.274 HD
ENDBRANCH  18  19
ENDBRANCH  17  18
ENDBRANCH  16  17
ENDBRANCH  15  16
BRANCH  15  23
HETATM   23  C22 UNL     1      39.180 -20.222  30.416  1.00  0.00     0.175 A 
HETATM   24  N11 UNL     1      37.820 -20.142  30.422  1.00  0.00    -0.171 N 
HETATM   25  C23 UNL     1      37.486 -18.851  30.534  1.00  0.00     0.700 A 
ATOM     26  H11 UNL     1      37.173 -20.927  30.353  1.00  0.00     0.186 HD
HETATM   27  N13 UNL     1      38.607 -18.116  30.596  1.00  0.00    -0.067 N 
HETATM   28  C24 UNL     1      39.659 -18.923  30.527  1.00  0.00     0.224 A 
BRANCH  25  29
HETATM   29  N12 UNL     1      36.283 -18.391  30.575  1.00  0.00    -0.233 N 
ATOM     30 2H12 UNL     1      35.456 -18.855  30.199  1.00  0.00     0.174 HD
ATOM     31 1H12 UNL     1      36.004 -17.502  30.989  1.00  0.00     0.174 HD
ENDBRANCH  25  29
BRANCH  27  32
HETATM   32  N14 UNL     1      38.631 -16.707  30.722  1.00  0.00    -0.322 N 
ATOM     33 2H14 UNL     1      38.084 -16.039  30.179  1.00  0.00     0.178 HD
ATOM     34 1H14 UNL     1      39.217 -16.199  31.385  1.00  0.00     0.178 HD
ENDBRANCH  27  32
BRANCH  28  35
HETATM   35  O4  UNL     1      40.995 -18.563  30.559  1.00  0.00    -0.342 OA
ATOM     36  H4  UNL     1      41.627 -18.855  31.205  1.00  0.00     0.219 HD
ENDBRANCH  28  35
ENDBRANCH  15  23
ENDBRANCH  11  15
ENDBRANCH   3   5
BRANCH   1  37
HETATM   37  C12 UNL     1      47.190 -20.973  34.117  1.00  0.00     0.136 A 
HETATM   38  C11 UNL     1      48.249 -20.484  33.403  1.00  0.00     0.155 A 
HETATM   39  N6  UNL     1      48.992 -20.358  34.540  1.00  0.00    -0.242 N 
HETATM   40  N16 UNL     1      47.964 -20.830  35.191  1.00  0.00    -0.282 N 
HETATM   41  C26 UNL     1      47.726 -21.106  36.620  1.00  0.00     0.179 C 
BRANCH  39  42
HETATM   42  C10 UNL     1      50.307 -19.878  34.732  1.00  0.00     0.195 A 
HETATM   43  C3  UNL     1      51.362 -20.751  34.865  1.00  0.00     0.205 A 
HETATM   44  N1  UNL     1      52.580 -20.194  35.056  1.00  0.00    -0.262 N 
HETATM   45  N2  UNL     1      52.774 -18.885  35.114  1.00  0.00    -0.130 N 
ATOM     46  H1  UNL     1      53.386 -20.811  35.161  1.00  0.00     0.189 HD
HETATM   47  C4  UNL     1      51.764 -18.007  34.986  1.00  0.00     0.696 A 
ATOM     48  H2  UNL     1      53.720 -18.532  35.260  1.00  0.00     0.205 HD
HETATM   49  N5  UNL     1      50.545 -18.527  34.797  1.00  0.00    -0.169 N 
ATOM     50  H5  UNL     1      49.755 -17.889  34.697  1.00  0.00     0.186 HD
BRANCH  43  51
HETATM   51  O1  UNL     1      51.203 -22.130  34.809  1.00  0.00    -0.332 OA
BRANCH  51  52
HETATM   52  C2  UNL     1      51.614 -23.001  35.843  1.00  0.00     0.173 C 
HETATM   53  C1  UNL     1      50.965 -22.726  37.168  1.00  0.00     0.034 C 
ENDBRANCH  51  52
ENDBRANCH  43  51
BRANCH  47  54
HETATM   54  N3  UNL     1      51.953 -16.595  35.059  1.00  0.00    -0.214 N 
HETATM   55  C5  UNL     1      50.964 -15.721  35.656  1.00  0.00     0.144 C 
HETATM   56  C6  UNL     1      50.828 -14.444  34.852  1.00  0.00     0.054 C 
HETATM   57  C7  UNL     1      51.437 -14.558  33.478  1.00  0.00     0.151 C 
HETATM   58  C8  UNL     1      52.912 -14.893  33.542  1.00  0.00     0.230 C 
HETATM   59  C9  UNL     1      53.163 -15.974  34.547  1.00  0.00     0.176 C 
BRANCH  57  60
HETATM   60  O2  UNL     1      50.708 -15.496  32.755  1.00  0.00    -0.393 OA
ATOM     61  H2  UNL     1      51.319 -16.051  32.285  1.00  0.00     0.210 HD
ENDBRANCH  57  60
BRANCH  58  62
HETATM   62  N4  UNL     1      53.373 -15.248  32.212  1.00  0.00    -0.071 N 
ATOM     63  H43 UNL     1      53.129 -16.205  31.959  1.00  0.00     0.274 HD
ATOM     64  H42 UNL     1      52.852 -14.768  31.479  1.00  0.00     0.274 HD
ATOM     65  H41 UNL     1      54.377 -15.073  32.152  1.00  0.00     0.274 HD
ENDBRANCH  58  62
ENDBRANCH  47  54
ENDBRANCH  39  42
ENDBRANCH   1  37
TORSDOF 17
ENDMDL
