MODEL 1
REMARK VINA RESULT: -9.176845550      0.000      0.000
REMARK  14 active torsions:
REMARK  status: ('A' for Active; 'I' for Inactive)
REMARK    1  A    between atoms: O1_2  and  C2_3 
REMARK    2  A    between atoms: C2_3  and  C3_5 
REMARK    3  A    between atoms: C3_5  and  N1_6 
REMARK    4  A    between atoms: C3_5  and  C9_24 
REMARK    5  A    between atoms: N1_6  and  O3_7 
REMARK    6  A    between atoms: O3_7  and  C4_8 
REMARK    7  A    between atoms: C4_8  and  C6_10 
REMARK    8  A    between atoms: C4_8  and  C8_21 
REMARK    9  A    between atoms: C6_10  and  S1_11 
REMARK   10  A    between atoms: S1_11  and  C7_12 
REMARK       I    between atoms: C9_24  and  N6_26 
REMARK   11  A    between atoms: C12_32  and  N8_33 
REMARK   12  A    between atoms: C14_41  and  C15_42 
REMARK   13  A    between atoms: C15_42  and  O7_43 
REMARK   14  A    between atoms: N12_45  and  C16_47 
ROOT
HETATM    1  C9  UNL     1      36.175 -20.733  34.006  1.00  0.00     0.253 C 
HETATM    2  O6  UNL     1      36.486 -21.857  34.462  1.00  0.00    -0.271 OA
HETATM    3  N6  UNL     1      37.163 -19.771  33.780  1.00  0.00    -0.324 N 
ATOM      4  H6  UNL     1      37.304 -19.117  34.550  1.00  0.00     0.169 HD
HETATM    5  C10 UNL     1      37.909 -19.578  32.779  1.00  0.00     0.076 C 
HETATM    6  C11 UNL     1      38.859 -18.440  32.893  1.00  0.00     0.181 A 
HETATM    7  N7  UNL     1      39.024 -17.423  33.743  1.00  0.00    -0.171 N 
ATOM      8  H7  UNL     1      38.441 -17.250  34.562  1.00  0.00     0.186 HD
HETATM    9  C12 UNL     1      40.067 -16.659  33.367  1.00  0.00     0.693 A 
HETATM   10  N9  UNL     1      40.544 -17.248  32.242  1.00  0.00    -0.112 N 
ATOM     11  H9  UNL     1      41.341 -16.919  31.697  1.00  0.00     0.207 HD
HETATM   12  N10 UNL     1      39.813 -18.316  31.963  1.00  0.00    -0.166 N 
HETATM   13  N11 UNL     1      39.929 -19.250  30.896  1.00  0.00    -0.104 NA
HETATM   14  C13 UNL     1      39.401 -20.579  31.206  1.00  0.00     0.158 C 
HETATM   15  C14 UNL     1      39.727 -21.476  30.041  1.00  0.00     0.018 C 
HETATM   16  C19 UNL     1      38.853 -22.167  29.362  1.00  0.00    -0.062 C 
HETATM   17  C20 UNL     1      39.292 -23.021  28.219  1.00  0.00     0.045 C 
HETATM   18  C21 UNL     1      37.359 -22.253  29.622  1.00  0.00     0.109 C 
HETATM   19  S2  UNL     1      37.093 -21.855  31.404  1.00  0.00    -0.151 SA
HETATM   20  C22 UNL     1      37.974 -20.308  31.518  1.00  0.00     0.127 C 
ENDROOT
BRANCH   1  21
HETATM   21  C3  UNL     1      34.734 -20.472  33.722  1.00  0.00     0.297 C 
BRANCH  21  22
HETATM   22  C2  UNL     1      34.007 -21.713  33.421  1.00  0.00     0.289 C 
HETATM   23  O2  UNL     1      33.873 -22.183  32.273  1.00  0.00    -0.263 OA
BRANCH  22  24
HETATM   24  O1  UNL     1      33.440 -22.391  34.503  1.00  0.00    -0.325 OA
HETATM   25  C1  UNL     1      33.533 -23.805  34.550  1.00  0.00     0.213 C 
ENDBRANCH  22  24
ENDBRANCH  21  22
BRANCH  21  26
HETATM   26  N1  UNL     1      34.571 -19.538  32.641  1.00  0.00    -0.075 NA
BRANCH  26  27
HETATM   27  O3  UNL     1      34.082 -18.375  33.068  1.00  0.00    -0.262 OA
BRANCH  27  28
HETATM   28  C4  UNL     1      34.520 -17.293  32.358  1.00  0.00     0.177 C 
HETATM   29  C5  UNL     1      33.340 -16.517  31.754  1.00  0.00     0.061 C 
BRANCH  28  30
HETATM   30  C6  UNL     1      35.387 -17.699  31.195  1.00  0.00     0.133 C 
BRANCH  30  31
HETATM   31  S1  UNL     1      35.834 -16.319  30.167  1.00  0.00    -0.088 SA
BRANCH  31  32
HETATM   32  C7  UNL     1      37.521 -16.270  29.671  1.00  0.00     0.176 A 
HETATM   33  N2  UNL     1      38.482 -15.349  29.785  1.00  0.00    -0.263 N 
HETATM   34  N3  UNL     1      39.585 -15.829  29.238  1.00  0.00    -0.226 N 
ATOM     35  H2  UNL     1      38.382 -14.432  30.219  1.00  0.00     0.190 HD
HETATM   36  N4  UNL     1      39.366 -17.039  28.771  1.00  0.00    -0.226 N 
ATOM     37  H3  UNL     1      40.475 -15.334  29.187  1.00  0.00     0.210 HD
HETATM   38  N5  UNL     1      38.118 -17.309  29.032  1.00  0.00    -0.263 N 
ATOM     39  H4  UNL     1      40.039 -17.644  28.298  1.00  0.00     0.210 HD
ATOM     40  H5  UNL     1      37.652 -18.183  28.789  1.00  0.00     0.190 HD
ENDBRANCH  31  32
ENDBRANCH  30  31
ENDBRANCH  28  30
BRANCH  28  41
HETATM   41  C8  UNL     1      35.276 -16.289  33.155  1.00  0.00     0.211 C 
HETATM   42  O4  UNL     1      36.490 -16.505  33.453  1.00  0.00    -0.646 OA
HETATM   43  O5  UNL     1      34.750 -15.097  33.615  1.00  0.00    -0.646 OA
ENDBRANCH  28  41
ENDBRANCH  27  28
ENDBRANCH  26  27
ENDBRANCH  21  26
ENDBRANCH   1  21
BRANCH   9  44
HETATM   44  N8  UNL     1      40.551 -15.601  33.908  1.00  0.00    -0.233 N 
ATOM     45  H82 UNL     1      41.504 -15.258  33.778  1.00  0.00     0.174 HD
ATOM     46  H81 UNL     1      40.115 -14.927  34.537  1.00  0.00     0.174 HD
ENDBRANCH   9  44
BRANCH  15  47
HETATM   47  C15 UNL     1      41.183 -21.498  29.794  1.00  0.00     0.150 C 
HETATM   48  N12 UNL     1      42.155 -20.551  29.721  1.00  0.00    -0.316 N 
ATOM     49  H12 UNL     1      41.898 -19.573  29.858  1.00  0.00     0.170 HD
BRANCH  47  50
HETATM   50  O7  UNL     1      41.596 -22.731  29.602  1.00  0.00    -0.346 OA
ATOM     51  H7  UNL     1      42.407 -22.735  29.110  1.00  0.00     0.219 HD
ENDBRANCH  47  50
BRANCH  48  52
HETATM   52  C16 UNL     1      43.549 -20.878  29.457  1.00  0.00     0.170 A 
HETATM   53  C17 UNL     1      44.631 -20.669  30.238  1.00  0.00     0.149 A 
HETATM   54  N13 UNL     1      45.746 -21.143  29.578  1.00  0.00    -0.308 N 
HETATM   55  C18 UNL     1      45.274 -21.619  28.416  1.00  0.00     0.371 A 
ATOM     56  H13 UNL     1      46.714 -21.133  29.902  1.00  0.00     0.170 HD
HETATM   57  O8  UNL     1      46.018 -22.144  27.529  1.00  0.00    -0.238 OA
HETATM   58  O9  UNL     1      43.985 -21.458  28.359  1.00  0.00    -0.242 OA
ENDBRANCH  48  52
ENDBRANCH  15  47
TORSDOF 14
ENDMDL
MODEL 2
REMARK VINA RESULT: -9.085801228      3.665      8.097
REMARK  14 active torsions:
REMARK  status: ('A' for Active; 'I' for Inactive)
REMARK    1  A    between atoms: O1_2  and  C2_3 
REMARK    2  A    between atoms: C2_3  and  C3_5 
REMARK    3  A    between atoms: C3_5  and  N1_6 
REMARK    4  A    between atoms: C3_5  and  C9_24 
REMARK    5  A    between atoms: N1_6  and  O3_7 
REMARK    6  A    between atoms: O3_7  and  C4_8 
REMARK    7  A    between atoms: C4_8  and  C6_10 
REMARK    8  A    between atoms: C4_8  and  C8_21 
REMARK    9  A    between atoms: C6_10  and  S1_11 
REMARK   10  A    between atoms: S1_11  and  C7_12 
REMARK       I    between atoms: C9_24  and  N6_26 
REMARK   11  A    between atoms: C12_32  and  N8_33 
REMARK   12  A    between atoms: C14_41  and  C15_42 
REMARK   13  A    between atoms: C15_42  and  O7_43 
REMARK   14  A    between atoms: N12_45  and  C16_47 
ROOT
HETATM    1  C9  UNL     1      37.661 -18.736  32.331  1.00  0.00     0.253 C 
HETATM    2  O6  UNL     1      36.516 -18.243  32.443  1.00  0.00    -0.271 OA
HETATM    3  N6  UNL     1      38.208 -19.487  33.374  1.00  0.00    -0.324 N 
ATOM      4  H6  UNL     1      38.795 -18.957  34.018  1.00  0.00     0.169 HD
HETATM    5  C10 UNL     1      38.094 -20.714  33.651  1.00  0.00     0.076 C 
HETATM    6  C11 UNL     1      38.829 -21.174  34.858  1.00  0.00     0.181 A 
HETATM    7  N7  UNL     1      39.750 -20.644  35.668  1.00  0.00    -0.171 N 
ATOM      8  H7  UNL     1      40.144 -19.708  35.567  1.00  0.00     0.186 HD
HETATM    9  C12 UNL     1      40.087 -21.518  36.635  1.00  0.00     0.693 A 
HETATM   10  N9  UNL     1      39.331 -22.618  36.390  1.00  0.00    -0.112 N 
ATOM     11  H9  UNL     1      39.341 -23.475  36.943  1.00  0.00     0.207 HD
HETATM   12  N10 UNL     1      38.579 -22.404  35.322  1.00  0.00    -0.166 N 
HETATM   13  N11 UNL     1      37.630 -23.252  34.688  1.00  0.00    -0.104 NA
HETATM   14  C13 UNL     1      36.582 -22.537  33.959  1.00  0.00     0.158 C 
HETATM   15  C14 UNL     1      35.590 -23.561  33.475  1.00  0.00     0.018 C 
HETATM   16  C19 UNL     1      35.228 -23.722  32.232  1.00  0.00    -0.062 C 
HETATM   17  C20 UNL     1      34.238 -24.776  31.866  1.00  0.00     0.045 C 
HETATM   18  C21 UNL     1      35.681 -22.898  31.038  1.00  0.00     0.109 C 
HETATM   19  S2  UNL     1      36.205 -21.251  31.680  1.00  0.00    -0.151 SA
HETATM   20  C22 UNL     1      37.347 -21.755  32.954  1.00  0.00     0.127 C 
ENDROOT
BRANCH   1  21
HETATM   21  C3  UNL     1      38.403 -18.487  31.060  1.00  0.00     0.297 C 
BRANCH  21  22
HETATM   22  C2  UNL     1      37.489 -18.349  29.917  1.00  0.00     0.289 C 
HETATM   23  O2  UNL     1      37.048 -19.312  29.256  1.00  0.00    -0.263 OA
BRANCH  22  24
HETATM   24  O1  UNL     1      37.104 -17.052  29.568  1.00  0.00    -0.325 OA
HETATM   25  C1  UNL     1      38.054 -16.005  29.671  1.00  0.00     0.213 C 
ENDBRANCH  22  24
ENDBRANCH  21  22
BRANCH  21  26
HETATM   26  N1  UNL     1      39.359 -19.528  30.795  1.00  0.00    -0.075 NA
BRANCH  26  27
HETATM   27  O3  UNL     1      40.486 -19.343  31.481  1.00  0.00    -0.262 OA
BRANCH  27  28
HETATM   28  C4  UNL     1      41.377 -20.374  31.376  1.00  0.00     0.177 C 
HETATM   29  C5  UNL     1      42.127 -20.318  30.036  1.00  0.00     0.061 C 
BRANCH  28  30
HETATM   30  C6  UNL     1      40.690 -21.714  31.410  1.00  0.00     0.133 C 
BRANCH  30  31
HETATM   31  S1  UNL     1      40.859 -22.602  29.878  1.00  0.00    -0.088 SA
BRANCH  31  32
HETATM   32  C7  UNL     1      39.465 -22.520  28.808  1.00  0.00     0.176 A 
HETATM   33  N2  UNL     1      38.338 -21.804  28.827  1.00  0.00    -0.263 N 
HETATM   34  N3  UNL     1      37.620 -22.130  27.767  1.00  0.00    -0.226 N 
ATOM     35  H2  UNL     1      38.075 -21.122  29.539  1.00  0.00     0.190 HD
HETATM   36  N4  UNL     1      38.251 -23.040  27.058  1.00  0.00    -0.226 N 
ATOM     37  H3  UNL     1      36.710 -21.734  27.532  1.00  0.00     0.210 HD
HETATM   38  N5  UNL     1      39.369 -23.278  27.686  1.00  0.00    -0.263 N 
ATOM     39  H4  UNL     1      37.931 -23.473  26.192  1.00  0.00     0.210 HD
ATOM     40  H5  UNL     1      40.077 -23.944  27.375  1.00  0.00     0.190 HD
ENDBRANCH  31  32
ENDBRANCH  30  31
ENDBRANCH  28  30
BRANCH  28  41
HETATM   41  C8  UNL     1      42.442 -20.386  32.415  1.00  0.00     0.211 C 
HETATM   42  O4  UNL     1      43.660 -20.315  32.071  1.00  0.00    -0.646 OA
HETATM   43  O5  UNL     1      42.209 -20.470  33.774  1.00  0.00    -0.646 OA
ENDBRANCH  28  41
ENDBRANCH  27  28
ENDBRANCH  26  27
ENDBRANCH  21  26
ENDBRANCH   1  21
BRANCH   9  44
HETATM   44  N8  UNL     1      40.925 -21.398  37.600  1.00  0.00    -0.233 N 
ATOM     45  H82 UNL     1      41.061 -20.555  38.158  1.00  0.00     0.174 HD
ATOM     46  H81 UNL     1      41.584 -22.076  37.983  1.00  0.00     0.174 HD
ENDBRANCH   9  44
BRANCH  15  47
HETATM   47  C15 UNL     1      35.050 -24.339  34.608  1.00  0.00     0.150 C 
HETATM   48  N12 UNL     1      35.315 -25.560  35.143  1.00  0.00    -0.316 N 
ATOM     49  H12 UNL     1      36.042 -26.134  34.716  1.00  0.00     0.170 HD
BRANCH  47  50
HETATM   50  O7  UNL     1      34.098 -23.664  35.213  1.00  0.00    -0.346 OA
ATOM     51  H7  UNL     1      34.469 -23.085  35.869  1.00  0.00     0.219 HD
ENDBRANCH  47  50
BRANCH  48  52
HETATM   52  C16 UNL     1      34.602 -26.080  36.300  1.00  0.00     0.170 A 
HETATM   53  C17 UNL     1      33.752 -27.128  36.371  1.00  0.00     0.149 A 
HETATM   54  N13 UNL     1      33.316 -27.251  37.675  1.00  0.00    -0.308 N 
HETATM   55  C18 UNL     1      33.934 -26.257  38.333  1.00  0.00     0.371 A 
ATOM     56  H13 UNL     1      32.670 -27.943  38.054  1.00  0.00     0.170 HD
HETATM   57  O8  UNL     1      33.777 -26.048  39.576  1.00  0.00    -0.238 OA
HETATM   58  O9  UNL     1      34.684 -25.580  37.515  1.00  0.00    -0.242 OA
ENDBRANCH  48  52
ENDBRANCH  15  47
TORSDOF 14
ENDMDL
MODEL 3
REMARK VINA RESULT: -9.055113356      3.960      7.935
REMARK  14 active torsions:
REMARK  status: ('A' for Active; 'I' for Inactive)
REMARK    1  A    between atoms: O1_2  and  C2_3 
REMARK    2  A    between atoms: C2_3  and  C3_5 
REMARK    3  A    between atoms: C3_5  and  N1_6 
REMARK    4  A    between atoms: C3_5  and  C9_24 
REMARK    5  A    between atoms: N1_6  and  O3_7 
REMARK    6  A    between atoms: O3_7  and  C4_8 
REMARK    7  A    between atoms: C4_8  and  C6_10 
REMARK    8  A    between atoms: C4_8  and  C8_21 
REMARK    9  A    between atoms: C6_10  and  S1_11 
REMARK   10  A    between atoms: S1_11  and  C7_12 
REMARK       I    between atoms: C9_24  and  N6_26 
REMARK   11  A    between atoms: C12_32  and  N8_33 
REMARK   12  A    between atoms: C14_41  and  C15_42 
REMARK   13  A    between atoms: C15_42  and  O7_43 
REMARK   14  A    between atoms: N12_45  and  C16_47 
ROOT
HETATM    1  C9  UNL     1      39.030 -19.976  32.225  1.00  0.00     0.253 C 
HETATM    2  O6  UNL     1      38.183 -19.164  32.662  1.00  0.00    -0.271 OA
HETATM    3  N6  UNL     1      39.499 -21.007  33.043  1.00  0.00    -0.324 N 
ATOM      4  H6  UNL     1      40.362 -20.794  33.544  1.00  0.00     0.169 HD
HETATM    5  C10 UNL     1      39.031 -22.159  33.264  1.00  0.00     0.076 C 
HETATM    6  C11 UNL     1      39.810 -23.002  34.208  1.00  0.00     0.181 A 
HETATM    7  N7  UNL     1      41.015 -22.920  34.781  1.00  0.00    -0.171 N 
ATOM      8  H7  UNL     1      41.675 -22.156  34.639  1.00  0.00     0.186 HD
HETATM    9  C12 UNL     1      41.233 -23.988  35.572  1.00  0.00     0.693 A 
HETATM   10  N9  UNL     1      40.108 -24.739  35.465  1.00  0.00    -0.112 N 
ATOM     11  H9  UNL     1      39.943 -25.625  35.942  1.00  0.00     0.207 HD
HETATM   12  N10 UNL     1      39.260 -24.141  34.644  1.00  0.00    -0.166 N 
HETATM   13  N11 UNL     1      37.958 -24.537  34.227  1.00  0.00    -0.104 NA
HETATM   14  C13 UNL     1      37.090 -23.424  33.841  1.00  0.00     0.158 C 
HETATM   15  C14 UNL     1      35.722 -23.993  33.569  1.00  0.00     0.018 C 
HETATM   16  C19 UNL     1      35.060 -23.846  32.455  1.00  0.00    -0.062 C 
HETATM   17  C20 UNL     1      33.709 -24.461  32.294  1.00  0.00     0.045 C 
HETATM   18  C21 UNL     1      35.491 -23.046  31.237  1.00  0.00     0.109 C 
HETATM   19  S2  UNL     1      36.685 -21.766  31.822  1.00  0.00    -0.151 SA
HETATM   20  C22 UNL     1      37.834 -22.791  32.722  1.00  0.00     0.127 C 
ENDROOT
BRANCH   1  21
HETATM   21  C3  UNL     1      39.508 -19.796  30.823  1.00  0.00     0.297 C 
BRANCH  21  22
HETATM   22  C2  UNL     1      40.855 -20.351  30.635  1.00  0.00     0.289 C 
HETATM   23  O2  UNL     1      41.847 -20.021  31.316  1.00  0.00    -0.263 OA
BRANCH  22  24
HETATM   24  O1  UNL     1      41.011 -21.304  29.625  1.00  0.00    -0.325 OA
HETATM   25  C1  UNL     1      39.976 -22.249  29.410  1.00  0.00     0.213 C 
ENDBRANCH  22  24
ENDBRANCH  21  22
BRANCH  21  26
HETATM   26  N1  UNL     1      39.493 -18.411  30.435  1.00  0.00    -0.075 NA
BRANCH  26  27
HETATM   27  O3  UNL     1      38.402 -18.111  29.731  1.00  0.00    -0.262 OA
BRANCH  27  28
HETATM   28  C4  UNL     1      38.071 -16.786  29.755  1.00  0.00     0.177 C 
HETATM   29  C5  UNL     1      38.708 -16.081  30.961  1.00  0.00     0.061 C 
BRANCH  28  30
HETATM   30  C6  UNL     1      36.585 -16.582  29.894  1.00  0.00     0.133 C 
BRANCH  30  31
HETATM   31  S1  UNL     1      35.899 -17.497  31.257  1.00  0.00    -0.088 SA
BRANCH  31  32
HETATM   32  C7  UNL     1      35.232 -16.516  32.556  1.00  0.00     0.176 A 
HETATM   33  N2  UNL     1      33.996 -16.349  33.034  1.00  0.00    -0.263 N 
HETATM   34  N3  UNL     1      34.050 -15.487  34.035  1.00  0.00    -0.226 N 
ATOM     35  H2  UNL     1      33.154 -16.808  32.687  1.00  0.00     0.190 HD
HETATM   36  N4  UNL     1      35.289 -15.089  34.219  1.00  0.00    -0.226 N 
ATOM     37  H3  UNL     1      33.248 -15.177  34.583  1.00  0.00     0.210 HD
HETATM   38  N5  UNL     1      36.008 -15.711  33.326  1.00  0.00    -0.263 N 
ATOM     39  H4  UNL     1      35.622 -14.427  34.921  1.00  0.00     0.210 HD
ATOM     40  H5  UNL     1      37.017 -15.606  33.220  1.00  0.00     0.190 HD
ENDBRANCH  31  32
ENDBRANCH  30  31
ENDBRANCH  28  30
BRANCH  28  41
HETATM   41  C8  UNL     1      38.524 -16.010  28.569  1.00  0.00     0.211 C 
HETATM   42  O4  UNL     1      38.928 -14.817  28.713  1.00  0.00    -0.646 OA
HETATM   43  O5  UNL     1      38.543 -16.495  27.276  1.00  0.00    -0.646 OA
ENDBRANCH  28  41
ENDBRANCH  27  28
ENDBRANCH  26  27
ENDBRANCH  21  26
ENDBRANCH   1  21
BRANCH   9  44
HETATM   44  N8  UNL     1      42.254 -24.286  36.292  1.00  0.00    -0.233 N 
ATOM     45  H82 UNL     1      43.226 -24.172  36.006  1.00  0.00     0.174 HD
ATOM     46  H81 UNL     1      42.301 -24.673  37.235  1.00  0.00     0.174 HD
ENDBRANCH   9  44
BRANCH  15  47
HETATM   47  C15 UNL     1      35.214 -24.714  34.753  1.00  0.00     0.150 C 
HETATM   48  N12 UNL     1      35.293 -25.995  35.201  1.00  0.00    -0.316 N 
ATOM     49  H12 UNL     1      35.805 -26.678  34.643  1.00  0.00     0.170 HD
BRANCH  47  50
HETATM   50  O7  UNL     1      34.534 -23.898  35.528  1.00  0.00    -0.346 OA
ATOM     51  H7  UNL     1      33.720 -24.304  35.801  1.00  0.00     0.219 HD
ENDBRANCH  47  50
BRANCH  48  52
HETATM   52  C16 UNL     1      34.675 -26.429  36.445  1.00  0.00     0.170 A 
HETATM   53  C17 UNL     1      33.970 -27.555  36.693  1.00  0.00     0.149 A 
HETATM   54  N13 UNL     1      33.580 -27.544  38.017  1.00  0.00    -0.308 N 
HETATM   55  C18 UNL     1      34.075 -26.397  38.506  1.00  0.00     0.371 A 
ATOM     56  H13 UNL     1      33.036 -28.251  38.513  1.00  0.00     0.170 HD
HETATM   57  O8  UNL     1      33.916 -26.033  39.713  1.00  0.00    -0.238 OA
HETATM   58  O9  UNL     1      34.715 -25.754  37.574  1.00  0.00    -0.242 OA
ENDBRANCH  48  52
ENDBRANCH  15  47
TORSDOF 14
ENDMDL
MODEL 4
REMARK VINA RESULT: -9.047292130      3.719      8.510
REMARK  14 active torsions:
REMARK  status: ('A' for Active; 'I' for Inactive)
REMARK    1  A    between atoms: O1_2  and  C2_3 
REMARK    2  A    between atoms: C2_3  and  C3_5 
REMARK    3  A    between atoms: C3_5  and  N1_6 
REMARK    4  A    between atoms: C3_5  and  C9_24 
REMARK    5  A    between atoms: N1_6  and  O3_7 
REMARK    6  A    between atoms: O3_7  and  C4_8 
REMARK    7  A    between atoms: C4_8  and  C6_10 
REMARK    8  A    between atoms: C4_8  and  C8_21 
REMARK    9  A    between atoms: C6_10  and  S1_11 
REMARK   10  A    between atoms: S1_11  and  C7_12 
REMARK       I    between atoms: C9_24  and  N6_26 
REMARK   11  A    between atoms: C12_32  and  N8_33 
REMARK   12  A    between atoms: C14_41  and  C15_42 
REMARK   13  A    between atoms: C15_42  and  O7_43 
REMARK   14  A    between atoms: N12_45  and  C16_47 
ROOT
HETATM    1  C9  UNL     1      41.270 -23.356  34.795  1.00  0.00     0.253 C 
HETATM    2  O6  UNL     1      40.399 -23.387  35.693  1.00  0.00    -0.271 OA
HETATM    3  N6  UNL     1      40.897 -23.173  33.461  1.00  0.00    -0.324 N 
ATOM      4  H6  UNL     1      40.772 -24.037  32.932  1.00  0.00     0.169 HD
HETATM    5  C10 UNL     1      40.687 -22.116  32.803  1.00  0.00     0.076 C 
HETATM    6  C11 UNL     1      40.298 -22.307  31.381  1.00  0.00     0.181 A 
HETATM    7  N7  UNL     1      40.271 -23.341  30.535  1.00  0.00    -0.171 N 
ATOM      8  H7  UNL     1      40.551 -24.293  30.772  1.00  0.00     0.186 HD
HETATM    9  C12 UNL     1      39.823 -22.950  29.327  1.00  0.00     0.693 A 
HETATM   10  N9  UNL     1      39.571 -21.624  29.460  1.00  0.00    -0.112 N 
ATOM     11  H9  UNL     1      39.216 -21.014  28.724  1.00  0.00     0.207 HD
HETATM   12  N10 UNL     1      39.860 -21.245  30.695  1.00  0.00    -0.166 N 
HETATM   13  N11 UNL     1      39.756 -19.964  31.307  1.00  0.00    -0.104 NA
HETATM   14  C13 UNL     1      39.565 -20.008  32.757  1.00  0.00     0.158 C 
HETATM   15  C14 UNL     1      39.332 -18.596  33.224  1.00  0.00     0.018 C 
HETATM   16  C19 UNL     1      40.031 -17.986  34.141  1.00  0.00    -0.062 C 
HETATM   17  C20 UNL     1      39.712 -16.579  34.521  1.00  0.00     0.045 C 
HETATM   18  C21 UNL     1      41.174 -18.571  34.953  1.00  0.00     0.109 C 
HETATM   19  S2  UNL     1      40.943 -20.401  34.979  1.00  0.00    -0.151 SA
HETATM   20  C22 UNL     1      40.776 -20.725  33.233  1.00  0.00     0.127 C 
ENDROOT
BRANCH   1  21
HETATM   21  C3  UNL     1      42.696 -23.520  35.203  1.00  0.00     0.297 C 
BRANCH  21  22
HETATM   22  C2  UNL     1      42.934 -23.008  36.560  1.00  0.00     0.289 C 
HETATM   23  O2  UNL     1      42.618 -23.619  37.601  1.00  0.00    -0.263 OA
BRANCH  22  24
HETATM   24  O1  UNL     1      43.550 -21.759  36.665  1.00  0.00    -0.325 OA
HETATM   25  C1  UNL     1      43.401 -21.021  37.867  1.00  0.00     0.213 C 
ENDBRANCH  22  24
ENDBRANCH  21  22
BRANCH  21  26
HETATM   26  N1  UNL     1      43.587 -22.876  34.277  1.00  0.00    -0.075 NA
BRANCH  26  27
HETATM   27  O3  UNL     1      44.278 -23.764  33.563  1.00  0.00    -0.262 OA
BRANCH  27  28
HETATM   28  C4  UNL     1      44.428 -23.427  32.248  1.00  0.00     0.177 C 
HETATM   29  C5  UNL     1      45.899 -23.528  31.818  1.00  0.00     0.061 C 
BRANCH  28  30
HETATM   30  C6  UNL     1      44.016 -22.002  31.985  1.00  0.00     0.133 C 
BRANCH  30  31
HETATM   31  S1  UNL     1      44.741 -21.350  30.497  1.00  0.00    -0.088 SA
BRANCH  31  32
HETATM   32  C7  UNL     1      43.743 -20.196  29.621  1.00  0.00     0.176 A 
HETATM   33  N2  UNL     1      43.745 -19.757  28.360  1.00  0.00    -0.263 N 
HETATM   34  N3  UNL     1      42.765 -18.882  28.222  1.00  0.00    -0.226 N 
ATOM     35  H2  UNL     1      44.393 -20.048  27.627  1.00  0.00     0.190 HD
HETATM   36  N4  UNL     1      42.126 -18.740  29.362  1.00  0.00    -0.226 N 
ATOM     37  H3  UNL     1      42.538 -18.390  27.359  1.00  0.00     0.210 HD
HETATM   38  N5  UNL     1      42.715 -19.535  30.211  1.00  0.00    -0.263 N 
ATOM     39  H4  UNL     1      41.329 -18.130  29.546  1.00  0.00     0.210 HD
ATOM     40  H5  UNL     1      42.440 -19.645  31.188  1.00  0.00     0.190 HD
ENDBRANCH  31  32
ENDBRANCH  30  31
ENDBRANCH  28  30
BRANCH  28  41
HETATM   41  C8  UNL     1      43.684 -24.294  31.294  1.00  0.00     0.211 C 
HETATM   42  O4  UNL     1      42.623 -24.879  31.669  1.00  0.00    -0.646 OA
HETATM   43  O5  UNL     1      44.065 -24.526  29.987  1.00  0.00    -0.646 OA
ENDBRANCH  28  41
ENDBRANCH  27  28
ENDBRANCH  26  27
ENDBRANCH  21  26
ENDBRANCH   1  21
BRANCH   9  44
HETATM   44  N8  UNL     1      39.649 -23.630  28.252  1.00  0.00    -0.233 N 
ATOM     45  H82 UNL     1      38.945 -24.357  28.125  1.00  0.00     0.174 HD
ATOM     46  H81 UNL     1      40.145 -23.587  27.362  1.00  0.00     0.174 HD
ENDBRANCH   9  44
BRANCH  15  47
HETATM   47  C15 UNL     1      38.173 -18.002  32.525  1.00  0.00     0.150 C 
HETATM   48  N12 UNL     1      38.020 -17.189  31.447  1.00  0.00    -0.316 N 
ATOM     49  H12 UNL     1      38.853 -16.870  30.952  1.00  0.00     0.170 HD
BRANCH  47  50
HETATM   50  O7  UNL     1      37.053 -18.364  33.109  1.00  0.00    -0.346 OA
ATOM     51  H7  UNL     1      36.314 -17.921  32.710  1.00  0.00     0.219 HD
ENDBRANCH  47  50
BRANCH  48  52
HETATM   52  C16 UNL     1      36.714 -16.756  30.972  1.00  0.00     0.170 A 
HETATM   53  C17 UNL     1      36.284 -16.602  29.701  1.00  0.00     0.149 A 
HETATM   54  N13 UNL     1      34.973 -16.173  29.731  1.00  0.00    -0.308 N 
HETATM   55  C18 UNL     1      34.675 -16.088  31.037  1.00  0.00     0.371 A 
ATOM     56  H13 UNL     1      34.365 -15.967  28.938  1.00  0.00     0.170 HD
HETATM   57  O8  UNL     1      33.537 -15.719  31.466  1.00  0.00    -0.238 OA
HETATM   58  O9  UNL     1      35.705 -16.433  31.752  1.00  0.00    -0.242 OA
ENDBRANCH  48  52
ENDBRANCH  15  47
TORSDOF 14
ENDMDL
MODEL 5
REMARK VINA RESULT: -8.975198187      4.829      7.072
REMARK  14 active torsions:
REMARK  status: ('A' for Active; 'I' for Inactive)
REMARK    1  A    between atoms: O1_2  and  C2_3 
REMARK    2  A    between atoms: C2_3  and  C3_5 
REMARK    3  A    between atoms: C3_5  and  N1_6 
REMARK    4  A    between atoms: C3_5  and  C9_24 
REMARK    5  A    between atoms: N1_6  and  O3_7 
REMARK    6  A    between atoms: O3_7  and  C4_8 
REMARK    7  A    between atoms: C4_8  and  C6_10 
REMARK    8  A    between atoms: C4_8  and  C8_21 
REMARK    9  A    between atoms: C6_10  and  S1_11 
REMARK   10  A    between atoms: S1_11  and  C7_12 
REMARK       I    between atoms: C9_24  and  N6_26 
REMARK   11  A    between atoms: C12_32  and  N8_33 
REMARK   12  A    between atoms: C14_41  and  C15_42 
REMARK   13  A    between atoms: C15_42  and  O7_43 
REMARK   14  A    between atoms: N12_45  and  C16_47 
ROOT
HETATM    1  C9  UNL     1      38.854 -22.054  30.928  1.00  0.00     0.253 C 
HETATM    2  O6  UNL     1      40.033 -22.059  30.506  1.00  0.00    -0.271 OA
HETATM    3  N6  UNL     1      38.502 -22.834  32.032  1.00  0.00    -0.324 N 
ATOM      4  H6  UNL     1      38.127 -23.755  31.802  1.00  0.00     0.169 HD
HETATM    5  C10 UNL     1      38.570 -22.587  33.269  1.00  0.00     0.076 C 
HETATM    6  C11 UNL     1      38.098 -23.671  34.171  1.00  0.00     0.181 A 
HETATM    7  N7  UNL     1      37.439 -24.821  34.008  1.00  0.00    -0.171 N 
ATOM      8  H7  UNL     1      37.115 -25.184  33.111  1.00  0.00     0.186 HD
HETATM    9  C12 UNL     1      37.262 -25.435  35.193  1.00  0.00     0.693 A 
HETATM   10  N9  UNL     1      37.842 -24.612  36.103  1.00  0.00    -0.112 N 
ATOM     11  H9  UNL     1      37.887 -24.782  37.108  1.00  0.00     0.207 HD
HETATM   12  N10 UNL     1      38.342 -23.556  35.482  1.00  0.00    -0.166 N 
HETATM   13  N11 UNL     1      39.041 -22.433  36.006  1.00  0.00    -0.104 NA
HETATM   14  C13 UNL     1      39.950 -21.797  35.051  1.00  0.00     0.158 C 
HETATM   15  C14 UNL     1      40.711 -20.731  35.795  1.00  0.00     0.018 C 
HETATM   16  C19 UNL     1      40.759 -19.472  35.456  1.00  0.00    -0.062 C 
HETATM   17  C20 UNL     1      41.543 -18.501  36.273  1.00  0.00     0.045 C 
HETATM   18  C21 UNL     1      40.114 -18.832  34.238  1.00  0.00     0.109 C 
HETATM   19  S2  UNL     1      39.897 -20.160  32.975  1.00  0.00    -0.151 SA
HETATM   20  C22 UNL     1      39.043 -21.386  33.948  1.00  0.00     0.127 C 
ENDROOT
BRANCH   1  21
HETATM   21  C3  UNL     1      37.862 -21.199  30.213  1.00  0.00     0.297 C 
BRANCH  21  22
HETATM   22  C2  UNL     1      37.342 -21.863  29.010  1.00  0.00     0.289 C 
HETATM   23  O2  UNL     1      36.809 -21.260  28.056  1.00  0.00    -0.263 OA
BRANCH  22  24
HETATM   24  O1  UNL     1      37.460 -23.254  28.954  1.00  0.00    -0.325 OA
HETATM   25  C1  UNL     1      38.218 -23.835  27.907  1.00  0.00     0.213 C 
ENDBRANCH  22  24
ENDBRANCH  21  22
BRANCH  21  26
HETATM   26  N1  UNL     1      38.424 -19.923  29.861  1.00  0.00    -0.075 NA
BRANCH  26  27
HETATM   27  O3  UNL     1      37.645 -18.918  30.257  1.00  0.00    -0.262 OA
BRANCH  27  28
HETATM   28  C4  UNL     1      38.242 -17.691  30.192  1.00  0.00     0.177 C 
HETATM   29  C5  UNL     1      39.757 -17.827  29.976  1.00  0.00     0.061 C 
BRANCH  28  30
HETATM   30  C6  UNL     1      38.075 -16.918  31.474  1.00  0.00     0.133 C 
BRANCH  30  31
HETATM   31  S1  UNL     1      36.708 -17.506  32.448  1.00  0.00    -0.088 SA
BRANCH  31  32
HETATM   32  C7  UNL     1      35.249 -16.528  32.358  1.00  0.00     0.176 A 
HETATM   33  N2  UNL     1      34.871 -15.519  31.569  1.00  0.00    -0.263 N 
HETATM   34  N3  UNL     1      33.657 -15.141  31.929  1.00  0.00    -0.226 N 
ATOM     35  H2  UNL     1      35.425 -15.109  30.817  1.00  0.00     0.190 HD
HETATM   36  N4  UNL     1      33.236 -15.878  32.933  1.00  0.00    -0.226 N 
ATOM     37  H3  UNL     1      33.126 -14.388  31.492  1.00  0.00     0.210 HD
HETATM   38  N5  UNL     1      34.197 -16.719  33.195  1.00  0.00    -0.263 N 
ATOM     39  H4  UNL     1      32.337 -15.806  33.411  1.00  0.00     0.210 HD
ATOM     40  H5  UNL     1      34.163 -17.427  33.929  1.00  0.00     0.190 HD
ENDBRANCH  31  32
ENDBRANCH  30  31
ENDBRANCH  28  30
BRANCH  28  41
HETATM   41  C8  UNL     1      37.768 -16.825  29.078  1.00  0.00     0.211 C 
HETATM   42  O4  UNL     1      36.616 -16.299  29.135  1.00  0.00    -0.646 OA
HETATM   43  O5  UNL     1      38.504 -16.534  27.946  1.00  0.00    -0.646 OA
ENDBRANCH  28  41
ENDBRANCH  27  28
ENDBRANCH  26  27
ENDBRANCH  21  26
ENDBRANCH   1  21
BRANCH   9  44
HETATM   44  N8  UNL     1      36.684 -26.548  35.468  1.00  0.00    -0.233 N 
ATOM     45  H82 UNL     1      35.940 -26.975  34.914  1.00  0.00     0.174 HD
ATOM     46  H81 UNL     1      36.836 -27.192  36.243  1.00  0.00     0.174 HD
ENDBRANCH   9  44
BRANCH  15  47
HETATM   47  C15 UNL     1      41.429 -21.313  36.947  1.00  0.00     0.150 C 
HETATM   48  N12 UNL     1      42.684 -21.795  37.148  1.00  0.00    -0.316 N 
ATOM     49  H12 UNL     1      43.342 -21.788  36.369  1.00  0.00     0.170 HD
BRANCH  47  50
HETATM   50  O7  UNL     1      40.642 -21.361  37.998  1.00  0.00    -0.346 OA
ATOM     51  H7  UNL     1      41.100 -21.044  38.768  1.00  0.00     0.219 HD
ENDBRANCH  47  50
BRANCH  48  52
HETATM   52  C16 UNL     1      43.125 -22.320  38.432  1.00  0.00     0.170 A 
HETATM   53  C17 UNL     1      44.342 -22.230  39.011  1.00  0.00     0.149 A 
HETATM   54  N13 UNL     1      44.297 -22.876  40.229  1.00  0.00    -0.308 N 
HETATM   55  C18 UNL     1      43.037 -23.330  40.324  1.00  0.00     0.371 A 
ATOM     56  H13 UNL     1      45.051 -22.984  40.907  1.00  0.00     0.170 HD
HETATM   57  O8  UNL     1      42.611 -23.986  41.326  1.00  0.00    -0.238 OA
HETATM   58  O9  UNL     1      42.362 -22.996  39.264  1.00  0.00    -0.242 OA
ENDBRANCH  48  52
ENDBRANCH  15  47
TORSDOF 14
ENDMDL
