MODEL 1
REMARK VINA RESULT: -7.220182963      0.000      0.000
REMARK  11 active torsions:
REMARK  status: ('A' for Active; 'I' for Inactive)
REMARK    1  A    between atoms: C4_12  and  C5_13 
REMARK    2  A    between atoms: C5_13  and  C6_14 
REMARK    3  A    between atoms: C6_14  and  C7_15 
REMARK    4  A    between atoms: C7_15  and  C8_16 
REMARK    5  A    between atoms: C8_16  and  N4_17 
REMARK    6  A    between atoms: N4_17  and  C9_20 
REMARK    7  A    between atoms: C9_20  and  C10_21 
REMARK    8  A    between atoms: C10_21  and  C11_22 
REMARK    9  A    between atoms: C11_22  and  C12_23 
REMARK   10  A    between atoms: C12_23  and  N5_24 
REMARK   11  A    between atoms: N7_30  and  O2_31 
ROOT
HETATM    1  N1  UNL     1      12.810 -13.018  35.947  1.00  0.00    -0.234 N 
ATOM      2  H11 UNL     1      12.851 -12.858  36.953  1.00  0.00     0.174 HD
ATOM      3  H12 UNL     1      11.917 -13.014  35.452  1.00  0.00     0.174 HD
HETATM    4  C1  UNL     1      13.899 -13.227  35.311  1.00  0.00     0.680 A 
HETATM    5  N2  UNL     1      13.843 -13.441  33.960  1.00  0.00    -0.154 N 
ATOM      6  H2  UNL     1      12.957 -13.439  33.455  1.00  0.00     0.187 HD
HETATM    7  C2  UNL     1      15.008 -13.654  33.332  1.00  0.00     0.290 A 
HETATM    8  O1  UNL     1      15.034 -13.862  32.070  1.00  0.00    -0.265 OA
HETATM    9  C3  UNL     1      16.243 -13.669  33.964  1.00  0.00     0.152 A 
HETATM   10  N3  UNL     1      17.390 -13.885  33.287  1.00  0.00    -0.337 N 
ATOM     11  H3  UNL     1      17.357 -14.046  32.280  1.00  0.00     0.167 HD
HETATM   12  C4  UNL     1      18.591 -13.890  33.928  1.00  0.00     0.098 A 
HETATM   13  N6  UNL     1      18.581 -13.676  35.245  1.00  0.00    -0.261 N 
ATOM     14  H6  UNL     1      19.469 -13.677  35.747  1.00  0.00     0.191 HD
HETATM   15  N7  UNL     1      17.449 -13.458  35.937  1.00  0.00    -0.142 N 
HETATM   16  C13 UNL     1      16.240 -13.446  35.326  1.00  0.00     0.199 A 
HETATM   17  N8  UNL     1      15.080 -13.232  35.966  1.00  0.00    -0.170 N 
ATOM     18  H8  UNL     1      15.091 -13.069  36.973  1.00  0.00     0.186 HD
ENDROOT
BRANCH  12  19
HETATM   19  C5  UNL     1      19.824 -14.126  33.162  1.00  0.00     0.078 C 
BRANCH  19  20
HETATM   20  C6  UNL     1      20.987 -14.582  34.018  1.00  0.00     0.009 C 
BRANCH  20  21
HETATM   21  C7  UNL     1      22.133 -14.887  33.081  1.00  0.00     0.028 C 
BRANCH  21  22
HETATM   22  C8  UNL     1      22.675 -16.268  33.250  1.00  0.00     0.232 C 
BRANCH  22  23
HETATM   23  N4  UNL     1      21.767 -17.333  32.961  1.00  0.00    -0.075 N 
ATOM     24  H42 UNL     1      21.817 -18.090  33.643  1.00  0.00     0.277 HD
ATOM     25  H41 UNL     1      20.793 -17.074  33.116  1.00  0.00     0.277 HD
BRANCH  23  26
HETATM   26  C9  UNL     1      22.020 -17.781  31.604  1.00  0.00     0.232 C 
BRANCH  26  27
HETATM   27  C10 UNL     1      20.930 -17.414  30.632  1.00  0.00     0.029 C 
BRANCH  27  28
HETATM   28  C11 UNL     1      21.347 -16.274  29.722  1.00  0.00     0.029 C 
BRANCH  28  29
HETATM   29  C12 UNL     1      21.195 -16.691  28.256  1.00  0.00     0.229 C 
BRANCH  29  30
HETATM   30  N5  UNL     1      21.843 -17.956  27.988  1.00  0.00    -0.079 N 
ATOM     31  H53 UNL     1      21.256 -18.742  28.268  1.00  0.00     0.274 HD
ATOM     32  H52 UNL     1      21.894 -18.143  26.987  1.00  0.00     0.274 HD
ATOM     33  H51 UNL     1      22.765 -18.008  28.423  1.00  0.00     0.274 HD
ENDBRANCH  29  30
ENDBRANCH  28  29
ENDBRANCH  27  28
ENDBRANCH  26  27
ENDBRANCH  23  26
ENDBRANCH  22  23
ENDBRANCH  21  22
ENDBRANCH  20  21
ENDBRANCH  19  20
ENDBRANCH  12  19
BRANCH  15  34
HETATM   34  O2  UNL     1      17.468 -13.260  37.164  1.00  0.00    -0.266 OA
ATOM     35  H2  UNL     1      17.272 -12.407  37.531  1.00  0.00     0.247 HD
ENDBRANCH  15  34
TORSDOF 11
ENDMDL
MODEL 2
REMARK VINA RESULT: -7.107232027      2.018      2.331
REMARK  11 active torsions:
REMARK  status: ('A' for Active; 'I' for Inactive)
REMARK    1  A    between atoms: C4_12  and  C5_13 
REMARK    2  A    between atoms: C5_13  and  C6_14 
REMARK    3  A    between atoms: C6_14  and  C7_15 
REMARK    4  A    between atoms: C7_15  and  C8_16 
REMARK    5  A    between atoms: C8_16  and  N4_17 
REMARK    6  A    between atoms: N4_17  and  C9_20 
REMARK    7  A    between atoms: C9_20  and  C10_21 
REMARK    8  A    between atoms: C10_21  and  C11_22 
REMARK    9  A    between atoms: C11_22  and  C12_23 
REMARK   10  A    between atoms: C12_23  and  N5_24 
REMARK   11  A    between atoms: N7_30  and  O2_31 
ROOT
HETATM    1  N1  UNL     1      13.302 -13.072  32.809  1.00  0.00    -0.234 N 
ATOM      2  H11 UNL     1      12.573 -13.208  33.509  1.00  0.00     0.174 HD
ATOM      3  H12 UNL     1      13.065 -12.859  31.840  1.00  0.00     0.174 HD
HETATM    4  C1  UNL     1      14.526 -13.175  33.166  1.00  0.00     0.680 A 
HETATM    5  N2  UNL     1      15.504 -12.993  32.227  1.00  0.00    -0.154 N 
ATOM      6  H2  UNL     1      15.279 -12.780  31.255  1.00  0.00     0.187 HD
HETATM    7  C2  UNL     1      16.773 -13.108  32.644  1.00  0.00     0.290 A 
HETATM    8  O1  UNL     1      17.741 -12.951  31.822  1.00  0.00    -0.265 OA
HETATM    9  C3  UNL     1      17.141 -13.396  33.950  1.00  0.00     0.152 A 
HETATM   10  N3  UNL     1      18.434 -13.499  34.323  1.00  0.00    -0.337 N 
ATOM     11  H3  UNL     1      19.169 -13.365  33.628  1.00  0.00     0.167 HD
HETATM   12  C4  UNL     1      18.771 -13.779  35.612  1.00  0.00     0.098 A 
HETATM   13  N6  UNL     1      17.773 -13.946  36.481  1.00  0.00    -0.261 N 
ATOM     14  H6  UNL     1      18.001 -14.159  37.452  1.00  0.00     0.191 HD
HETATM   15  N7  UNL     1      16.479 -13.847  36.130  1.00  0.00    -0.142 N 
HETATM   16  C13 UNL     1      16.114 -13.569  34.855  1.00  0.00     0.199 A 
HETATM   17  N8  UNL     1      14.839 -13.457  34.450  1.00  0.00    -0.170 N 
ATOM     18  H8  UNL     1      14.088 -13.587  35.128  1.00  0.00     0.186 HD
ENDROOT
BRANCH  12  19
HETATM   19  C5  UNL     1      20.189 -13.882  35.988  1.00  0.00     0.078 C 
BRANCH  19  20
HETATM   20  C6  UNL     1      21.027 -14.637  34.978  1.00  0.00     0.009 C 
BRANCH  20  21
HETATM   21  C7  UNL     1      22.446 -14.644  35.497  1.00  0.00     0.028 C 
BRANCH  21  22
HETATM   22  C8  UNL     1      23.456 -14.926  34.435  1.00  0.00     0.232 C 
BRANCH  22  23
HETATM   23  N4  UNL     1      23.568 -16.291  34.029  1.00  0.00    -0.075 N 
ATOM     24  H42 UNL     1      24.459 -16.711  34.296  1.00  0.00     0.277 HD
ATOM     25  H41 UNL     1      22.960 -16.912  34.561  1.00  0.00     0.277 HD
BRANCH  23  26
HETATM   26  C9  UNL     1      23.324 -16.354  32.599  1.00  0.00     0.232 C 
BRANCH  26  27
HETATM   27  C10 UNL     1      22.171 -17.247  32.222  1.00  0.00     0.029 C 
BRANCH  27  28
HETATM   28  C11 UNL     1      21.163 -16.526  31.347  1.00  0.00     0.029 C 
BRANCH  28  29
HETATM   29  C12 UNL     1      21.570 -15.058  31.180  1.00  0.00     0.229 C 
BRANCH  29  30
HETATM   30  N5  UNL     1      20.462 -14.164  31.432  1.00  0.00    -0.079 N 
ATOM     31  H53 UNL     1      19.606 -14.498  30.990  1.00  0.00     0.274 HD
ATOM     32  H52 UNL     1      20.165 -14.205  32.407  1.00  0.00     0.274 HD
ATOM     33  H51 UNL     1      20.676 -13.207  31.149  1.00  0.00     0.274 HD
ENDBRANCH  29  30
ENDBRANCH  28  29
ENDBRANCH  27  28
ENDBRANCH  26  27
ENDBRANCH  23  26
ENDBRANCH  22  23
ENDBRANCH  21  22
ENDBRANCH  20  21
ENDBRANCH  19  20
ENDBRANCH  12  19
BRANCH  15  34
HETATM   34  O2  UNL     1      15.568 -14.007  36.960  1.00  0.00    -0.266 OA
ATOM     35  H2  UNL     1      14.816 -13.428  36.988  1.00  0.00     0.247 HD
ENDBRANCH  15  34
TORSDOF 11
ENDMDL
MODEL 3
REMARK VINA RESULT: -7.082388382      1.545      1.743
REMARK  11 active torsions:
REMARK  status: ('A' for Active; 'I' for Inactive)
REMARK    1  A    between atoms: C4_12  and  C5_13 
REMARK    2  A    between atoms: C5_13  and  C6_14 
REMARK    3  A    between atoms: C6_14  and  C7_15 
REMARK    4  A    between atoms: C7_15  and  C8_16 
REMARK    5  A    between atoms: C8_16  and  N4_17 
REMARK    6  A    between atoms: N4_17  and  C9_20 
REMARK    7  A    between atoms: C9_20  and  C10_21 
REMARK    8  A    between atoms: C10_21  and  C11_22 
REMARK    9  A    between atoms: C11_22  and  C12_23 
REMARK   10  A    between atoms: C12_23  and  N5_24 
REMARK   11  A    between atoms: N7_30  and  O2_31 
ROOT
HETATM    1  N1  UNL     1      12.841 -13.030  35.980  1.00  0.00    -0.234 N 
ATOM      2  H11 UNL     1      12.925 -12.845  36.980  1.00  0.00     0.174 HD
ATOM      3  H12 UNL     1      11.927 -13.049  35.527  1.00  0.00     0.174 HD
HETATM    4  C1  UNL     1      13.903 -13.238  35.300  1.00  0.00     0.680 A 
HETATM    5  N2  UNL     1      13.790 -13.485  33.959  1.00  0.00    -0.154 N 
ATOM      6  H2  UNL     1      12.882 -13.508  33.495  1.00  0.00     0.187 HD
HETATM    7  C2  UNL     1      14.928 -13.697  33.283  1.00  0.00     0.290 A 
HETATM    8  O1  UNL     1      14.900 -13.934  32.026  1.00  0.00    -0.265 OA
HETATM    9  C3  UNL     1      16.190 -13.680  33.859  1.00  0.00     0.152 A 
HETATM   10  N3  UNL     1      17.309 -13.896  33.135  1.00  0.00    -0.337 N 
ATOM     11  H3  UNL     1      17.232 -14.081  32.135  1.00  0.00     0.167 HD
HETATM   12  C4  UNL     1      18.537 -13.870  33.722  1.00  0.00     0.098 A 
HETATM   13  N6  UNL     1      18.583 -13.625  35.032  1.00  0.00    -0.261 N 
ATOM     14  H6  UNL     1      19.493 -13.603  35.493  1.00  0.00     0.191 HD
HETATM   15  N7  UNL     1      17.481 -13.407  35.770  1.00  0.00    -0.142 N 
HETATM   16  C13 UNL     1      16.246 -13.425  35.214  1.00  0.00     0.199 A 
HETATM   17  N8  UNL     1      15.113 -13.212  35.901  1.00  0.00    -0.170 N 
ATOM     18  H8  UNL     1      15.166 -13.025  36.902  1.00  0.00     0.186 HD
ENDROOT
BRANCH  12  19
HETATM   19  C5  UNL     1      19.738 -14.107  32.906  1.00  0.00     0.078 C 
BRANCH  19  20
HETATM   20  C6  UNL     1      20.938 -14.551  33.715  1.00  0.00     0.009 C 
BRANCH  20  21
HETATM   21  C7  UNL     1      21.688 -15.561  32.877  1.00  0.00     0.028 C 
BRANCH  21  22
HETATM   22  C8  UNL     1      21.017 -15.855  31.577  1.00  0.00     0.232 C 
BRANCH  22  23
HETATM   23  N4  UNL     1      20.729 -17.231  31.322  1.00  0.00    -0.075 N 
ATOM     24  H42 UNL     1      19.970 -17.590  31.901  1.00  0.00     0.277 HD
ATOM     25  H41 UNL     1      20.289 -17.380  30.414  1.00  0.00     0.277 HD
BRANCH  23  26
HETATM   26  C9  UNL     1      21.961 -17.983  31.479  1.00  0.00     0.232 C 
BRANCH  26  27
HETATM   27  C10 UNL     1      22.898 -17.863  30.307  1.00  0.00     0.029 C 
BRANCH  27  28
HETATM   28  C11 UNL     1      23.511 -19.200  29.937  1.00  0.00     0.029 C 
BRANCH  28  29
HETATM   29  C12 UNL     1      24.863 -18.984  29.247  1.00  0.00     0.229 C 
BRANCH  29  30
HETATM   30  N5  UNL     1      25.913 -18.709  30.202  1.00  0.00    -0.079 N 
ATOM     31  H53 UNL     1      25.656 -19.023  31.138  1.00  0.00     0.274 HD
ATOM     32  H52 UNL     1      26.722 -19.312  30.049  1.00  0.00     0.274 HD
ATOM     33  H51 UNL     1      26.179 -17.724  30.200  1.00  0.00     0.274 HD
ENDBRANCH  29  30
ENDBRANCH  28  29
ENDBRANCH  27  28
ENDBRANCH  26  27
ENDBRANCH  23  26
ENDBRANCH  22  23
ENDBRANCH  21  22
ENDBRANCH  20  21
ENDBRANCH  19  20
ENDBRANCH  12  19
BRANCH  15  34
HETATM   34  O2  UNL     1      17.552 -13.180  36.989  1.00  0.00    -0.266 OA
ATOM     35  H2  UNL     1      17.352 -12.323  37.346  1.00  0.00     0.247 HD
ENDBRANCH  15  34
TORSDOF 11
ENDMDL
MODEL 4
REMARK VINA RESULT: -7.062465451      1.596      1.936
REMARK  11 active torsions:
REMARK  status: ('A' for Active; 'I' for Inactive)
REMARK    1  A    between atoms: C4_12  and  C5_13 
REMARK    2  A    between atoms: C5_13  and  C6_14 
REMARK    3  A    between atoms: C6_14  and  C7_15 
REMARK    4  A    between atoms: C7_15  and  C8_16 
REMARK    5  A    between atoms: C8_16  and  N4_17 
REMARK    6  A    between atoms: N4_17  and  C9_20 
REMARK    7  A    between atoms: C9_20  and  C10_21 
REMARK    8  A    between atoms: C10_21  and  C11_22 
REMARK    9  A    between atoms: C11_22  and  C12_23 
REMARK   10  A    between atoms: C12_23  and  N5_24 
REMARK   11  A    between atoms: N7_30  and  O2_31 
ROOT
HETATM    1  N1  UNL     1      12.965 -13.070  33.086  1.00  0.00    -0.234 N 
ATOM      2  H11 UNL     1      12.281 -13.241  33.823  1.00  0.00     0.174 HD
ATOM      3  H12 UNL     1      12.667 -12.832  32.139  1.00  0.00     0.174 HD
HETATM    4  C1  UNL     1      14.210 -13.158  33.366  1.00  0.00     0.680 A 
HETATM    5  N2  UNL     1      15.127 -12.927  32.377  1.00  0.00    -0.154 N 
ATOM      6  H2  UNL     1      14.840 -12.690  31.428  1.00  0.00     0.187 HD
HETATM    7  C2  UNL     1      16.420 -13.029  32.714  1.00  0.00     0.290 A 
HETATM    8  O1  UNL     1      17.334 -12.827  31.842  1.00  0.00    -0.265 OA
HETATM    9  C3  UNL     1      16.871 -13.349  33.987  1.00  0.00     0.152 A 
HETATM   10  N3  UNL     1      18.185 -13.437  34.279  1.00  0.00    -0.337 N 
ATOM     11  H3  UNL     1      18.875 -13.267  33.547  1.00  0.00     0.167 HD
HETATM   12  C4  UNL     1      18.604 -13.749  35.536  1.00  0.00     0.098 A 
HETATM   13  N6  UNL     1      17.663 -13.963  36.457  1.00  0.00    -0.261 N 
ATOM     14  H6  UNL     1      17.953 -14.200  37.406  1.00  0.00     0.191 HD
HETATM   15  N7  UNL     1      16.349 -13.880  36.187  1.00  0.00    -0.142 N 
HETATM   16  C13 UNL     1      15.903 -13.571  34.945  1.00  0.00     0.199 A 
HETATM   17  N8  UNL     1      14.604 -13.472  34.620  1.00  0.00    -0.170 N 
ATOM     18  H8  UNL     1      13.898 -13.639  35.336  1.00  0.00     0.186 HD
ENDROOT
BRANCH  12  19
HETATM   19  C5  UNL     1      20.044 -13.834  35.824  1.00  0.00     0.078 C 
BRANCH  19  20
HETATM   20  C6  UNL     1      20.709 -15.050  35.216  1.00  0.00     0.009 C 
BRANCH  20  21
HETATM   21  C7  UNL     1      21.738 -14.546  34.231  1.00  0.00     0.028 C 
BRANCH  21  22
HETATM   22  C8  UNL     1      21.246 -14.543  32.822  1.00  0.00     0.232 C 
BRANCH  22  23
HETATM   23  N4  UNL     1      20.438 -15.658  32.442  1.00  0.00    -0.075 N 
ATOM     24  H42 UNL     1      20.172 -16.241  33.235  1.00  0.00     0.277 HD
ATOM     25  H41 UNL     1      19.499 -15.384  32.153  1.00  0.00     0.277 HD
BRANCH  23  26
HETATM   26  C9  UNL     1      21.148 -16.397  31.414  1.00  0.00     0.232 C 
BRANCH  26  27
HETATM   27  C10 UNL     1      22.055 -17.470  31.957  1.00  0.00     0.029 C 
BRANCH  27  28
HETATM   28  C11 UNL     1      22.205 -18.624  30.985  1.00  0.00     0.029 C 
BRANCH  28  29
HETATM   29  C12 UNL     1      23.201 -18.253  29.880  1.00  0.00     0.229 C 
BRANCH  29  30
HETATM   30  N5  UNL     1      22.699 -18.597  28.569  1.00  0.00    -0.079 N 
ATOM     31  H53 UNL     1      22.190 -19.481  28.585  1.00  0.00     0.274 HD
ATOM     32  H52 UNL     1      21.936 -17.980  28.289  1.00  0.00     0.274 HD
ATOM     33  H51 UNL     1      23.442 -18.609  27.870  1.00  0.00     0.274 HD
ENDBRANCH  29  30
ENDBRANCH  28  29
ENDBRANCH  27  28
ENDBRANCH  26  27
ENDBRANCH  23  26
ENDBRANCH  22  23
ENDBRANCH  21  22
ENDBRANCH  20  21
ENDBRANCH  19  20
ENDBRANCH  12  19
BRANCH  15  34
HETATM   34  O2  UNL     1      15.492 -14.084  37.064  1.00  0.00    -0.266 OA
ATOM     35  H2  UNL     1      15.559 -14.821  37.659  1.00  0.00     0.247 HD
ENDBRANCH  15  34
TORSDOF 11
ENDMDL
MODEL 5
REMARK VINA RESULT: -7.043912135      1.406      1.956
REMARK  11 active torsions:
REMARK  status: ('A' for Active; 'I' for Inactive)
REMARK    1  A    between atoms: C4_12  and  C5_13 
REMARK    2  A    between atoms: C5_13  and  C6_14 
REMARK    3  A    between atoms: C6_14  and  C7_15 
REMARK    4  A    between atoms: C7_15  and  C8_16 
REMARK    5  A    between atoms: C8_16  and  N4_17 
REMARK    6  A    between atoms: N4_17  and  C9_20 
REMARK    7  A    between atoms: C9_20  and  C10_21 
REMARK    8  A    between atoms: C10_21  and  C11_22 
REMARK    9  A    between atoms: C11_22  and  C12_23 
REMARK   10  A    between atoms: C12_23  and  N5_24 
REMARK   11  A    between atoms: N7_30  and  O2_31 
ROOT
HETATM    1  N1  UNL     1      12.940 -13.134  36.042  1.00  0.00    -0.234 N 
ATOM      2  H11 UNL     1      13.093 -12.996  37.041  1.00  0.00     0.174 HD
ATOM      3  H12 UNL     1      11.996 -13.148  35.655  1.00  0.00     0.174 HD
HETATM    4  C1  UNL     1      13.953 -13.290  35.278  1.00  0.00     0.680 A 
HETATM    5  N2  UNL     1      13.746 -13.474  33.938  1.00  0.00    -0.154 N 
ATOM      6  H2  UNL     1      12.808 -13.490  33.540  1.00  0.00     0.187 HD
HETATM    7  C2  UNL     1      14.836 -13.632  33.173  1.00  0.00     0.290 A 
HETATM    8  O1  UNL     1      14.720 -13.809  31.911  1.00  0.00    -0.265 OA
HETATM    9  C3  UNL     1      16.136 -13.620  33.657  1.00  0.00     0.152 A 
HETATM   10  N3  UNL     1      17.202 -13.780  32.845  1.00  0.00    -0.337 N 
ATOM     11  H3  UNL     1      17.056 -13.919  31.845  1.00  0.00     0.167 HD
HETATM   12  C4  UNL     1      18.469 -13.761  33.342  1.00  0.00     0.098 A 
HETATM   13  N6  UNL     1      18.607 -13.578  34.656  1.00  0.00    -0.261 N 
ATOM     14  H6  UNL     1      19.547 -13.561  35.052  1.00  0.00     0.191 HD
HETATM   15  N7  UNL     1      17.558 -13.415  35.482  1.00  0.00    -0.142 N 
HETATM   16  C13 UNL     1      16.286 -13.430  35.015  1.00  0.00     0.199 A 
HETATM   17  N8  UNL     1      15.203 -13.270  35.792  1.00  0.00    -0.170 N 
ATOM     18  H8  UNL     1      15.326 -13.131  36.794  1.00  0.00     0.186 HD
ENDROOT
BRANCH  12  19
HETATM   19  C5  UNL     1      19.611 -13.936  32.432  1.00  0.00     0.078 C 
BRANCH  19  20
HETATM   20  C6  UNL     1      20.314 -15.267  32.596  1.00  0.00     0.009 C 
BRANCH  20  21
HETATM   21  C7  UNL     1      20.899 -15.627  31.250  1.00  0.00     0.028 C 
BRANCH  21  22
HETATM   22  C8  UNL     1      21.245 -17.075  31.131  1.00  0.00     0.232 C 
BRANCH  22  23
HETATM   23  N4  UNL     1      21.030 -17.662  29.847  1.00  0.00    -0.075 N 
ATOM     24  H42 UNL     1      21.574 -18.514  29.707  1.00  0.00     0.277 HD
ATOM     25  H41 UNL     1      20.103 -18.076  29.752  1.00  0.00     0.277 HD
BRANCH  23  26
HETATM   26  C9  UNL     1      21.301 -16.651  28.841  1.00  0.00     0.232 C 
BRANCH  26  27
HETATM   27  C10 UNL     1      21.461 -17.209  27.451  1.00  0.00     0.029 C 
BRANCH  27  28
HETATM   28  C11 UNL     1      20.123 -17.547  26.822  1.00  0.00     0.029 C 
BRANCH  28  29
HETATM   29  C12 UNL     1      19.541 -16.310  26.130  1.00  0.00     0.229 C 
BRANCH  29  30
HETATM   30  N5  UNL     1      18.470 -16.658  25.223  1.00  0.00    -0.079 N 
ATOM     31  H53 UNL     1      18.493 -16.081  24.382  1.00  0.00     0.274 HD
ATOM     32  H52 UNL     1      18.627 -17.570  24.795  1.00  0.00     0.274 HD
ATOM     33  H51 UNL     1      17.558 -16.613  25.679  1.00  0.00     0.274 HD
ENDBRANCH  29  30
ENDBRANCH  28  29
ENDBRANCH  27  28
ENDBRANCH  26  27
ENDBRANCH  23  26
ENDBRANCH  22  23
ENDBRANCH  21  22
ENDBRANCH  20  21
ENDBRANCH  19  20
ENDBRANCH  12  19
BRANCH  15  34
HETATM   34  O2  UNL     1      17.714 -13.246  36.702  1.00  0.00    -0.266 OA
ATOM     35  H2  UNL     1      18.557 -13.003  37.065  1.00  0.00     0.247 HD
ENDBRANCH  15  34
TORSDOF 11
ENDMDL
