MODEL 1
REMARK VINA RESULT: -6.135286447      0.000      0.000
REMARK  11 active torsions:
REMARK  status: ('A' for Active; 'I' for Inactive)
REMARK    1  A    between atoms: C2_2  and  N1_3 
REMARK    2  A    between atoms: N1_3  and  C3_4 
REMARK    3  A    between atoms: N1_3  and  C5_6 
REMARK    4  A    between atoms: C6_9  and  N3_10 
REMARK    5  A    between atoms: N3_10  and  C7_12 
REMARK    6  A    between atoms: C7_12  and  C8_13 
REMARK    7  A    between atoms: C8_13  and  N4_14 
REMARK    8  A    between atoms: C10_22  and  N6_23 
REMARK    9  A    between atoms: N6_23  and  C11_25 
REMARK   10  A    between atoms: C11_25  and  C12_26 
REMARK   11  A    between atoms: C12_26  and  N7_27 
ROOT
HETATM    1  C5  UNL     1      18.969 -14.267  25.999  1.00  0.00     0.151 A 
HETATM    2  N2  UNL     1      17.786 -13.826  25.466  1.00  0.00    -0.174 N 
ATOM      3  H2  UNL     1      17.686 -12.822  25.317  1.00  0.00     0.186 HD
HETATM    4  C6  UNL     1      16.756 -14.598  25.126  1.00  0.00     0.682 A 
HETATM    5  N5  UNL     1      16.854 -15.921  25.306  1.00  0.00    -0.154 N 
ATOM      6  H5  UNL     1      16.079 -16.535  25.054  1.00  0.00     0.187 HD
HETATM    7  C9  UNL     1      17.980 -16.431  25.822  1.00  0.00     0.289 A 
HETATM    8  O1  UNL     1      18.110 -17.651  26.005  1.00  0.00    -0.265 OA
HETATM    9  C10 UNL     1      19.068 -15.615  26.181  1.00  0.00     0.142 A 
ENDROOT
BRANCH   9  10
HETATM   10  N6  UNL     1      20.230 -16.222  26.676  1.00  0.00    -0.381 N 
ATOM     11  H6  UNL     1      20.269 -16.515  27.652  1.00  0.00     0.160 HD
BRANCH  10  12
HETATM   12  C11 UNL     1      21.375 -16.439  25.816  1.00  0.00     0.139 C 
BRANCH  12  13
HETATM   13  C12 UNL     1      20.930 -16.878  24.424  1.00  0.00     0.141 C 
BRANCH  13  14
HETATM   14  N7  UNL     1      21.583 -16.139  23.392  1.00  0.00    -0.365 N 
HETATM   15  C13 UNL     1      21.699 -16.542  22.178  1.00  0.00     0.197 C 
HETATM   16  N8  UNL     1      22.368 -15.716  21.251  1.00  0.00    -0.067 NA
HETATM   17  N9  UNL     1      21.173 -17.798  21.739  1.00  0.00    -0.067 NA
ATOM     18  H7  UNL     1      21.984 -15.232  23.634  1.00  0.00     0.161 HD
ENDBRANCH  13  14
ENDBRANCH  12  13
ENDBRANCH  10  12
ENDBRANCH   9  10
BRANCH   1  19
HETATM   19  N1  UNL     1      19.975 -13.328  26.321  1.00  0.00    -0.366 N 
BRANCH  19  20
HETATM   20  C2  UNL     1      20.820 -12.868  25.242  1.00  0.00     0.120 C 
HETATM   21  C1  UNL     1      20.528 -11.482  24.783  1.00  0.00     0.026 C 
ENDBRANCH  19  20
BRANCH  19  22
HETATM   22  C3  UNL     1      20.141 -12.770  27.621  1.00  0.00     0.120 C 
HETATM   23  C4  UNL     1      21.370 -13.153  28.368  1.00  0.00     0.026 C 
ENDBRANCH  19  22
ENDBRANCH   1  19
BRANCH   4  24
HETATM   24  N3  UNL     1      15.665 -14.061  24.625  1.00  0.00    -0.224 N 
ATOM     25  H3  UNL     1      15.333 -13.191  25.043  1.00  0.00     0.177 HD
BRANCH  24  26
HETATM   26  C7  UNL     1      14.913 -14.600  23.545  1.00  0.00     0.165 C 
BRANCH  26  27
HETATM   27  C8  UNL     1      14.228 -13.434  22.838  1.00  0.00     0.249 C 
BRANCH  27  28
HETATM   28  N4  UNL     1      14.874 -12.215  23.256  1.00  0.00    -0.078 N 
ATOM     29  H43 UNL     1      14.227 -11.428  23.318  1.00  0.00     0.274 HD
ATOM     30  H42 UNL     1      15.159 -12.236  24.235  1.00  0.00     0.274 HD
ATOM     31  H41 UNL     1      15.653 -12.035  22.622  1.00  0.00     0.274 HD
ENDBRANCH  27  28
ENDBRANCH  26  27
ENDBRANCH  24  26
ENDBRANCH   4  24
TORSDOF 11
ENDMDL
MODEL 2
REMARK VINA RESULT: -6.102091096      2.040      2.459
REMARK  11 active torsions:
REMARK  status: ('A' for Active; 'I' for Inactive)
REMARK    1  A    between atoms: C2_2  and  N1_3 
REMARK    2  A    between atoms: N1_3  and  C3_4 
REMARK    3  A    between atoms: N1_3  and  C5_6 
REMARK    4  A    between atoms: C6_9  and  N3_10 
REMARK    5  A    between atoms: N3_10  and  C7_12 
REMARK    6  A    between atoms: C7_12  and  C8_13 
REMARK    7  A    between atoms: C8_13  and  N4_14 
REMARK    8  A    between atoms: C10_22  and  N6_23 
REMARK    9  A    between atoms: N6_23  and  C11_25 
REMARK   10  A    between atoms: C11_25  and  C12_26 
REMARK   11  A    between atoms: C12_26  and  N7_27 
ROOT
HETATM    1  C5  UNL     1      18.783 -15.622  26.121  1.00  0.00     0.151 A 
HETATM    2  N2  UNL     1      17.895 -14.822  25.449  1.00  0.00    -0.174 N 
ATOM      3  H2  UNL     1      18.226 -13.904  25.153  1.00  0.00     0.186 HD
HETATM    4  C6  UNL     1      16.638 -15.144  25.152  1.00  0.00     0.682 A 
HETATM    5  N5  UNL     1      16.173 -16.343  25.525  1.00  0.00    -0.154 N 
ATOM      6  H5  UNL     1      15.213 -16.614  25.309  1.00  0.00     0.187 HD
HETATM    7  C9  UNL     1      16.980 -17.183  26.185  1.00  0.00     0.289 A 
HETATM    8  O1  UNL     1      16.586 -18.303  26.548  1.00  0.00    -0.265 OA
HETATM    9  C10 UNL     1      18.309 -16.843  26.500  1.00  0.00     0.142 A 
ENDROOT
BRANCH   9  10
HETATM   10  N6  UNL     1      19.108 -17.789  27.156  1.00  0.00    -0.381 N 
ATOM     11  H6  UNL     1      19.036 -17.894  28.168  1.00  0.00     0.160 HD
BRANCH  10  12
HETATM   12  C11 UNL     1      20.033 -18.619  26.413  1.00  0.00     0.139 C 
BRANCH  12  13
HETATM   13  C12 UNL     1      19.280 -19.602  25.520  1.00  0.00     0.141 C 
BRANCH  13  14
HETATM   14  N7  UNL     1      19.605 -19.434  24.140  1.00  0.00    -0.365 N 
HETATM   15  C13 UNL     1      19.840 -20.403  23.331  1.00  0.00     0.197 C 
HETATM   16  N8  UNL     1      20.150 -20.103  21.988  1.00  0.00    -0.067 NA
HETATM   17  N9  UNL     1      19.798 -21.771  23.748  1.00  0.00    -0.067 NA
ATOM     18  H7  UNL     1      19.654 -18.483  23.773  1.00  0.00     0.161 HD
ENDBRANCH  13  14
ENDBRANCH  12  13
ENDBRANCH  10  12
ENDBRANCH   9  10
BRANCH   1  19
HETATM   19  N1  UNL     1      20.088 -15.143  26.375  1.00  0.00    -0.366 N 
BRANCH  19  20
HETATM   20  C2  UNL     1      21.082 -15.353  25.347  1.00  0.00     0.120 C 
HETATM   21  C1  UNL     1      21.616 -14.099  24.747  1.00  0.00     0.026 C 
ENDBRANCH  19  20
BRANCH  19  22
HETATM   22  C3  UNL     1      20.443 -14.414  27.546  1.00  0.00     0.120 C 
HETATM   23  C4  UNL     1      21.264 -15.125  28.563  1.00  0.00     0.026 C 
ENDBRANCH  19  22
ENDBRANCH   1  19
BRANCH   4  24
HETATM   24  N3  UNL     1      15.874 -14.291  24.505  1.00  0.00    -0.224 N 
ATOM     25  H3  UNL     1      16.060 -13.297  24.637  1.00  0.00     0.177 HD
BRANCH  24  26
HETATM   26  C7  UNL     1      14.808 -14.651  23.634  1.00  0.00     0.165 C 
BRANCH  26  27
HETATM   27  C8  UNL     1      14.365 -13.385  22.907  1.00  0.00     0.249 C 
BRANCH  27  28
HETATM   28  N4  UNL     1      15.093 -12.271  23.463  1.00  0.00    -0.078 N 
ATOM     29  H43 UNL     1      14.707 -11.953  24.352  1.00  0.00     0.274 HD
ATOM     30  H42 UNL     1      16.019 -12.535  23.802  1.00  0.00     0.274 HD
ATOM     31  H41 UNL     1      15.126 -11.531  22.761  1.00  0.00     0.274 HD
ENDBRANCH  27  28
ENDBRANCH  26  27
ENDBRANCH  24  26
ENDBRANCH   4  24
TORSDOF 11
ENDMDL
MODEL 3
REMARK VINA RESULT: -5.998136039      3.256      5.348
REMARK  11 active torsions:
REMARK  status: ('A' for Active; 'I' for Inactive)
REMARK    1  A    between atoms: C2_2  and  N1_3 
REMARK    2  A    between atoms: N1_3  and  C3_4 
REMARK    3  A    between atoms: N1_3  and  C5_6 
REMARK    4  A    between atoms: C6_9  and  N3_10 
REMARK    5  A    between atoms: N3_10  and  C7_12 
REMARK    6  A    between atoms: C7_12  and  C8_13 
REMARK    7  A    between atoms: C8_13  and  N4_14 
REMARK    8  A    between atoms: C10_22  and  N6_23 
REMARK    9  A    between atoms: N6_23  and  C11_25 
REMARK   10  A    between atoms: C11_25  and  C12_26 
REMARK   11  A    between atoms: C12_26  and  N7_27 
ROOT
HETATM    1  C5  UNL     1      22.514 -14.445  23.546  1.00  0.00     0.151 A 
HETATM    2  N2  UNL     1      21.633 -15.221  24.253  1.00  0.00    -0.174 N 
ATOM      3  H2  UNL     1      21.374 -14.902  25.186  1.00  0.00     0.186 HD
HETATM    4  C6  UNL     1      21.088 -16.358  23.823  1.00  0.00     0.682 A 
HETATM    5  N5  UNL     1      21.405 -16.805  22.602  1.00  0.00    -0.154 N 
ATOM      6  H5  UNL     1      21.001 -17.672  22.249  1.00  0.00     0.187 HD
HETATM    7  C9  UNL     1      22.259 -16.101  21.848  1.00  0.00     0.289 A 
HETATM    8  O1  UNL     1      22.579 -16.482  20.710  1.00  0.00    -0.265 OA
HETATM    9  C10 UNL     1      22.836 -14.901  22.301  1.00  0.00     0.142 A 
ENDROOT
BRANCH   9  10
HETATM   10  N6  UNL     1      23.690 -14.197  21.440  1.00  0.00    -0.381 N 
ATOM     11  H6  UNL     1      23.296 -13.548  20.759  1.00  0.00     0.160 HD
BRANCH  10  12
HETATM   12  C11 UNL     1      25.124 -14.382  21.509  1.00  0.00     0.139 C 
BRANCH  12  13
HETATM   13  C12 UNL     1      25.677 -14.830  20.159  1.00  0.00     0.141 C 
BRANCH  13  14
HETATM   14  N7  UNL     1      25.344 -16.187  19.865  1.00  0.00    -0.365 N 
HETATM   15  C13 UNL     1      26.207 -17.129  19.730  1.00  0.00     0.197 C 
HETATM   16  N8  UNL     1      25.749 -18.430  19.440  1.00  0.00    -0.067 NA
HETATM   17  N9  UNL     1      27.613 -16.899  19.864  1.00  0.00    -0.067 NA
ATOM     18  H7  UNL     1      24.358 -16.425  19.755  1.00  0.00     0.161 HD
ENDBRANCH  13  14
ENDBRANCH  12  13
ENDBRANCH  10  12
ENDBRANCH   9  10
BRANCH   1  19
HETATM   19  N1  UNL     1      23.021 -13.264  24.134  1.00  0.00    -0.366 N 
BRANCH  19  20
HETATM   20  C2  UNL     1      24.202 -13.390  24.958  1.00  0.00     0.120 C 
HETATM   21  C1  UNL     1      23.919 -13.568  26.410  1.00  0.00     0.026 C 
ENDBRANCH  19  20
BRANCH  19  22
HETATM   22  C3  UNL     1      22.474 -11.971  23.896  1.00  0.00     0.120 C 
HETATM   23  C4  UNL     1      21.197 -11.640  24.585  1.00  0.00     0.026 C 
ENDBRANCH  19  22
ENDBRANCH   1  19
BRANCH   4  24
HETATM   24  N3  UNL     1      20.255 -17.022  24.594  1.00  0.00    -0.224 N 
ATOM     25  H3  UNL     1      19.882 -17.902  24.238  1.00  0.00     0.177 HD
BRANCH  24  26
HETATM   26  C7  UNL     1      19.836 -16.607  25.889  1.00  0.00     0.165 C 
BRANCH  26  27
HETATM   27  C8  UNL     1      18.345 -16.909  26.005  1.00  0.00     0.249 C 
BRANCH  27  28
HETATM   28  N4  UNL     1      17.628 -15.935  25.219  1.00  0.00    -0.078 N 
ATOM     29  H43 UNL     1      17.292 -15.150  25.776  1.00  0.00     0.274 HD
ATOM     30  H42 UNL     1      18.238 -15.409  24.592  1.00  0.00     0.274 HD
ATOM     31  H41 UNL     1      16.877 -16.418  24.725  1.00  0.00     0.274 HD
ENDBRANCH  27  28
ENDBRANCH  26  27
ENDBRANCH  24  26
ENDBRANCH   4  24
TORSDOF 11
ENDMDL
MODEL 4
REMARK VINA RESULT: -5.995871469      3.028      7.186
REMARK  11 active torsions:
REMARK  status: ('A' for Active; 'I' for Inactive)
REMARK    1  A    between atoms: C2_2  and  N1_3 
REMARK    2  A    between atoms: N1_3  and  C3_4 
REMARK    3  A    between atoms: N1_3  and  C5_6 
REMARK    4  A    between atoms: C6_9  and  N3_10 
REMARK    5  A    between atoms: N3_10  and  C7_12 
REMARK    6  A    between atoms: C7_12  and  C8_13 
REMARK    7  A    between atoms: C8_13  and  N4_14 
REMARK    8  A    between atoms: C10_22  and  N6_23 
REMARK    9  A    between atoms: N6_23  and  C11_25 
REMARK   10  A    between atoms: C11_25  and  C12_26 
REMARK   11  A    between atoms: C12_26  and  N7_27 
ROOT
HETATM    1  C5  UNL     1      23.323 -14.649  22.563  1.00  0.00     0.151 A 
HETATM    2  N2  UNL     1      24.099 -15.001  21.489  1.00  0.00    -0.174 N 
ATOM      3  H2  UNL     1      24.889 -14.395  21.265  1.00  0.00     0.186 HD
HETATM    4  C6  UNL     1      23.907 -16.066  20.713  1.00  0.00     0.682 A 
HETATM    5  N5  UNL     1      22.880 -16.882  20.979  1.00  0.00    -0.154 N 
ATOM      6  H5  UNL     1      22.712 -17.704  20.400  1.00  0.00     0.187 HD
HETATM    7  C9  UNL     1      22.076 -16.607  22.014  1.00  0.00     0.289 A 
HETATM    8  O1  UNL     1      21.113 -17.339  22.293  1.00  0.00    -0.265 OA
HETATM    9  C10 UNL     1      22.278 -15.482  22.834  1.00  0.00     0.142 A 
ENDROOT
BRANCH   9  10
HETATM   10  N6  UNL     1      21.420 -15.281  23.924  1.00  0.00    -0.381 N 
ATOM     11  H6  UNL     1      20.521 -14.823  23.780  1.00  0.00     0.160 HD
BRANCH  10  12
HETATM   12  C11 UNL     1      21.798 -15.718  25.252  1.00  0.00     0.139 C 
BRANCH  12  13
HETATM   13  C12 UNL     1      21.077 -14.896  26.317  1.00  0.00     0.141 C 
BRANCH  13  14
HETATM   14  N7  UNL     1      19.917 -14.243  25.799  1.00  0.00    -0.365 N 
HETATM   15  C13 UNL     1      19.302 -13.286  26.394  1.00  0.00     0.197 C 
HETATM   16  N8  UNL     1      18.167 -12.723  25.776  1.00  0.00    -0.067 NA
HETATM   17  N9  UNL     1      19.732 -12.774  27.660  1.00  0.00    -0.067 NA
ATOM     18  H7  UNL     1      19.554 -14.557  24.899  1.00  0.00     0.161 HD
ENDBRANCH  13  14
ENDBRANCH  12  13
ENDBRANCH  10  12
ENDBRANCH   9  10
BRANCH   1  19
HETATM   19  N1  UNL     1      23.641 -13.482  23.293  1.00  0.00    -0.366 N 
BRANCH  19  20
HETATM   20  C2  UNL     1      24.931 -13.440  23.944  1.00  0.00     0.120 C 
HETATM   21  C1  UNL     1      25.902 -12.498  23.320  1.00  0.00     0.026 C 
ENDBRANCH  19  20
BRANCH  19  22
HETATM   22  C3  UNL     1      22.794 -12.338  23.353  1.00  0.00     0.120 C 
HETATM   23  C4  UNL     1      22.487 -11.796  24.704  1.00  0.00     0.026 C 
ENDBRANCH  19  22
ENDBRANCH   1  19
BRANCH   4  24
HETATM   24  N3  UNL     1      24.717 -16.301  19.703  1.00  0.00    -0.224 N 
ATOM     25  H3  UNL     1      24.305 -16.365  18.773  1.00  0.00     0.177 HD
BRANCH  24  26
HETATM   26  C7  UNL     1      26.125 -16.471  19.812  1.00  0.00     0.165 C 
BRANCH  26  27
HETATM   27  C8  UNL     1      26.375 -17.877  20.349  1.00  0.00     0.249 C 
BRANCH  27  28
HETATM   28  N4  UNL     1      25.807 -18.820  19.418  1.00  0.00    -0.078 N 
ATOM     29  H43 UNL     1      25.136 -19.451  19.856  1.00  0.00     0.274 HD
ATOM     30  H42 UNL     1      25.169 -18.381  18.753  1.00  0.00     0.274 HD
ATOM     31  H41 UNL     1      26.573 -19.316  18.961  1.00  0.00     0.274 HD
ENDBRANCH  27  28
ENDBRANCH  26  27
ENDBRANCH  24  26
ENDBRANCH   4  24
TORSDOF 11
ENDMDL
MODEL 5
REMARK VINA RESULT: -5.979283326      3.298      5.844
REMARK  11 active torsions:
REMARK  status: ('A' for Active; 'I' for Inactive)
REMARK    1  A    between atoms: C2_2  and  N1_3 
REMARK    2  A    between atoms: N1_3  and  C3_4 
REMARK    3  A    between atoms: N1_3  and  C5_6 
REMARK    4  A    between atoms: C6_9  and  N3_10 
REMARK    5  A    between atoms: N3_10  and  C7_12 
REMARK    6  A    between atoms: C7_12  and  C8_13 
REMARK    7  A    between atoms: C8_13  and  N4_14 
REMARK    8  A    between atoms: C10_22  and  N6_23 
REMARK    9  A    between atoms: N6_23  and  C11_25 
REMARK   10  A    between atoms: C11_25  and  C12_26 
REMARK   11  A    between atoms: C12_26  and  N7_27 
ROOT
HETATM    1  C5  UNL     1      21.973 -17.053  27.945  1.00  0.00     0.151 A 
HETATM    2  N2  UNL     1      21.054 -18.010  27.601  1.00  0.00    -0.174 N 
ATOM      3  H2  UNL     1      20.918 -18.782  28.253  1.00  0.00     0.186 HD
HETATM    4  C6  UNL     1      20.325 -18.017  26.486  1.00  0.00     0.682 A 
HETATM    5  N5  UNL     1      20.479 -17.017  25.609  1.00  0.00    -0.154 N 
ATOM      6  H5  UNL     1      19.933 -16.999  24.748  1.00  0.00     0.187 HD
HETATM    7  C9  UNL     1      21.357 -16.041  25.874  1.00  0.00     0.289 A 
HETATM    8  O1  UNL     1      21.529 -15.098  25.086  1.00  0.00    -0.265 OA
HETATM    9  C10 UNL     1      22.127 -16.034  27.051  1.00  0.00     0.142 A 
ENDROOT
BRANCH   9  10
HETATM   10  N6  UNL     1      22.997 -14.959  27.280  1.00  0.00    -0.381 N 
ATOM     11  H6  UNL     1      23.874 -14.900  26.763  1.00  0.00     0.160 HD
BRANCH  10  12
HETATM   12  C11 UNL     1      22.662 -13.930  28.242  1.00  0.00     0.139 C 
BRANCH  12  13
HETATM   13  C12 UNL     1      22.343 -12.614  27.538  1.00  0.00     0.141 C 
BRANCH  13  14
HETATM   14  N7  UNL     1      21.166 -12.705  26.735  1.00  0.00    -0.365 N 
HETATM   15  C13 UNL     1      19.976 -12.503  27.175  1.00  0.00     0.197 C 
HETATM   16  N8  UNL     1      18.894 -12.623  26.278  1.00  0.00    -0.067 NA
HETATM   17  N9  UNL     1      19.715 -12.163  28.539  1.00  0.00    -0.067 NA
ATOM     18  H7  UNL     1      21.277 -12.945  25.750  1.00  0.00     0.161 HD
ENDBRANCH  13  14
ENDBRANCH  12  13
ENDBRANCH  10  12
ENDBRANCH   9  10
BRANCH   1  19
HETATM   19  N1  UNL     1      22.682 -17.181  29.161  1.00  0.00    -0.366 N 
BRANCH  19  20
HETATM   20  C2  UNL     1      21.982 -16.827  30.375  1.00  0.00     0.120 C 
HETATM   21  C1  UNL     1      21.868 -17.938  31.361  1.00  0.00     0.026 C 
ENDBRANCH  19  20
BRANCH  19  22
HETATM   22  C3  UNL     1      24.005 -17.702  29.247  1.00  0.00     0.120 C 
HETATM   23  C4  UNL     1      24.199 -19.124  28.853  1.00  0.00     0.026 C 
ENDBRANCH  19  22
ENDBRANCH   1  19
BRANCH   4  24
HETATM   24  N3  UNL     1      19.475 -18.994  26.260  1.00  0.00    -0.224 N 
ATOM     25  H3  UNL     1      19.766 -19.939  26.508  1.00  0.00     0.177 HD
BRANCH  24  26
HETATM   26  C7  UNL     1      18.179 -18.831  25.696  1.00  0.00     0.165 C 
BRANCH  26  27
HETATM   27  C8  UNL     1      17.317 -18.116  26.732  1.00  0.00     0.249 C 
BRANCH  27  28
HETATM   28  N4  UNL     1      16.388 -17.264  26.031  1.00  0.00    -0.078 N 
ATOM     29  H43 UNL     1      16.589 -17.200  25.033  1.00  0.00     0.274 HD
ATOM     30  H42 UNL     1      15.456 -17.673  25.958  1.00  0.00     0.274 HD
ATOM     31  H41 UNL     1      16.384 -16.353  26.491  1.00  0.00     0.274 HD
ENDBRANCH  27  28
ENDBRANCH  26  27
ENDBRANCH  24  26
ENDBRANCH   4  24
TORSDOF 11
ENDMDL
