MODEL 1
REMARK VINA RESULT: -6.347410088      0.000      0.000
REMARK  12 active torsions:
REMARK  status: ('A' for Active; 'I' for Inactive)
REMARK    1  A    between atoms: N1_1  and  C1_4 
REMARK    2  A    between atoms: C2_7  and  N3_8 
REMARK    3  A    between atoms: N3_8  and  C3_10 
REMARK    4  A    between atoms: C3_10  and  C4_11 
REMARK    5  A    between atoms: C4_11  and  N4_12 
REMARK    6  A    between atoms: N4_12  and  C5_15 
REMARK    7  A    between atoms: C5_15  and  C6_16 
REMARK    8  A    between atoms: C6_16  and  N5_17 
REMARK    9  A    between atoms: N5_17  and  C7_18 
REMARK   10  A    between atoms: N5_17  and  C8_20 
REMARK   11  A    between atoms: C8_20  and  C9_21 
REMARK   12  A    between atoms: C9_21  and  O2_22 
ROOT
HETATM    1  C1  UNL     1      16.121 -13.194  33.573  1.00  0.00     0.145 A 
HETATM    2  N2  UNL     1      17.187 -13.244  34.376  1.00  0.00    -0.175 N 
ATOM      3  H2  UNL     1      18.113 -13.202  33.951  1.00  0.00     0.186 HD
HETATM    4  C2  UNL     1      17.100 -13.348  35.740  1.00  0.00     0.681 A 
HETATM    5  N6  UNL     1      15.864 -13.401  36.262  1.00  0.00    -0.174 N 
ATOM      6  H6  UNL     1      15.768 -13.479  37.274  1.00  0.00     0.186 HD
HETATM    7  C10 UNL     1      14.746 -13.355  35.513  1.00  0.00     0.152 A 
HETATM    8  N7  UNL     1      13.415 -13.391  35.817  1.00  0.00    -0.336 N 
ATOM      9  H7  UNL     1      13.001 -13.466  36.747  1.00  0.00     0.168 HD
HETATM   10  C11 UNL     1      12.760 -13.308  34.644  1.00  0.00     0.182 A 
HETATM   11  N8  UNL     1      13.640 -13.221  33.624  1.00  0.00    -0.346 N 
ATOM     12  H8  UNL     1      13.408 -13.148  32.634  1.00  0.00     0.167 HD
HETATM   13  C12 UNL     1      14.868 -13.250  34.147  1.00  0.00     0.122 A 
ENDROOT
BRANCH   4  14
HETATM   14  N3  UNL     1      18.194 -13.389  36.427  1.00  0.00    -0.224 N 
ATOM     15  H3  UNL     1      18.187 -13.121  37.412  1.00  0.00     0.177 HD
BRANCH  14  16
HETATM   16  C3  UNL     1      19.418 -13.809  35.810  1.00  0.00     0.165 C 
BRANCH  16  17
HETATM   17  C4  UNL     1      19.436 -15.343  35.848  1.00  0.00     0.252 C 
BRANCH  17  18
HETATM   18  N4  UNL     1      19.912 -15.750  34.542  1.00  0.00    -0.072 N 
ATOM     19  H42 UNL     1      19.647 -16.710  34.319  1.00  0.00     0.277 HD
ATOM     20  H41 UNL     1      19.412 -15.279  33.787  1.00  0.00     0.277 HD
BRANCH  18  21
HETATM   21  C5  UNL     1      21.320 -15.551  34.458  1.00  0.00     0.252 C 
BRANCH  21  22
HETATM   22  C6  UNL     1      22.021 -16.282  33.358  1.00  0.00     0.152 C 
BRANCH  22  23
HETATM   23  N5  UNL     1      21.661 -15.772  32.064  1.00  0.00    -0.356 N 
BRANCH  23  24
HETATM   24  C7  UNL     1      21.376 -16.606  30.973  1.00  0.00     0.350 C 
HETATM   25  O1  UNL     1      20.565 -17.573  31.015  1.00  0.00    -0.284 OA
ENDBRANCH  23  24
BRANCH  23  26
HETATM   26  C8  UNL     1      21.611 -14.341  31.820  1.00  0.00     0.151 C 
BRANCH  26  27
HETATM   27  C9  UNL     1      20.338 -13.844  31.225  1.00  0.00     0.183 C 
BRANCH  27  28
HETATM   28  O2  UNL     1      19.249 -13.914  32.091  1.00  0.00    -0.399 OA
ATOM     29  H2  UNL     1      18.502 -14.377  31.730  1.00  0.00     0.209 HD
ENDBRANCH  27  28
ENDBRANCH  26  27
ENDBRANCH  23  26
ENDBRANCH  22  23
ENDBRANCH  21  22
ENDBRANCH  18  21
ENDBRANCH  17  18
ENDBRANCH  16  17
ENDBRANCH  14  16
ENDBRANCH   4  14
BRANCH   1  30
HETATM   30  N1  UNL     1      16.227 -13.095  32.283  1.00  0.00    -0.383 N 
ATOM     31  H12 UNL     1      16.661 -13.853  31.757  1.00  0.00     0.157 HD
ATOM     32  H11 UNL     1      15.891 -12.281  31.769  1.00  0.00     0.157 HD
ENDBRANCH   1  30
TORSDOF 12
ENDMDL
MODEL 2
REMARK VINA RESULT: -6.323803502      0.573      1.890
REMARK  12 active torsions:
REMARK  status: ('A' for Active; 'I' for Inactive)
REMARK    1  A    between atoms: N1_1  and  C1_4 
REMARK    2  A    between atoms: C2_7  and  N3_8 
REMARK    3  A    between atoms: N3_8  and  C3_10 
REMARK    4  A    between atoms: C3_10  and  C4_11 
REMARK    5  A    between atoms: C4_11  and  N4_12 
REMARK    6  A    between atoms: N4_12  and  C5_15 
REMARK    7  A    between atoms: C5_15  and  C6_16 
REMARK    8  A    between atoms: C6_16  and  N5_17 
REMARK    9  A    between atoms: N5_17  and  C7_18 
REMARK   10  A    between atoms: N5_17  and  C8_20 
REMARK   11  A    between atoms: C8_20  and  C9_21 
REMARK   12  A    between atoms: C9_21  and  O2_22 
ROOT
HETATM    1  C1  UNL     1      16.079 -13.210  33.549  1.00  0.00     0.145 A 
HETATM    2  N2  UNL     1      17.159 -13.261  34.333  1.00  0.00    -0.175 N 
ATOM      3  H2  UNL     1      18.078 -13.222  33.892  1.00  0.00     0.186 HD
HETATM    4  C2  UNL     1      17.097 -13.361  35.699  1.00  0.00     0.681 A 
HETATM    5  N6  UNL     1      15.870 -13.409  36.242  1.00  0.00    -0.174 N 
ATOM      6  H6  UNL     1      15.791 -13.484  37.256  1.00  0.00     0.186 HD
HETATM    7  C10 UNL     1      14.739 -13.363  35.513  1.00  0.00     0.152 A 
HETATM    8  N7  UNL     1      13.413 -13.395  35.841  1.00  0.00    -0.336 N 
ATOM      9  H7  UNL     1      13.015 -13.466  36.777  1.00  0.00     0.168 HD
HETATM   10  C11 UNL     1      12.737 -13.313  34.679  1.00  0.00     0.182 A 
HETATM   11  N8  UNL     1      13.600 -13.232  33.644  1.00  0.00    -0.346 N 
ATOM     12  H8  UNL     1      13.351 -13.160  32.657  1.00  0.00     0.167 HD
HETATM   13  C12 UNL     1      14.837 -13.261  34.145  1.00  0.00     0.122 A 
ENDROOT
BRANCH   4  14
HETATM   14  N3  UNL     1      18.202 -13.402  36.367  1.00  0.00    -0.224 N 
ATOM     15  H3  UNL     1      18.212 -13.134  37.351  1.00  0.00     0.177 HD
BRANCH  14  16
HETATM   16  C3  UNL     1      19.415 -13.823  35.729  1.00  0.00     0.165 C 
BRANCH  16  17
HETATM   17  C4  UNL     1      19.473 -15.352  35.840  1.00  0.00     0.252 C 
BRANCH  17  18
HETATM   18  N4  UNL     1      20.169 -15.794  34.648  1.00  0.00    -0.072 N 
ATOM     19  H42 UNL     1      20.371 -16.794  34.671  1.00  0.00     0.277 HD
ATOM     20  H41 UNL     1      19.566 -15.784  33.825  1.00  0.00     0.277 HD
BRANCH  18  21
HETATM   21  C5  UNL     1      21.345 -15.013  34.459  1.00  0.00     0.252 C 
BRANCH  21  22
HETATM   22  C6  UNL     1      22.071 -15.223  33.169  1.00  0.00     0.152 C 
BRANCH  22  23
HETATM   23  N5  UNL     1      21.170 -15.260  32.050  1.00  0.00    -0.356 N 
BRANCH  23  24
HETATM   24  C7  UNL     1      20.356 -14.174  31.696  1.00  0.00     0.350 C 
HETATM   25  O1  UNL     1      19.183 -13.997  32.129  1.00  0.00    -0.284 OA
ENDBRANCH  23  24
BRANCH  23  26
HETATM   26  C8  UNL     1      21.037 -16.462  31.246  1.00  0.00     0.151 C 
BRANCH  26  27
HETATM   27  C9  UNL     1      21.953 -17.576  31.616  1.00  0.00     0.183 C 
BRANCH  27  28
HETATM   28  O2  UNL     1      21.833 -18.698  30.798  1.00  0.00    -0.399 OA
ATOM     29  H2  UNL     1      22.532 -19.331  30.911  1.00  0.00     0.209 HD
ENDBRANCH  27  28
ENDBRANCH  26  27
ENDBRANCH  23  26
ENDBRANCH  22  23
ENDBRANCH  21  22
ENDBRANCH  18  21
ENDBRANCH  17  18
ENDBRANCH  16  17
ENDBRANCH  14  16
ENDBRANCH   4  14
BRANCH   1  30
HETATM   30  N1  UNL     1      16.164 -13.116  32.257  1.00  0.00    -0.383 N 
ATOM     31  H12 UNL     1      16.687 -12.344  31.845  1.00  0.00     0.157 HD
ATOM     32  H11 UNL     1      15.723 -13.790  31.631  1.00  0.00     0.157 HD
ENDBRANCH   1  30
TORSDOF 12
ENDMDL
MODEL 3
REMARK VINA RESULT: -6.276489099      0.989      1.890
REMARK  12 active torsions:
REMARK  status: ('A' for Active; 'I' for Inactive)
REMARK    1  A    between atoms: N1_1  and  C1_4 
REMARK    2  A    between atoms: C2_7  and  N3_8 
REMARK    3  A    between atoms: N3_8  and  C3_10 
REMARK    4  A    between atoms: C3_10  and  C4_11 
REMARK    5  A    between atoms: C4_11  and  N4_12 
REMARK    6  A    between atoms: N4_12  and  C5_15 
REMARK    7  A    between atoms: C5_15  and  C6_16 
REMARK    8  A    between atoms: C6_16  and  N5_17 
REMARK    9  A    between atoms: N5_17  and  C7_18 
REMARK   10  A    between atoms: N5_17  and  C8_20 
REMARK   11  A    between atoms: C8_20  and  C9_21 
REMARK   12  A    between atoms: C9_21  and  O2_22 
ROOT
HETATM    1  C1  UNL     1      15.284 -13.450  32.733  1.00  0.00     0.145 A 
HETATM    2  N2  UNL     1      16.603 -13.504  32.932  1.00  0.00    -0.175 N 
ATOM      3  H2  UNL     1      17.213 -13.553  32.117  1.00  0.00     0.186 HD
HETATM    4  C2  UNL     1      17.180 -13.496  34.176  1.00  0.00     0.681 A 
HETATM    5  N6  UNL     1      16.345 -13.431  35.225  1.00  0.00    -0.174 N 
ATOM      6  H6  UNL     1      16.744 -13.425  36.163  1.00  0.00     0.186 HD
HETATM    7  C10 UNL     1      15.006 -13.375  35.099  1.00  0.00     0.152 A 
HETATM    8  N7  UNL     1      13.983 -13.304  36.001  1.00  0.00    -0.336 N 
ATOM      9  H7  UNL     1      14.064 -13.281  37.018  1.00  0.00     0.168 HD
HETATM   10  C11 UNL     1      12.847 -13.272  35.280  1.00  0.00     0.182 A 
HETATM   11  N8  UNL     1      13.131 -13.319  33.961  1.00  0.00    -0.346 N 
ATOM     12  H8  UNL     1      12.454 -13.309  33.198  1.00  0.00     0.167 HD
HETATM   13  C12 UNL     1      14.459 -13.383  33.836  1.00  0.00     0.122 A 
ENDROOT
BRANCH   4  14
HETATM   14  N3  UNL     1      18.469 -13.551  34.260  1.00  0.00    -0.224 N 
ATOM     15  H3  UNL     1      19.041 -13.333  33.444  1.00  0.00     0.177 HD
BRANCH  14  16
HETATM   16  C3  UNL     1      19.096 -13.918  35.496  1.00  0.00     0.165 C 
BRANCH  16  17
HETATM   17  C4  UNL     1      20.525 -14.363  35.158  1.00  0.00     0.252 C 
BRANCH  17  18
HETATM   18  N4  UNL     1      20.378 -15.630  34.472  1.00  0.00    -0.072 N 
ATOM     19  H42 UNL     1      20.032 -16.363  35.091  1.00  0.00     0.277 HD
ATOM     20  H41 UNL     1      19.603 -15.619  33.808  1.00  0.00     0.277 HD
BRANCH  18  21
HETATM   21  C5  UNL     1      21.609 -15.988  33.851  1.00  0.00     0.252 C 
BRANCH  21  22
HETATM   22  C6  UNL     1      22.230 -14.946  32.977  1.00  0.00     0.152 C 
BRANCH  22  23
HETATM   23  N5  UNL     1      21.736 -15.017  31.630  1.00  0.00    -0.356 N 
BRANCH  23  24
HETATM   24  C7  UNL     1      20.736 -14.161  31.144  1.00  0.00     0.350 C 
HETATM   25  O1  UNL     1      19.613 -13.999  31.698  1.00  0.00    -0.284 OA
ENDBRANCH  23  24
BRANCH  23  26
HETATM   26  C8  UNL     1      22.237 -16.021  30.708  1.00  0.00     0.151 C 
BRANCH  26  27
HETATM   27  C9  UNL     1      21.191 -16.806  29.996  1.00  0.00     0.183 C 
BRANCH  27  28
HETATM   28  O2  UNL     1      20.642 -17.834  30.761  1.00  0.00    -0.399 OA
ATOM     29  H2  UNL     1      19.985 -17.542  31.381  1.00  0.00     0.209 HD
ENDBRANCH  27  28
ENDBRANCH  26  27
ENDBRANCH  23  26
ENDBRANCH  22  23
ENDBRANCH  21  22
ENDBRANCH  18  21
ENDBRANCH  17  18
ENDBRANCH  16  17
ENDBRANCH  14  16
ENDBRANCH   4  14
BRANCH   1  30
HETATM   30  N1  UNL     1      14.761 -13.458  31.545  1.00  0.00    -0.383 N 
ATOM     31  H12 UNL     1      15.114 -12.814  30.838  1.00  0.00     0.157 HD
ATOM     32  H11 UNL     1      14.003 -14.091  31.288  1.00  0.00     0.157 HD
ENDBRANCH   1  30
TORSDOF 12
ENDMDL
MODEL 4
REMARK VINA RESULT: -6.207973920      1.010      1.150
REMARK  12 active torsions:
REMARK  status: ('A' for Active; 'I' for Inactive)
REMARK    1  A    between atoms: N1_1  and  C1_4 
REMARK    2  A    between atoms: C2_7  and  N3_8 
REMARK    3  A    between atoms: N3_8  and  C3_10 
REMARK    4  A    between atoms: C3_10  and  C4_11 
REMARK    5  A    between atoms: C4_11  and  N4_12 
REMARK    6  A    between atoms: N4_12  and  C5_15 
REMARK    7  A    between atoms: C5_15  and  C6_16 
REMARK    8  A    between atoms: C6_16  and  N5_17 
REMARK    9  A    between atoms: N5_17  and  C7_18 
REMARK   10  A    between atoms: N5_17  and  C8_20 
REMARK   11  A    between atoms: C8_20  and  C9_21 
REMARK   12  A    between atoms: C9_21  and  O2_22 
ROOT
HETATM    1  C1  UNL     1      15.264 -13.450  32.711  1.00  0.00     0.145 A 
HETATM    2  N2  UNL     1      16.588 -13.515  32.873  1.00  0.00    -0.175 N 
ATOM      3  H2  UNL     1      17.174 -13.564  32.040  1.00  0.00     0.186 HD
HETATM    4  C2  UNL     1      17.199 -13.518  34.100  1.00  0.00     0.681 A 
HETATM    5  N6  UNL     1      16.394 -13.453  35.172  1.00  0.00    -0.174 N 
ATOM      6  H6  UNL     1      16.819 -13.455  36.099  1.00  0.00     0.186 HD
HETATM    7  C10 UNL     1      15.052 -13.386  35.084  1.00  0.00     0.152 A 
HETATM    8  N7  UNL     1      14.056 -13.313  36.015  1.00  0.00    -0.336 N 
ATOM      9  H7  UNL     1      14.165 -13.296  37.029  1.00  0.00     0.168 HD
HETATM   10  C11 UNL     1      12.900 -13.268  35.325  1.00  0.00     0.182 A 
HETATM   11  N8  UNL     1      13.147 -13.310  33.999  1.00  0.00    -0.346 N 
ATOM     12  H8  UNL     1      12.450 -13.291  33.256  1.00  0.00     0.167 HD
HETATM   13  C12 UNL     1      14.471 -13.383  33.837  1.00  0.00     0.122 A 
ENDROOT
BRANCH   4  14
HETATM   14  N3  UNL     1      18.489 -13.584  34.148  1.00  0.00    -0.224 N 
ATOM     15  H3  UNL     1      19.040 -13.373  33.315  1.00  0.00     0.177 HD
BRANCH  14  16
HETATM   16  C3  UNL     1      19.148 -13.951  35.366  1.00  0.00     0.165 C 
BRANCH  16  17
HETATM   17  C4  UNL     1      20.580 -14.360  34.996  1.00  0.00     0.252 C 
BRANCH  17  18
HETATM   18  N4  UNL     1      20.435 -15.499  34.113  1.00  0.00    -0.072 N 
ATOM     19  H42 UNL     1      19.800 -16.201  34.494  1.00  0.00     0.277 HD
ATOM     20  H41 UNL     1      19.910 -15.266  33.269  1.00  0.00     0.277 HD
BRANCH  18  21
HETATM   21  C5  UNL     1      21.717 -16.043  33.813  1.00  0.00     0.252 C 
BRANCH  21  22
HETATM   22  C6  UNL     1      22.382 -15.512  32.583  1.00  0.00     0.152 C 
BRANCH  22  23
HETATM   23  N5  UNL     1      21.729 -15.965  31.386  1.00  0.00    -0.356 N 
BRANCH  23  24
HETATM   24  C7  UNL     1      21.524 -17.323  31.102  1.00  0.00     0.350 C 
HETATM   25  O1  UNL     1      20.405 -17.822  30.797  1.00  0.00    -0.284 OA
ENDBRANCH  23  24
BRANCH  23  26
HETATM   26  C8  UNL     1      21.275 -15.015  30.385  1.00  0.00     0.151 C 
BRANCH  26  27
HETATM   27  C9  UNL     1      20.778 -13.718  30.923  1.00  0.00     0.183 C 
BRANCH  27  28
HETATM   28  O2  UNL     1      19.526 -13.803  31.527  1.00  0.00    -0.399 OA
ATOM     29  H2  UNL     1      18.914 -13.137  31.235  1.00  0.00     0.209 HD
ENDBRANCH  27  28
ENDBRANCH  26  27
ENDBRANCH  23  26
ENDBRANCH  22  23
ENDBRANCH  21  22
ENDBRANCH  18  21
ENDBRANCH  17  18
ENDBRANCH  16  17
ENDBRANCH  14  16
ENDBRANCH   4  14
BRANCH   1  30
HETATM   30  N1  UNL     1      14.708 -13.448  31.538  1.00  0.00    -0.383 N 
ATOM     31  H12 UNL     1      14.652 -14.318  31.009  1.00  0.00     0.157 HD
ATOM     32  H11 UNL     1      14.321 -12.603  31.120  1.00  0.00     0.157 HD
ENDBRANCH   1  30
TORSDOF 12
ENDMDL
MODEL 5
REMARK VINA RESULT: -6.206805806      2.362      3.584
REMARK  12 active torsions:
REMARK  status: ('A' for Active; 'I' for Inactive)
REMARK    1  A    between atoms: N1_1  and  C1_4 
REMARK    2  A    between atoms: C2_7  and  N3_8 
REMARK    3  A    between atoms: N3_8  and  C3_10 
REMARK    4  A    between atoms: C3_10  and  C4_11 
REMARK    5  A    between atoms: C4_11  and  N4_12 
REMARK    6  A    between atoms: N4_12  and  C5_15 
REMARK    7  A    between atoms: C5_15  and  C6_16 
REMARK    8  A    between atoms: C6_16  and  N5_17 
REMARK    9  A    between atoms: N5_17  and  C7_18 
REMARK   10  A    between atoms: N5_17  and  C8_20 
REMARK   11  A    between atoms: C8_20  and  C9_21 
REMARK   12  A    between atoms: C9_21  and  O2_22 
ROOT
HETATM    1  C1  UNL     1      16.406 -13.473  35.800  1.00  0.00     0.145 A 
HETATM    2  N2  UNL     1      17.433 -13.530  34.949  1.00  0.00    -0.175 N 
ATOM      3  H2  UNL     1      18.375 -13.596  35.333  1.00  0.00     0.186 HD
HETATM    4  C2  UNL     1      17.287 -13.504  33.586  1.00  0.00     0.681 A 
HETATM    5  N6  UNL     1      16.031 -13.415  33.118  1.00  0.00    -0.174 N 
ATOM      6  H6  UNL     1      15.890 -13.393  32.109  1.00  0.00     0.186 HD
HETATM    7  C10 UNL     1      14.950 -13.354  33.918  1.00  0.00     0.152 A 
HETATM    8  N7  UNL     1      13.609 -13.264  33.672  1.00  0.00    -0.336 N 
ATOM      9  H7  UNL     1      13.155 -13.223  32.759  1.00  0.00     0.168 HD
HETATM   10  C11 UNL     1      13.007 -13.241  34.876  1.00  0.00     0.182 A 
HETATM   11  N8  UNL     1      13.930 -13.313  35.859  1.00  0.00    -0.346 N 
ATOM     12  H8  UNL     1      13.742 -13.314  36.861  1.00  0.00     0.167 HD
HETATM   13  C12 UNL     1      15.131 -13.384  35.281  1.00  0.00     0.122 A 
ENDROOT
BRANCH   4  14
HETATM   14  N3  UNL     1      18.347 -13.564  32.850  1.00  0.00    -0.224 N 
ATOM     15  H3  UNL     1      18.336 -13.168  31.909  1.00  0.00     0.177 HD
BRANCH  14  16
HETATM   16  C3  UNL     1      19.538 -14.185  33.349  1.00  0.00     0.165 C 
BRANCH  16  17
HETATM   17  C4  UNL     1      20.313 -14.711  32.134  1.00  0.00     0.252 C 
BRANCH  17  18
HETATM   18  N4  UNL     1      21.696 -14.357  32.382  1.00  0.00    -0.072 N 
ATOM     19  H42 UNL     1      21.791 -13.703  33.159  1.00  0.00     0.277 HD
ATOM     20  H41 UNL     1      22.227 -15.134  32.776  1.00  0.00     0.277 HD
BRANCH  18  21
HETATM   21  C5  UNL     1      22.287 -13.857  31.186  1.00  0.00     0.252 C 
BRANCH  21  22
HETATM   22  C6  UNL     1      21.401 -13.820  29.982  1.00  0.00     0.152 C 
BRANCH  22  23
HETATM   23  N5  UNL     1      21.276 -12.490  29.452  1.00  0.00    -0.356 N 
BRANCH  23  24
HETATM   24  C7  UNL     1      20.039 -11.847  29.304  1.00  0.00     0.350 C 
HETATM   25  O1  UNL     1      19.094 -11.929  30.137  1.00  0.00    -0.284 OA
ENDBRANCH  23  24
BRANCH  23  26
HETATM   26  C8  UNL     1      22.449 -11.758  29.007  1.00  0.00     0.151 C 
BRANCH  26  27
HETATM   27  C9  UNL     1      22.503 -10.331  29.432  1.00  0.00     0.183 C 
BRANCH  27  28
HETATM   28  O2  UNL     1      23.345 -10.100  30.518  1.00  0.00    -0.399 OA
ATOM     29  H2  UNL     1      23.163 -10.653  31.269  1.00  0.00     0.209 HD
ENDBRANCH  27  28
ENDBRANCH  26  27
ENDBRANCH  23  26
ENDBRANCH  22  23
ENDBRANCH  21  22
ENDBRANCH  18  21
ENDBRANCH  17  18
ENDBRANCH  16  17
ENDBRANCH  14  16
ENDBRANCH   4  14
BRANCH   1  30
HETATM   30  N1  UNL     1      16.569 -13.499  37.088  1.00  0.00    -0.383 N 
ATOM     31  H12 UNL     1      17.454 -13.187  37.487  1.00  0.00     0.157 HD
ATOM     32  H11 UNL     1      15.840 -13.823  37.723  1.00  0.00     0.157 HD
ENDBRANCH   1  30
TORSDOF 12
ENDMDL
