MODEL 1
REMARK VINA RESULT: -5.733382701      0.000      0.000
REMARK  1 active torsions:
REMARK  status: ('A' for Active; 'I' for Inactive)
REMARK       I    between atoms: C1_4  and  N3_6 
REMARK       I    between atoms: N3_6  and  C2_7 
REMARK    1  A    between atoms: C2_7  and  C3_9 
ROOT
HETATM    1  N1  UNL     1       4.943   9.884  14.037  1.00  0.00    -0.362 N 
ATOM      2  H11 UNL     1       4.874   9.437  14.951  1.00  0.00     0.159 HD
ATOM      3  H12 UNL     1       4.204  10.389  13.547  1.00  0.00     0.159 HD
HETATM    4  C1  UNL     1       6.103   9.831  13.381  1.00  0.00     0.264 C 
HETATM    5  N2  UNL     1       6.198  10.445  12.124  1.00  0.00    -0.049 NA
HETATM    6  N3  UNL     1       7.096   9.153  14.038  1.00  0.00    -0.331 NA
HETATM    7  C2  UNL     1       8.067   8.495  14.672  1.00  0.00     0.365 C 
HETATM    8  O1  UNL     1       9.277   8.295  14.281  1.00  0.00    -0.247 OA
ENDROOT
BRANCH   7   9
HETATM    9  C3  UNL     1       7.823   7.875  16.007  1.00  0.00     0.215 A 
HETATM   10  N4  UNL     1       8.095   8.361  17.212  1.00  0.00    -0.265 N 
HETATM   11  N5  UNL     1       7.721   7.482  18.126  1.00  0.00    -0.007 NA
ATOM     12  H4  UNL     1       8.524   9.267  17.402  1.00  0.00     0.185 HD
HETATM   13  N6  UNL     1       7.204   6.416  17.536  1.00  0.00    -0.007 NA
HETATM   14  N7  UNL     1       7.278   6.685  16.228  1.00  0.00    -0.265 N 
ATOM     15  H7  UNL     1       6.956   6.055  15.494  1.00  0.00     0.185 HD
ENDBRANCH   7   9
TORSDOF 1
ENDMDL
MODEL 2
REMARK VINA RESULT: -5.683629919      2.259      2.740
REMARK  1 active torsions:
REMARK  status: ('A' for Active; 'I' for Inactive)
REMARK       I    between atoms: C1_4  and  N3_6 
REMARK       I    between atoms: N3_6  and  C2_7 
REMARK    1  A    between atoms: C2_7  and  C3_9 
ROOT
HETATM    1  N1  UNL     1       6.602  11.607  11.870  1.00  0.00    -0.362 N 
ATOM      2  H11 UNL     1       7.522  11.453  12.282  1.00  0.00     0.159 HD
ATOM      3  H12 UNL     1       6.372  12.257  11.119  1.00  0.00     0.159 HD
HETATM    4  C1  UNL     1       5.567  10.904  12.330  1.00  0.00     0.264 C 
HETATM    5  N2  UNL     1       4.302  11.116  11.765  1.00  0.00    -0.049 NA
HETATM    6  N3  UNL     1       5.876  10.032  13.340  1.00  0.00    -0.331 NA
HETATM    7  C2  UNL     1       6.171   9.180  14.323  1.00  0.00     0.365 C 
HETATM    8  O1  UNL     1       5.377   8.379  14.944  1.00  0.00    -0.247 OA
ENDROOT
BRANCH   7   9
HETATM    9  C3  UNL     1       7.566   9.065  14.840  1.00  0.00     0.215 A 
HETATM   10  N4  UNL     1       8.037   9.385  16.039  1.00  0.00    -0.265 N 
HETATM   11  N5  UNL     1       9.335   9.131  16.074  1.00  0.00    -0.007 NA
ATOM     12  H4  UNL     1       7.487   9.765  16.810  1.00  0.00     0.185 HD
HETATM   13  N6  UNL     1       9.727   8.646  14.906  1.00  0.00    -0.007 NA
HETATM   14  N7  UNL     1       8.616   8.616  14.163  1.00  0.00    -0.265 N 
ATOM     15  H7  UNL     1       8.580   8.288  13.198  1.00  0.00     0.185 HD
ENDBRANCH   7   9
TORSDOF 1
ENDMDL
MODEL 3
REMARK VINA RESULT: -5.380503596      1.967      5.156
REMARK  1 active torsions:
REMARK  status: ('A' for Active; 'I' for Inactive)
REMARK       I    between atoms: C1_4  and  N3_6 
REMARK       I    between atoms: N3_6  and  C2_7 
REMARK    1  A    between atoms: C2_7  and  C3_9 
ROOT
HETATM    1  N1  UNL     1       9.387   8.591  14.609  1.00  0.00    -0.362 N 
ATOM      2  H11 UNL     1       9.183   8.887  13.655  1.00  0.00     0.159 HD
ATOM      3  H12 UNL     1      10.278   8.243  14.963  1.00  0.00     0.159 HD
HETATM    4  C1  UNL     1       8.417   8.655  15.522  1.00  0.00     0.264 C 
HETATM    5  N2  UNL     1       8.697   8.248  16.834  1.00  0.00    -0.049 NA
HETATM    6  N3  UNL     1       7.220   9.122  15.047  1.00  0.00    -0.331 NA
HETATM    7  C2  UNL     1       6.051   9.577  14.592  1.00  0.00     0.365 C 
HETATM    8  O1  UNL     1       4.956   9.747  15.247  1.00  0.00    -0.247 OA
ENDROOT
BRANCH   7   9
HETATM    9  C3  UNL     1       5.890   9.963  13.160  1.00  0.00     0.215 A 
HETATM   10  N4  UNL     1       6.773  10.529  12.346  1.00  0.00    -0.265 N 
HETATM   11  N5  UNL     1       6.215  10.707  11.161  1.00  0.00    -0.007 NA
ATOM     12  H4  UNL     1       7.729  10.784  12.595  1.00  0.00     0.185 HD
HETATM   13  N6  UNL     1       4.967  10.265  11.183  1.00  0.00    -0.007 NA
HETATM   14  N7  UNL     1       4.792   9.811  12.428  1.00  0.00    -0.265 N 
ATOM     15  H7  UNL     1       3.925   9.399  12.773  1.00  0.00     0.185 HD
ENDBRANCH   7   9
TORSDOF 1
ENDMDL
MODEL 4
REMARK VINA RESULT: -5.354417417      1.976      5.214
REMARK  1 active torsions:
REMARK  status: ('A' for Active; 'I' for Inactive)
REMARK       I    between atoms: C1_4  and  N3_6 
REMARK       I    between atoms: N3_6  and  C2_7 
REMARK    1  A    between atoms: C2_7  and  C3_9 
ROOT
HETATM    1  N1  UNL     1       9.369   8.597  14.593  1.00  0.00    -0.362 N 
ATOM      2  H11 UNL     1       9.153   8.892  13.642  1.00  0.00     0.159 HD
ATOM      3  H12 UNL     1      10.265   8.253  14.937  1.00  0.00     0.159 HD
HETATM    4  C1  UNL     1       8.409   8.657  15.518  1.00  0.00     0.264 C 
HETATM    5  N2  UNL     1       8.706   8.251  16.826  1.00  0.00    -0.049 NA
HETATM    6  N3  UNL     1       7.205   9.119  15.057  1.00  0.00    -0.331 NA
HETATM    7  C2  UNL     1       6.029   9.569  14.615  1.00  0.00     0.365 C 
HETATM    8  O1  UNL     1       4.941   9.734  15.282  1.00  0.00    -0.247 OA
ENDROOT
BRANCH   7   9
HETATM    9  C3  UNL     1       5.850   9.956  13.185  1.00  0.00     0.215 A 
HETATM   10  N4  UNL     1       4.783   9.805  12.410  1.00  0.00    -0.265 N 
HETATM   11  N5  UNL     1       5.054  10.278  11.206  1.00  0.00    -0.007 NA
ATOM     12  H4  UNL     1       3.896   9.391  12.698  1.00  0.00     0.185 HD
HETATM   13  N6  UNL     1       6.294  10.741  11.177  1.00  0.00    -0.007 NA
HETATM   14  N7  UNL     1       6.763  10.530  12.411  1.00  0.00    -0.265 N 
ATOM     15  H7  UNL     1       7.703  10.779  12.718  1.00  0.00     0.185 HD
ENDBRANCH   7   9
TORSDOF 1
ENDMDL
MODEL 5
REMARK VINA RESULT: -5.305681426      2.503      3.425
REMARK  1 active torsions:
REMARK  status: ('A' for Active; 'I' for Inactive)
REMARK       I    between atoms: C1_4  and  N3_6 
REMARK       I    between atoms: N3_6  and  C2_7 
REMARK    1  A    between atoms: C2_7  and  C3_9 
ROOT
HETATM    1  N1  UNL     1       6.173  10.443  13.212  1.00  0.00    -0.362 N 
ATOM      2  H11 UNL     1       7.102  10.363  12.800  1.00  0.00     0.159 HD
ATOM      3  H12 UNL     1       5.378  10.955  12.829  1.00  0.00     0.159 HD
HETATM    4  C1  UNL     1       5.927   9.826  14.369  1.00  0.00     0.264 C 
HETATM    5  N2  UNL     1       4.650   9.936  14.935  1.00  0.00    -0.049 NA
HETATM    6  N3  UNL     1       6.995   9.139  14.884  1.00  0.00    -0.331 NA
HETATM    7  C2  UNL     1       8.030   8.468  15.390  1.00  0.00     0.365 C 
HETATM    8  O1  UNL     1       8.075   7.783  16.479  1.00  0.00    -0.247 OA
ENDROOT
BRANCH   7   9
HETATM    9  C3  UNL     1       9.344   8.446  14.684  1.00  0.00     0.215 A 
HETATM   10  N4  UNL     1       9.878   7.478  13.949  1.00  0.00    -0.265 N 
HETATM   11  N5  UNL     1      11.063   7.870  13.514  1.00  0.00    -0.007 NA
ATOM     12  H4  UNL     1       9.443   6.576  13.751  1.00  0.00     0.185 HD
HETATM   13  N6  UNL     1      11.320   9.092  13.956  1.00  0.00    -0.007 NA
HETATM   14  N7  UNL     1      10.243   9.424  14.675  1.00  0.00    -0.265 N 
ATOM     15  H7  UNL     1      10.126  10.316  15.156  1.00  0.00     0.185 HD
ENDBRANCH   7   9
TORSDOF 1
ENDMDL
