MODEL 1
REMARK VINA RESULT: -4.652566233      0.000      0.000
REMARK  3 active torsions:
REMARK  status: ('A' for Active; 'I' for Inactive)
REMARK    1  A    between atoms: S1_2  and  N1_3 
REMARK    2  A    between atoms: N1_3  and  C2_4 
REMARK    3  A    between atoms: C5_7  and  N2_8 
ROOT
HETATM    1  C2  UNL     1      36.407  -3.153  12.843  1.00  0.00     0.088 C 
HETATM    2  C3  UNL     1      37.222  -2.314  11.917  1.00  0.00     0.024 C 
HETATM    3  C4  UNL     1      38.025  -1.250  12.569  1.00  0.00     0.034 C 
HETATM    4  C5  UNL     1      37.813  -1.277  14.081  1.00  0.00     0.183 C 
HETATM    5  C6  UNL     1      38.231  -2.688  14.508  1.00  0.00     0.034 C 
HETATM    6  C7  UNL     1      37.122  -3.611  14.068  1.00  0.00     0.024 C 
ENDROOT
BRANCH   4   7
HETATM    7  N2  UNL     1      38.638  -0.271  14.723  1.00  0.00    -0.075 N 
ATOM      8  H23 UNL     1      39.279   0.171  14.064  1.00  0.00     0.274 HD
ATOM      9  H22 UNL     1      38.098   0.553  14.985  1.00  0.00     0.274 HD
ATOM     10  H21 UNL     1      39.131  -0.674  15.521  1.00  0.00     0.274 HD
ENDBRANCH   4   7
BRANCH   1  11
HETATM   11  N1  UNL     1      36.010  -4.355  12.097  1.00  0.00    -0.175 NA
BRANCH  11  12
HETATM   12  S1  UNL     1      36.025  -4.090  10.377  1.00  0.00    -0.070 SA
HETATM   13  C1  UNL     1      37.346  -5.100   9.655  1.00  0.00     0.110 C 
ENDBRANCH  11  12
ENDBRANCH   1  11
TORSDOF 3
ENDMDL
MODEL 2
REMARK VINA RESULT: -4.245543198      2.360      4.608
REMARK  3 active torsions:
REMARK  status: ('A' for Active; 'I' for Inactive)
REMARK    1  A    between atoms: S1_2  and  N1_3 
REMARK    2  A    between atoms: N1_3  and  C2_4 
REMARK    3  A    between atoms: C5_7  and  N2_8 
ROOT
HETATM    1  C2  UNL     1      36.292  -2.833  12.357  1.00  0.00     0.088 C 
HETATM    2  C3  UNL     1      36.393  -4.304  12.587  1.00  0.00     0.024 C 
HETATM    3  C4  UNL     1      36.632  -5.119  11.371  1.00  0.00     0.034 C 
HETATM    4  C5  UNL     1      36.720  -4.221  10.139  1.00  0.00     0.183 C 
HETATM    5  C6  UNL     1      37.868  -3.252  10.445  1.00  0.00     0.034 C 
HETATM    6  C7  UNL     1      37.333  -2.267  11.455  1.00  0.00     0.024 C 
ENDROOT
BRANCH   4   7
HETATM    7  N2  UNL     1      37.007  -5.012   8.958  1.00  0.00    -0.075 N 
ATOM      8  H23 UNL     1      37.925  -4.797   8.570  1.00  0.00     0.274 HD
ATOM      9  H22 UNL     1      37.166  -5.994   9.188  1.00  0.00     0.274 HD
ATOM     10  H21 UNL     1      36.265  -4.899   8.267  1.00  0.00     0.274 HD
ENDBRANCH   4   7
BRANCH   1  11
HETATM   11  N1  UNL     1      36.450  -2.182  13.665  1.00  0.00    -0.175 NA
BRANCH  11  12
HETATM   12  S1  UNL     1      38.123  -1.900  14.056  1.00  0.00    -0.070 SA
HETATM   13  C1  UNL     1      38.314  -0.157  14.518  1.00  0.00     0.110 C 
ENDBRANCH  11  12
ENDBRANCH   1  11
TORSDOF 3
ENDMDL
MODEL 3
REMARK VINA RESULT: -4.183141272      2.420      4.521
REMARK  3 active torsions:
REMARK  status: ('A' for Active; 'I' for Inactive)
REMARK    1  A    between atoms: S1_2  and  N1_3 
REMARK    2  A    between atoms: N1_3  and  C2_4 
REMARK    3  A    between atoms: C5_7  and  N2_8 
ROOT
HETATM    1  C2  UNL     1      37.178  -2.872  12.756  1.00  0.00     0.088 C 
HETATM    2  C3  UNL     1      37.402  -2.156  11.467  1.00  0.00     0.024 C 
HETATM    3  C4  UNL     1      37.365  -3.010  10.254  1.00  0.00     0.034 C 
HETATM    4  C5  UNL     1      37.095  -4.463  10.637  1.00  0.00     0.183 C 
HETATM    5  C6  UNL     1      35.758  -4.427  11.386  1.00  0.00     0.034 C 
HETATM    6  C7  UNL     1      36.048  -3.843  12.746  1.00  0.00     0.024 C 
ENDROOT
BRANCH   4   7
HETATM    7  N2  UNL     1      37.005  -5.289   9.448  1.00  0.00    -0.075 N 
ATOM      8  H23 UNL     1      36.089  -5.220   9.006  1.00  0.00     0.274 HD
ATOM      9  H22 UNL     1      37.571  -4.919   8.685  1.00  0.00     0.274 HD
ATOM     10  H21 UNL     1      37.249  -6.255   9.669  1.00  0.00     0.274 HD
ENDBRANCH   4   7
BRANCH   1  11
HETATM   11  N1  UNL     1      36.864  -1.851  13.765  1.00  0.00    -0.175 NA
BRANCH  11  12
HETATM   12  S1  UNL     1      38.102  -0.631  13.867  1.00  0.00    -0.070 SA
HETATM   13  C1  UNL     1      38.813  -0.677  15.534  1.00  0.00     0.110 C 
ENDBRANCH  11  12
ENDBRANCH   1  11
TORSDOF 3
ENDMDL
MODEL 4
REMARK VINA RESULT: -3.817487114      2.306      4.344
REMARK  3 active torsions:
REMARK  status: ('A' for Active; 'I' for Inactive)
REMARK    1  A    between atoms: S1_2  and  N1_3 
REMARK    2  A    between atoms: N1_3  and  C2_4 
REMARK    3  A    between atoms: C5_7  and  N2_8 
ROOT
HETATM    1  C2  UNL     1      37.443  -2.387  12.426  1.00  0.00     0.088 C 
HETATM    2  C3  UNL     1      37.248  -2.539  10.955  1.00  0.00     0.024 C 
HETATM    3  C4  UNL     1      36.462  -3.727  10.540  1.00  0.00     0.034 C 
HETATM    4  C5  UNL     1      36.029  -4.530  11.766  1.00  0.00     0.183 C 
HETATM    5  C6  UNL     1      35.219  -3.542  12.613  1.00  0.00     0.034 C 
HETATM    6  C7  UNL     1      36.219  -2.608  13.247  1.00  0.00     0.024 C 
ENDROOT
BRANCH   4   7
HETATM    7  N2  UNL     1      35.216  -5.662  11.364  1.00  0.00    -0.075 N 
ATOM      8  H23 UNL     1      35.780  -6.415  10.971  1.00  0.00     0.274 HD
ATOM      9  H22 UNL     1      34.835  -6.161  12.168  1.00  0.00     0.274 HD
ATOM     10  H21 UNL     1      34.483  -5.361  10.721  1.00  0.00     0.274 HD
ENDBRANCH   4   7
BRANCH   1  11
HETATM   11  N1  UNL     1      37.879  -1.003  12.661  1.00  0.00    -0.175 NA
BRANCH  11  12
HETATM   12  S1  UNL     1      38.361  -0.743  14.313  1.00  0.00    -0.070 SA
HETATM   13  C1  UNL     1      39.059  -2.289  14.954  1.00  0.00     0.110 C 
ENDBRANCH  11  12
ENDBRANCH   1  11
TORSDOF 3
ENDMDL
MODEL 5
REMARK VINA RESULT: -3.725052433      1.081      1.934
REMARK  3 active torsions:
REMARK  status: ('A' for Active; 'I' for Inactive)
REMARK    1  A    between atoms: S1_2  and  N1_3 
REMARK    2  A    between atoms: N1_3  and  C2_4 
REMARK    3  A    between atoms: C5_7  and  N2_8 
ROOT
HETATM    1  C2  UNL     1      37.356  -2.821  11.985  1.00  0.00     0.088 C 
HETATM    2  C3  UNL     1      36.716  -3.632  13.061  1.00  0.00     0.024 C 
HETATM    3  C4  UNL     1      37.369  -3.549  14.390  1.00  0.00     0.034 C 
HETATM    4  C5  UNL     1      38.579  -2.619  14.329  1.00  0.00     0.183 C 
HETATM    5  C6  UNL     1      38.014  -1.276  13.855  1.00  0.00     0.034 C 
HETATM    6  C7  UNL     1      37.726  -1.433  12.382  1.00  0.00     0.024 C 
ENDROOT
BRANCH   4   7
HETATM    7  N2  UNL     1      39.186  -2.496  15.641  1.00  0.00    -0.075 N 
ATOM      8  H23 UNL     1      38.705  -1.807  16.219  1.00  0.00     0.274 HD
ATOM      9  H22 UNL     1      39.017  -3.321  16.217  1.00  0.00     0.274 HD
ATOM     10  H21 UNL     1      40.181  -2.291  15.552  1.00  0.00     0.274 HD
ENDBRANCH   4   7
BRANCH   1  11
HETATM   11  N1  UNL     1      36.383  -2.715  10.889  1.00  0.00    -0.175 NA
BRANCH  11  12
HETATM   12  S1  UNL     1      35.862  -4.277  10.326  1.00  0.00    -0.070 SA
HETATM   13  C1  UNL     1      37.318  -5.191   9.750  1.00  0.00     0.110 C 
ENDBRANCH  11  12
ENDBRANCH   1  11
TORSDOF 3
ENDMDL
