MODEL 1
REMARK VINA RESULT: -11.280224145      0.000      0.000
REMARK  0 active torsions:
REMARK  status: ('A' for Active; 'I' for Inactive)
ROOT
HETATM    1  C1  UNL     1      -9.714  -2.358  -0.765  1.00  0.00     0.048 C 
HETATM    2  C2  UNL     1      -9.634  -1.796   0.614  1.00  0.00    -0.060 A 
HETATM    3  C3  UNL     1      -9.669  -2.700   1.647  1.00  0.00     0.009 A 
HETATM    4  C4  UNL     1      -9.601  -2.284   2.955  1.00  0.00     0.032 A 
HETATM    5  C5  UNL     1      -9.500  -0.937   3.203  1.00  0.00     0.059 A 
HETATM    6  C6  UNL     1      -9.463   0.002   2.164  1.00  0.00     0.058 A 
HETATM    7  C7  UNL     1      -9.532  -0.465   0.876  1.00  0.00     0.038 A 
HETATM    8  N1  UNL     1      -9.362   1.406   2.269  1.00  0.00    -0.348 N 
ATOM      9  H1  UNL     1      -8.936   1.863   1.462  1.00  0.00     0.163 HD
HETATM   10  C8  UNL     1      -9.763   2.310   3.334  1.00  0.00     0.206 A 
HETATM   11  O1  UNL     1     -11.132   2.565   3.402  1.00  0.00    -0.294 OA
HETATM   12  C9  UNL     1     -10.948   3.865   3.031  1.00  0.00     0.157 A 
HETATM   13  N2  UNL     1     -11.503   5.094   2.750  1.00  0.00    -0.346 N 
ATOM     14  H2  UNL     1     -12.513   5.224   2.813  1.00  0.00     0.167 HD
HETATM   15  C10 UNL     1     -10.716   6.119   2.394  1.00  0.00     0.090 A 
HETATM   16  C11 UNL     1      -9.348   5.988   2.296  1.00  0.00     0.018 A 
HETATM   17  C12 UNL     1      -8.787   4.770   2.574  1.00  0.00     0.018 A 
HETATM   18  C13 UNL     1      -9.619   3.703   2.946  1.00  0.00     0.053 A 
HETATM   19  C14 UNL     1      -9.226   1.909   4.668  1.00  0.00     0.031 A 
HETATM   20  C15 UNL     1      -8.832   2.982   5.443  1.00  0.00     0.015 A 
HETATM   21  C16 UNL     1      -8.320   2.782   6.708  1.00  0.00     0.003 A 
HETATM   22  C17 UNL     1      -8.205   1.501   7.186  1.00  0.00     0.029 A 
HETATM   23  C18 UNL     1      -8.588   0.395   6.446  1.00  0.00     0.073 A 
HETATM   24  N3  UNL     1      -8.468  -0.918   6.950  1.00  0.00    -0.100 NA
HETATM   25  C19 UNL     1      -9.102   0.645   5.169  1.00  0.00     0.068 A 
HETATM   26  N4  UNL     1      -9.434  -0.633   4.599  1.00  0.00    -0.352 N 
ATOM     27  H4  UNL     1      -9.642  -1.391   5.249  1.00  0.00     0.166 HD
ENDROOT
TORSDOF 0
ENDMDL
MODEL 2
REMARK VINA RESULT: -10.397245774      2.160      5.448
REMARK  0 active torsions:
REMARK  status: ('A' for Active; 'I' for Inactive)
ROOT
HETATM    1  C1  UNL     1     -12.938   4.458  -0.825  1.00  0.00     0.048 C 
HETATM    2  C2  UNL     1     -12.052   4.070   0.310  1.00  0.00    -0.060 A 
HETATM    3  C3  UNL     1     -11.509   5.096   1.043  1.00  0.00     0.009 A 
HETATM    4  C4  UNL     1     -10.680   4.843   2.109  1.00  0.00     0.032 A 
HETATM    5  C5  UNL     1     -10.405   3.535   2.423  1.00  0.00     0.059 A 
HETATM    6  C6  UNL     1     -10.948   2.472   1.687  1.00  0.00     0.058 A 
HETATM    7  C7  UNL     1     -11.770   2.778   0.633  1.00  0.00     0.038 A 
HETATM    8  N1  UNL     1     -10.754   1.090   1.892  1.00  0.00    -0.348 N 
ATOM      9  H1  UNL     1     -11.519   0.500   1.563  1.00  0.00     0.163 HD
HETATM   10  C8  UNL     1      -9.647   0.364   2.493  1.00  0.00     0.206 A 
HETATM   11  O1  UNL     1      -8.520   0.238   1.683  1.00  0.00    -0.294 OA
HETATM   12  C9  UNL     1      -8.704  -1.109   1.570  1.00  0.00     0.157 A 
HETATM   13  N2  UNL     1      -8.275  -2.311   1.052  1.00  0.00    -0.346 N 
ATOM     14  H2  UNL     1      -7.444  -2.346   0.462  1.00  0.00     0.167 HD
HETATM   15  C10 UNL     1      -8.951  -3.437   1.325  1.00  0.00     0.090 A 
HETATM   16  C11 UNL     1     -10.079  -3.437   2.117  1.00  0.00     0.018 A 
HETATM   17  C12 UNL     1     -10.511  -2.246   2.637  1.00  0.00     0.018 A 
HETATM   18  C13 UNL     1      -9.797  -1.074   2.346  1.00  0.00     0.053 A 
HETATM   19  C14 UNL     1      -9.280   0.883   3.844  1.00  0.00     0.031 A 
HETATM   20  C15 UNL     1      -8.938  -0.113   4.737  1.00  0.00     0.015 A 
HETATM   21  C16 UNL     1      -8.566   0.200   6.028  1.00  0.00     0.003 A 
HETATM   22  C17 UNL     1      -8.541   1.516   6.414  1.00  0.00     0.029 A 
HETATM   23  C18 UNL     1      -8.874   2.548   5.554  1.00  0.00     0.073 A 
HETATM   24  N3  UNL     1      -8.841   3.900   5.962  1.00  0.00    -0.100 NA
HETATM   25  C19 UNL     1      -9.245   2.184   4.255  1.00  0.00     0.068 A 
HETATM   26  N4  UNL     1      -9.535   3.404   3.550  1.00  0.00    -0.352 N 
ATOM     27  H4  UNL     1      -9.079   4.253   3.885  1.00  0.00     0.166 HD
ENDROOT
TORSDOF 0
ENDMDL
MODEL 3
REMARK VINA RESULT: -10.303951485      2.264      6.878
REMARK  0 active torsions:
REMARK  status: ('A' for Active; 'I' for Inactive)
ROOT
HETATM    1  C1  UNL     1      -7.504   4.856   5.556  1.00  0.00     0.048 C 
HETATM    2  C2  UNL     1      -8.489   4.465   4.507  1.00  0.00    -0.060 A 
HETATM    3  C3  UNL     1      -9.455   5.391   4.199  1.00  0.00     0.009 A 
HETATM    4  C4  UNL     1     -10.409   5.128   3.246  1.00  0.00     0.032 A 
HETATM    5  C5  UNL     1     -10.373   3.912   2.609  1.00  0.00     0.059 A 
HETATM    6  C6  UNL     1      -9.396   2.953   2.908  1.00  0.00     0.058 A 
HETATM    7  C7  UNL     1      -8.466   3.265   3.867  1.00  0.00     0.038 A 
HETATM    8  N1  UNL     1      -9.238   1.671   2.339  1.00  0.00    -0.348 N 
ATOM      9  H1  UNL     1      -8.283   1.312   2.359  1.00  0.00     0.163 HD
HETATM   10  C8  UNL     1     -10.207   0.777   1.729  1.00  0.00     0.206 A 
HETATM   11  O1  UNL     1     -11.027   0.099   2.629  1.00  0.00    -0.294 OA
HETATM   12  C9  UNL     1     -10.452  -1.097   2.312  1.00  0.00     0.157 A 
HETATM   13  N2  UNL     1     -10.391  -2.458   2.514  1.00  0.00    -0.346 N 
ATOM     14  H2  UNL     1     -11.014  -2.903   3.188  1.00  0.00     0.167 HD
HETATM   15  C10 UNL     1      -9.512  -3.199   1.823  1.00  0.00     0.090 A 
HETATM   16  C11 UNL     1      -8.651  -2.640   0.903  1.00  0.00     0.018 A 
HETATM   17  C12 UNL     1      -8.706  -1.288   0.695  1.00  0.00     0.018 A 
HETATM   18  C13 UNL     1      -9.630  -0.521   1.422  1.00  0.00     0.053 A 
HETATM   19  C14 UNL     1     -11.015   1.439   0.662  1.00  0.00     0.031 A 
HETATM   20  C15 UNL     1     -11.266   0.619  -0.421  1.00  0.00     0.015 A 
HETATM   21  C16 UNL     1     -12.007   1.078  -1.490  1.00  0.00     0.003 A 
HETATM   22  C17 UNL     1     -12.490   2.361  -1.465  1.00  0.00     0.029 A 
HETATM   23  C18 UNL     1     -12.265   3.218  -0.401  1.00  0.00     0.073 A 
HETATM   24  N3  UNL     1     -12.771   4.537  -0.385  1.00  0.00    -0.100 NA
HETATM   25  C19 UNL     1     -11.509   2.711   0.661  1.00  0.00     0.068 A 
HETATM   26  N4  UNL     1     -11.413   3.761   1.640  1.00  0.00    -0.352 N 
ATOM     27  H4  UNL     1     -12.155   4.462   1.642  1.00  0.00     0.166 HD
ENDROOT
TORSDOF 0
ENDMDL
MODEL 4
REMARK VINA RESULT: -10.266762719      1.347      1.585
REMARK  0 active torsions:
REMARK  status: ('A' for Active; 'I' for Inactive)
ROOT
HETATM    1  C1  UNL     1     -10.538  -0.051  -1.579  1.00  0.00     0.048 C 
HETATM    2  C2  UNL     1     -10.269   0.184  -0.131  1.00  0.00    -0.060 A 
HETATM    3  C3  UNL     1     -10.050  -0.930   0.640  1.00  0.00     0.009 A 
HETATM    4  C4  UNL     1      -9.792  -0.821   1.985  1.00  0.00     0.032 A 
HETATM    5  C5  UNL     1      -9.761   0.435   2.541  1.00  0.00     0.059 A 
HETATM    6  C6  UNL     1      -9.981   1.585   1.772  1.00  0.00     0.058 A 
HETATM    7  C7  UNL     1     -10.234   1.422   0.433  1.00  0.00     0.038 A 
HETATM    8  N1  UNL     1      -9.980   2.929   2.204  1.00  0.00    -0.348 N 
ATOM      9  H1  UNL     1      -9.739   3.608   1.481  1.00  0.00     0.163 HD
HETATM   10  C8  UNL     1     -10.265   3.508   3.506  1.00  0.00     0.206 A 
HETATM   11  O1  UNL     1     -11.617   3.572   3.836  1.00  0.00    -0.294 OA
HETATM   12  C9  UNL     1     -11.608   4.935   3.774  1.00  0.00     0.157 A 
HETATM   13  N2  UNL     1     -12.303   6.118   3.891  1.00  0.00    -0.346 N 
ATOM     14  H2  UNL     1     -13.294   6.107   4.133  1.00  0.00     0.167 HD
HETATM   15  C10 UNL     1     -11.676   7.286   3.686  1.00  0.00     0.090 A 
HETATM   16  C11 UNL     1     -10.340   7.348   3.358  1.00  0.00     0.018 A 
HETATM   17  C12 UNL     1      -9.641   6.176   3.241  1.00  0.00     0.018 A 
HETATM   18  C13 UNL     1     -10.305   4.960   3.457  1.00  0.00     0.053 A 
HETATM   19  C14 UNL     1      -9.474   2.879   4.606  1.00  0.00     0.031 A 
HETATM   20  C15 UNL     1      -9.042   3.784   5.554  1.00  0.00     0.015 A 
HETATM   21  C16 UNL     1      -8.304   3.363   6.641  1.00  0.00     0.003 A 
HETATM   22  C17 UNL     1      -8.004   2.030   6.766  1.00  0.00     0.029 A 
HETATM   23  C18 UNL     1      -8.416   1.086   5.841  1.00  0.00     0.073 A 
HETATM   24  N3  UNL     1      -8.103  -0.284   5.982  1.00  0.00    -0.100 NA
HETATM   25  C19 UNL     1      -9.161   1.559   4.755  1.00  0.00     0.068 A 
HETATM   26  N4  UNL     1      -9.481   0.416   3.943  1.00  0.00    -0.352 N 
ATOM     27  H4  UNL     1      -9.510  -0.491   4.409  1.00  0.00     0.166 HD
ENDROOT
TORSDOF 0
ENDMDL
MODEL 5
REMARK VINA RESULT: -10.092041652      2.517      4.991
REMARK  0 active torsions:
REMARK  status: ('A' for Active; 'I' for Inactive)
ROOT
HETATM    1  C1  UNL     1      -8.957  -1.059   5.453  1.00  0.00     0.048 C 
HETATM    2  C2  UNL     1      -9.441  -0.384   4.214  1.00  0.00    -0.060 A 
HETATM    3  C3  UNL     1      -9.446  -1.138   3.067  1.00  0.00     0.009 A 
HETATM    4  C4  UNL     1      -9.874  -0.610   1.874  1.00  0.00     0.032 A 
HETATM    5  C5  UNL     1     -10.296   0.697   1.856  1.00  0.00     0.059 A 
HETATM    6  C6  UNL     1     -10.299   1.485   3.015  1.00  0.00     0.058 A 
HETATM    7  C7  UNL     1      -9.863   0.909   4.181  1.00  0.00     0.038 A 
HETATM    8  N1  UNL     1     -10.701   2.832   3.145  1.00  0.00    -0.348 N 
ATOM      9  H1  UNL     1     -11.028   3.089   4.077  1.00  0.00     0.163 HD
HETATM   10  C8  UNL     1     -10.727   3.913   2.175  1.00  0.00     0.206 A 
HETATM   11  O1  UNL     1      -9.485   4.480   1.896  1.00  0.00    -0.294 OA
HETATM   12  C9  UNL     1      -9.844   5.655   2.488  1.00  0.00     0.157 A 
HETATM   13  N2  UNL     1      -9.502   6.941   2.845  1.00  0.00    -0.346 N 
ATOM     14  H2  UNL     1      -8.577   7.305   2.617  1.00  0.00     0.167 HD
HETATM   15  C10 UNL     1     -10.385   7.714   3.493  1.00  0.00     0.090 A 
HETATM   16  C11 UNL     1     -11.646   7.264   3.821  1.00  0.00     0.018 A 
HETATM   17  C12 UNL     1     -11.995   5.987   3.468  1.00  0.00     0.018 A 
HETATM   18  C13 UNL     1     -11.064   5.186   2.791  1.00  0.00     0.053 A 
HETATM   19  C14 UNL     1     -11.445   3.547   0.918  1.00  0.00     0.031 A 
HETATM   20  C15 UNL     1     -12.203   4.579   0.402  1.00  0.00     0.015 A 
HETATM   21  C16 UNL     1     -12.923   4.405  -0.762  1.00  0.00     0.003 A 
HETATM   22  C17 UNL     1     -12.876   3.192  -1.400  1.00  0.00     0.029 A 
HETATM   23  C18 UNL     1     -12.129   2.129  -0.921  1.00  0.00     0.073 A 
HETATM   24  N3  UNL     1     -12.086   0.885  -1.589  1.00  0.00    -0.100 NA
HETATM   25  C19 UNL     1     -11.415   2.350   0.262  1.00  0.00     0.068 A 
HETATM   26  N4  UNL     1     -10.718   1.128   0.560  1.00  0.00    -0.352 N 
ATOM     27  H4  UNL     1     -10.505   0.512  -0.226  1.00  0.00     0.166 HD
ENDROOT
TORSDOF 0
ENDMDL
