MODEL 1
REMARK VINA RESULT: -6.188871291      0.000      0.000
REMARK  6 active torsions:
REMARK  status: ('A' for Active; 'I' for Inactive)
REMARK    1  A    between atoms: O1_1  and  C1_3 
REMARK    2  A    between atoms: C1_3  and  C2_4 
REMARK    3  A    between atoms: C3_6  and  N1_7 
REMARK    4  A    between atoms: C9_14  and  C10_15 
REMARK    5  A    between atoms: C10_15  and  O3_16 
REMARK    6  A    between atoms: C11_18  and  O4_19 
ROOT
HETATM    1  C2  UNL     1     -27.288 -17.385   0.199  1.00  0.00     0.177 C 
HETATM    2  O2  UNL     1     -27.447 -17.904  -1.047  1.00  0.00    -0.356 OA
HETATM    3  C3  UNL     1     -27.637 -16.828  -1.947  1.00  0.00     0.236 C 
HETATM    4  C9  UNL     1     -28.105 -15.671  -1.171  1.00  0.00     0.090 C 
HETATM    5  C11 UNL     1     -28.243 -16.220   0.237  1.00  0.00     0.159 C 
ENDROOT
BRANCH   3   6
HETATM    6  N1  UNL     1     -28.464 -17.227  -3.055  1.00  0.00    -0.338 N 
HETATM    7  C4  UNL     1     -28.263 -16.771  -4.296  1.00  0.00     0.093 A 
HETATM    8  C5  UNL     1     -29.063 -17.159  -5.369  1.00  0.00     0.019 A 
HETATM    9  C6  UNL     1     -30.094 -18.046  -5.132  1.00  0.00     0.022 A 
HETATM   10  C7  UNL     1     -30.298 -18.517  -3.840  1.00  0.00     0.026 A 
HETATM   11 BR1  UNL     1     -31.714 -19.743  -3.480  1.00  0.00    -0.050 Br
HETATM   12  C8  UNL     1     -29.467 -18.088  -2.837  1.00  0.00     0.112 A 
ENDBRANCH   3   6
BRANCH   4  13
HETATM   13  C10 UNL     1     -29.327 -14.982  -1.656  1.00  0.00     0.175 C 
BRANCH  13  14
HETATM   14  O3  UNL     1     -29.860 -14.043  -0.830  1.00  0.00    -0.400 OA
ATOM     15  H3  UNL     1     -30.696 -13.674  -1.092  1.00  0.00     0.209 HD
ENDBRANCH  13  14
ENDBRANCH   4  13
BRANCH   1  16
HETATM   16  C1  UNL     1     -25.885 -17.011   0.565  1.00  0.00     0.198 C 
BRANCH  16  17
HETATM   17  O1  UNL     1     -25.106 -18.070   0.966  1.00  0.00    -0.398 OA
ATOM     18  H1  UNL     1     -24.179 -17.873   1.020  1.00  0.00     0.209 HD
ENDBRANCH  16  17
ENDBRANCH   1  16
BRANCH   5  19
HETATM   19  O4  UNL     1     -29.535 -16.576   0.545  1.00  0.00    -0.392 OA
ATOM     20  H4  UNL     1     -29.915 -16.060   1.245  1.00  0.00     0.210 HD
ENDBRANCH   5  19
TORSDOF 6
ENDMDL
MODEL 2
REMARK VINA RESULT: -5.945966924      3.110      5.264
REMARK  6 active torsions:
REMARK  status: ('A' for Active; 'I' for Inactive)
REMARK    1  A    between atoms: O1_1  and  C1_3 
REMARK    2  A    between atoms: C1_3  and  C2_4 
REMARK    3  A    between atoms: C3_6  and  N1_7 
REMARK    4  A    between atoms: C9_14  and  C10_15 
REMARK    5  A    between atoms: C10_15  and  O3_16 
REMARK    6  A    between atoms: C11_18  and  O4_19 
ROOT
HETATM    1  C2  UNL     1     -29.322 -18.279  -4.256  1.00  0.00     0.177 C 
HETATM    2  O2  UNL     1     -29.119 -18.118  -2.922  1.00  0.00    -0.356 OA
HETATM    3  C3  UNL     1     -29.327 -16.752  -2.611  1.00  0.00     0.236 C 
HETATM    4  C9  UNL     1     -29.158 -15.979  -3.848  1.00  0.00     0.090 C 
HETATM    5  C11 UNL     1     -28.752 -17.026  -4.868  1.00  0.00     0.159 C 
ENDROOT
BRANCH   3   6
HETATM    6  N1  UNL     1     -28.512 -16.353  -1.494  1.00  0.00    -0.338 N 
HETATM    7  C4  UNL     1     -27.374 -16.981  -1.180  1.00  0.00     0.093 A 
HETATM    8  C5  UNL     1     -26.585 -16.592  -0.098  1.00  0.00     0.019 A 
HETATM    9  C6  UNL     1     -27.002 -15.522   0.667  1.00  0.00     0.022 A 
HETATM   10  C7  UNL     1     -28.186 -14.873   0.337  1.00  0.00     0.026 A 
HETATM   11 BR1  UNL     1     -28.788 -13.392   1.375  1.00  0.00    -0.050 Br
HETATM   12  C8  UNL     1     -28.907 -15.315  -0.744  1.00  0.00     0.112 A 
ENDBRANCH   3   6
BRANCH   4  13
HETATM   13  C10 UNL     1     -28.235 -14.817  -3.798  1.00  0.00     0.175 C 
BRANCH  13  14
HETATM   14  O3  UNL     1     -28.010 -14.173  -4.974  1.00  0.00    -0.400 OA
ATOM     15  H3  UNL     1     -28.358 -13.292  -5.046  1.00  0.00     0.209 HD
ENDBRANCH  13  14
ENDBRANCH   4  13
BRANCH   1  16
HETATM   16  C1  UNL     1     -30.738 -18.543  -4.663  1.00  0.00     0.198 C 
BRANCH  16  17
HETATM   17  O1  UNL     1     -31.211 -19.778  -4.289  1.00  0.00    -0.398 OA
ATOM     18  H1  UNL     1     -32.046 -20.011  -4.678  1.00  0.00     0.209 HD
ENDBRANCH  16  17
ENDBRANCH   1  16
BRANCH   5  19
HETATM   19  O4  UNL     1     -27.392 -17.078  -5.064  1.00  0.00    -0.392 OA
ATOM     20  H4  UNL     1     -27.031 -16.285  -5.440  1.00  0.00     0.210 HD
ENDBRANCH   5  19
TORSDOF 6
ENDMDL
MODEL 3
REMARK VINA RESULT: -5.944038233      2.924      5.148
REMARK  6 active torsions:
REMARK  status: ('A' for Active; 'I' for Inactive)
REMARK    1  A    between atoms: O1_1  and  C1_3 
REMARK    2  A    between atoms: C1_3  and  C2_4 
REMARK    3  A    between atoms: C3_6  and  N1_7 
REMARK    4  A    between atoms: C9_14  and  C10_15 
REMARK    5  A    between atoms: C10_15  and  O3_16 
REMARK    6  A    between atoms: C11_18  and  O4_19 
ROOT
HETATM    1  C2  UNL     1     -29.409 -18.369  -4.308  1.00  0.00     0.177 C 
HETATM    2  O2  UNL     1     -29.219 -18.248  -2.968  1.00  0.00    -0.356 OA
HETATM    3  C3  UNL     1     -29.404 -16.887  -2.623  1.00  0.00     0.236 C 
HETATM    4  C9  UNL     1     -29.205 -16.084  -3.838  1.00  0.00     0.090 C 
HETATM    5  C11 UNL     1     -28.807 -17.112  -4.881  1.00  0.00     0.159 C 
ENDROOT
BRANCH   3   6
HETATM    6  N1  UNL     1     -28.596 -16.533  -1.486  1.00  0.00    -0.338 N 
HETATM    7  C4  UNL     1     -28.659 -15.326  -0.913  1.00  0.00     0.093 A 
HETATM    8  C5  UNL     1     -27.876 -14.985   0.189  1.00  0.00     0.019 A 
HETATM    9  C6  UNL     1     -27.011 -15.932   0.697  1.00  0.00     0.022 A 
HETATM   10  C7  UNL     1     -26.949 -17.184   0.097  1.00  0.00     0.026 A 
HETATM   11 BR1  UNL     1     -25.763 -18.513   0.777  1.00  0.00    -0.050 Br
HETATM   12  C8  UNL     1     -27.752 -17.444  -0.984  1.00  0.00     0.112 A 
ENDBRANCH   3   6
BRANCH   4  13
HETATM   13  C10 UNL     1     -28.260 -14.943  -3.746  1.00  0.00     0.175 C 
BRANCH  13  14
HETATM   14  O3  UNL     1     -28.088 -14.208  -4.876  1.00  0.00    -0.400 OA
ATOM     15  H3  UNL     1     -28.431 -14.581  -5.680  1.00  0.00     0.209 HD
ENDBRANCH  13  14
ENDBRANCH   4  13
BRANCH   1  16
HETATM   16  C1  UNL     1     -30.825 -18.595  -4.739  1.00  0.00     0.198 C 
BRANCH  16  17
HETATM   17  O1  UNL     1     -31.347 -19.804  -4.348  1.00  0.00    -0.398 OA
ATOM     18  H1  UNL     1     -31.562 -19.855  -3.424  1.00  0.00     0.209 HD
ENDBRANCH  16  17
ENDBRANCH   1  16
BRANCH   5  19
HETATM   19  O4  UNL     1     -27.446 -17.186  -5.061  1.00  0.00    -0.392 OA
ATOM     20  H4  UNL     1     -26.946 -16.920  -4.299  1.00  0.00     0.210 HD
ENDBRANCH   5  19
TORSDOF 6
ENDMDL
MODEL 4
REMARK VINA RESULT: -5.686212338      3.994      5.504
REMARK  6 active torsions:
REMARK  status: ('A' for Active; 'I' for Inactive)
REMARK    1  A    between atoms: O1_1  and  C1_3 
REMARK    2  A    between atoms: C1_3  and  C2_4 
REMARK    3  A    between atoms: C3_6  and  N1_7 
REMARK    4  A    between atoms: C9_14  and  C10_15 
REMARK    5  A    between atoms: C10_15  and  O3_16 
REMARK    6  A    between atoms: C11_18  and  O4_19 
ROOT
HETATM    1  C2  UNL     1     -29.443 -16.821  -4.445  1.00  0.00     0.177 C 
HETATM    2  O2  UNL     1     -28.577 -15.847  -4.829  1.00  0.00    -0.356 OA
HETATM    3  C3  UNL     1     -27.395 -15.988  -4.063  1.00  0.00     0.236 C 
HETATM    4  C9  UNL     1     -27.735 -16.738  -2.846  1.00  0.00     0.090 C 
HETATM    5  C11 UNL     1     -29.236 -16.932  -2.956  1.00  0.00     0.159 C 
ENDROOT
BRANCH   3   6
HETATM    6  N1  UNL     1     -26.757 -14.713  -3.868  1.00  0.00    -0.338 N 
HETATM    7  C4  UNL     1     -27.451 -13.601  -3.601  1.00  0.00     0.093 A 
HETATM    8  C5  UNL     1     -26.831 -12.366  -3.411  1.00  0.00     0.019 A 
HETATM    9  C6  UNL     1     -25.456 -12.301  -3.504  1.00  0.00     0.022 A 
HETATM   10  C7  UNL     1     -24.740 -13.459  -3.782  1.00  0.00     0.026 A 
HETATM   11 BR1  UNL     1     -22.839 -13.401  -3.918  1.00  0.00    -0.050 Br
HETATM   12  C8  UNL     1     -25.423 -14.637  -3.956  1.00  0.00     0.112 A 
ENDBRANCH   3   6
BRANCH   4  13
HETATM   13  C10 UNL     1     -27.312 -16.149  -1.550  1.00  0.00     0.175 C 
BRANCH  13  14
HETATM   14  O3  UNL     1     -27.772 -16.764  -0.428  1.00  0.00    -0.400 OA
ATOM     15  H3  UNL     1     -28.218 -17.594  -0.554  1.00  0.00     0.209 HD
ENDBRANCH  13  14
ENDBRANCH   4  13
BRANCH   1  16
HETATM   16  C1  UNL     1     -29.300 -18.128  -5.160  1.00  0.00     0.198 C 
BRANCH  16  17
HETATM   17  O1  UNL     1     -30.262 -19.055  -4.840  1.00  0.00    -0.398 OA
ATOM     18  H1  UNL     1     -30.238 -19.346  -3.936  1.00  0.00     0.209 HD
ENDBRANCH  16  17
ENDBRANCH   1  16
BRANCH   5  19
HETATM   19  O4  UNL     1     -29.946 -16.006  -2.230  1.00  0.00    -0.392 OA
ATOM     20  H4  UNL     1     -29.919 -16.155  -1.293  1.00  0.00     0.210 HD
ENDBRANCH   5  19
TORSDOF 6
ENDMDL
MODEL 5
REMARK VINA RESULT: -5.665777215      3.075      4.949
REMARK  6 active torsions:
REMARK  status: ('A' for Active; 'I' for Inactive)
REMARK    1  A    between atoms: O1_1  and  C1_3 
REMARK    2  A    between atoms: C1_3  and  C2_4 
REMARK    3  A    between atoms: C3_6  and  N1_7 
REMARK    4  A    between atoms: C9_14  and  C10_15 
REMARK    5  A    between atoms: C10_15  and  O3_16 
REMARK    6  A    between atoms: C11_18  and  O4_19 
ROOT
HETATM    1  C2  UNL     1     -29.836 -17.509  -3.492  1.00  0.00     0.177 C 
HETATM    2  O2  UNL     1     -29.657 -16.175  -3.677  1.00  0.00    -0.356 OA
HETATM    3  C3  UNL     1     -28.317 -15.865  -3.338  1.00  0.00     0.236 C 
HETATM    4  C9  UNL     1     -27.819 -16.928  -2.455  1.00  0.00     0.090 C 
HETATM    5  C11 UNL     1     -29.029 -17.822  -2.259  1.00  0.00     0.159 C 
ENDROOT
BRANCH   3   6
HETATM    6  N1  UNL     1     -28.215 -14.520  -2.836  1.00  0.00    -0.338 N 
HETATM    7  C4  UNL     1     -27.220 -13.699  -3.191  1.00  0.00     0.093 A 
HETATM    8  C5  UNL     1     -27.123 -12.396  -2.704  1.00  0.00     0.019 A 
HETATM    9  C6  UNL     1     -28.092 -11.949  -1.829  1.00  0.00     0.022 A 
HETATM   10  C7  UNL     1     -29.123 -12.806  -1.464  1.00  0.00     0.026 A 
HETATM   11 BR1  UNL     1     -30.476 -12.216  -0.257  1.00  0.00    -0.050 Br
HETATM   12  C8  UNL     1     -29.149 -14.074  -1.987  1.00  0.00     0.112 A 
ENDBRANCH   3   6
BRANCH   4  13
HETATM   13  C10 UNL     1     -27.187 -16.506  -1.180  1.00  0.00     0.175 C 
BRANCH  13  14
HETATM   14  O3  UNL     1     -26.953 -17.487  -0.268  1.00  0.00    -0.400 OA
ATOM     15  H3  UNL     1     -27.148 -18.375  -0.542  1.00  0.00     0.209 HD
ENDBRANCH  13  14
ENDBRANCH   4  13
BRANCH   1  16
HETATM   16  C1  UNL     1     -29.485 -18.374  -4.663  1.00  0.00     0.198 C 
BRANCH  16  17
HETATM   17  O1  UNL     1     -30.274 -19.491  -4.796  1.00  0.00    -0.398 OA
ATOM     18  H1  UNL     1     -30.160 -20.133  -4.106  1.00  0.00     0.209 HD
ENDBRANCH  16  17
ENDBRANCH   1  16
BRANCH   5  19
HETATM   19  O4  UNL     1     -29.695 -17.564  -1.084  1.00  0.00    -0.392 OA
ATOM     20  H4  UNL     1     -29.122 -17.478  -0.332  1.00  0.00     0.210 HD
ENDBRANCH   5  19
TORSDOF 6
ENDMDL
