MODEL 1
REMARK VINA RESULT: -6.552392134      0.000      0.000
REMARK  7 active torsions:
REMARK  status: ('A' for Active; 'I' for Inactive)
REMARK    1  A    between atoms: C2_2  and  C4_4 
REMARK    2  A    between atoms: C6_6  and  O1_7 
REMARK    3  A    between atoms: C8_11  and  O3_13 
REMARK    4  A    between atoms: O3_13  and  C10_14 
REMARK    5  A    between atoms: C14_20  and  O5_21 
REMARK    6  A    between atoms: C15_23  and  O6_24 
REMARK    7  A    between atoms: C16_26  and  O7_27 
ROOT
HETATM    1  C10 UNL     1     -25.187 -14.059  -3.634  1.00  0.00     0.223 C 
HETATM    2  C11 UNL     1     -25.946 -15.334  -3.489  1.00  0.00     0.249 C 
HETATM    3  O4  UNL     1     -26.090 -16.230  -4.351  1.00  0.00    -0.270 OA
HETATM    4  N1  UNL     1     -26.496 -15.358  -2.159  1.00  0.00    -0.346 N 
HETATM    5  C12 UNL     1     -27.220 -16.480  -1.630  1.00  0.00     0.153 C 
HETATM    6  C13 UNL     1     -26.189 -14.120  -1.523  1.00  0.00     0.127 C 
HETATM    7  C14 UNL     1     -27.370 -13.489  -0.832  1.00  0.00     0.172 C 
HETATM    8  C15 UNL     1     -28.301 -13.211  -1.965  1.00  0.00     0.178 C 
HETATM    9  C16 UNL     1     -27.403 -12.960  -3.166  1.00  0.00     0.158 C 
HETATM   10  C17 UNL     1     -25.997 -13.180  -2.696  1.00  0.00     0.081 C 
ENDROOT
BRANCH   1  11
HETATM   11  O3  UNL     1     -23.960 -14.240  -3.053  1.00  0.00    -0.357 OA
BRANCH  11  12
HETATM   12  C8  UNL     1     -22.953 -13.402  -3.461  1.00  0.00     0.125 C 
HETATM   13  C4  UNL     1     -23.328 -12.410  -4.493  1.00  0.00     0.034 C 
HETATM   14  C5  UNL     1     -23.107 -13.112  -5.794  1.00  0.00     0.048 C 
HETATM   15  C6  UNL     1     -22.048 -14.144  -5.611  1.00  0.00     0.191 C 
HETATM   16  C7  UNL     1     -21.933 -14.288  -4.146  1.00  0.00     0.189 C 
HETATM   17  O2  UNL     1     -21.154 -14.997  -3.550  1.00  0.00    -0.292 OA
HETATM   18  C9  UNL     1     -22.268 -12.849  -2.248  1.00  0.00     0.055 C 
BRANCH  13  19
HETATM   19  C2  UNL     1     -22.701 -11.060  -4.393  1.00  0.00    -0.015 C 
HETATM   20  C1  UNL     1     -23.782 -10.098  -3.939  1.00  0.00     0.010 C 
HETATM   21  C3  UNL     1     -22.070 -10.520  -5.612  1.00  0.00     0.010 C 
ENDBRANCH  13  19
BRANCH  15  22
HETATM   22  O1  UNL     1     -22.453 -15.360  -6.165  1.00  0.00    -0.388 OA
ATOM     23  H1  UNL     1     -21.699 -15.909  -6.345  1.00  0.00     0.210 HD
ENDBRANCH  15  22
ENDBRANCH  11  12
ENDBRANCH   1  11
BRANCH   9  24
HETATM   24  O7  UNL     1     -27.782 -13.730  -4.238  1.00  0.00    -0.392 OA
ATOM     25  H7  UNL     1     -27.832 -13.211  -5.033  1.00  0.00     0.210 HD
ENDBRANCH   9  24
BRANCH   7  26
HETATM   26  O5  UNL     1     -27.914 -14.310   0.149  1.00  0.00    -0.391 OA
ATOM     27  H5  UNL     1     -27.431 -14.269   0.967  1.00  0.00     0.210 HD
ENDBRANCH   7  26
BRANCH   8  28
HETATM   28  O6  UNL     1     -29.052 -12.065  -1.659  1.00  0.00    -0.390 OA
ATOM     29  H6  UNL     1     -29.723 -11.954  -2.324  1.00  0.00     0.210 HD
ENDBRANCH   8  28
TORSDOF 7
ENDMDL
MODEL 2
REMARK VINA RESULT: -6.506153832      3.734      7.376
REMARK  7 active torsions:
REMARK  status: ('A' for Active; 'I' for Inactive)
REMARK    1  A    between atoms: C2_2  and  C4_4 
REMARK    2  A    between atoms: C6_6  and  O1_7 
REMARK    3  A    between atoms: C8_11  and  O3_13 
REMARK    4  A    between atoms: O3_13  and  C10_14 
REMARK    5  A    between atoms: C14_20  and  O5_21 
REMARK    6  A    between atoms: C15_23  and  O6_24 
REMARK    7  A    between atoms: C16_26  and  O7_27 
ROOT
HETATM    1  C10 UNL     1     -27.748 -15.989  -0.059  1.00  0.00     0.223 C 
HETATM    2  C11 UNL     1     -28.471 -14.767  -0.512  1.00  0.00     0.249 C 
HETATM    3  O4  UNL     1     -29.501 -14.265  -0.004  1.00  0.00    -0.270 OA
HETATM    4  N1  UNL     1     -27.770 -14.251  -1.657  1.00  0.00    -0.346 N 
HETATM    5  C12 UNL     1     -28.131 -13.025  -2.313  1.00  0.00     0.153 C 
HETATM    6  C13 UNL     1     -26.713 -15.152  -1.981  1.00  0.00     0.127 C 
HETATM    7  C14 UNL     1     -26.641 -15.494  -3.445  1.00  0.00     0.172 C 
HETATM    8  C15 UNL     1     -27.937 -16.196  -3.681  1.00  0.00     0.178 C 
HETATM    9  C16 UNL     1     -28.273 -16.868  -2.359  1.00  0.00     0.158 C 
HETATM   10  C17 UNL     1     -27.200 -16.462  -1.394  1.00  0.00     0.081 C 
ENDROOT
BRANCH   1  11
HETATM   11  O3  UNL     1     -26.678 -15.581   0.691  1.00  0.00    -0.357 OA
BRANCH  11  12
HETATM   12  C8  UNL     1     -26.466 -16.239   1.877  1.00  0.00     0.125 C 
HETATM   13  C4  UNL     1     -26.652 -17.707   1.833  1.00  0.00     0.034 C 
HETATM   14  C5  UNL     1     -28.104 -17.916   2.115  1.00  0.00     0.048 C 
HETATM   15  C6  UNL     1     -28.603 -16.781   2.941  1.00  0.00     0.191 C 
HETATM   16  C7  UNL     1     -27.551 -15.753   2.816  1.00  0.00     0.189 C 
HETATM   17  O2  UNL     1     -27.526 -14.674   3.365  1.00  0.00    -0.292 OA
HETATM   18  C9  UNL     1     -25.171 -15.766   2.464  1.00  0.00     0.055 C 
BRANCH  13  19
HETATM   19  C2  UNL     1     -25.725 -18.530   2.663  1.00  0.00    -0.015 C 
HETATM   20  C1  UNL     1     -24.910 -19.384   1.710  1.00  0.00     0.010 C 
HETATM   21  C3  UNL     1     -26.335 -19.409   3.680  1.00  0.00     0.010 C 
ENDBRANCH  13  19
BRANCH  15  22
HETATM   22  O1  UNL     1     -29.798 -16.285   2.416  1.00  0.00    -0.388 OA
ATOM     23  H1  UNL     1     -29.731 -15.350   2.265  1.00  0.00     0.210 HD
ENDBRANCH  15  22
ENDBRANCH  11  12
ENDBRANCH   1  11
BRANCH   9  24
HETATM   24  O7  UNL     1     -29.552 -16.566  -1.962  1.00  0.00    -0.392 OA
ATOM     25  H7  UNL     1     -29.696 -16.809  -1.055  1.00  0.00     0.210 HD
ENDBRANCH   9  24
BRANCH   7  26
HETATM   26  O5  UNL     1     -26.458 -14.373  -4.247  1.00  0.00    -0.391 OA
ATOM     27  H5  UNL     1     -26.890 -13.602  -3.898  1.00  0.00     0.210 HD
ENDBRANCH   7  26
BRANCH   8  28
HETATM   28  O6  UNL     1     -27.752 -17.154  -4.691  1.00  0.00    -0.390 OA
ATOM     29  H6  UNL     1     -28.560 -17.645  -4.796  1.00  0.00     0.210 HD
ENDBRANCH   8  28
TORSDOF 7
ENDMDL
MODEL 3
REMARK VINA RESULT: -6.428586283      2.071      5.986
REMARK  7 active torsions:
REMARK  status: ('A' for Active; 'I' for Inactive)
REMARK    1  A    between atoms: C2_2  and  C4_4 
REMARK    2  A    between atoms: C6_6  and  O1_7 
REMARK    3  A    between atoms: C8_11  and  O3_13 
REMARK    4  A    between atoms: O3_13  and  C10_14 
REMARK    5  A    between atoms: C14_20  and  O5_21 
REMARK    6  A    between atoms: C15_23  and  O6_24 
REMARK    7  A    between atoms: C16_26  and  O7_27 
ROOT
HETATM    1  C10 UNL     1     -24.448 -13.783  -3.547  1.00  0.00     0.223 C 
HETATM    2  C11 UNL     1     -23.792 -13.818  -4.885  1.00  0.00     0.249 C 
HETATM    3  O4  UNL     1     -23.759 -14.781  -5.685  1.00  0.00    -0.270 OA
HETATM    4  N1  UNL     1     -23.192 -12.529  -5.106  1.00  0.00    -0.346 N 
HETATM    5  C12 UNL     1     -22.542 -12.165  -6.334  1.00  0.00     0.153 C 
HETATM    6  C13 UNL     1     -23.368 -11.744  -3.928  1.00  0.00     0.127 C 
HETATM    7  C14 UNL     1     -22.112 -11.048  -3.476  1.00  0.00     0.172 C 
HETATM    8  C15 UNL     1     -21.208 -12.188  -3.143  1.00  0.00     0.178 C 
HETATM    9  C16 UNL     1     -22.130 -13.307  -2.685  1.00  0.00     0.158 C 
HETATM   10  C17 UNL     1     -23.530 -12.795  -2.848  1.00  0.00     0.081 C 
ENDROOT
BRANCH   1  11
HETATM   11  O3  UNL     1     -25.660 -13.164  -3.697  1.00  0.00    -0.357 OA
BRANCH  11  12
HETATM   12  C8  UNL     1     -26.572 -13.337  -2.686  1.00  0.00     0.125 C 
HETATM   13  C4  UNL     1     -26.459 -14.609  -1.937  1.00  0.00     0.034 C 
HETATM   14  C5  UNL     1     -27.304 -15.577  -2.701  1.00  0.00     0.048 C 
HETATM   15  C6  UNL     1     -28.375 -14.825  -3.413  1.00  0.00     0.191 C 
HETATM   16  C7  UNL     1     -27.925 -13.420  -3.362  1.00  0.00     0.189 C 
HETATM   17  O2  UNL     1     -28.521 -12.455  -3.787  1.00  0.00    -0.292 OA
HETATM   18  C9  UNL     1     -26.604 -12.094  -1.851  1.00  0.00     0.055 C 
BRANCH  13  19
HETATM   19  C2  UNL     1     -26.732 -14.557  -0.472  1.00  0.00    -0.015 C 
HETATM   20  C1  UNL     1     -25.426 -14.856   0.238  1.00  0.00     0.010 C 
HETATM   21  C3  UNL     1     -27.771 -15.465   0.051  1.00  0.00     0.010 C 
ENDBRANCH  13  19
BRANCH  15  22
HETATM   22  O1  UNL     1     -28.456 -15.237  -4.744  1.00  0.00    -0.388 OA
ATOM     23  H1  UNL     1     -29.334 -15.539  -4.945  1.00  0.00     0.210 HD
ENDBRANCH  15  22
ENDBRANCH  11  12
ENDBRANCH   1  11
BRANCH   9  24
HETATM   24  O7  UNL     1     -21.860 -14.476  -3.354  1.00  0.00    -0.392 OA
ATOM     25  H7  UNL     1     -22.183 -14.442  -4.248  1.00  0.00     0.210 HD
ENDBRANCH   9  24
BRANCH   7  26
HETATM   26  O5  UNL     1     -21.598 -10.192  -4.444  1.00  0.00    -0.391 OA
ATOM     27  H5  UNL     1     -20.661 -10.293  -4.558  1.00  0.00     0.210 HD
ENDBRANCH   7  26
BRANCH   8  28
HETATM   28  O6  UNL     1     -20.352 -11.795  -2.101  1.00  0.00    -0.390 OA
ATOM     29  H6  UNL     1     -20.609 -12.250  -1.307  1.00  0.00     0.210 HD
ENDBRANCH   8  28
TORSDOF 7
ENDMDL
MODEL 4
REMARK VINA RESULT: -6.410074255      3.691      7.040
REMARK  7 active torsions:
REMARK  status: ('A' for Active; 'I' for Inactive)
REMARK    1  A    between atoms: C2_2  and  C4_4 
REMARK    2  A    between atoms: C6_6  and  O1_7 
REMARK    3  A    between atoms: C8_11  and  O3_13 
REMARK    4  A    between atoms: O3_13  and  C10_14 
REMARK    5  A    between atoms: C14_20  and  O5_21 
REMARK    6  A    between atoms: C15_23  and  O6_24 
REMARK    7  A    between atoms: C16_26  and  O7_27 
ROOT
HETATM    1  C10 UNL     1     -28.005 -16.397   0.008  1.00  0.00     0.223 C 
HETATM    2  C11 UNL     1     -27.860 -14.916  -0.074  1.00  0.00     0.249 C 
HETATM    3  O4  UNL     1     -28.370 -14.063   0.688  1.00  0.00    -0.270 OA
HETATM    4  N1  UNL     1     -27.016 -14.627  -1.203  1.00  0.00    -0.346 N 
HETATM    5  C12 UNL     1     -26.584 -13.300  -1.542  1.00  0.00     0.153 C 
HETATM    6  C13 UNL     1     -26.719 -15.854  -1.868  1.00  0.00     0.127 C 
HETATM    7  C14 UNL     1     -26.901 -15.789  -3.361  1.00  0.00     0.172 C 
HETATM    8  C15 UNL     1     -28.363 -15.527  -3.501  1.00  0.00     0.178 C 
HETATM    9  C16 UNL     1     -29.005 -16.192  -2.294  1.00  0.00     0.158 C 
HETATM   10  C17 UNL     1     -27.881 -16.741  -1.467  1.00  0.00     0.081 C 
ENDROOT
BRANCH   1  11
HETATM   11  O3  UNL     1     -26.887 -16.888   0.628  1.00  0.00    -0.357 OA
BRANCH  11  12
HETATM   12  C8  UNL     1     -26.966 -17.081   1.984  1.00  0.00     0.125 C 
HETATM   13  C4  UNL     1     -26.201 -16.119   2.810  1.00  0.00     0.034 C 
HETATM   14  C5  UNL     1     -24.837 -16.718   2.927  1.00  0.00     0.048 C 
HETATM   15  C6  UNL     1     -24.948 -18.198   2.803  1.00  0.00     0.191 C 
HETATM   16  C7  UNL     1     -26.298 -18.415   2.249  1.00  0.00     0.189 C 
HETATM   17  O2  UNL     1     -26.825 -19.482   2.028  1.00  0.00    -0.292 OA
HETATM   18  C9  UNL     1     -28.405 -17.259   2.360  1.00  0.00     0.055 C 
BRANCH  13  19
HETATM   19  C2  UNL     1     -26.816 -15.701   4.103  1.00  0.00    -0.015 C 
HETATM   20  C1  UNL     1     -27.112 -14.217   3.999  1.00  0.00     0.010 C 
HETATM   21  C3  UNL     1     -26.032 -15.941   5.330  1.00  0.00     0.010 C 
ENDBRANCH  13  19
BRANCH  15  22
HETATM   22  O1  UNL     1     -23.996 -18.684   1.904  1.00  0.00    -0.388 OA
ATOM     23  H1  UNL     1     -24.416 -19.185   1.215  1.00  0.00     0.210 HD
ENDBRANCH  15  22
ENDBRANCH  11  12
ENDBRANCH   1  11
BRANCH   9  24
HETATM   24  O7  UNL     1     -29.838 -15.322  -1.634  1.00  0.00    -0.392 OA
ATOM     25  H7  UNL     1     -30.729 -15.649  -1.613  1.00  0.00     0.210 HD
ENDBRANCH   9  24
BRANCH   7  26
HETATM   26  O5  UNL     1     -26.100 -14.819  -3.953  1.00  0.00    -0.391 OA
ATOM     27  H5  UNL     1     -25.561 -15.169  -4.653  1.00  0.00     0.210 HD
ENDBRANCH   7  26
BRANCH   8  28
HETATM   28  O6  UNL     1     -28.815 -16.121  -4.691  1.00  0.00    -0.390 OA
ATOM     29  H6  UNL     1     -29.761 -16.040  -4.732  1.00  0.00     0.210 HD
ENDBRANCH   8  28
TORSDOF 7
ENDMDL
MODEL 5
REMARK VINA RESULT: -6.356522320      4.915      8.278
REMARK  7 active torsions:
REMARK  status: ('A' for Active; 'I' for Inactive)
REMARK    1  A    between atoms: C2_2  and  C4_4 
REMARK    2  A    between atoms: C6_6  and  O1_7 
REMARK    3  A    between atoms: C8_11  and  O3_13 
REMARK    4  A    between atoms: O3_13  and  C10_14 
REMARK    5  A    between atoms: C14_20  and  O5_21 
REMARK    6  A    between atoms: C15_23  and  O6_24 
REMARK    7  A    between atoms: C16_26  and  O7_27 
ROOT
HETATM    1  C10 UNL     1     -27.629 -17.781   1.346  1.00  0.00     0.223 C 
HETATM    2  C11 UNL     1     -28.521 -16.587   1.402  1.00  0.00     0.249 C 
HETATM    3  O4  UNL     1     -29.568 -16.457   2.076  1.00  0.00    -0.270 OA
HETATM    4  N1  UNL     1     -27.960 -15.590   0.529  1.00  0.00    -0.346 N 
HETATM    5  C12 UNL     1     -28.506 -14.268   0.395  1.00  0.00     0.153 C 
HETATM    6  C13 UNL     1     -26.826 -16.152  -0.127  1.00  0.00     0.127 C 
HETATM    7  C14 UNL     1     -26.807 -15.907  -1.612  1.00  0.00     0.172 C 
HETATM    8  C15 UNL     1     -28.022 -16.636  -2.080  1.00  0.00     0.178 C 
HETATM    9  C16 UNL     1     -28.191 -17.793  -1.109  1.00  0.00     0.158 C 
HETATM   10  C17 UNL     1     -27.115 -17.639  -0.076  1.00  0.00     0.081 C 
ENDROOT
BRANCH   1  11
HETATM   11  O3  UNL     1     -26.569 -17.544   2.180  1.00  0.00    -0.357 OA
BRANCH  11  12
HETATM   12  C8  UNL     1     -26.235 -18.547   3.055  1.00  0.00     0.125 C 
HETATM   13  C4  UNL     1     -26.089 -18.135   4.470  1.00  0.00     0.034 C 
HETATM   14  C5  UNL     1     -24.662 -17.713   4.598  1.00  0.00     0.048 C 
HETATM   15  C6  UNL     1     -23.849 -18.450   3.590  1.00  0.00     0.191 C 
HETATM   16  C7  UNL     1     -24.848 -19.000   2.653  1.00  0.00     0.189 C 
HETATM   17  O2  UNL     1     -24.627 -19.709   1.696  1.00  0.00    -0.292 OA
HETATM   18  C9  UNL     1     -27.138 -19.718   2.811  1.00  0.00     0.055 C 
BRANCH  13  19
HETATM   19  C2  UNL     1     -26.554 -19.101   5.507  1.00  0.00    -0.015 C 
HETATM   20  C1  UNL     1     -27.655 -18.417   6.294  1.00  0.00     0.010 C 
HETATM   21  C3  UNL     1     -25.543 -19.610   6.453  1.00  0.00     0.010 C 
ENDBRANCH  13  19
BRANCH  15  22
HETATM   22  O1  UNL     1     -23.008 -17.570   2.905  1.00  0.00    -0.388 OA
ATOM     23  H1  UNL     1     -23.499 -17.078   2.257  1.00  0.00     0.210 HD
ENDBRANCH  15  22
ENDBRANCH  11  12
ENDBRANCH   1  11
BRANCH   9  24
HETATM   24  O7  UNL     1     -29.469 -17.838  -0.609  1.00  0.00    -0.392 OA
ATOM     25  H7  UNL     1     -29.747 -16.983  -0.300  1.00  0.00     0.210 HD
ENDBRANCH   9  24
BRANCH   7  26
HETATM   26  O5  UNL     1     -26.810 -14.553  -1.929  1.00  0.00    -0.391 OA
ATOM     27  H5  UNL     1     -27.116 -14.387  -2.813  1.00  0.00     0.210 HD
ENDBRANCH   7  26
BRANCH   8  28
HETATM   28  O6  UNL     1     -27.789 -17.111  -3.381  1.00  0.00    -0.390 OA
ATOM     29  H6  UNL     1     -28.465 -17.742  -3.600  1.00  0.00     0.210 HD
ENDBRANCH   8  28
TORSDOF 7
ENDMDL
