MODEL 1
REMARK VINA RESULT: -6.848114537      0.000      0.000
REMARK  7 active torsions:
REMARK  status: ('A' for Active; 'I' for Inactive)
REMARK       I    between atoms: N1_2  and  C2_4 
REMARK    1  A    between atoms: C2_4  and  C3_6 
REMARK    2  A    between atoms: C4_8  and  O3_9 
REMARK    3  A    between atoms: O3_9  and  C5_10 
REMARK       I    between atoms: C5_10  and  N2_12 
REMARK    4  A    between atoms: N2_12  and  C6_14 
REMARK    5  A    between atoms: C10_18  and  O5_19 
REMARK    6  A    between atoms: C11_21  and  N3_22 
REMARK       I    between atoms: N3_22  and  C12_24 
REMARK    7  A    between atoms: C14_27  and  O7_28 
ROOT
HETATM    1  C3  UNL     1     -28.344 -15.948  -3.887  1.00  0.00     0.247 C 
HETATM    2  O2  UNL     1     -27.059 -16.436  -4.110  1.00  0.00    -0.341 OA
HETATM    3  C4  UNL     1     -26.117 -15.489  -3.705  1.00  0.00     0.303 C 
HETATM    4  C10 UNL     1     -25.997 -15.565  -2.222  1.00  0.00     0.199 C 
HETATM    5  C11 UNL     1     -27.359 -15.956  -1.667  1.00  0.00     0.150 C 
HETATM    6  C14 UNL     1     -28.391 -15.243  -2.544  1.00  0.00     0.184 C 
ENDROOT
BRANCH   3   7
HETATM    7  O3  UNL     1     -24.939 -15.663  -4.425  1.00  0.00    -0.270 OA
BRANCH   7   8
HETATM    8  C5  UNL     1     -23.965 -14.733  -4.641  1.00  0.00     0.363 C 
HETATM    9  O4  UNL     1     -22.939 -15.160  -5.241  1.00  0.00    -0.238 OA
HETATM   10  N2  UNL     1     -24.022 -13.374  -4.252  1.00  0.00    -0.329 N 
ATOM     11  H2  UNL     1     -24.856 -13.045  -3.767  1.00  0.00     0.165 HD
BRANCH  10  12
HETATM   12  C6  UNL     1     -22.963 -12.429  -4.503  1.00  0.00     0.024 C 
HETATM   13  C7  UNL     1     -23.427 -11.101  -3.897  1.00  0.00     0.037 C 
HETATM   14  C8  UNL     1     -22.730 -12.249  -5.981  1.00  0.00     0.037 C 
HETATM   15  C9  UNL     1     -21.726 -12.905  -3.785  1.00  0.00     0.037 C 
ENDBRANCH  10  12
ENDBRANCH   7   8
ENDBRANCH   3   7
BRANCH   4  16
HETATM   16  O5  UNL     1     -25.722 -14.312  -1.670  1.00  0.00    -0.388 OA
ATOM     17  H5  UNL     1     -25.764 -14.336  -0.721  1.00  0.00     0.210 HD
ENDBRANCH   4  16
BRANCH   1  18
HETATM   18  C2  UNL     1     -29.337 -17.065  -3.935  1.00  0.00     0.249 C 
HETATM   19  N1  UNL     1     -29.449 -17.915  -2.814  1.00  0.00    -0.363 N 
HETATM   20  C1  UNL     1     -30.402 -19.008  -2.828  1.00  0.00     0.149 C 
ATOM     21  H1  UNL     1     -28.861 -17.761  -1.995  1.00  0.00     0.162 HD
HETATM   22  O1  UNL     1     -30.065 -17.266  -4.932  1.00  0.00    -0.271 OA
ENDBRANCH   1  18
BRANCH   5  23
HETATM   23  N3  UNL     1     -27.460 -15.456  -0.317  1.00  0.00    -0.351 N 
HETATM   24  C12 UNL     1     -28.119 -16.190   0.698  1.00  0.00     0.214 C 
HETATM   25  C13 UNL     1     -28.217 -15.673   2.078  1.00  0.00     0.117 C 
HETATM   26  O6  UNL     1     -28.636 -17.309   0.442  1.00  0.00    -0.274 OA
ATOM     27  H3  UNL     1     -27.046 -14.552  -0.088  1.00  0.00     0.163 HD
ENDBRANCH   5  23
BRANCH   6  28
HETATM   28  O7  UNL     1     -29.638 -15.246  -1.984  1.00  0.00    -0.385 OA
HETATM   29  C15 UNL     1     -29.985 -13.958  -1.588  1.00  0.00     0.202 C 
ENDBRANCH   6  28
TORSDOF 7
ENDMDL
MODEL 2
REMARK VINA RESULT: -6.329785440      2.043      3.808
REMARK  7 active torsions:
REMARK  status: ('A' for Active; 'I' for Inactive)
REMARK       I    between atoms: N1_2  and  C2_4 
REMARK    1  A    between atoms: C2_4  and  C3_6 
REMARK    2  A    between atoms: C4_8  and  O3_9 
REMARK    3  A    between atoms: O3_9  and  C5_10 
REMARK       I    between atoms: C5_10  and  N2_12 
REMARK    4  A    between atoms: N2_12  and  C6_14 
REMARK    5  A    between atoms: C10_18  and  O5_19 
REMARK    6  A    between atoms: C11_21  and  N3_22 
REMARK       I    between atoms: N3_22  and  C12_24 
REMARK    7  A    between atoms: C14_27  and  O7_28 
ROOT
HETATM    1  C3  UNL     1     -25.788 -15.304  -1.420  1.00  0.00     0.247 C 
HETATM    2  O2  UNL     1     -25.360 -14.465  -2.446  1.00  0.00    -0.341 OA
HETATM    3  C4  UNL     1     -26.075 -14.741  -3.613  1.00  0.00     0.303 C 
HETATM    4  C10 UNL     1     -27.410 -14.087  -3.498  1.00  0.00     0.199 C 
HETATM    5  C11 UNL     1     -27.805 -14.096  -2.029  1.00  0.00     0.150 C 
HETATM    6  C14 UNL     1     -27.300 -15.426  -1.465  1.00  0.00     0.184 C 
ENDROOT
BRANCH   3   7
HETATM    7  O3  UNL     1     -25.314 -14.390  -4.723  1.00  0.00    -0.270 OA
BRANCH   7   8
HETATM    8  C5  UNL     1     -23.957 -14.269  -4.780  1.00  0.00     0.363 C 
HETATM    9  O4  UNL     1     -23.352 -15.248  -5.302  1.00  0.00    -0.238 OA
HETATM   10  N2  UNL     1     -23.207 -13.165  -4.312  1.00  0.00    -0.329 N 
ATOM     11  H2  UNL     1     -23.709 -12.383  -3.892  1.00  0.00     0.165 HD
BRANCH  10  12
HETATM   12  C6  UNL     1     -21.770 -13.085  -4.396  1.00  0.00     0.024 C 
HETATM   13  C7  UNL     1     -21.373 -11.799  -3.665  1.00  0.00     0.037 C 
HETATM   14  C8  UNL     1     -21.310 -13.007  -5.830  1.00  0.00     0.037 C 
HETATM   15  C9  UNL     1     -21.188 -14.274  -3.675  1.00  0.00     0.037 C 
ENDBRANCH  10  12
ENDBRANCH   7   8
ENDBRANCH   3   7
BRANCH   4  16
HETATM   16  O5  UNL     1     -28.397 -14.832  -4.148  1.00  0.00    -0.388 OA
ATOM     17  H5  UNL     1     -28.797 -15.462  -3.560  1.00  0.00     0.210 HD
ENDBRANCH   4  16
BRANCH   1  18
HETATM   18  C2  UNL     1     -25.337 -14.774  -0.096  1.00  0.00     0.249 C 
HETATM   19  N1  UNL     1     -25.303 -15.657   1.005  1.00  0.00    -0.363 N 
HETATM   20  C1  UNL     1     -24.871 -15.175   2.303  1.00  0.00     0.149 C 
ATOM     21  H1  UNL     1     -25.582 -16.631   0.889  1.00  0.00     0.162 HD
HETATM   22  O1  UNL     1     -24.992 -13.583   0.062  1.00  0.00    -0.271 OA
ENDBRANCH   1  18
BRANCH   5  23
HETATM   23  N3  UNL     1     -29.246 -14.064  -1.946  1.00  0.00    -0.351 N 
HETATM   24  C12 UNL     1     -29.916 -13.261  -0.993  1.00  0.00     0.214 C 
HETATM   25  C13 UNL     1     -31.390 -13.233  -0.914  1.00  0.00     0.117 C 
HETATM   26  O6  UNL     1     -29.261 -12.548  -0.187  1.00  0.00    -0.274 OA
ATOM     27  H3  UNL     1     -29.794 -14.634  -2.590  1.00  0.00     0.163 HD
ENDBRANCH   5  23
BRANCH   6  28
HETATM   28  O7  UNL     1     -27.847 -15.714  -0.245  1.00  0.00    -0.385 OA
HETATM   29  C15 UNL     1     -28.411 -16.985  -0.266  1.00  0.00     0.202 C 
ENDBRANCH   6  28
TORSDOF 7
ENDMDL
MODEL 3
REMARK VINA RESULT: -6.272852385      1.606      3.749
REMARK  7 active torsions:
REMARK  status: ('A' for Active; 'I' for Inactive)
REMARK       I    between atoms: N1_2  and  C2_4 
REMARK    1  A    between atoms: C2_4  and  C3_6 
REMARK    2  A    between atoms: C4_8  and  O3_9 
REMARK    3  A    between atoms: O3_9  and  C5_10 
REMARK       I    between atoms: C5_10  and  N2_12 
REMARK    4  A    between atoms: N2_12  and  C6_14 
REMARK    5  A    between atoms: C10_18  and  O5_19 
REMARK    6  A    between atoms: C11_21  and  N3_22 
REMARK       I    between atoms: N3_22  and  C12_24 
REMARK    7  A    between atoms: C14_27  and  O7_28 
ROOT
HETATM    1  C3  UNL     1     -27.535 -13.635  -1.784  1.00  0.00     0.247 C 
HETATM    2  O2  UNL     1     -27.162 -13.462  -3.115  1.00  0.00    -0.341 OA
HETATM    3  C4  UNL     1     -26.423 -14.565  -3.546  1.00  0.00     0.303 C 
HETATM    4  C10 UNL     1     -27.379 -15.667  -3.852  1.00  0.00     0.199 C 
HETATM    5  C11 UNL     1     -28.558 -15.534  -2.899  1.00  0.00     0.150 C 
HETATM    6  C14 UNL     1     -27.970 -15.072  -1.564  1.00  0.00     0.184 C 
ENDROOT
BRANCH   3   7
HETATM    7  O3  UNL     1     -25.575 -14.184  -4.581  1.00  0.00    -0.270 OA
BRANCH   7   8
HETATM    8  C5  UNL     1     -24.213 -14.123  -4.544  1.00  0.00     0.363 C 
HETATM    9  O4  UNL     1     -23.621 -15.228  -4.697  1.00  0.00    -0.238 OA
HETATM   10  N2  UNL     1     -23.446 -12.950  -4.350  1.00  0.00    -0.329 N 
ATOM     11  H2  UNL     1     -23.938 -12.066  -4.226  1.00  0.00     0.165 HD
BRANCH  10  12
HETATM   12  C6  UNL     1     -22.005 -12.937  -4.318  1.00  0.00     0.024 C 
HETATM   13  C7  UNL     1     -21.600 -11.493  -4.006  1.00  0.00     0.037 C 
HETATM   14  C8  UNL     1     -21.425 -13.342  -5.649  1.00  0.00     0.037 C 
HETATM   15  C9  UNL     1     -21.550 -13.840  -3.200  1.00  0.00     0.037 C 
ENDBRANCH  10  12
ENDBRANCH   7   8
ENDBRANCH   3   7
BRANCH   4  16
HETATM   16  O5  UNL     1     -26.820 -16.916  -3.571  1.00  0.00    -0.388 OA
ATOM     17  H5  UNL     1     -27.260 -17.607  -4.051  1.00  0.00     0.210 HD
ENDBRANCH   4  16
BRANCH   1  18
HETATM   18  C2  UNL     1     -28.633 -12.686  -1.427  1.00  0.00     0.249 C 
HETATM   19  N1  UNL     1     -28.663 -12.151  -0.120  1.00  0.00    -0.363 N 
HETATM   20  C1  UNL     1     -29.714 -11.229   0.259  1.00  0.00     0.149 C 
ATOM     21  H1  UNL     1     -27.945 -12.414   0.556  1.00  0.00     0.162 HD
HETATM   22  O1  UNL     1     -29.520 -12.355  -2.244  1.00  0.00    -0.271 OA
ENDBRANCH   1  18
BRANCH   5  23
HETATM   23  N3  UNL     1     -29.153 -16.838  -2.728  1.00  0.00    -0.351 N 
HETATM   24  C12 UNL     1     -29.671 -17.567  -3.825  1.00  0.00     0.214 C 
HETATM   25  C13 UNL     1     -30.277 -18.900  -3.643  1.00  0.00     0.117 C 
HETATM   26  O6  UNL     1     -29.622 -17.087  -4.989  1.00  0.00    -0.274 OA
ATOM     27  H3  UNL     1     -29.201 -17.245  -1.794  1.00  0.00     0.163 HD
ENDBRANCH   5  23
BRANCH   6  28
HETATM   28  O7  UNL     1     -28.858 -15.207  -0.532  1.00  0.00    -0.385 OA
HETATM   29  C15 UNL     1     -28.226 -15.782   0.566  1.00  0.00     0.202 C 
ENDBRANCH   6  28
TORSDOF 7
ENDMDL
MODEL 4
REMARK VINA RESULT: -6.249424166      3.602      5.938
REMARK  7 active torsions:
REMARK  status: ('A' for Active; 'I' for Inactive)
REMARK       I    between atoms: N1_2  and  C2_4 
REMARK    1  A    between atoms: C2_4  and  C3_6 
REMARK    2  A    between atoms: C4_8  and  O3_9 
REMARK    3  A    between atoms: O3_9  and  C5_10 
REMARK       I    between atoms: C5_10  and  N2_12 
REMARK    4  A    between atoms: N2_12  and  C6_14 
REMARK    5  A    between atoms: C10_18  and  O5_19 
REMARK    6  A    between atoms: C11_21  and  N3_22 
REMARK       I    between atoms: N3_22  and  C12_24 
REMARK    7  A    between atoms: C14_27  and  O7_28 
ROOT
HETATM    1  C3  UNL     1     -26.407 -13.690  -1.266  1.00  0.00     0.247 C 
HETATM    2  O2  UNL     1     -27.565 -13.063  -0.813  1.00  0.00    -0.341 OA
HETATM    3  C4  UNL     1     -28.124 -12.303  -1.842  1.00  0.00     0.303 C 
HETATM    4  C10 UNL     1     -28.859 -13.229  -2.749  1.00  0.00     0.199 C 
HETATM    5  C11 UNL     1     -28.125 -14.562  -2.744  1.00  0.00     0.150 C 
HETATM    6  C14 UNL     1     -26.635 -14.221  -2.669  1.00  0.00     0.184 C 
ENDROOT
BRANCH   3   7
HETATM    7  O3  UNL     1     -28.866 -11.257  -1.301  1.00  0.00    -0.270 OA
BRANCH   7   8
HETATM    8  C5  UNL     1     -28.393 -10.218  -0.556  1.00  0.00     0.363 C 
HETATM    9  O4  UNL     1     -29.122  -9.185  -0.553  1.00  0.00    -0.238 OA
HETATM   10  N2  UNL     1     -27.188 -10.214   0.185  1.00  0.00    -0.329 N 
ATOM     11  H2  UNL     1     -26.610 -11.054   0.170  1.00  0.00     0.165 HD
BRANCH  10  12
HETATM   12  C6  UNL     1     -26.732  -9.087   0.958  1.00  0.00     0.024 C 
HETATM   13  C7  UNL     1     -25.416  -9.524   1.609  1.00  0.00     0.037 C 
HETATM   14  C8  UNL     1     -27.724  -8.723   2.032  1.00  0.00     0.037 C 
HETATM   15  C9  UNL     1     -26.470  -7.942   0.013  1.00  0.00     0.037 C 
ENDBRANCH  10  12
ENDBRANCH   7   8
ENDBRANCH   3   7
BRANCH   4  16
HETATM   16  O5  UNL     1     -28.809 -12.787  -4.074  1.00  0.00    -0.388 OA
ATOM     17  H5  UNL     1     -29.608 -12.335  -4.318  1.00  0.00     0.210 HD
ENDBRANCH   4  16
BRANCH   1  18
HETATM   18  C2  UNL     1     -26.020 -14.795  -0.336  1.00  0.00     0.249 C 
HETATM   19  N1  UNL     1     -26.778 -15.986  -0.353  1.00  0.00    -0.363 N 
HETATM   20  C1  UNL     1     -26.430 -17.077   0.536  1.00  0.00     0.149 C 
ATOM     21  H1  UNL     1     -27.570 -16.079  -0.990  1.00  0.00     0.162 HD
HETATM   22  O1  UNL     1     -25.052 -14.696   0.450  1.00  0.00    -0.271 OA
ENDBRANCH   1  18
BRANCH   5  23
HETATM   23  N3  UNL     1     -28.394 -15.233  -3.994  1.00  0.00    -0.351 N 
HETATM   24  C12 UNL     1     -29.112 -16.451  -4.041  1.00  0.00     0.214 C 
HETATM   25  C13 UNL     1     -29.384 -17.132  -5.323  1.00  0.00     0.117 C 
HETATM   26  O6  UNL     1     -29.537 -16.982  -2.981  1.00  0.00    -0.274 OA
ATOM     27  H3  UNL     1     -28.058 -14.819  -4.864  1.00  0.00     0.163 HD
ENDBRANCH   5  23
BRANCH   6  28
HETATM   28  O7  UNL     1     -25.842 -15.294  -2.968  1.00  0.00    -0.385 OA
HETATM   29  C15 UNL     1     -24.845 -14.914  -3.862  1.00  0.00     0.202 C 
ENDBRANCH   6  28
TORSDOF 7
ENDMDL
MODEL 5
REMARK VINA RESULT: -6.184336901      2.520      3.680
REMARK  7 active torsions:
REMARK  status: ('A' for Active; 'I' for Inactive)
REMARK       I    between atoms: N1_2  and  C2_4 
REMARK    1  A    between atoms: C2_4  and  C3_6 
REMARK    2  A    between atoms: C4_8  and  O3_9 
REMARK    3  A    between atoms: O3_9  and  C5_10 
REMARK       I    between atoms: C5_10  and  N2_12 
REMARK    4  A    between atoms: N2_12  and  C6_14 
REMARK    5  A    between atoms: C10_18  and  O5_19 
REMARK    6  A    between atoms: C11_21  and  N3_22 
REMARK       I    between atoms: N3_22  and  C12_24 
REMARK    7  A    between atoms: C14_27  and  O7_28 
ROOT
HETATM    1  C3  UNL     1     -28.034 -15.050  -1.515  1.00  0.00     0.247 C 
HETATM    2  O2  UNL     1     -26.815 -14.959  -2.184  1.00  0.00    -0.341 OA
HETATM    3  C4  UNL     1     -26.949 -14.132  -3.300  1.00  0.00     0.303 C 
HETATM    4  C10 UNL     1     -26.911 -12.718  -2.831  1.00  0.00     0.199 C 
HETATM    5  C11 UNL     1     -27.535 -12.674  -1.444  1.00  0.00     0.150 C 
HETATM    6  C14 UNL     1     -28.688 -13.681  -1.469  1.00  0.00     0.184 C 
ENDROOT
BRANCH   3   7
HETATM    7  O3  UNL     1     -26.005 -14.485  -4.260  1.00  0.00    -0.270 OA
BRANCH   7   8
HETATM    8  C5  UNL     1     -24.711 -14.061  -4.331  1.00  0.00     0.363 C 
HETATM    9  O4  UNL     1     -24.290 -13.818  -5.497  1.00  0.00    -0.238 OA
HETATM   10  N2  UNL     1     -23.839 -13.883  -3.232  1.00  0.00    -0.329 N 
ATOM     11  H2  UNL     1     -24.194 -14.085  -2.297  1.00  0.00     0.165 HD
BRANCH  10  12
HETATM   12  C6  UNL     1     -22.476 -13.431  -3.361  1.00  0.00     0.024 C 
HETATM   13  C7  UNL     1     -21.956 -13.241  -1.932  1.00  0.00     0.037 C 
HETATM   14  C8  UNL     1     -22.403 -12.118  -4.098  1.00  0.00     0.037 C 
HETATM   15  C9  UNL     1     -21.684 -14.515  -4.046  1.00  0.00     0.037 C 
ENDBRANCH  10  12
ENDBRANCH   7   8
ENDBRANCH   3   7
BRANCH   4  16
HETATM   16  O5  UNL     1     -27.719 -11.899  -3.623  1.00  0.00    -0.388 OA
ATOM     17  H5  UNL     1     -27.351 -11.027  -3.707  1.00  0.00     0.210 HD
ENDBRANCH   4  16
BRANCH   1  18
HETATM   18  C2  UNL     1     -27.829 -15.587  -0.135  1.00  0.00     0.249 C 
HETATM   19  N1  UNL     1     -28.898 -16.265   0.489  1.00  0.00    -0.363 N 
HETATM   20  C1  UNL     1     -28.732 -16.798   1.827  1.00  0.00     0.149 C 
ATOM     21  H1  UNL     1     -29.786 -16.380  -0.000  1.00  0.00     0.162 HD
HETATM   22  O1  UNL     1     -26.747 -15.454   0.477  1.00  0.00    -0.271 OA
ENDBRANCH   1  18
BRANCH   5  23
HETATM   23  N3  UNL     1     -28.069 -11.350  -1.228  1.00  0.00    -0.351 N 
HETATM   24  C12 UNL     1     -27.537 -10.488  -0.240  1.00  0.00     0.214 C 
HETATM   25  C13 UNL     1     -28.088  -9.135  -0.025  1.00  0.00     0.117 C 
HETATM   26  O6  UNL     1     -26.574 -10.862   0.481  1.00  0.00    -0.274 OA
ATOM     27  H3  UNL     1     -28.849 -11.028  -1.802  1.00  0.00     0.163 HD
ENDBRANCH   5  23
BRANCH   6  28
HETATM   28  O7  UNL     1     -29.532 -13.529  -0.404  1.00  0.00    -0.385 OA
HETATM   29  C15 UNL     1     -30.825 -13.282  -0.854  1.00  0.00     0.202 C 
ENDBRANCH   6  28
TORSDOF 7
ENDMDL
