MODEL 1
REMARK VINA RESULT: -6.626694442      0.000      0.000
REMARK  5 active torsions:
REMARK  status: ('A' for Active; 'I' for Inactive)
REMARK    1  A    between atoms: N1_2  and  C2_5 
REMARK    2  A    between atoms: N2_8  and  N3_9 
REMARK       I    between atoms: N3_9  and  C5_11 
REMARK    3  A    between atoms: C5_11  and  C6_13 
REMARK    4  A    between atoms: C6_13  and  O2_14 
REMARK    5  A    between atoms: C11_27  and  C12_28 
ROOT
HETATM    1  N3  UNL     1       3.527 -28.704 -26.609  1.00  0.00    -0.283 N 
ATOM      2  H3  UNL     1       3.179 -28.018 -27.279  1.00  0.00     0.184 HD
HETATM    3  C5  UNL     1       2.679 -29.026 -25.526  1.00  0.00     0.313 C 
HETATM    4  O1  UNL     1       3.139 -29.885 -24.700  1.00  0.00    -0.265 OA
ENDROOT
BRANCH   1   5
HETATM    5  N2  UNL     1       4.778 -29.229 -26.845  1.00  0.00    -0.222 NA
HETATM    6  C4  UNL     1       5.713 -28.142 -26.721  1.00  0.00     0.116 C 
HETATM    7  C3  UNL     1       6.551 -27.912 -27.961  1.00  0.00     0.049 C 
HETATM    8  C2  UNL     1       7.386 -29.164 -28.105  1.00  0.00     0.188 C 
HETATM    9  C15 UNL     1       6.443 -30.320 -28.135  1.00  0.00     0.056 C 
HETATM   10  C11 UNL     1       4.966 -29.938 -28.032  1.00  0.00     0.104 C 
BRANCH   8  11
HETATM   11  N1  UNL     1       8.223 -29.173 -29.265  1.00  0.00    -0.075 N 
HETATM   12  C1  UNL     1       7.714 -28.333 -30.342  1.00  0.00     0.267 C 
ATOM     13  H12 UNL     1       8.383 -30.126 -29.591  1.00  0.00     0.277 HD
ATOM     14  H11 UNL     1       9.181 -28.916 -29.025  1.00  0.00     0.277 HD
ENDBRANCH   8  11
BRANCH  10  15
HETATM   15  C12 UNL     1       4.267 -31.236 -28.205  1.00  0.00     0.047 C 
HETATM   16  C13 UNL     1       4.898 -32.034 -29.339  1.00  0.00     0.034 C 
HETATM   17  C14 UNL     1       4.222 -32.147 -27.029  1.00  0.00     0.034 C 
HETATM   18 CL1  UNL     1       2.590 -30.931 -28.698  1.00  0.00    -0.118 Cl
ENDBRANCH  10  15
ENDBRANCH   1   5
BRANCH   3  19
HETATM   19  C6  UNL     1       1.336 -28.430 -25.321  1.00  0.00     0.383 C 
HETATM   20  N4  UNL     1       1.522 -27.079 -24.941  1.00  0.00     0.005 N 
HETATM   21  C7  UNL     1       0.342 -26.545 -24.353  1.00  0.00     0.240 C 
ATOM     22  H42 UNL     1       2.329 -26.969 -24.328  1.00  0.00     0.285 HD
ATOM     23  H41 UNL     1       1.842 -26.510 -25.724  1.00  0.00     0.285 HD
HETATM   24  C8  UNL     1       0.669 -25.454 -23.363  1.00  0.00     0.065 C 
HETATM   25  C9  UNL     1      -0.684 -26.050 -25.343  1.00  0.00     0.065 C 
HETATM   26  S1  UNL     1      -0.284 -27.949 -23.454  1.00  0.00     0.250 S 
HETATM   27  O3  UNL     1       0.012 -27.842 -22.007  1.00  0.00    -0.208 OA
HETATM   28  O4  UNL     1      -1.719 -28.167 -23.757  1.00  0.00    -0.208 OA
HETATM   29  N5  UNL     1       0.732 -29.154 -24.219  1.00  0.00    -0.146 NA
HETATM   30  C10 UNL     1      -0.176 -30.159 -24.751  1.00  0.00     0.135 C 
BRANCH  19  31
HETATM   31  O2  UNL     1       0.579 -28.515 -26.482  1.00  0.00    -0.345 OA
ATOM     32  H2  UNL     1      -0.322 -28.737 -26.280  1.00  0.00     0.214 HD
ENDBRANCH  19  31
ENDBRANCH   3  19
TORSDOF 5
ENDMDL
MODEL 2
REMARK VINA RESULT: -6.472739504      3.812      7.414
REMARK  5 active torsions:
REMARK  status: ('A' for Active; 'I' for Inactive)
REMARK    1  A    between atoms: N1_2  and  C2_5 
REMARK    2  A    between atoms: N2_8  and  N3_9 
REMARK       I    between atoms: N3_9  and  C5_11 
REMARK    3  A    between atoms: C5_11  and  C6_13 
REMARK    4  A    between atoms: C6_13  and  O2_14 
REMARK    5  A    between atoms: C11_27  and  C12_28 
ROOT
HETATM    1  N3  UNL     1      -0.239 -28.225 -25.030  1.00  0.00    -0.283 N 
ATOM      2  H3  UNL     1      -0.864 -27.977 -25.798  1.00  0.00     0.184 HD
HETATM    3  C5  UNL     1       0.368 -29.499 -25.086  1.00  0.00     0.313 C 
HETATM    4  O1  UNL     1       1.142 -29.785 -24.111  1.00  0.00    -0.265 OA
ENDROOT
BRANCH   1   5
HETATM    5  N2  UNL     1      -0.067 -27.285 -24.037  1.00  0.00    -0.222 NA
HETATM    6  C4  UNL     1      -1.183 -27.424 -23.138  1.00  0.00     0.116 C 
HETATM    7  C3  UNL     1      -1.993 -26.157 -22.969  1.00  0.00     0.049 C 
HETATM    8  C2  UNL     1      -1.049 -25.177 -22.310  1.00  0.00     0.188 C 
HETATM    9  C15 UNL     1       0.165 -25.089 -23.173  1.00  0.00     0.056 C 
HETATM   10  C11 UNL     1       0.116 -25.959 -24.430  1.00  0.00     0.104 C 
BRANCH   8  11
HETATM   11  N1  UNL     1      -1.611 -23.877 -22.106  1.00  0.00    -0.075 N 
HETATM   12  C1  UNL     1      -0.608 -22.863 -21.810  1.00  0.00     0.267 C 
ATOM     13  H12 UNL     1      -2.329 -23.901 -21.382  1.00  0.00     0.277 HD
ATOM     14  H11 UNL     1      -2.186 -23.600 -22.902  1.00  0.00     0.277 HD
ENDBRANCH   8  11
BRANCH  10  15
HETATM   15  C12 UNL     1       1.364 -25.593 -25.145  1.00  0.00     0.047 C 
HETATM   16  C13 UNL     1       1.717 -24.133 -24.890  1.00  0.00     0.034 C 
HETATM   17  C14 UNL     1       2.586 -26.379 -24.825  1.00  0.00     0.034 C 
HETATM   18 CL1  UNL     1       1.093 -25.730 -26.893  1.00  0.00    -0.118 Cl
ENDBRANCH  10  15
ENDBRANCH   1   5
BRANCH   3  19
HETATM   19  C6  UNL     1       0.148 -30.473 -26.184  1.00  0.00     0.383 C 
HETATM   20  N4  UNL     1      -0.540 -31.583 -25.638  1.00  0.00     0.005 N 
HETATM   21  C7  UNL     1      -0.451 -32.713 -26.496  1.00  0.00     0.240 C 
ATOM     22  H42 UNL     1      -0.215 -31.801 -24.696  1.00  0.00     0.285 HD
ATOM     23  H41 UNL     1      -1.509 -31.353 -25.419  1.00  0.00     0.285 HD
HETATM   24  C8  UNL     1      -0.529 -34.002 -25.714  1.00  0.00     0.065 C 
HETATM   25  C9  UNL     1      -1.460 -32.731 -27.618  1.00  0.00     0.065 C 
HETATM   26  S1  UNL     1       1.200 -32.549 -27.143  1.00  0.00     0.250 S 
HETATM   27  O3  UNL     1       2.139 -33.478 -26.474  1.00  0.00    -0.208 OA
HETATM   28  O4  UNL     1       1.197 -32.664 -28.622  1.00  0.00    -0.208 OA
HETATM   29  N5  UNL     1       1.464 -30.898 -26.621  1.00  0.00    -0.146 NA
HETATM   30  C10 UNL     1       1.830 -30.156 -27.818  1.00  0.00     0.135 C 
BRANCH  19  31
HETATM   31  O2  UNL     1      -0.586 -29.896 -27.212  1.00  0.00    -0.345 OA
ATOM     32  H2  UNL     1      -1.372 -30.400 -27.386  1.00  0.00     0.214 HD
ENDBRANCH  19  31
ENDBRANCH   3  19
TORSDOF 5
ENDMDL
MODEL 3
REMARK VINA RESULT: -6.357679668      3.681      6.582
REMARK  5 active torsions:
REMARK  status: ('A' for Active; 'I' for Inactive)
REMARK    1  A    between atoms: N1_2  and  C2_5 
REMARK    2  A    between atoms: N2_8  and  N3_9 
REMARK       I    between atoms: N3_9  and  C5_11 
REMARK    3  A    between atoms: C5_11  and  C6_13 
REMARK    4  A    between atoms: C6_13  and  O2_14 
REMARK    5  A    between atoms: C11_27  and  C12_28 
ROOT
HETATM    1  N3  UNL     1       1.397 -31.376 -25.762  1.00  0.00    -0.283 N 
ATOM      2  H3  UNL     1       2.263 -31.912 -25.716  1.00  0.00     0.184 HD
HETATM    3  C5  UNL     1       1.517 -29.969 -25.804  1.00  0.00     0.313 C 
HETATM    4  O1  UNL     1       0.417 -29.322 -25.857  1.00  0.00    -0.265 OA
ENDROOT
BRANCH   1   5
HETATM    5  N2  UNL     1       0.220 -32.091 -25.777  1.00  0.00    -0.222 NA
HETATM    6  C4  UNL     1       0.098 -32.714 -24.484  1.00  0.00     0.116 C 
HETATM    7  C3  UNL     1      -0.021 -34.222 -24.541  1.00  0.00     0.049 C 
HETATM    8  C2  UNL     1      -1.328 -34.483 -25.252  1.00  0.00     0.188 C 
HETATM    9  C15 UNL     1      -1.269 -33.764 -26.558  1.00  0.00     0.056 C 
HETATM   10  C11 UNL     1       0.038 -33.011 -26.810  1.00  0.00     0.104 C 
BRANCH   8  11
HETATM   11  N1  UNL     1      -1.609 -35.871 -25.459  1.00  0.00    -0.075 N 
HETATM   12  C1  UNL     1      -0.919 -36.739 -24.513  1.00  0.00     0.267 C 
ATOM     13  H12 UNL     1      -1.405 -36.144 -26.420  1.00  0.00     0.277 HD
ATOM     14  H11 UNL     1      -2.614 -36.044 -25.446  1.00  0.00     0.277 HD
ENDBRANCH   8  11
BRANCH  10  15
HETATM   15  C12 UNL     1      -0.125 -32.503 -28.196  1.00  0.00     0.047 C 
HETATM   16  C13 UNL     1      -0.709 -33.585 -29.095  1.00  0.00     0.034 C 
HETATM   17  C14 UNL     1      -0.979 -31.299 -28.383  1.00  0.00     0.034 C 
HETATM   18 CL1  UNL     1       1.473 -32.123 -28.866  1.00  0.00    -0.118 Cl
ENDBRANCH  10  15
ENDBRANCH   1   5
BRANCH   3  19
HETATM   19  C6  UNL     1       2.814 -29.248 -25.788  1.00  0.00     0.383 C 
HETATM   20  N4  UNL     1       2.551 -27.904 -25.427  1.00  0.00     0.005 N 
HETATM   21  C7  UNL     1       3.646 -27.061 -25.760  1.00  0.00     0.240 C 
ATOM     22  H42 UNL     1       1.680 -27.568 -25.839  1.00  0.00     0.285 HD
ATOM     23  H41 UNL     1       2.299 -27.823 -24.443  1.00  0.00     0.285 HD
HETATM   24  C8  UNL     1       3.186 -25.652 -26.045  1.00  0.00     0.065 C 
HETATM   25  C9  UNL     1       4.757 -27.043 -24.739  1.00  0.00     0.065 C 
HETATM   26  S1  UNL     1       4.213 -27.785 -27.286  1.00  0.00     0.250 S 
HETATM   27  O3  UNL     1       3.762 -27.001 -28.458  1.00  0.00    -0.208 OA
HETATM   28  O4  UNL     1       5.677 -28.014 -27.245  1.00  0.00    -0.208 OA
HETATM   29  N5  UNL     1       3.318 -29.285 -27.147  1.00  0.00    -0.146 NA
HETATM   30  C10 UNL     1       4.304 -30.348 -27.260  1.00  0.00     0.135 C 
BRANCH  19  31
HETATM   31  O2  UNL     1       3.691 -29.837 -24.887  1.00  0.00    -0.345 OA
ATOM     32  H2  UNL     1       4.528 -29.387 -24.891  1.00  0.00     0.214 HD
ENDBRANCH  19  31
ENDBRANCH   3  19
TORSDOF 5
ENDMDL
MODEL 4
REMARK VINA RESULT: -6.321656260      4.031      7.049
REMARK  5 active torsions:
REMARK  status: ('A' for Active; 'I' for Inactive)
REMARK    1  A    between atoms: N1_2  and  C2_5 
REMARK    2  A    between atoms: N2_8  and  N3_9 
REMARK       I    between atoms: N3_9  and  C5_11 
REMARK    3  A    between atoms: C5_11  and  C6_13 
REMARK    4  A    between atoms: C6_13  and  O2_14 
REMARK    5  A    between atoms: C11_27  and  C12_28 
ROOT
HETATM    1  N3  UNL     1       0.306 -29.169 -25.194  1.00  0.00    -0.283 N 
ATOM      2  H3  UNL     1      -0.265 -28.958 -26.013  1.00  0.00     0.184 HD
HETATM    3  C5  UNL     1       0.935 -30.433 -25.161  1.00  0.00     0.313 C 
HETATM    4  O1  UNL     1       1.640 -30.673 -24.124  1.00  0.00    -0.265 OA
ENDROOT
BRANCH   1   5
HETATM    5  N2  UNL     1       0.392 -28.193 -24.225  1.00  0.00    -0.222 NA
HETATM    6  C4  UNL     1      -0.739 -28.375 -23.353  1.00  0.00     0.116 C 
HETATM    7  C3  UNL     1      -1.628 -27.155 -23.244  1.00  0.00     0.049 C 
HETATM    8  C2  UNL     1      -0.765 -26.101 -22.589  1.00  0.00     0.188 C 
HETATM    9  C15 UNL     1       0.467 -25.964 -23.420  1.00  0.00     0.056 C 
HETATM   10  C11 UNL     1       0.507 -26.870 -24.651  1.00  0.00     0.104 C 
BRANCH   8  11
HETATM   11  N1  UNL     1      -1.410 -24.833 -22.438  1.00  0.00    -0.075 N 
HETATM   12  C1  UNL     1      -0.544 -23.820 -21.848  1.00  0.00     0.267 C 
ATOM     13  H12 UNL     1      -2.276 -24.926 -21.908  1.00  0.00     0.277 HD
ATOM     14  H11 UNL     1      -1.792 -24.512 -23.328  1.00  0.00     0.277 HD
ENDBRANCH   8  11
BRANCH  10  15
HETATM   15  C12 UNL     1       1.752 -26.448 -25.342  1.00  0.00     0.047 C 
HETATM   16  C13 UNL     1       2.124 -25.024 -24.949  1.00  0.00     0.034 C 
HETATM   17  C14 UNL     1       2.968 -27.275 -25.115  1.00  0.00     0.034 C 
HETATM   18 CL1  UNL     1       1.460 -26.411 -27.091  1.00  0.00    -0.118 Cl
ENDBRANCH  10  15
ENDBRANCH   1   5
BRANCH   3  19
HETATM   19  C6  UNL     1       0.810 -31.447 -26.237  1.00  0.00     0.383 C 
HETATM   20  N4  UNL     1       0.745 -30.755 -27.471  1.00  0.00     0.005 N 
HETATM   21  C7  UNL     1       0.241 -31.593 -28.503  1.00  0.00     0.240 C 
ATOM     22  H42 UNL     1       0.207 -29.893 -27.390  1.00  0.00     0.285 HD
ATOM     23  H41 UNL     1       1.648 -30.352 -27.722  1.00  0.00     0.285 HD
HETATM   24  C8  UNL     1      -0.470 -30.789 -29.564  1.00  0.00     0.065 C 
HETATM   25  C9  UNL     1       1.271 -32.491 -29.142  1.00  0.00     0.065 C 
HETATM   26  S1  UNL     1      -0.972 -32.560 -27.626  1.00  0.00     0.250 S 
HETATM   27  O3  UNL     1      -2.345 -32.074 -27.890  1.00  0.00    -0.208 OA
HETATM   28  O4  UNL     1      -0.785 -34.005 -27.898  1.00  0.00    -0.208 OA
HETATM   29  N5  UNL     1      -0.449 -32.130 -26.010  1.00  0.00    -0.146 NA
HETATM   30  C10 UNL     1      -0.191 -33.390 -25.328  1.00  0.00     0.135 C 
BRANCH  19  31
HETATM   31  O2  UNL     1       1.891 -32.319 -26.218  1.00  0.00    -0.345 OA
ATOM     32  H2  UNL     1       2.643 -31.930 -26.648  1.00  0.00     0.214 HD
ENDBRANCH  19  31
ENDBRANCH   3  19
TORSDOF 5
ENDMDL
MODEL 5
REMARK VINA RESULT: -6.291472500      4.031      7.275
REMARK  5 active torsions:
REMARK  status: ('A' for Active; 'I' for Inactive)
REMARK    1  A    between atoms: N1_2  and  C2_5 
REMARK    2  A    between atoms: N2_8  and  N3_9 
REMARK       I    between atoms: N3_9  and  C5_11 
REMARK    3  A    between atoms: C5_11  and  C6_13 
REMARK    4  A    between atoms: C6_13  and  O2_14 
REMARK    5  A    between atoms: C11_27  and  C12_28 
ROOT
HETATM    1  N3  UNL     1       0.151 -28.885 -24.915  1.00  0.00    -0.283 N 
ATOM      2  H3  UNL     1      -0.732 -29.315 -25.191  1.00  0.00     0.184 HD
HETATM    3  C5  UNL     1       1.333 -29.590 -25.234  1.00  0.00     0.313 C 
HETATM    4  O1  UNL     1       2.424 -29.032 -24.875  1.00  0.00    -0.265 OA
ENDROOT
BRANCH   1   5
HETATM    5  N2  UNL     1       0.079 -27.671 -24.267  1.00  0.00    -0.222 NA
HETATM    6  C4  UNL     1      -0.579 -27.913 -23.010  1.00  0.00     0.116 C 
HETATM    7  C3  UNL     1      -1.833 -27.089 -22.808  1.00  0.00     0.049 C 
HETATM    8  C2  UNL     1      -1.355 -25.656 -22.758  1.00  0.00     0.188 C 
HETATM    9  C15 UNL     1      -0.581 -25.408 -24.010  1.00  0.00     0.056 C 
HETATM   10  C11 UNL     1      -0.501 -26.606 -24.956  1.00  0.00     0.104 C 
BRANCH   8  11
HETATM   11  N1  UNL     1      -2.407 -24.697 -22.624  1.00  0.00    -0.075 N 
HETATM   12  C1  UNL     1      -1.921 -23.325 -22.547  1.00  0.00     0.267 C 
ATOM     13  H12 UNL     1      -3.001 -24.918 -21.825  1.00  0.00     0.277 HD
ATOM     14  H11 UNL     1      -3.091 -24.799 -23.374  1.00  0.00     0.277 HD
ENDBRANCH   8  11
BRANCH  10  15
HETATM   15  C12 UNL     1       0.202 -26.056 -26.142  1.00  0.00     0.047 C 
HETATM   16  C13 UNL     1      -0.367 -24.693 -26.516  1.00  0.00     0.034 C 
HETATM   17  C14 UNL     1       1.676 -25.877 -26.035  1.00  0.00     0.034 C 
HETATM   18 CL1  UNL     1      -0.099 -27.109 -27.537  1.00  0.00    -0.118 Cl
ENDBRANCH  10  15
ENDBRANCH   1   5
BRANCH   3  19
HETATM   19  C6  UNL     1       1.352 -30.896 -25.938  1.00  0.00     0.383 C 
HETATM   20  N4  UNL     1       1.051 -30.651 -27.300  1.00  0.00     0.005 N 
HETATM   21  C7  UNL     1       0.667 -31.849 -27.963  1.00  0.00     0.240 C 
ATOM     22  H42 UNL     1       0.346 -29.922 -27.404  1.00  0.00     0.285 HD
ATOM     23  H41 UNL     1       1.825 -30.189 -27.778  1.00  0.00     0.285 HD
HETATM   24  C8  UNL     1      -0.276 -31.564 -29.107  1.00  0.00     0.065 C 
HETATM   25  C9  UNL     1       1.818 -32.698 -28.444  1.00  0.00     0.065 C 
HETATM   26  S1  UNL     1      -0.242 -32.695 -26.686  1.00  0.00     0.250 S 
HETATM   27  O3  UNL     1      -1.704 -32.578 -26.893  1.00  0.00    -0.208 OA
HETATM   28  O4  UNL     1       0.232 -34.093 -26.545  1.00  0.00    -0.208 OA
HETATM   29  N5  UNL     1       0.291 -31.691 -25.353  1.00  0.00    -0.146 NA
HETATM   30  C10 UNL     1       0.863 -32.602 -24.374  1.00  0.00     0.135 C 
BRANCH  19  31
HETATM   31  O2  UNL     1       2.595 -31.504 -25.811  1.00  0.00    -0.345 OA
ATOM     32  H2  UNL     1       3.262 -30.861 -25.601  1.00  0.00     0.214 HD
ENDBRANCH  19  31
ENDBRANCH   3  19
TORSDOF 5
ENDMDL
