MODEL 1
REMARK VINA RESULT: -7.227565513      0.000      0.000
REMARK  8 active torsions:
REMARK  status: ('A' for Active; 'I' for Inactive)
REMARK    1  A    between atoms: C2_2  and  N1_3 
REMARK       I    between atoms: N1_3  and  C3_5 
REMARK       I    between atoms: C3_5  and  N2_6 
REMARK    2  A    between atoms: N2_6  and  N3_8 
REMARK    3  A    between atoms: N4_11  and  C4_13 
REMARK    4  A    between atoms: N5_15  and  O1_16 
REMARK    5  A    between atoms: C8_20  and  C9_21 
REMARK    6  A    between atoms: C12_25  and  S1_26 
REMARK    7  A    between atoms: C14_28  and  O2_29 
REMARK    8  A    between atoms: C15_31  and  O3_32 
ROOT
HETATM    1  C4  UNL     1       0.125 -26.880 -23.813  1.00  0.00     0.109 A 
HETATM    2  C5  UNL     1       1.322 -26.567 -24.407  1.00  0.00     0.160 A 
HETATM    3  N5  UNL     1       2.075 -27.357 -25.140  1.00  0.00    -0.236 N 
HETATM    4  C6  UNL     1       1.861 -28.658 -25.490  1.00  0.00     0.053 A 
HETATM    5  C7  UNL     1       2.844 -29.249 -26.389  1.00  0.00     0.072 C 
HETATM    6  C8  UNL     1       0.780 -29.391 -25.115  1.00  0.00     0.038 A 
HETATM    7  S2  UNL     1      -0.367 -28.485 -24.109  1.00  0.00    -0.068 SA
ENDROOT
BRANCH   6   8
HETATM    8  C9  UNL     1       0.462 -30.816 -25.311  1.00  0.00    -0.011 C 
HETATM    9  C10 UNL     1      -0.585 -30.975 -26.408  1.00  0.00     0.116 C 
HETATM   10 CL1  UNL     1      -0.249 -29.799 -27.746  1.00  0.00    -0.120 Cl
HETATM   11  C11 UNL     1      -0.729 -32.358 -26.968  1.00  0.00     0.042 C 
HETATM   12  C12 UNL     1      -0.659 -33.276 -25.736  1.00  0.00     0.080 C 
HETATM   13  C14 UNL     1       0.800 -33.286 -25.433  1.00  0.00     0.165 C 
HETATM   14  C15 UNL     1       1.278 -31.924 -24.907  1.00  0.00     0.180 C 
BRANCH  12  15
HETATM   15  S1  UNL     1      -1.330 -34.899 -26.078  1.00  0.00    -0.166 SA
HETATM   16  C13 UNL     1      -1.046 -36.022 -24.653  1.00  0.00     0.090 C 
ENDBRANCH  12  15
BRANCH  13  17
HETATM   17  O2  UNL     1       1.490 -33.570 -26.628  1.00  0.00    -0.392 OA
ATOM     18  H2  UNL     1       1.216 -34.428 -26.929  1.00  0.00     0.210 HD
ENDBRANCH  13  17
BRANCH  14  19
HETATM   19  O3  UNL     1       1.240 -32.203 -23.482  1.00  0.00    -0.388 OA
ATOM     20  H3  UNL     1       2.085 -32.149 -23.052  1.00  0.00     0.210 HD
ENDBRANCH  14  19
ENDBRANCH   6   8
BRANCH   3  21
HETATM   21  O1  UNL     1       3.254 -26.749 -25.609  1.00  0.00    -0.283 OA
ATOM     22  H1  UNL     1       3.897 -27.362 -25.944  1.00  0.00     0.245 HD
ENDBRANCH   3  21
BRANCH   1  23
HETATM   23  N4  UNL     1      -0.560 -26.108 -23.098  1.00  0.00    -0.183 N 
HETATM   24  C3  UNL     1      -1.535 -25.185 -23.212  1.00  0.00     0.693 C 
HETATM   25  N1  UNL     1      -2.547 -25.114 -24.198  1.00  0.00    -0.225 N 
HETATM   26  N2  UNL     1      -1.587 -24.212 -22.312  1.00  0.00    -0.139 N 
ATOM     27  H1  UNL     1      -3.220 -25.876 -24.283  1.00  0.00     0.177 HD
ATOM     28  H2  UNL     1      -2.311 -23.496 -22.366  1.00  0.00     0.205 HD
ATOM     29  H4  UNL     1      -0.293 -26.213 -22.120  1.00  0.00     0.185 HD
BRANCH  25  30
HETATM   30  C2  UNL     1      -2.641 -23.972 -25.093  1.00  0.00     0.134 C 
HETATM   31  C1  UNL     1      -1.419 -23.817 -25.942  1.00  0.00     0.027 C 
ENDBRANCH  25  30
BRANCH  26  32
HETATM   32  N3  UNL     1      -0.636 -24.183 -21.288  1.00  0.00    -0.331 N 
ATOM     33  H32 UNL     1       0.353 -24.288 -21.518  1.00  0.00     0.177 HD
ATOM     34  H31 UNL     1      -0.948 -24.055 -20.325  1.00  0.00     0.177 HD
ENDBRANCH  26  32
ENDBRANCH   1  23
TORSDOF 8
ENDMDL
MODEL 2
REMARK VINA RESULT: -6.987448540      1.260      1.661
REMARK  8 active torsions:
REMARK  status: ('A' for Active; 'I' for Inactive)
REMARK    1  A    between atoms: C2_2  and  N1_3 
REMARK       I    between atoms: N1_3  and  C3_5 
REMARK       I    between atoms: C3_5  and  N2_6 
REMARK    2  A    between atoms: N2_6  and  N3_8 
REMARK    3  A    between atoms: N4_11  and  C4_13 
REMARK    4  A    between atoms: N5_15  and  O1_16 
REMARK    5  A    between atoms: C8_20  and  C9_21 
REMARK    6  A    between atoms: C12_25  and  S1_26 
REMARK    7  A    between atoms: C14_28  and  O2_29 
REMARK    8  A    between atoms: C15_31  and  O3_32 
ROOT
HETATM    1  C4  UNL     1       0.047 -26.713 -24.491  1.00  0.00     0.109 A 
HETATM    2  C5  UNL     1       1.365 -26.493 -24.806  1.00  0.00     0.160 A 
HETATM    3  N5  UNL     1       2.234 -27.375 -25.248  1.00  0.00    -0.236 N 
HETATM    4  C6  UNL     1       2.050 -28.702 -25.503  1.00  0.00     0.053 A 
HETATM    5  C7  UNL     1       3.191 -29.408 -26.069  1.00  0.00     0.072 C 
HETATM    6  C8  UNL     1       0.878 -29.367 -25.327  1.00  0.00     0.038 A 
HETATM    7  S2  UNL     1      -0.433 -28.332 -24.729  1.00  0.00    -0.068 SA
ENDROOT
BRANCH   6   8
HETATM    8  C9  UNL     1       0.551 -30.799 -25.445  1.00  0.00    -0.011 C 
HETATM    9  C10 UNL     1      -0.479 -31.012 -26.549  1.00  0.00     0.116 C 
HETATM   10 CL1  UNL     1      -0.110 -29.920 -27.946  1.00  0.00    -0.120 Cl
HETATM   11  C11 UNL     1      -0.626 -32.425 -27.030  1.00  0.00     0.042 C 
HETATM   12  C12 UNL     1      -0.584 -33.270 -25.745  1.00  0.00     0.080 C 
HETATM   13  C14 UNL     1       0.869 -33.274 -25.418  1.00  0.00     0.165 C 
HETATM   14  C15 UNL     1       1.350 -31.888 -24.963  1.00  0.00     0.180 C 
BRANCH  12  15
HETATM   15  S1  UNL     1      -1.264 -34.905 -26.004  1.00  0.00    -0.166 SA
HETATM   16  C13 UNL     1      -1.064 -35.927 -24.492  1.00  0.00     0.090 C 
ENDBRANCH  12  15
BRANCH  13  17
HETATM   17  O2  UNL     1       1.577 -33.633 -26.582  1.00  0.00    -0.392 OA
ATOM     18  H2  UNL     1       0.977 -33.587 -27.317  1.00  0.00     0.210 HD
ENDBRANCH  13  17
BRANCH  14  19
HETATM   19  O3  UNL     1       1.286 -32.082 -23.525  1.00  0.00    -0.388 OA
ATOM     20  H3  UNL     1       1.760 -32.844 -23.214  1.00  0.00     0.210 HD
ENDBRANCH  14  19
ENDBRANCH   6   8
BRANCH   3  21
HETATM   21  O1  UNL     1       3.518 -26.845 -25.478  1.00  0.00    -0.283 OA
ATOM     22  H1  UNL     1       4.214 -27.320 -25.038  1.00  0.00     0.245 HD
ENDBRANCH   3  21
BRANCH   1  23
HETATM   23  N4  UNL     1      -0.752 -25.853 -24.048  1.00  0.00    -0.183 N 
HETATM   24  C3  UNL     1      -0.747 -24.681 -23.383  1.00  0.00     0.693 C 
HETATM   25  N1  UNL     1       0.264 -23.692 -23.384  1.00  0.00    -0.225 N 
HETATM   26  N2  UNL     1      -1.796 -24.383 -22.628  1.00  0.00    -0.139 N 
ATOM     27  H1  UNL     1       0.512 -23.229 -24.258  1.00  0.00     0.177 HD
ATOM     28  H2  UNL     1      -1.828 -23.505 -22.110  1.00  0.00     0.205 HD
ATOM     29  H4  UNL     1      -1.711 -26.130 -24.258  1.00  0.00     0.185 HD
BRANCH  25  30
HETATM   30  C2  UNL     1       0.954 -23.326 -22.157  1.00  0.00     0.134 C 
HETATM   31  C1  UNL     1       2.342 -22.829 -22.416  1.00  0.00     0.027 C 
ENDBRANCH  25  30
BRANCH  26  32
HETATM   32  N3  UNL     1      -2.858 -25.289 -22.553  1.00  0.00    -0.331 N 
ATOM     33  H32 UNL     1      -2.943 -26.023 -23.256  1.00  0.00     0.177 HD
ATOM     34  H31 UNL     1      -3.532 -25.200 -21.792  1.00  0.00     0.177 HD
ENDBRANCH  26  32
ENDBRANCH   1  23
TORSDOF 8
ENDMDL
MODEL 3
REMARK VINA RESULT: -6.869191043      3.775      7.569
REMARK  8 active torsions:
REMARK  status: ('A' for Active; 'I' for Inactive)
REMARK    1  A    between atoms: C2_2  and  N1_3 
REMARK       I    between atoms: N1_3  and  C3_5 
REMARK       I    between atoms: C3_5  and  N2_6 
REMARK    2  A    between atoms: N2_6  and  N3_8 
REMARK    3  A    between atoms: N4_11  and  C4_13 
REMARK    4  A    between atoms: N5_15  and  O1_16 
REMARK    5  A    between atoms: C8_20  and  C9_21 
REMARK    6  A    between atoms: C12_25  and  S1_26 
REMARK    7  A    between atoms: C14_28  and  O2_29 
REMARK    8  A    between atoms: C15_31  and  O3_32 
ROOT
HETATM    1  C4  UNL     1       0.590 -31.269 -26.704  1.00  0.00     0.109 A 
HETATM    2  C5  UNL     1       1.936 -31.029 -26.830  1.00  0.00     0.160 A 
HETATM    3  N5  UNL     1       2.608 -30.005 -26.351  1.00  0.00    -0.236 N 
HETATM    4  C6  UNL     1       2.149 -28.947 -25.623  1.00  0.00     0.053 A 
HETATM    5  C7  UNL     1       3.158 -28.004 -25.161  1.00  0.00     0.072 C 
HETATM    6  C8  UNL     1       0.853 -28.765 -25.257  1.00  0.00     0.038 A 
HETATM    7  S2  UNL     1      -0.222 -30.062 -25.816  1.00  0.00    -0.068 SA
ENDROOT
BRANCH   6   8
HETATM    8  C9  UNL     1       0.188 -27.639 -24.580  1.00  0.00    -0.011 C 
HETATM    9  C10 UNL     1       0.091 -26.443 -25.521  1.00  0.00     0.116 C 
HETATM   10 CL1  UNL     1      -0.298 -27.016 -27.196  1.00  0.00    -0.120 Cl
HETATM   11  C11 UNL     1      -0.877 -25.375 -25.110  1.00  0.00     0.042 C 
HETATM   12  C12 UNL     1      -0.665 -25.233 -23.593  1.00  0.00     0.080 C 
HETATM   13  C14 UNL     1      -1.380 -26.427 -23.063  1.00  0.00     0.165 C 
HETATM   14  C15 UNL     1      -0.648 -27.730 -23.418  1.00  0.00     0.180 C 
BRANCH  12  15
HETATM   15  S1  UNL     1      -1.307 -23.681 -22.975  1.00  0.00    -0.166 SA
HETATM   16  C13 UNL     1      -0.168 -22.974 -21.720  1.00  0.00     0.090 C 
ENDBRANCH  12  15
BRANCH  13  17
HETATM   17  O2  UNL     1      -2.662 -26.462 -23.647  1.00  0.00    -0.392 OA
ATOM     18  H2  UNL     1      -3.049 -27.308 -23.457  1.00  0.00     0.210 HD
ENDBRANCH  13  17
BRANCH  14  19
HETATM   19  O3  UNL     1       0.079 -27.931 -22.177  1.00  0.00    -0.388 OA
ATOM     20  H3  UNL     1      -0.409 -27.693 -21.397  1.00  0.00     0.210 HD
ENDBRANCH  14  19
ENDBRANCH   6   8
BRANCH   3  21
HETATM   21  O1  UNL     1       3.983 -30.035 -26.652  1.00  0.00    -0.283 OA
ATOM     22  H1  UNL     1       4.373 -29.175 -26.753  1.00  0.00     0.245 HD
ENDBRANCH   3  21
BRANCH   1  23
HETATM   23  N4  UNL     1      -0.027 -32.246 -27.193  1.00  0.00    -0.183 N 
HETATM   24  C3  UNL     1      -0.579 -33.416 -26.816  1.00  0.00     0.693 C 
HETATM   25  N1  UNL     1      -1.127 -33.745 -25.554  1.00  0.00    -0.225 N 
HETATM   26  N2  UNL     1      -0.633 -34.400 -27.703  1.00  0.00    -0.139 N 
ATOM     27  H1  UNL     1      -1.930 -33.222 -25.204  1.00  0.00     0.177 HD
ATOM     28  H2  UNL     1      -1.043 -35.300 -27.453  1.00  0.00     0.205 HD
ATOM     29  H4  UNL     1      -0.150 -32.111 -28.197  1.00  0.00     0.185 HD
BRANCH  25  30
HETATM   30  C2  UNL     1      -0.564 -34.817 -24.749  1.00  0.00     0.134 C 
HETATM   31  C1  UNL     1      -0.174 -34.352 -23.381  1.00  0.00     0.027 C 
ENDBRANCH  25  30
BRANCH  26  32
HETATM   32  N3  UNL     1      -0.120 -34.187 -28.986  1.00  0.00    -0.331 N 
ATOM     33  H32 UNL     1       0.404 -33.335 -29.182  1.00  0.00     0.177 HD
ATOM     34  H31 UNL     1      -0.278 -34.892 -29.706  1.00  0.00     0.177 HD
ENDBRANCH  26  32
ENDBRANCH   1  23
TORSDOF 8
ENDMDL
MODEL 4
REMARK VINA RESULT: -6.711007522      3.825      7.283
REMARK  8 active torsions:
REMARK  status: ('A' for Active; 'I' for Inactive)
REMARK    1  A    between atoms: C2_2  and  N1_3 
REMARK       I    between atoms: N1_3  and  C3_5 
REMARK       I    between atoms: C3_5  and  N2_6 
REMARK    2  A    between atoms: N2_6  and  N3_8 
REMARK    3  A    between atoms: N4_11  and  C4_13 
REMARK    4  A    between atoms: N5_15  and  O1_16 
REMARK    5  A    between atoms: C8_20  and  C9_21 
REMARK    6  A    between atoms: C12_25  and  S1_26 
REMARK    7  A    between atoms: C14_28  and  O2_29 
REMARK    8  A    between atoms: C15_31  and  O3_32 
ROOT
HETATM    1  C4  UNL     1       0.976 -31.911 -25.837  1.00  0.00     0.109 A 
HETATM    2  C5  UNL     1       2.252 -31.539 -26.180  1.00  0.00     0.160 A 
HETATM    3  N5  UNL     1       2.804 -30.357 -26.020  1.00  0.00    -0.236 N 
HETATM    4  C6  UNL     1       2.263 -29.227 -25.482  1.00  0.00     0.053 A 
HETATM    5  C7  UNL     1       3.158 -28.083 -25.364  1.00  0.00     0.072 C 
HETATM    6  C8  UNL     1       0.996 -29.130 -25.003  1.00  0.00     0.038 A 
HETATM    7  S2  UNL     1       0.080 -30.644 -25.132  1.00  0.00    -0.068 SA
ENDROOT
BRANCH   6   8
HETATM    8  C9  UNL     1       0.235 -27.971 -24.504  1.00  0.00    -0.011 C 
HETATM    9  C10 UNL     1       0.079 -26.930 -25.607  1.00  0.00     0.116 C 
HETATM   10 CL1  UNL     1      -0.226 -27.760 -27.189  1.00  0.00    -0.120 Cl
HETATM   11  C11 UNL     1      -0.972 -25.888 -25.366  1.00  0.00     0.042 C 
HETATM   12  C12 UNL     1      -0.809 -25.520 -23.881  1.00  0.00     0.080 C 
HETATM   13  C14 UNL     1      -1.452 -26.676 -23.198  1.00  0.00     0.165 C 
HETATM   14  C15 UNL     1      -0.622 -27.959 -23.353  1.00  0.00     0.180 C 
BRANCH  12  15
HETATM   15  S1  UNL     1      -1.574 -23.947 -23.500  1.00  0.00    -0.166 SA
HETATM   16  C13 UNL     1      -0.917 -23.284 -21.919  1.00  0.00     0.090 C 
ENDBRANCH  12  15
BRANCH  13  17
HETATM   17  O2  UNL     1      -2.713 -26.886 -23.791  1.00  0.00    -0.392 OA
ATOM     18  H2  UNL     1      -3.377 -26.756 -23.125  1.00  0.00     0.210 HD
ENDBRANCH  13  17
BRANCH  14  19
HETATM   19  O3  UNL     1       0.085 -27.929 -22.085  1.00  0.00    -0.388 OA
ATOM     20  H3  UNL     1      -0.459 -27.700 -21.341  1.00  0.00     0.210 HD
ENDBRANCH  14  19
ENDBRANCH   6   8
BRANCH   3  21
HETATM   21  O1  UNL     1       4.133 -30.281 -26.478  1.00  0.00    -0.283 OA
ATOM     22  H1  UNL     1       4.764 -30.080 -25.797  1.00  0.00     0.245 HD
ENDBRANCH   3  21
BRANCH   1  23
HETATM   23  N4  UNL     1       0.470 -33.044 -26.025  1.00  0.00    -0.183 N 
HETATM   24  C3  UNL     1      -0.147 -33.755 -26.989  1.00  0.00     0.693 C 
HETATM   25  N1  UNL     1       0.014 -33.632 -28.390  1.00  0.00    -0.225 N 
HETATM   26  N2  UNL     1      -1.014 -34.690 -26.624  1.00  0.00    -0.139 N 
ATOM     27  H1  UNL     1       0.928 -33.806 -28.807  1.00  0.00     0.177 HD
ATOM     28  H2  UNL     1      -1.499 -35.248 -27.325  1.00  0.00     0.205 HD
ATOM     29  H4  UNL     1       0.551 -33.605 -25.177  1.00  0.00     0.185 HD
BRANCH  25  30
HETATM   30  C2  UNL     1      -1.104 -33.261 -29.242  1.00  0.00     0.134 C 
HETATM   31  C1  UNL     1      -1.707 -31.951 -28.845  1.00  0.00     0.027 C 
ENDBRANCH  25  30
BRANCH  26  32
HETATM   32  N3  UNL     1      -1.251 -34.900 -25.262  1.00  0.00    -0.331 N 
ATOM     33  H32 UNL     1      -2.192 -35.134 -24.947  1.00  0.00     0.177 HD
ATOM     34  H31 UNL     1      -0.475 -34.816 -24.605  1.00  0.00     0.177 HD
ENDBRANCH  26  32
ENDBRANCH   1  23
TORSDOF 8
ENDMDL
MODEL 5
REMARK VINA RESULT: -6.412437819      5.377      7.416
REMARK  8 active torsions:
REMARK  status: ('A' for Active; 'I' for Inactive)
REMARK    1  A    between atoms: C2_2  and  N1_3 
REMARK       I    between atoms: N1_3  and  C3_5 
REMARK       I    between atoms: C3_5  and  N2_6 
REMARK    2  A    between atoms: N2_6  and  N3_8 
REMARK    3  A    between atoms: N4_11  and  C4_13 
REMARK    4  A    between atoms: N5_15  and  O1_16 
REMARK    5  A    between atoms: C8_20  and  C9_21 
REMARK    6  A    between atoms: C12_25  and  S1_26 
REMARK    7  A    between atoms: C14_28  and  O2_29 
REMARK    8  A    between atoms: C15_31  and  O3_32 
ROOT
HETATM    1  C4  UNL     1       0.865 -32.967 -25.547  1.00  0.00     0.109 A 
HETATM    2  C5  UNL     1       2.127 -32.426 -25.565  1.00  0.00     0.160 A 
HETATM    3  N5  UNL     1       2.771 -31.948 -26.607  1.00  0.00    -0.236 N 
HETATM    4  C6  UNL     1       2.357 -31.869 -27.904  1.00  0.00     0.053 A 
HETATM    5  C7  UNL     1       3.270 -31.207 -28.826  1.00  0.00     0.072 C 
HETATM    6  C8  UNL     1       1.151 -32.297 -28.358  1.00  0.00     0.038 A 
HETATM    7  S2  UNL     1       0.124 -32.980 -27.082  1.00  0.00    -0.068 SA
ENDROOT
BRANCH   6   8
HETATM    8  C9  UNL     1       0.606 -32.385 -29.724  1.00  0.00    -0.011 C 
HETATM    9  C10 UNL     1      -0.658 -31.539 -29.841  1.00  0.00     0.116 C 
HETATM   10 CL1  UNL     1      -0.447 -29.998 -28.911  1.00  0.00    -0.120 Cl
HETATM   11  C11 UNL     1      -1.103 -31.234 -31.240  1.00  0.00     0.042 C 
HETATM   12  C12 UNL     1      -0.906 -32.558 -31.998  1.00  0.00     0.080 C 
HETATM   13  C14 UNL     1       0.568 -32.582 -32.211  1.00  0.00     0.165 C 
HETATM   14  C15 UNL     1       1.327 -32.796 -30.893  1.00  0.00     0.180 C 
BRANCH  12  15
HETATM   15  S1  UNL     1      -1.850 -32.599 -33.518  1.00  0.00    -0.166 SA
HETATM   16  C13 UNL     1      -3.523 -33.291 -33.212  1.00  0.00     0.090 C 
ENDBRANCH  12  15
BRANCH  13  17
HETATM   17  O2  UNL     1       0.950 -31.338 -32.751  1.00  0.00    -0.392 OA
ATOM     18  H2  UNL     1       1.478 -30.886 -32.103  1.00  0.00     0.210 HD
ENDBRANCH  13  17
BRANCH  14  19
HETATM   19  O3  UNL     1       1.547 -34.228 -30.984  1.00  0.00    -0.388 OA
ATOM     20  H3  UNL     1       1.633 -34.553 -31.872  1.00  0.00     0.210 HD
ENDBRANCH  14  19
ENDBRANCH   6   8
BRANCH   3  21
HETATM   21  O1  UNL     1       4.058 -31.465 -26.309  1.00  0.00    -0.283 OA
ATOM     22  H1  UNL     1       4.754 -32.089 -26.481  1.00  0.00     0.245 HD
ENDBRANCH   3  21
BRANCH   1  23
HETATM   23  N4  UNL     1       0.286 -33.437 -24.538  1.00  0.00    -0.183 N 
HETATM   24  C3  UNL     1      -0.455 -34.502 -24.171  1.00  0.00     0.693 C 
HETATM   25  N1  UNL     1      -0.420 -35.807 -24.717  1.00  0.00    -0.225 N 
HETATM   26  N2  UNL     1      -1.330 -34.349 -23.187  1.00  0.00    -0.139 N 
ATOM     27  H1  UNL     1       0.440 -36.351 -24.662  1.00  0.00     0.177 HD
ATOM     28  H2  UNL     1      -1.908 -35.133 -22.882  1.00  0.00     0.205 HD
ATOM     29  H4  UNL     1       0.417 -32.814 -23.741  1.00  0.00     0.185 HD
BRANCH  25  30
HETATM   30  C2  UNL     1      -1.593 -36.382 -25.355  1.00  0.00     0.134 C 
HETATM   31  C1  UNL     1      -1.433 -37.847 -25.616  1.00  0.00     0.027 C 
ENDBRANCH  25  30
BRANCH  26  32
HETATM   32  N3  UNL     1      -1.449 -33.100 -22.572  1.00  0.00    -0.331 N 
ATOM     33  H32 UNL     1      -2.057 -32.996 -21.759  1.00  0.00     0.177 HD
ATOM     34  H31 UNL     1      -0.924 -32.310 -22.948  1.00  0.00     0.177 HD
ENDBRANCH  26  32
ENDBRANCH   1  23
TORSDOF 8
ENDMDL
