MODEL 1
REMARK VINA RESULT: -6.477654396      0.000      0.000
REMARK  7 active torsions:
REMARK  status: ('A' for Active; 'I' for Inactive)
REMARK    1  A    between atoms: N1_2  and  C2_4 
REMARK    2  A    between atoms: C7_13  and  N4_14 
REMARK    3  A    between atoms: N5_17  and  C9_18 
REMARK    4  A    between atoms: C11_20  and  N6_21 
REMARK    5  A    between atoms: C12_23  and  C13_24 
REMARK    6  A    between atoms: C14_26  and  O1_27 
REMARK    7  A    between atoms: C15_29  and  O2_30 
ROOT
HETATM    1  C2  UNL     1       1.101 -33.031 -25.194  1.00  0.00     0.131 A 
HETATM    2  N2  UNL     1       0.388 -33.527 -24.150  1.00  0.00    -0.345 N 
ATOM      3  H2  UNL     1       0.686 -33.343 -23.192  1.00  0.00     0.167 HD
HETATM    4  C3  UNL     1      -0.704 -34.258 -24.385  1.00  0.00     0.009 A 
HETATM    5  C4  UNL     1      -1.506 -34.818 -23.236  1.00  0.00     0.068 C 
HETATM    6  C5  UNL     1      -1.121 -34.516 -25.666  1.00  0.00     0.057 A 
HETATM    7  C6  UNL     1      -0.417 -34.023 -26.739  1.00  0.00     0.082 A 
HETATM    8  N3  UNL     1      -0.589 -34.116 -28.076  1.00  0.00    -0.189 N 
ATOM      9  H3  UNL     1      -1.337 -34.611 -28.563  1.00  0.00     0.184 HD
HETATM   10  C7  UNL     1       0.414 -33.431 -28.636  1.00  0.00     0.681 A 
HETATM   11  N5  UNL     1       1.239 -32.892 -27.722  1.00  0.00    -0.170 N 
HETATM   12  C16 UNL     1       0.728 -33.257 -26.507  1.00  0.00     0.123 A 
ENDROOT
BRANCH  11  13
HETATM   13  C9  UNL     1       2.381 -32.118 -27.937  1.00  0.00     0.142 C 
HETATM   14  C10 UNL     1       2.310 -31.048 -29.009  1.00  0.00     0.056 C 
HETATM   15  C11 UNL     1       3.762 -30.514 -28.906  1.00  0.00     0.114 C 
HETATM   16  C14 UNL     1       4.595 -31.680 -28.461  1.00  0.00     0.171 C 
HETATM   17  C15 UNL     1       3.616 -32.854 -28.457  1.00  0.00     0.172 C 
BRANCH  15  18
HETATM   18  N6  UNL     1       3.801 -29.423 -27.998  1.00  0.00    -0.394 N 
HETATM   19  C12 UNL     1       3.115 -28.355 -28.145  1.00  0.00     0.067 C 
ATOM     20  H6  UNL     1       4.411 -29.495 -27.184  1.00  0.00     0.159 HD
BRANCH  19  21
HETATM   21  C13 UNL     1       3.175 -27.232 -27.183  1.00  0.00     0.129 C 
HETATM   22 BR1  UNL     1       4.257 -27.755 -25.642  1.00  0.00    -0.091 Br
ENDBRANCH  19  21
ENDBRANCH  15  18
BRANCH  16  23
HETATM   23  O1  UNL     1       5.097 -31.529 -27.179  1.00  0.00    -0.391 OA
ATOM     24  H1  UNL     1       5.718 -32.208 -26.940  1.00  0.00     0.210 HD
ENDBRANCH  16  23
BRANCH  17  25
HETATM   25  O2  UNL     1       3.463 -33.205 -29.792  1.00  0.00    -0.391 OA
ATOM     26  H2  UNL     1       3.836 -34.061 -29.966  1.00  0.00     0.210 HD
ENDBRANCH  17  25
ENDBRANCH  11  13
BRANCH  10  27
HETATM   27  N4  UNL     1       0.540 -33.322 -29.911  1.00  0.00    -0.230 N 
HETATM   28  C8  UNL     1      -0.556 -32.855 -30.724  1.00  0.00     0.165 C 
ATOM     29  H4  UNL     1       1.425 -33.570 -30.353  1.00  0.00     0.177 HD
ENDBRANCH  10  27
BRANCH   1  30
HETATM   30  N1  UNL     1       2.159 -32.322 -24.977  1.00  0.00    -0.379 N 
HETATM   31  C1  UNL     1       2.010 -30.921 -24.709  1.00  0.00     0.147 C 
ATOM     32  H1  UNL     1       3.083 -32.751 -24.996  1.00  0.00     0.160 HD
ENDBRANCH   1  30
TORSDOF 7
ENDMDL
MODEL 2
REMARK VINA RESULT: -6.289006946      2.645      4.165
REMARK  7 active torsions:
REMARK  status: ('A' for Active; 'I' for Inactive)
REMARK    1  A    between atoms: N1_2  and  C2_4 
REMARK    2  A    between atoms: C7_13  and  N4_14 
REMARK    3  A    between atoms: N5_17  and  C9_18 
REMARK    4  A    between atoms: C11_20  and  N6_21 
REMARK    5  A    between atoms: C12_23  and  C13_24 
REMARK    6  A    between atoms: C14_26  and  O1_27 
REMARK    7  A    between atoms: C15_29  and  O2_30 
ROOT
HETATM    1  C2  UNL     1      -0.129 -33.767 -27.098  1.00  0.00     0.131 A 
HETATM    2  N2  UNL     1      -0.571 -35.022 -26.825  1.00  0.00    -0.345 N 
ATOM      3  H2  UNL     1      -0.564 -35.737 -27.551  1.00  0.00     0.167 HD
HETATM    4  C3  UNL     1      -1.015 -35.312 -25.600  1.00  0.00     0.009 A 
HETATM    5  C4  UNL     1      -1.509 -36.701 -25.280  1.00  0.00     0.068 C 
HETATM    6  C5  UNL     1      -1.031 -34.364 -24.609  1.00  0.00     0.057 A 
HETATM    7  C6  UNL     1      -0.588 -33.087 -24.861  1.00  0.00     0.082 A 
HETATM    8  N3  UNL     1      -0.492 -31.976 -24.097  1.00  0.00    -0.189 N 
ATOM      9  H3  UNL     1      -0.754 -31.886 -23.115  1.00  0.00     0.184 HD
HETATM   10  C7  UNL     1       0.016 -31.019 -24.882  1.00  0.00     0.681 A 
HETATM   11  N5  UNL     1       0.256 -31.455 -26.130  1.00  0.00    -0.170 N 
HETATM   12  C16 UNL     1      -0.121 -32.769 -26.139  1.00  0.00     0.123 A 
ENDROOT
BRANCH  11  13
HETATM   13  C9  UNL     1       0.782 -30.741 -27.210  1.00  0.00     0.142 C 
HETATM   14  C10 UNL     1       1.814 -29.673 -26.907  1.00  0.00     0.056 C 
HETATM   15  C11 UNL     1       2.051 -29.158 -28.350  1.00  0.00     0.114 C 
HETATM   16  C14 UNL     1       0.756 -29.369 -29.077  1.00  0.00     0.171 C 
HETATM   17  C15 UNL     1      -0.199 -29.868 -27.992  1.00  0.00     0.172 C 
BRANCH  15  18
HETATM   18  N6  UNL     1       3.138 -29.863 -28.932  1.00  0.00    -0.394 N 
HETATM   19  C12 UNL     1       4.119 -30.330 -28.260  1.00  0.00     0.067 C 
ATOM     20  H6  UNL     1       3.134 -30.006 -29.941  1.00  0.00     0.159 HD
BRANCH  19  21
HETATM   21  C13 UNL     1       5.239 -31.062 -28.893  1.00  0.00     0.129 C 
HETATM   22 BR1  UNL     1       4.528 -32.350 -30.177  1.00  0.00    -0.091 Br
ENDBRANCH  19  21
ENDBRANCH  15  18
BRANCH  16  23
HETATM   23  O1  UNL     1       0.839 -30.339 -30.062  1.00  0.00    -0.391 OA
ATOM     24  H1  UNL     1       0.042 -30.421 -30.572  1.00  0.00     0.210 HD
ENDBRANCH  16  23
BRANCH  17  25
HETATM   25  O2  UNL     1      -0.550 -28.736 -27.266  1.00  0.00    -0.391 OA
ATOM     26  H2  UNL     1      -1.147 -28.954 -26.561  1.00  0.00     0.210 HD
ENDBRANCH  17  25
ENDBRANCH  11  13
BRANCH  10  27
HETATM   27  N4  UNL     1       0.235 -29.828 -24.452  1.00  0.00    -0.230 N 
HETATM   28  C8  UNL     1      -0.844 -29.012 -23.952  1.00  0.00     0.165 C 
ATOM     29  H4  UNL     1       1.184 -29.454 -24.465  1.00  0.00     0.177 HD
ENDBRANCH  10  27
BRANCH   1  30
HETATM   30  N1  UNL     1       0.304 -33.476 -28.280  1.00  0.00    -0.379 N 
HETATM   31  C1  UNL     1      -0.630 -33.433 -29.367  1.00  0.00     0.147 C 
ATOM     32  H1  UNL     1       1.292 -33.279 -28.437  1.00  0.00     0.160 HD
ENDBRANCH   1  30
TORSDOF 7
ENDMDL
MODEL 3
REMARK VINA RESULT: -6.204188015      2.443      3.996
REMARK  7 active torsions:
REMARK  status: ('A' for Active; 'I' for Inactive)
REMARK    1  A    between atoms: N1_2  and  C2_4 
REMARK    2  A    between atoms: C7_13  and  N4_14 
REMARK    3  A    between atoms: N5_17  and  C9_18 
REMARK    4  A    between atoms: C11_20  and  N6_21 
REMARK    5  A    between atoms: C12_23  and  C13_24 
REMARK    6  A    between atoms: C14_26  and  O1_27 
REMARK    7  A    between atoms: C15_29  and  O2_30 
ROOT
HETATM    1  C2  UNL     1       0.138 -33.458 -27.168  1.00  0.00     0.131 A 
HETATM    2  N2  UNL     1      -0.347 -34.713 -26.986  1.00  0.00    -0.345 N 
ATOM      3  H2  UNL     1      -0.263 -35.408 -27.728  1.00  0.00     0.167 HD
HETATM    4  C3  UNL     1      -0.936 -35.031 -25.831  1.00  0.00     0.009 A 
HETATM    5  C4  UNL     1      -1.481 -36.422 -25.613  1.00  0.00     0.068 C 
HETATM    6  C5  UNL     1      -1.058 -34.112 -24.821  1.00  0.00     0.057 A 
HETATM    7  C6  UNL     1      -0.573 -32.835 -24.981  1.00  0.00     0.082 A 
HETATM    8  N3  UNL     1      -0.554 -31.748 -24.178  1.00  0.00    -0.189 N 
ATOM      9  H3  UNL     1      -0.929 -31.682 -23.231  1.00  0.00     0.184 HD
HETATM   10  C7  UNL     1       0.053 -30.776 -24.869  1.00  0.00     0.681 A 
HETATM   11  N5  UNL     1       0.434 -31.180 -26.093  1.00  0.00    -0.170 N 
HETATM   12  C16 UNL     1       0.045 -32.488 -26.185  1.00  0.00     0.123 A 
ENDROOT
BRANCH  11  13
HETATM   13  C9  UNL     1       1.091 -30.444 -27.081  1.00  0.00     0.142 C 
HETATM   14  C10 UNL     1       2.042 -29.354 -26.627  1.00  0.00     0.056 C 
HETATM   15  C11 UNL     1       2.470 -28.820 -28.018  1.00  0.00     0.114 C 
HETATM   16  C14 UNL     1       1.299 -29.055 -28.925  1.00  0.00     0.171 C 
HETATM   17  C15 UNL     1       0.210 -29.588 -27.992  1.00  0.00     0.172 C 
BRANCH  15  18
HETATM   18  N6  UNL     1       3.647 -29.494 -28.442  1.00  0.00    -0.394 N 
HETATM   19  C12 UNL     1       4.673 -29.659 -27.700  1.00  0.00     0.067 C 
ATOM     20  H6  UNL     1       3.673 -29.867 -29.390  1.00  0.00     0.159 HD
BRANCH  19  21
HETATM   21  C13 UNL     1       5.887 -30.366 -28.167  1.00  0.00     0.129 C 
HETATM   22 BR1  UNL     1       7.425 -29.170 -28.033  1.00  0.00    -0.091 Br
ENDBRANCH  19  21
ENDBRANCH  15  18
BRANCH  16  23
HETATM   23  O1  UNL     1       1.546 -30.014 -29.893  1.00  0.00    -0.391 OA
ATOM     24  H1  UNL     1       0.800 -30.173 -30.459  1.00  0.00     0.210 HD
ENDBRANCH  16  23
BRANCH  17  25
HETATM   25  O2  UNL     1      -0.269 -28.471 -27.317  1.00  0.00    -0.391 OA
ATOM     26  H2  UNL     1      -1.199 -28.352 -27.472  1.00  0.00     0.210 HD
ENDBRANCH  17  25
ENDBRANCH  11  13
BRANCH  10  27
HETATM   27  N4  UNL     1       0.234 -29.601 -24.381  1.00  0.00    -0.230 N 
HETATM   28  C8  UNL     1      -0.880 -28.820 -23.902  1.00  0.00     0.165 C 
ATOM     29  H4  UNL     1       1.178 -29.217 -24.331  1.00  0.00     0.177 HD
ENDBRANCH  10  27
BRANCH   1  30
HETATM   30  N1  UNL     1       0.710 -33.140 -28.282  1.00  0.00    -0.379 N 
HETATM   31  C1  UNL     1      -0.059 -33.185 -29.492  1.00  0.00     0.147 C 
ATOM     32  H1  UNL     1       1.690 -32.860 -28.301  1.00  0.00     0.160 HD
ENDBRANCH   1  30
TORSDOF 7
ENDMDL
MODEL 4
REMARK VINA RESULT: -6.170059869      3.393      6.060
REMARK  7 active torsions:
REMARK  status: ('A' for Active; 'I' for Inactive)
REMARK    1  A    between atoms: N1_2  and  C2_4 
REMARK    2  A    between atoms: C7_13  and  N4_14 
REMARK    3  A    between atoms: N5_17  and  C9_18 
REMARK    4  A    between atoms: C11_20  and  N6_21 
REMARK    5  A    between atoms: C12_23  and  C13_24 
REMARK    6  A    between atoms: C14_26  and  O1_27 
REMARK    7  A    between atoms: C15_29  and  O2_30 
ROOT
HETATM    1  C2  UNL     1       2.965 -32.740 -28.835  1.00  0.00     0.131 A 
HETATM    2  N2  UNL     1       3.927 -32.893 -29.782  1.00  0.00    -0.345 N 
ATOM      3  H2  UNL     1       4.836 -33.280 -29.531  1.00  0.00     0.167 HD
HETATM    4  C3  UNL     1       3.674 -32.534 -31.042  1.00  0.00     0.009 A 
HETATM    5  C4  UNL     1       4.732 -32.697 -32.106  1.00  0.00     0.068 C 
HETATM    6  C5  UNL     1       2.457 -32.013 -31.400  1.00  0.00     0.057 A 
HETATM    7  C6  UNL     1       1.467 -31.850 -30.460  1.00  0.00     0.082 A 
HETATM    8  N3  UNL     1       0.204 -31.374 -30.523  1.00  0.00    -0.189 N 
ATOM      9  H3  UNL     1      -0.275 -31.023 -31.353  1.00  0.00     0.184 HD
HETATM   10  C7  UNL     1      -0.295 -31.454 -29.284  1.00  0.00     0.681 A 
HETATM   11  N5  UNL     1       0.589 -31.962 -28.409  1.00  0.00    -0.170 N 
HETATM   12  C16 UNL     1       1.718 -32.221 -29.136  1.00  0.00     0.123 A 
ENDROOT
BRANCH  11  13
HETATM   13  C9  UNL     1       0.419 -32.191 -27.042  1.00  0.00     0.142 C 
HETATM   14  C10 UNL     1      -0.962 -32.598 -26.566  1.00  0.00     0.056 C 
HETATM   15  C11 UNL     1      -0.670 -32.690 -25.047  1.00  0.00     0.114 C 
HETATM   16  C14 UNL     1       0.420 -31.694 -24.778  1.00  0.00     0.171 C 
HETATM   17  C15 UNL     1       0.612 -30.987 -26.120  1.00  0.00     0.172 C 
BRANCH  15  18
HETATM   18  N6  UNL     1      -0.302 -34.021 -24.715  1.00  0.00    -0.394 N 
HETATM   19  C12 UNL     1      -1.143 -34.931 -24.404  1.00  0.00     0.067 C 
ATOM     20  H6  UNL     1       0.688 -34.264 -24.726  1.00  0.00     0.159 HD
BRANCH  19  21
HETATM   21  C13 UNL     1      -0.732 -36.311 -24.062  1.00  0.00     0.129 C 
HETATM   22 BR1  UNL     1      -1.294 -37.525 -25.485  1.00  0.00    -0.091 Br
ENDBRANCH  19  21
ENDBRANCH  15  18
BRANCH  16  23
HETATM   23  O1  UNL     1       1.621 -32.287 -24.425  1.00  0.00    -0.391 OA
ATOM     24  H1  UNL     1       1.714 -33.169 -24.763  1.00  0.00     0.210 HD
ENDBRANCH  16  23
BRANCH  17  25
HETATM   25  O2  UNL     1      -0.456 -30.104 -26.222  1.00  0.00    -0.391 OA
ATOM     26  H2  UNL     1      -0.283 -29.301 -25.744  1.00  0.00     0.210 HD
ENDBRANCH  17  25
ENDBRANCH  11  13
BRANCH  10  27
HETATM   27  N4  UNL     1      -1.491 -31.077 -29.003  1.00  0.00    -0.230 N 
HETATM   28  C8  UNL     1      -2.623 -31.624 -29.710  1.00  0.00     0.165 C 
ATOM     29  H4  UNL     1      -1.641 -30.382 -28.272  1.00  0.00     0.177 HD
ENDBRANCH  10  27
BRANCH   1  30
HETATM   30  N1  UNL     1       3.199 -33.085 -27.612  1.00  0.00    -0.379 N 
HETATM   31  C1  UNL     1       4.136 -32.318 -26.844  1.00  0.00     0.147 C 
ATOM     32  H1  UNL     1       2.726 -33.889 -27.200  1.00  0.00     0.160 HD
ENDBRANCH   1  30
TORSDOF 7
ENDMDL
MODEL 5
REMARK VINA RESULT: -6.112261780      3.208      6.589
REMARK  7 active torsions:
REMARK  status: ('A' for Active; 'I' for Inactive)
REMARK    1  A    between atoms: N1_2  and  C2_4 
REMARK    2  A    between atoms: C7_13  and  N4_14 
REMARK    3  A    between atoms: N5_17  and  C9_18 
REMARK    4  A    between atoms: C11_20  and  N6_21 
REMARK    5  A    between atoms: C12_23  and  C13_24 
REMARK    6  A    between atoms: C14_26  and  O1_27 
REMARK    7  A    between atoms: C15_29  and  O2_30 
ROOT
HETATM    1  C2  UNL     1       4.356 -30.800 -27.526  1.00  0.00     0.131 A 
HETATM    2  N2  UNL     1       5.561 -30.461 -28.052  1.00  0.00    -0.345 N 
ATOM      3  H2  UNL     1       6.080 -31.132 -28.617  1.00  0.00     0.167 HD
HETATM    4  C3  UNL     1       6.061 -29.245 -27.824  1.00  0.00     0.009 A 
HETATM    5  C4  UNL     1       7.399 -28.853 -28.402  1.00  0.00     0.068 C 
HETATM    6  C5  UNL     1       5.377 -28.328 -27.067  1.00  0.00     0.057 A 
HETATM    7  C6  UNL     1       4.155 -28.648 -26.525  1.00  0.00     0.082 A 
HETATM    8  N3  UNL     1       3.279 -27.963 -25.757  1.00  0.00    -0.189 N 
ATOM      9  H3  UNL     1       3.383 -27.006 -25.418  1.00  0.00     0.184 HD
HETATM   10  C7  UNL     1       2.249 -28.786 -25.529  1.00  0.00     0.681 A 
HETATM   11  N5  UNL     1       2.413 -29.984 -26.115  1.00  0.00    -0.170 N 
HETATM   12  C16 UNL     1       3.620 -29.918 -26.754  1.00  0.00     0.123 A 
ENDROOT
BRANCH  11  13
HETATM   13  C9  UNL     1       1.549 -31.082 -26.095  1.00  0.00     0.142 C 
HETATM   14  C10 UNL     1       0.073 -30.808 -25.890  1.00  0.00     0.056 C 
HETATM   15  C11 UNL     1      -0.442 -32.270 -25.900  1.00  0.00     0.114 C 
HETATM   16  C14 UNL     1       0.685 -33.104 -25.366  1.00  0.00     0.171 C 
HETATM   17  C15 UNL     1       1.739 -32.077 -24.951  1.00  0.00     0.172 C 
BRANCH  15  18
HETATM   18  N6  UNL     1      -0.822 -32.629 -27.221  1.00  0.00    -0.394 N 
HETATM   19  C12 UNL     1      -1.490 -31.866 -27.997  1.00  0.00     0.067 C 
ATOM     20  H6  UNL     1      -0.545 -33.546 -27.570  1.00  0.00     0.159 HD
BRANCH  19  21
HETATM   21  C13 UNL     1      -1.873 -32.264 -29.370  1.00  0.00     0.129 C 
HETATM   22 BR1  UNL     1      -3.498 -31.313 -29.892  1.00  0.00    -0.091 Br
ENDBRANCH  19  21
ENDBRANCH  15  18
BRANCH  16  23
HETATM   23  O1  UNL     1       1.243 -33.938 -26.320  1.00  0.00    -0.391 OA
ATOM     24  H1  UNL     1       0.768 -34.753 -26.426  1.00  0.00     0.210 HD
ENDBRANCH  16  23
BRANCH  17  25
HETATM   25  O2  UNL     1       1.282 -31.550 -23.749  1.00  0.00    -0.391 OA
ATOM     26  H2  UNL     1       1.063 -32.241 -23.135  1.00  0.00     0.210 HD
ENDBRANCH  17  25
ENDBRANCH  11  13
BRANCH  10  27
HETATM   27  N4  UNL     1       1.235 -28.432 -24.824  1.00  0.00    -0.230 N 
HETATM   28  C8  UNL     1       1.027 -27.050 -24.469  1.00  0.00     0.165 C 
ATOM     29  H4  UNL     1       0.568 -29.138 -24.511  1.00  0.00     0.177 HD
ENDBRANCH  10  27
BRANCH   1  30
HETATM   30  N1  UNL     1       3.863 -31.975 -27.741  1.00  0.00    -0.379 N 
HETATM   31  C1  UNL     1       3.738 -32.436 -29.092  1.00  0.00     0.147 C 
ATOM     32  H1  UNL     1       3.568 -32.564 -26.962  1.00  0.00     0.160 HD
ENDBRANCH   1  30
TORSDOF 7
ENDMDL
