MODEL 1
REMARK VINA RESULT: -7.413667273      0.000      0.000
REMARK  9 active torsions:
REMARK  status: ('A' for Active; 'I' for Inactive)
REMARK    1  A    between atoms: O1_1  and  C1_3 
REMARK    2  A    between atoms: C1_3  and  C2_4 
REMARK    3  A    between atoms: C2_4  and  N1_5 
REMARK    4  A    between atoms: N2_8  and  C5_9 
REMARK    5  A    between atoms: C5_9  and  C6_10 
REMARK    6  A    between atoms: C6_10  and  O2_11 
REMARK    7  A    between atoms: C6_10  and  C7_13 
REMARK    8  A    between atoms: C7_13  and  O3_14 
REMARK    9  A    between atoms: O3_14  and  C8_15 
ROOT
HETATM    1  C6  UNL     1     -11.094  25.815  52.345  1.00  0.00     0.160 C 
ENDROOT
BRANCH   1   2
HETATM    2  C5  UNL     1     -10.066  26.923  52.382  1.00  0.00     0.150 C 
BRANCH   2   3
HETATM    3  N2  UNL     1      -9.394  26.978  51.115  1.00  0.00    -0.407 N 
HETATM    4  C4  UNL     1      -9.255  25.721  50.456  1.00  0.00     0.136 C 
HETATM    5  C3  UNL     1      -7.804  25.375  50.153  1.00  0.00     0.137 C 
HETATM    6  N1  UNL     1      -7.256  26.404  49.345  1.00  0.00    -0.399 N 
HETATM    7  C18 UNL     1      -7.581  27.740  49.690  1.00  0.00     0.137 C 
HETATM    8  C17 UNL     1      -8.270  27.851  51.051  1.00  0.00     0.136 C 
BRANCH   6   9
HETATM    9  C2  UNL     1      -5.917  26.189  48.898  1.00  0.00     0.049 C 
HETATM   10  C19 UNL     1      -5.624  24.704  48.892  1.00  0.00     0.033 C 
HETATM   11  C20 UNL     1      -4.097  24.655  48.902  1.00  0.00     0.002 C 
HETATM   12  C21 UNL     1      -3.657  25.956  49.496  1.00  0.00     0.002 C 
HETATM   13  C22 UNL     1      -4.934  26.683  49.915  1.00  0.00     0.033 C 
BRANCH   9  14
HETATM   14  C1  UNL     1      -5.595  26.791  47.577  1.00  0.00     0.195 C 
BRANCH  14  15
HETATM   15  O1  UNL     1      -6.231  26.108  46.515  1.00  0.00    -0.398 OA
ATOM     16  H1  UNL     1      -6.662  25.315  46.809  1.00  0.00     0.209 HD
ENDBRANCH  14  15
ENDBRANCH   9  14
ENDBRANCH   6   9
ENDBRANCH   2   3
ENDBRANCH   1   2
BRANCH   1  17
HETATM   17  O2  UNL     1     -12.398  26.352  52.385  1.00  0.00    -0.392 OA
ATOM     18  H2  UNL     1     -12.885  26.096  51.612  1.00  0.00     0.210 HD
ENDBRANCH   1  17
BRANCH   1  19
HETATM   19  C7  UNL     1     -10.999  24.939  53.584  1.00  0.00     0.209 C 
BRANCH  19  20
HETATM   20  O3  UNL     1     -10.569  23.664  53.169  1.00  0.00    -0.346 OA
BRANCH  20  21
HETATM   21  C8  UNL     1     -11.338  22.534  53.232  1.00  0.00     0.098 A 
HETATM   22  C9  UNL     1     -11.201  21.675  54.300  1.00  0.00     0.046 A 
HETATM   23 BR1  UNL     1      -9.949  22.055  55.689  1.00  0.00    -0.048 Br
HETATM   24  C10 UNL     1     -11.956  20.513  54.413  1.00  0.00     0.043 A 
HETATM   25  C11 UNL     1     -12.873  20.217  53.416  1.00  0.00     0.040 A 
HETATM   26 BR2  UNL     1     -13.904  18.601  53.593  1.00  0.00    -0.049 Br
HETATM   27  C12 UNL     1     -13.028  21.052  52.346  1.00  0.00     0.062 A 
HETATM   28  N3  UNL     1     -13.933  20.713  51.410  1.00  0.00    -0.364 N 
HETATM   29  C16 UNL     1     -12.255  22.214  52.259  1.00  0.00     0.027 A 
HETATM   30  C13 UNL     1     -14.104  21.521  50.348  1.00  0.00     0.088 A 
ATOM     31  H3  UNL     1     -14.481  19.858  51.504  1.00  0.00     0.165 HD
HETATM   32  C14 UNL     1     -13.372  22.680  50.207  1.00  0.00     0.018 A 
HETATM   33  C15 UNL     1     -12.447  23.018  51.171  1.00  0.00     0.018 A 
ENDBRANCH  20  21
ENDBRANCH  19  20
ENDBRANCH   1  19
TORSDOF 9
ENDMDL
MODEL 2
REMARK VINA RESULT: -7.384128290      5.540      7.707
REMARK  9 active torsions:
REMARK  status: ('A' for Active; 'I' for Inactive)
REMARK    1  A    between atoms: O1_1  and  C1_3 
REMARK    2  A    between atoms: C1_3  and  C2_4 
REMARK    3  A    between atoms: C2_4  and  N1_5 
REMARK    4  A    between atoms: N2_8  and  C5_9 
REMARK    5  A    between atoms: C5_9  and  C6_10 
REMARK    6  A    between atoms: C6_10  and  O2_11 
REMARK    7  A    between atoms: C6_10  and  C7_13 
REMARK    8  A    between atoms: C7_13  and  O3_14 
REMARK    9  A    between atoms: O3_14  and  C8_15 
ROOT
HETATM    1  C6  UNL     1     -13.538  27.683  55.824  1.00  0.00     0.160 C 
ENDROOT
BRANCH   1   2
HETATM    2  C5  UNL     1     -12.054  27.442  55.661  1.00  0.00     0.150 C 
BRANCH   2   3
HETATM    3  N2  UNL     1     -11.840  26.609  54.511  1.00  0.00    -0.407 N 
HETATM    4  C4  UNL     1     -13.006  26.357  53.730  1.00  0.00     0.136 C 
HETATM    5  C3  UNL     1     -13.305  24.871  53.585  1.00  0.00     0.137 C 
HETATM    6  N1  UNL     1     -12.182  24.243  52.988  1.00  0.00    -0.399 N 
HETATM    7  C18 UNL     1     -10.900  24.641  53.445  1.00  0.00     0.137 C 
HETATM    8  C17 UNL     1     -10.960  25.506  54.704  1.00  0.00     0.136 C 
BRANCH   6   9
HETATM    9  C2  UNL     1     -12.333  22.853  52.702  1.00  0.00     0.049 C 
HETATM   10  C19 UNL     1     -13.330  22.248  53.667  1.00  0.00     0.033 C 
HETATM   11  C20 UNL     1     -13.016  20.755  53.594  1.00  0.00     0.002 C 
HETATM   12  C21 UNL     1     -11.596  20.664  53.132  1.00  0.00     0.002 C 
HETATM   13  C22 UNL     1     -11.085  22.102  53.050  1.00  0.00     0.033 C 
BRANCH   9  14
HETATM   14  C1  UNL     1     -12.712  22.542  51.297  1.00  0.00     0.195 C 
BRANCH  14  15
HETATM   15  O1  UNL     1     -11.907  23.237  50.365  1.00  0.00    -0.398 OA
ATOM     16  H1  UNL     1     -12.067  22.951  49.474  1.00  0.00     0.209 HD
ENDBRANCH  14  15
ENDBRANCH   9  14
ENDBRANCH   6   9
ENDBRANCH   2   3
ENDBRANCH   1   2
BRANCH   1  17
HETATM   17  O2  UNL     1     -13.821  29.063  55.762  1.00  0.00    -0.392 OA
ATOM     18  H2  UNL     1     -14.505  29.288  56.381  1.00  0.00     0.210 HD
ENDBRANCH   1  17
BRANCH   1  19
HETATM   19  C7  UNL     1     -14.014  27.251  57.202  1.00  0.00     0.209 C 
BRANCH  19  20
HETATM   20  O3  UNL     1     -14.842  26.126  57.030  1.00  0.00    -0.346 OA
BRANCH  20  21
HETATM   21  C8  UNL     1     -15.201  25.272  58.038  1.00  0.00     0.098 A 
HETATM   22  C9  UNL     1     -14.377  24.217  58.361  1.00  0.00     0.046 A 
HETATM   23 BR1  UNL     1     -12.743  23.943  57.415  1.00  0.00    -0.048 Br
HETATM   24  C10 UNL     1     -14.692  23.319  59.374  1.00  0.00     0.043 A 
HETATM   25  C11 UNL     1     -15.874  23.499  60.077  1.00  0.00     0.040 A 
HETATM   26 BR2  UNL     1     -16.291  22.242  61.474  1.00  0.00    -0.049 Br
HETATM   27  C12 UNL     1     -16.709  24.538  59.776  1.00  0.00     0.062 A 
HETATM   28  N3  UNL     1     -17.841  24.662  60.491  1.00  0.00    -0.364 N 
HETATM   29  C16 UNL     1     -16.366  25.425  58.751  1.00  0.00     0.027 A 
HETATM   30  C13 UNL     1     -18.678  25.678  60.213  1.00  0.00     0.088 A 
ATOM     31  H3  UNL     1     -18.062  23.997  61.232  1.00  0.00     0.165 HD
HETATM   32  C14 UNL     1     -18.394  26.585  59.215  1.00  0.00     0.018 A 
HETATM   33  C15 UNL     1     -17.231  26.449  58.488  1.00  0.00     0.018 A 
ENDBRANCH  20  21
ENDBRANCH  19  20
ENDBRANCH   1  19
TORSDOF 9
ENDMDL
MODEL 3
REMARK VINA RESULT: -7.253430660      5.514      7.730
REMARK  9 active torsions:
REMARK  status: ('A' for Active; 'I' for Inactive)
REMARK    1  A    between atoms: O1_1  and  C1_3 
REMARK    2  A    between atoms: C1_3  and  C2_4 
REMARK    3  A    between atoms: C2_4  and  N1_5 
REMARK    4  A    between atoms: N2_8  and  C5_9 
REMARK    5  A    between atoms: C5_9  and  C6_10 
REMARK    6  A    between atoms: C6_10  and  O2_11 
REMARK    7  A    between atoms: C6_10  and  C7_13 
REMARK    8  A    between atoms: C7_13  and  O3_14 
REMARK    9  A    between atoms: O3_14  and  C8_15 
ROOT
HETATM    1  C6  UNL     1     -14.194  27.215  55.914  1.00  0.00     0.160 C 
ENDROOT
BRANCH   1   2
HETATM    2  C5  UNL     1     -12.727  27.548  55.759  1.00  0.00     0.150 C 
BRANCH   2   3
HETATM    3  N2  UNL     1     -12.111  26.561  54.919  1.00  0.00    -0.407 N 
HETATM    4  C4  UNL     1     -12.972  25.988  53.938  1.00  0.00     0.136 C 
HETATM    5  C3  UNL     1     -13.067  24.473  54.053  1.00  0.00     0.137 C 
HETATM    6  N1  UNL     1     -11.763  23.930  53.924  1.00  0.00    -0.399 N 
HETATM    7  C18 UNL     1     -10.713  24.602  54.599  1.00  0.00     0.137 C 
HETATM    8  C17 UNL     1     -11.218  25.665  55.575  1.00  0.00     0.136 C 
BRANCH   6   9
HETATM    9  C2  UNL     1     -11.687  22.504  53.924  1.00  0.00     0.049 C 
HETATM   10  C19 UNL     1     -12.981  21.934  54.464  1.00  0.00     0.033 C 
HETATM   11  C20 UNL     1     -12.586  20.517  54.877  1.00  0.00     0.002 C 
HETATM   12  C21 UNL     1     -11.111  20.565  55.119  1.00  0.00     0.002 C 
HETATM   13  C22 UNL     1     -10.701  22.028  54.946  1.00  0.00     0.033 C 
BRANCH   9  14
HETATM   14  C1  UNL     1     -11.356  21.896  52.608  1.00  0.00     0.195 C 
BRANCH  14  15
HETATM   15  O1  UNL     1     -11.271  22.867  51.583  1.00  0.00    -0.398 OA
ATOM     16  H1  UNL     1     -11.380  22.484  50.721  1.00  0.00     0.209 HD
ENDBRANCH  14  15
ENDBRANCH   9  14
ENDBRANCH   6   9
ENDBRANCH   2   3
ENDBRANCH   1   2
BRANCH   1  17
HETATM   17  O2  UNL     1     -14.992  28.303  55.505  1.00  0.00    -0.392 OA
ATOM     18  H2  UNL     1     -15.803  28.323  55.999  1.00  0.00     0.210 HD
ENDBRANCH   1  17
BRANCH   1  19
HETATM   19  C7  UNL     1     -14.554  26.999  57.376  1.00  0.00     0.209 C 
BRANCH  19  20
HETATM   20  O3  UNL     1     -15.525  25.981  57.427  1.00  0.00    -0.346 OA
BRANCH  20  21
HETATM   21  C8  UNL     1     -15.611  25.048  58.425  1.00  0.00     0.098 A 
HETATM   22  C9  UNL     1     -16.670  25.089  59.305  1.00  0.00     0.046 A 
HETATM   23 BR1  UNL     1     -18.013  26.434  59.138  1.00  0.00    -0.048 Br
HETATM   24  C10 UNL     1     -16.806  24.167  60.336  1.00  0.00     0.043 A 
HETATM   25  C11 UNL     1     -15.843  23.179  60.476  1.00  0.00     0.040 A 
HETATM   26 BR2  UNL     1     -16.052  21.915  61.913  1.00  0.00    -0.049 Br
HETATM   27  C12 UNL     1     -14.783  23.117  59.616  1.00  0.00     0.062 A 
HETATM   28  N3  UNL     1     -13.880  22.137  59.801  1.00  0.00    -0.364 N 
HETATM   29  C16 UNL     1     -14.672  24.059  58.588  1.00  0.00     0.027 A 
HETATM   30  C13 UNL     1     -12.829  22.056  58.966  1.00  0.00     0.088 A 
ATOM     31  H3  UNL     1     -13.991  21.467  60.561  1.00  0.00     0.165 HD
HETATM   32  C14 UNL     1     -12.665  22.954  57.934  1.00  0.00     0.018 A 
HETATM   33  C15 UNL     1     -13.596  23.955  57.753  1.00  0.00     0.018 A 
ENDBRANCH  20  21
ENDBRANCH  19  20
ENDBRANCH   1  19
TORSDOF 9
ENDMDL
MODEL 4
REMARK VINA RESULT: -7.119840413      1.652      2.299
REMARK  9 active torsions:
REMARK  status: ('A' for Active; 'I' for Inactive)
REMARK    1  A    between atoms: O1_1  and  C1_3 
REMARK    2  A    between atoms: C1_3  and  C2_4 
REMARK    3  A    between atoms: C2_4  and  N1_5 
REMARK    4  A    between atoms: N2_8  and  C5_9 
REMARK    5  A    between atoms: C5_9  and  C6_10 
REMARK    6  A    between atoms: C6_10  and  O2_11 
REMARK    7  A    between atoms: C6_10  and  C7_13 
REMARK    8  A    between atoms: C7_13  and  O3_14 
REMARK    9  A    between atoms: O3_14  and  C8_15 
ROOT
HETATM    1  C6  UNL     1     -12.322  26.278  53.694  1.00  0.00     0.160 C 
ENDROOT
BRANCH   1   2
HETATM    2  C5  UNL     1     -11.390  27.210  54.435  1.00  0.00     0.150 C 
BRANCH   2   3
HETATM    3  N2  UNL     1     -10.169  27.338  53.692  1.00  0.00    -0.407 N 
HETATM    4  C4  UNL     1     -10.178  28.359  52.698  1.00  0.00     0.136 C 
HETATM    5  C3  UNL     1      -9.872  27.826  51.305  1.00  0.00     0.137 C 
HETATM    6  N1  UNL     1      -8.603  27.194  51.334  1.00  0.00    -0.399 N 
HETATM    7  C18 UNL     1      -8.312  26.379  52.456  1.00  0.00     0.137 C 
HETATM    8  C17 UNL     1      -9.537  26.113  53.331  1.00  0.00     0.136 C 
BRANCH   6   9
HETATM    9  C2  UNL     1      -8.126  26.711  50.077  1.00  0.00     0.049 C 
HETATM   10  C19 UNL     1      -7.281  25.477  50.304  1.00  0.00     0.033 C 
HETATM   11  C20 UNL     1      -6.459  25.384  49.020  1.00  0.00     0.002 C 
HETATM   12  C21 UNL     1      -6.418  26.772  48.466  1.00  0.00     0.002 C 
HETATM   13  C22 UNL     1      -7.124  27.658  49.493  1.00  0.00     0.033 C 
BRANCH   9  14
HETATM   14  C1  UNL     1      -9.187  26.441  49.069  1.00  0.00     0.195 C 
BRANCH  14  15
HETATM   15  O1  UNL     1      -9.899  25.253  49.355  1.00  0.00    -0.398 OA
ATOM     16  H1  UNL     1      -9.813  24.997  50.265  1.00  0.00     0.209 HD
ENDBRANCH  14  15
ENDBRANCH   9  14
ENDBRANCH   6   9
ENDBRANCH   2   3
ENDBRANCH   1   2
BRANCH   1  17
HETATM   17  O2  UNL     1     -13.527  26.939  53.376  1.00  0.00    -0.392 OA
ATOM     18  H2  UNL     1     -13.752  27.562  54.056  1.00  0.00     0.210 HD
ENDBRANCH   1  17
BRANCH   1  19
HETATM   19  C7  UNL     1     -12.741  25.111  54.573  1.00  0.00     0.209 C 
BRANCH  19  20
HETATM   20  O3  UNL     1     -11.925  24.014  54.238  1.00  0.00    -0.346 OA
BRANCH  20  21
HETATM   21  C8  UNL     1     -12.389  22.744  54.027  1.00  0.00     0.098 A 
HETATM   22  C9  UNL     1     -12.273  21.803  55.025  1.00  0.00     0.046 A 
HETATM   23 BR1  UNL     1     -11.475  22.261  56.696  1.00  0.00    -0.048 Br
HETATM   24  C10 UNL     1     -12.727  20.499  54.864  1.00  0.00     0.043 A 
HETATM   25  C11 UNL     1     -13.312  20.143  53.659  1.00  0.00     0.040 A 
HETATM   26 BR2  UNL     1     -13.929  18.330  53.458  1.00  0.00    -0.049 Br
HETATM   27  C12 UNL     1     -13.438  21.058  52.652  1.00  0.00     0.062 A 
HETATM   28  N3  UNL     1     -14.014  20.655  51.505  1.00  0.00    -0.364 N 
HETATM   29  C16 UNL     1     -12.972  22.363  52.842  1.00  0.00     0.027 A 
HETATM   30  C13 UNL     1     -14.149  21.540  50.500  1.00  0.00     0.088 A 
ATOM     31  H3  UNL     1     -14.342  19.696  51.399  1.00  0.00     0.165 HD
HETATM   32  C14 UNL     1     -13.711  22.839  50.629  1.00  0.00     0.018 A 
HETATM   33  C15 UNL     1     -13.122  23.242  51.808  1.00  0.00     0.018 A 
ENDBRANCH  20  21
ENDBRANCH  19  20
ENDBRANCH   1  19
TORSDOF 9
ENDMDL
MODEL 5
REMARK VINA RESULT: -7.088973278      4.521      7.969
REMARK  9 active torsions:
REMARK  status: ('A' for Active; 'I' for Inactive)
REMARK    1  A    between atoms: O1_1  and  C1_3 
REMARK    2  A    between atoms: C1_3  and  C2_4 
REMARK    3  A    between atoms: C2_4  and  N1_5 
REMARK    4  A    between atoms: N2_8  and  C5_9 
REMARK    5  A    between atoms: C5_9  and  C6_10 
REMARK    6  A    between atoms: C6_10  and  O2_11 
REMARK    7  A    between atoms: C6_10  and  C7_13 
REMARK    8  A    between atoms: C7_13  and  O3_14 
REMARK    9  A    between atoms: O3_14  and  C8_15 
ROOT
HETATM    1  C6  UNL     1     -10.832  26.241  53.954  1.00  0.00     0.160 C 
ENDROOT
BRANCH   1   2
HETATM    2  C5  UNL     1     -12.137  26.861  53.508  1.00  0.00     0.150 C 
BRANCH   2   3
HETATM    3  N2  UNL     1     -12.868  27.291  54.666  1.00  0.00    -0.407 N 
HETATM    4  C4  UNL     1     -12.101  27.367  55.865  1.00  0.00     0.136 C 
HETATM    5  C3  UNL     1     -12.671  26.505  56.982  1.00  0.00     0.137 C 
HETATM    6  N1  UNL     1     -14.002  26.923  57.237  1.00  0.00    -0.399 N 
HETATM    7  C18 UNL     1     -14.816  27.209  56.113  1.00  0.00     0.137 C 
HETATM    8  C17 UNL     1     -14.186  26.764  54.793  1.00  0.00     0.136 C 
BRANCH   6   9
HETATM    9  C2  UNL     1     -14.656  26.267  58.324  1.00  0.00     0.049 C 
HETATM   10  C19 UNL     1     -14.445  24.773  58.207  1.00  0.00     0.033 C 
HETATM   11  C20 UNL     1     -15.565  24.199  59.074  1.00  0.00     0.002 C 
HETATM   12  C21 UNL     1     -16.624  25.255  59.114  1.00  0.00     0.002 C 
HETATM   13  C22 UNL     1     -16.144  26.370  58.186  1.00  0.00     0.033 C 
BRANCH   9  14
HETATM   14  C1  UNL     1     -14.258  26.747  59.674  1.00  0.00     0.195 C 
BRANCH  14  15
HETATM   15  O1  UNL     1     -14.222  28.159  59.744  1.00  0.00    -0.398 OA
ATOM     16  H1  UNL     1     -14.854  28.501  60.365  1.00  0.00     0.209 HD
ENDBRANCH  14  15
ENDBRANCH   9  14
ENDBRANCH   6   9
ENDBRANCH   2   3
ENDBRANCH   1   2
BRANCH   1  17
HETATM   17  O2  UNL     1      -9.758  26.761  53.203  1.00  0.00    -0.392 OA
ATOM     18  H2  UNL     1      -8.989  26.213  53.300  1.00  0.00     0.210 HD
ENDBRANCH   1  17
BRANCH   1  19
HETATM   19  C7  UNL     1     -10.812  24.747  53.673  1.00  0.00     0.209 C 
BRANCH  19  20
HETATM   20  O3  UNL     1     -11.936  24.182  54.304  1.00  0.00    -0.346 OA
BRANCH  20  21
HETATM   21  C8  UNL     1     -12.373  22.902  54.100  1.00  0.00     0.098 A 
HETATM   22  C9  UNL     1     -12.081  21.927  55.028  1.00  0.00     0.046 A 
HETATM   23 BR1  UNL     1     -11.077  22.353  56.593  1.00  0.00    -0.048 Br
HETATM   24  C10 UNL     1     -12.499  20.610  54.870  1.00  0.00     0.043 A 
HETATM   25  C11 UNL     1     -13.232  20.277  53.741  1.00  0.00     0.040 A 
HETATM   26 BR2  UNL     1     -13.797  18.447  53.542  1.00  0.00    -0.049 Br
HETATM   27  C12 UNL     1     -13.534  21.225  52.805  1.00  0.00     0.062 A 
HETATM   28  N3  UNL     1     -14.247  20.843  51.731  1.00  0.00    -0.364 N 
HETATM   29  C16 UNL     1     -13.100  22.542  52.991  1.00  0.00     0.027 A 
HETATM   30  C13 UNL     1     -14.558  21.760  50.797  1.00  0.00     0.088 A 
ATOM     31  H3  UNL     1     -14.548  19.874  51.626  1.00  0.00     0.165 HD
HETATM   32  C14 UNL     1     -14.159  23.073  50.924  1.00  0.00     0.018 A 
HETATM   33  C15 UNL     1     -13.428  23.454  52.029  1.00  0.00     0.018 A 
ENDBRANCH  20  21
ENDBRANCH  19  20
ENDBRANCH   1  19
TORSDOF 9
ENDMDL
