MODEL 1
REMARK VINA RESULT: -6.303975899      0.000      0.000
REMARK  14 active torsions:
REMARK  status: ('A' for Active; 'I' for Inactive)
REMARK       I    between atoms: C2_2  and  N1_4 
REMARK    1  A    between atoms: N1_4  and  C3_6 
REMARK    2  A    between atoms: C4_7  and  O2_8 
REMARK    3  A    between atoms: O2_8  and  C5_9 
REMARK    4  A    between atoms: C6_10  and  N2_11 
REMARK    5  A    between atoms: N2_11  and  N3_13 
REMARK    6  A    between atoms: N3_13  and  N4_14 
REMARK    7  A    between atoms: C7_18  and  O4_19 
REMARK    8  A    between atoms: O4_19  and  C8_20 
REMARK       I    between atoms: C8_20  and  N5_22 
REMARK    9  A    between atoms: N5_22  and  C9_24 
REMARK   10  A    between atoms: C13_28  and  O6_29 
REMARK   11  A    between atoms: C14_32  and  C15_33 
REMARK   12  A    between atoms: C15_33  and  N6_34 
REMARK   13  A    between atoms: C16_38  and  O8_39 
REMARK   14  A    between atoms: C17_41  and  O9_42 
ROOT
HETATM    1  C5  UNL     1       1.288  23.736  11.005  1.00  0.00     0.209 C 
HETATM    2  C6  UNL     1       0.963  22.532  10.150  1.00  0.00     0.284 C 
HETATM    3  O3  UNL     1       2.168  22.277   9.509  1.00  0.00    -0.329 OA
HETATM    4  C7  UNL     1       3.070  22.282  10.550  1.00  0.00     0.305 C 
HETATM    5  C13 UNL     1       2.808  23.623  11.181  1.00  0.00     0.207 C 
ENDROOT
BRANCH   1   6
HETATM    6  O2  UNL     1       0.641  23.547  12.222  1.00  0.00    -0.347 OA
BRANCH   6   7
HETATM    7  C4  UNL     1      -0.156  24.601  12.589  1.00  0.00     0.286 C 
HETATM    8  C3  UNL     1       0.212  25.052  13.963  1.00  0.00     0.170 C 
HETATM    9  C17 UNL     1       0.138  26.583  14.009  1.00  0.00     0.177 C 
HETATM   10  C16 UNL     1      -1.110  26.972  13.250  1.00  0.00     0.179 C 
HETATM   11  C14 UNL     1      -0.905  26.641  11.811  1.00  0.00     0.181 C 
HETATM   12  O7  UNL     1       0.005  25.602  11.619  1.00  0.00    -0.349 OA
BRANCH   8  13
HETATM   13  N1  UNL     1       1.503  24.624  14.394  1.00  0.00    -0.349 N 
HETATM   14  C2  UNL     1       1.696  24.135  15.712  1.00  0.00     0.214 C 
HETATM   15  C1  UNL     1       3.042  23.679  16.187  1.00  0.00     0.117 C 
HETATM   16  O1  UNL     1       0.765  24.053  16.555  1.00  0.00    -0.274 OA
ATOM     17  H1  UNL     1       2.293  24.671  13.751  1.00  0.00     0.163 HD
ENDBRANCH   8  13
BRANCH   9  18
HETATM   18  O9  UNL     1       1.252  27.176  13.447  1.00  0.00    -0.391 OA
ATOM     19  H9  UNL     1       1.218  28.124  13.499  1.00  0.00     0.210 HD
ENDBRANCH   9  18
BRANCH  10  20
HETATM   20  O8  UNL     1      -2.173  26.250  13.811  1.00  0.00    -0.390 OA
ATOM     21  H8  UNL     1      -1.877  25.629  14.466  1.00  0.00     0.210 HD
ENDBRANCH  10  20
BRANCH  11  22
HETATM   22  C15 UNL     1      -0.419  27.821  11.000  1.00  0.00     0.264 C 
BRANCH  22  23
HETATM   23  N6  UNL     1       0.919  27.602  10.482  1.00  0.00    -0.077 N 
ATOM     24  H63 UNL     1       1.611  28.142  11.001  1.00  0.00     0.274 HD
ATOM     25  H62 UNL     1       1.252  26.663  10.699  1.00  0.00     0.274 HD
ATOM     26  H61 UNL     1       0.972  27.794   9.481  1.00  0.00     0.274 HD
ENDBRANCH  22  23
ENDBRANCH  11  22
ENDBRANCH   6   7
ENDBRANCH   1   6
BRANCH   2  27
HETATM   27  N2  UNL     1      -0.110  22.800   9.223  1.00  0.00    -0.220 N 
ATOM     28  H2  UNL     1      -0.976  23.185   9.600  1.00  0.00     0.200 HD
BRANCH  27  29
HETATM   29  N3  UNL     1      -0.059  22.600   8.031  1.00  0.00    -0.246 NA
BRANCH  29  30
HETATM   30  N4  UNL     1       0.224  22.429   6.848  1.00  0.00    -0.261 N 
ATOM     31  H42 UNL     1       0.777  21.612   7.106  1.00  0.00     0.193 HD
ATOM     32  H41 UNL     1       0.349  22.445   5.836  1.00  0.00     0.193 HD
ENDBRANCH  29  30
ENDBRANCH  27  29
ENDBRANCH   2  27
BRANCH   5  33
HETATM   33  O6  UNL     1       3.397  24.676  10.520  1.00  0.00    -0.388 OA
ATOM     34  H6  UNL     1       3.856  24.332   9.763  1.00  0.00     0.210 HD
ENDBRANCH   5  33
BRANCH   4  35
HETATM   35  O4  UNL     1       4.406  22.122  10.125  1.00  0.00    -0.270 OA
BRANCH  35  36
HETATM   36  C8  UNL     1       4.766  21.767   8.832  1.00  0.00     0.363 C 
HETATM   37  O5  UNL     1       5.484  20.731   8.725  1.00  0.00    -0.238 OA
HETATM   38  N5  UNL     1       4.365  22.507   7.686  1.00  0.00    -0.329 N 
ATOM     39  H5  UNL     1       3.786  23.339   7.794  1.00  0.00     0.165 HD
BRANCH  38  40
HETATM   40  C9  UNL     1       4.774  22.082   6.376  1.00  0.00     0.024 C 
HETATM   41  C10 UNL     1       4.892  20.577   6.266  1.00  0.00     0.037 C 
HETATM   42  C11 UNL     1       6.147  22.646   6.003  1.00  0.00     0.037 C 
HETATM   43  C12 UNL     1       3.777  22.551   5.364  1.00  0.00     0.037 C 
ENDBRANCH  38  40
ENDBRANCH  35  36
ENDBRANCH   4  35
TORSDOF 14
ENDMDL
MODEL 2
REMARK VINA RESULT: -6.303674666      2.301      3.554
REMARK  14 active torsions:
REMARK  status: ('A' for Active; 'I' for Inactive)
REMARK       I    between atoms: C2_2  and  N1_4 
REMARK    1  A    between atoms: N1_4  and  C3_6 
REMARK    2  A    between atoms: C4_7  and  O2_8 
REMARK    3  A    between atoms: O2_8  and  C5_9 
REMARK    4  A    between atoms: C6_10  and  N2_11 
REMARK    5  A    between atoms: N2_11  and  N3_13 
REMARK    6  A    between atoms: N3_13  and  N4_14 
REMARK    7  A    between atoms: C7_18  and  O4_19 
REMARK    8  A    between atoms: O4_19  and  C8_20 
REMARK       I    between atoms: C8_20  and  N5_22 
REMARK    9  A    between atoms: N5_22  and  C9_24 
REMARK   10  A    between atoms: C13_28  and  O6_29 
REMARK   11  A    between atoms: C14_32  and  C15_33 
REMARK   12  A    between atoms: C15_33  and  N6_34 
REMARK   13  A    between atoms: C16_38  and  O8_39 
REMARK   14  A    between atoms: C17_41  and  O9_42 
ROOT
HETATM    1  C5  UNL     1       3.605  22.878  12.538  1.00  0.00     0.209 C 
HETATM    2  C6  UNL     1       4.928  22.749  13.258  1.00  0.00     0.284 C 
HETATM    3  O3  UNL     1       5.593  21.787  12.509  1.00  0.00    -0.329 OA
HETATM    4  C7  UNL     1       5.441  22.252  11.221  1.00  0.00     0.305 C 
HETATM    5  C13 UNL     1       3.947  22.403  11.120  1.00  0.00     0.207 C 
ENDROOT
BRANCH   1   6
HETATM    6  O2  UNL     1       3.285  24.233  12.534  1.00  0.00    -0.347 OA
BRANCH   6   7
HETATM    7  C4  UNL     1       2.008  24.492  12.106  1.00  0.00     0.286 C 
HETATM    8  C3  UNL     1       1.077  24.478  13.272  1.00  0.00     0.170 C 
HETATM    9  C17 UNL     1       0.044  25.596  13.083  1.00  0.00     0.177 C 
HETATM   10  C16 UNL     1      -0.355  25.565  11.625  1.00  0.00     0.179 C 
HETATM   11  C14 UNL     1       0.818  25.985  10.809  1.00  0.00     0.181 C 
HETATM   12  O7  UNL     1       2.036  25.725  11.438  1.00  0.00    -0.349 OA
BRANCH   8  13
HETATM   13  N1  UNL     1       1.719  24.632  14.537  1.00  0.00    -0.349 N 
HETATM   14  C2  UNL     1       1.005  24.393  15.740  1.00  0.00     0.214 C 
HETATM   15  C1  UNL     1       1.659  24.546  17.080  1.00  0.00     0.117 C 
HETATM   16  O1  UNL     1      -0.203  24.042  15.761  1.00  0.00    -0.274 OA
ATOM     17  H1  UNL     1       2.698  24.915  14.577  1.00  0.00     0.163 HD
ENDBRANCH   8  13
BRANCH   9  18
HETATM   18  O9  UNL     1       0.550  26.836  13.421  1.00  0.00    -0.391 OA
ATOM     19  H9  UNL     1       0.683  26.926  14.358  1.00  0.00     0.210 HD
ENDBRANCH   9  18
BRANCH  10  20
HETATM   20  O8  UNL     1      -0.754  24.251  11.337  1.00  0.00    -0.390 OA
ATOM     21  H8  UNL     1      -0.356  23.620  11.925  1.00  0.00     0.210 HD
ENDBRANCH  10  20
BRANCH  11  22
HETATM   22  C15 UNL     1       0.796  27.458  10.463  1.00  0.00     0.264 C 
BRANCH  22  23
HETATM   23  N6  UNL     1      -0.540  28.013  10.565  1.00  0.00    -0.077 N 
ATOM     24  H63 UNL     1      -0.960  28.143   9.644  1.00  0.00     0.274 HD
ATOM     25  H62 UNL     1      -1.197  27.332  10.945  1.00  0.00     0.274 HD
ATOM     26  H61 UNL     1      -0.549  28.880  11.103  1.00  0.00     0.274 HD
ENDBRANCH  22  23
ENDBRANCH  11  22
ENDBRANCH   6   7
ENDBRANCH   1   6
BRANCH   2  27
HETATM   27  N2  UNL     1       4.759  22.356  14.637  1.00  0.00    -0.220 N 
ATOM     28  H2  UNL     1       4.651  21.361  14.834  1.00  0.00     0.200 HD
BRANCH  27  29
HETATM   29  N3  UNL     1       4.737  23.119  15.575  1.00  0.00    -0.246 NA
BRANCH  29  30
HETATM   30  N4  UNL     1       4.797  23.712  16.649  1.00  0.00    -0.261 N 
ATOM     31  H42 UNL     1       5.739  24.025  16.414  1.00  0.00     0.193 HD
ATOM     32  H41 UNL     1       4.668  24.135  17.568  1.00  0.00     0.193 HD
ENDBRANCH  29  30
ENDBRANCH  27  29
ENDBRANCH   2  27
BRANCH   5  33
HETATM   33  O6  UNL     1       3.280  21.221  10.891  1.00  0.00    -0.388 OA
ATOM     34  H6  UNL     1       2.845  21.284  10.049  1.00  0.00     0.210 HD
ENDBRANCH   5  33
BRANCH   4  35
HETATM   35  O4  UNL     1       5.975  21.377  10.251  1.00  0.00    -0.270 OA
BRANCH  35  36
HETATM   36  C8  UNL     1       5.614  21.399   8.911  1.00  0.00     0.363 C 
HETATM   37  O5  UNL     1       4.711  20.581   8.570  1.00  0.00    -0.238 OA
HETATM   38  N5  UNL     1       6.207  22.277   7.963  1.00  0.00    -0.329 N 
ATOM     39  H5  UNL     1       6.933  22.930   8.258  1.00  0.00     0.165 HD
BRANCH  38  40
HETATM   40  C9  UNL     1       5.785  22.247   6.590  1.00  0.00     0.024 C 
HETATM   41  C10 UNL     1       4.291  22.443   6.440  1.00  0.00     0.037 C 
HETATM   42  C11 UNL     1       6.107  20.904   5.930  1.00  0.00     0.037 C 
HETATM   43  C12 UNL     1       6.480  23.331   5.829  1.00  0.00     0.037 C 
ENDBRANCH  38  40
ENDBRANCH  35  36
ENDBRANCH   4  35
TORSDOF 14
ENDMDL
MODEL 3
REMARK VINA RESULT: -6.296556126      2.731      4.335
REMARK  14 active torsions:
REMARK  status: ('A' for Active; 'I' for Inactive)
REMARK       I    between atoms: C2_2  and  N1_4 
REMARK    1  A    between atoms: N1_4  and  C3_6 
REMARK    2  A    between atoms: C4_7  and  O2_8 
REMARK    3  A    between atoms: O2_8  and  C5_9 
REMARK    4  A    between atoms: C6_10  and  N2_11 
REMARK    5  A    between atoms: N2_11  and  N3_13 
REMARK    6  A    between atoms: N3_13  and  N4_14 
REMARK    7  A    between atoms: C7_18  and  O4_19 
REMARK    8  A    between atoms: O4_19  and  C8_20 
REMARK       I    between atoms: C8_20  and  N5_22 
REMARK    9  A    between atoms: N5_22  and  C9_24 
REMARK   10  A    between atoms: C13_28  and  O6_29 
REMARK   11  A    between atoms: C14_32  and  C15_33 
REMARK   12  A    between atoms: C15_33  and  N6_34 
REMARK   13  A    between atoms: C16_38  and  O8_39 
REMARK   14  A    between atoms: C17_41  and  O9_42 
ROOT
HETATM    1  C5  UNL     1       1.741  23.972  13.919  1.00  0.00     0.209 C 
HETATM    2  C6  UNL     1       3.242  23.855  13.782  1.00  0.00     0.284 C 
HETATM    3  O3  UNL     1       3.405  23.576  12.431  1.00  0.00    -0.329 OA
HETATM    4  C7  UNL     1       2.634  24.546  11.828  1.00  0.00     0.305 C 
HETATM    5  C13 UNL     1       1.301  24.341  12.496  1.00  0.00     0.207 C 
ENDROOT
BRANCH   1   6
HETATM    6  O2  UNL     1       1.503  25.030  14.792  1.00  0.00    -0.347 OA
BRANCH   6   7
HETATM    7  C4  UNL     1       0.418  24.834  15.607  1.00  0.00     0.286 C 
HETATM    8  C3  UNL     1       0.878  24.568  17.000  1.00  0.00     0.170 C 
HETATM    9  C17 UNL     1      -0.076  25.273  17.972  1.00  0.00     0.177 C 
HETATM   10  C16 UNL     1      -1.472  25.044  17.438  1.00  0.00     0.179 C 
HETATM   11  C14 UNL     1      -1.610  25.790  16.156  1.00  0.00     0.181 C 
HETATM   12  O7  UNL     1      -0.392  25.975  15.502  1.00  0.00    -0.349 OA
BRANCH   8  13
HETATM   13  N1  UNL     1       2.218  24.982  17.264  1.00  0.00    -0.349 N 
HETATM   14  C2  UNL     1       3.202  24.034  17.648  1.00  0.00     0.214 C 
HETATM   15  C1  UNL     1       4.616  24.446  17.929  1.00  0.00     0.117 C 
HETATM   16  O1  UNL     1       2.957  22.807  17.776  1.00  0.00    -0.274 OA
ATOM     17  H1  UNL     1       2.471  25.966  17.176  1.00  0.00     0.163 HD
ENDBRANCH   8  13
BRANCH   9  18
HETATM   18  O9  UNL     1       0.189  26.624  18.075  1.00  0.00    -0.391 OA
ATOM     19  H9  UNL     1       0.198  26.920  18.978  1.00  0.00     0.210 HD
ENDBRANCH   9  18
BRANCH  10  20
HETATM   20  O8  UNL     1      -1.623  23.661  17.262  1.00  0.00    -0.390 OA
ATOM     21  H8  UNL     1      -1.929  23.232  18.053  1.00  0.00     0.210 HD
ENDBRANCH  10  20
BRANCH  11  22
HETATM   22  C15 UNL     1      -2.237  27.156  16.334  1.00  0.00     0.264 C 
BRANCH  22  23
HETATM   23  N6  UNL     1      -1.310  28.220  15.998  1.00  0.00    -0.077 N 
ATOM     24  H63 UNL     1      -0.371  28.016  16.340  1.00  0.00     0.274 HD
ATOM     25  H62 UNL     1      -1.116  28.241  14.998  1.00  0.00     0.274 HD
ATOM     26  H61 UNL     1      -1.639  29.126  16.332  1.00  0.00     0.274 HD
ENDBRANCH  22  23
ENDBRANCH  11  22
ENDBRANCH   6   7
ENDBRANCH   1   6
BRANCH   2  27
HETATM   27  N2  UNL     1       3.785  22.819  14.628  1.00  0.00    -0.220 N 
ATOM     28  H2  UNL     1       3.126  22.247  15.156  1.00  0.00     0.200 HD
BRANCH  27  29
HETATM   29  N3  UNL     1       4.963  22.580  14.757  1.00  0.00    -0.246 NA
BRANCH  29  30
HETATM   30  N4  UNL     1       6.086  22.138  14.985  1.00  0.00    -0.261 N 
ATOM     31  H42 UNL     1       6.269  22.108  13.983  1.00  0.00     0.193 HD
ATOM     32  H41 UNL     1       6.966  21.783  15.361  1.00  0.00     0.193 HD
ENDBRANCH  29  30
ENDBRANCH  27  29
ENDBRANCH   2  27
BRANCH   5  33
HETATM   33  O6  UNL     1       0.576  23.290  11.985  1.00  0.00    -0.388 OA
ATOM     34  H6  UNL     1      -0.201  23.641  11.566  1.00  0.00     0.210 HD
ENDBRANCH   5  33
BRANCH   4  35
HETATM   35  O4  UNL     1       2.576  24.413  10.425  1.00  0.00    -0.270 OA
BRANCH  35  36
HETATM   36  C8  UNL     1       2.939  23.259   9.744  1.00  0.00     0.363 C 
HETATM   37  O5  UNL     1       1.990  22.486   9.425  1.00  0.00    -0.238 OA
HETATM   38  N5  UNL     1       4.286  22.945   9.415  1.00  0.00    -0.329 N 
ATOM     39  H5  UNL     1       5.037  23.582   9.681  1.00  0.00     0.165 HD
BRANCH  38  40
HETATM   40  C9  UNL     1       4.591  21.732   8.708  1.00  0.00     0.024 C 
HETATM   41  C10 UNL     1       5.866  21.839   7.899  1.00  0.00     0.037 C 
HETATM   42  C11 UNL     1       3.486  21.366   7.714  1.00  0.00     0.037 C 
HETATM   43  C12 UNL     1       4.745  20.609   9.684  1.00  0.00     0.037 C 
ENDBRANCH  38  40
ENDBRANCH  35  36
ENDBRANCH   4  35
TORSDOF 14
ENDMDL
MODEL 4
REMARK VINA RESULT: -6.234203169      2.404      5.078
REMARK  14 active torsions:
REMARK  status: ('A' for Active; 'I' for Inactive)
REMARK       I    between atoms: C2_2  and  N1_4 
REMARK    1  A    between atoms: N1_4  and  C3_6 
REMARK    2  A    between atoms: C4_7  and  O2_8 
REMARK    3  A    between atoms: O2_8  and  C5_9 
REMARK    4  A    between atoms: C6_10  and  N2_11 
REMARK    5  A    between atoms: N2_11  and  N3_13 
REMARK    6  A    between atoms: N3_13  and  N4_14 
REMARK    7  A    between atoms: C7_18  and  O4_19 
REMARK    8  A    between atoms: O4_19  and  C8_20 
REMARK       I    between atoms: C8_20  and  N5_22 
REMARK    9  A    between atoms: N5_22  and  C9_24 
REMARK   10  A    between atoms: C13_28  and  O6_29 
REMARK   11  A    between atoms: C14_32  and  C15_33 
REMARK   12  A    between atoms: C15_33  and  N6_34 
REMARK   13  A    between atoms: C16_38  and  O8_39 
REMARK   14  A    between atoms: C17_41  and  O9_42 
ROOT
HETATM    1  C5  UNL     1       4.004  21.170  11.612  1.00  0.00     0.209 C 
HETATM    2  C6  UNL     1       4.930  22.104  12.358  1.00  0.00     0.284 C 
HETATM    3  O3  UNL     1       6.145  21.912  11.713  1.00  0.00    -0.329 OA
HETATM    4  C7  UNL     1       5.803  22.039  10.384  1.00  0.00     0.305 C 
HETATM    5  C13 UNL     1       4.697  21.027  10.251  1.00  0.00     0.207 C 
ENDROOT
BRANCH   1   6
HETATM    6  O2  UNL     1       2.791  21.838  11.474  1.00  0.00    -0.347 OA
BRANCH   6   7
HETATM    7  C4  UNL     1       2.891  23.195  11.641  1.00  0.00     0.286 C 
HETATM    8  C3  UNL     1       2.305  23.890  10.457  1.00  0.00     0.170 C 
HETATM    9  C17 UNL     1       1.547  25.130  10.946  1.00  0.00     0.177 C 
HETATM   10  C16 UNL     1       2.412  25.765  12.010  1.00  0.00     0.179 C 
HETATM   11  C14 UNL     1       2.453  24.852  13.187  1.00  0.00     0.181 C 
HETATM   12  O7  UNL     1       2.244  23.516  12.844  1.00  0.00    -0.349 OA
BRANCH   8  13
HETATM   13  N1  UNL     1       1.432  23.076   9.674  1.00  0.00    -0.349 N 
HETATM   14  C2  UNL     1       1.871  22.532   8.439  1.00  0.00     0.214 C 
HETATM   15  C1  UNL     1       0.973  21.674   7.600  1.00  0.00     0.117 C 
HETATM   16  O1  UNL     1       3.024  22.729   7.975  1.00  0.00    -0.274 OA
ATOM     17  H1  UNL     1       0.486  22.885  10.003  1.00  0.00     0.163 HD
ENDBRANCH   8  13
BRANCH   9  18
HETATM   18  O9  UNL     1       0.303  24.814  11.456  1.00  0.00    -0.391 OA
ATOM     19  H9  UNL     1      -0.400  25.060  10.866  1.00  0.00     0.210 HD
ENDBRANCH   9  18
BRANCH  10  20
HETATM   20  O8  UNL     1       3.683  25.955  11.447  1.00  0.00    -0.390 OA
ATOM     21  H8  UNL     1       3.960  26.863  11.491  1.00  0.00     0.210 HD
ENDBRANCH  10  20
BRANCH  11  22
HETATM   22  C15 UNL     1       1.430  25.209  14.244  1.00  0.00     0.264 C 
BRANCH  22  23
HETATM   23  N6  UNL     1       0.928  26.559  14.070  1.00  0.00    -0.077 N 
ATOM     24  H63 UNL     1       1.637  27.170  13.666  1.00  0.00     0.274 HD
ATOM     25  H62 UNL     1       0.234  26.604  13.323  1.00  0.00     0.274 HD
ATOM     26  H61 UNL     1       0.560  26.940  14.942  1.00  0.00     0.274 HD
ENDBRANCH  22  23
ENDBRANCH  11  22
ENDBRANCH   6   7
ENDBRANCH   1   6
BRANCH   2  27
HETATM   27  N2  UNL     1       4.997  21.792  13.766  1.00  0.00    -0.220 N 
ATOM     28  H2  UNL     1       5.090  20.811  14.028  1.00  0.00     0.200 HD
BRANCH  27  29
HETATM   29  N3  UNL     1       4.951  22.608  14.657  1.00  0.00    -0.246 NA
BRANCH  29  30
HETATM   30  N4  UNL     1       5.090  23.322  15.647  1.00  0.00    -0.261 N 
ATOM     31  H42 UNL     1       5.874  22.743  15.945  1.00  0.00     0.193 HD
ATOM     32  H41 UNL     1       5.054  24.013  16.396  1.00  0.00     0.193 HD
ENDBRANCH  29  30
ENDBRANCH  27  29
ENDBRANCH   2  27
BRANCH   5  33
HETATM   33  O6  UNL     1       5.138  19.730  10.128  1.00  0.00    -0.388 OA
ATOM     34  H6  UNL     1       5.438  19.601   9.236  1.00  0.00     0.210 HD
ENDBRANCH   5  33
BRANCH   4  35
HETATM   35  O4  UNL     1       6.883  21.796   9.510  1.00  0.00    -0.270 OA
BRANCH  35  36
HETATM   36  C8  UNL     1       6.850  22.069   8.149  1.00  0.00     0.363 C 
HETATM   37  O5  UNL     1       6.148  21.287   7.446  1.00  0.00    -0.238 OA
HETATM   38  N5  UNL     1       7.552  23.156   7.561  1.00  0.00    -0.329 N 
ATOM     39  H5  UNL     1       8.113  23.776   8.144  1.00  0.00     0.165 HD
BRANCH  38  40
HETATM   40  C9  UNL     1       7.473  23.382   6.144  1.00  0.00     0.024 C 
HETATM   41  C10 UNL     1       7.938  24.768   5.751  1.00  0.00     0.037 C 
HETATM   42  C11 UNL     1       6.036  23.254   5.631  1.00  0.00     0.037 C 
HETATM   43  C12 UNL     1       8.324  22.380   5.429  1.00  0.00     0.037 C 
ENDBRANCH  38  40
ENDBRANCH  35  36
ENDBRANCH   4  35
TORSDOF 14
ENDMDL
MODEL 5
REMARK VINA RESULT: -6.181497332      2.127      3.861
REMARK  14 active torsions:
REMARK  status: ('A' for Active; 'I' for Inactive)
REMARK       I    between atoms: C2_2  and  N1_4 
REMARK    1  A    between atoms: N1_4  and  C3_6 
REMARK    2  A    between atoms: C4_7  and  O2_8 
REMARK    3  A    between atoms: O2_8  and  C5_9 
REMARK    4  A    between atoms: C6_10  and  N2_11 
REMARK    5  A    between atoms: N2_11  and  N3_13 
REMARK    6  A    between atoms: N3_13  and  N4_14 
REMARK    7  A    between atoms: C7_18  and  O4_19 
REMARK    8  A    between atoms: O4_19  and  C8_20 
REMARK       I    between atoms: C8_20  and  N5_22 
REMARK    9  A    between atoms: N5_22  and  C9_24 
REMARK   10  A    between atoms: C13_28  and  O6_29 
REMARK   11  A    between atoms: C14_32  and  C15_33 
REMARK   12  A    between atoms: C15_33  and  N6_34 
REMARK   13  A    between atoms: C16_38  and  O8_39 
REMARK   14  A    between atoms: C17_41  and  O9_42 
ROOT
HETATM    1  C5  UNL     1       2.915  23.837  12.207  1.00  0.00     0.209 C 
HETATM    2  C6  UNL     1       2.538  24.328  10.828  1.00  0.00     0.284 C 
HETATM    3  O3  UNL     1       3.477  23.708  10.014  1.00  0.00    -0.329 OA
HETATM    4  C7  UNL     1       3.411  22.395  10.427  1.00  0.00     0.305 C 
HETATM    5  C13 UNL     1       3.648  22.523  11.907  1.00  0.00     0.207 C 
ENDROOT
BRANCH   1   6
HETATM    6  O2  UNL     1       1.723  23.589  12.881  1.00  0.00    -0.347 OA
BRANCH   6   7
HETATM    7  C4  UNL     1       1.395  24.560  13.791  1.00  0.00     0.286 C 
HETATM    8  C3  UNL     1      -0.003  25.021  13.550  1.00  0.00     0.170 C 
HETATM    9  C17 UNL     1      -0.678  25.261  14.906  1.00  0.00     0.177 C 
HETATM   10  C16 UNL     1       0.349  25.952  15.775  1.00  0.00     0.179 C 
HETATM   11  C14 UNL     1       1.448  24.986  16.058  1.00  0.00     0.181 C 
HETATM   12  O7  UNL     1       1.583  24.013  15.069  1.00  0.00    -0.349 OA
BRANCH   8  13
HETATM   13  N1  UNL     1      -0.793  24.116  12.779  1.00  0.00    -0.349 N 
HETATM   14  C2  UNL     1      -1.613  24.596  11.724  1.00  0.00     0.214 C 
HETATM   15  C1  UNL     1      -2.451  23.665  10.900  1.00  0.00     0.117 C 
HETATM   16  O1  UNL     1      -1.690  25.813  11.417  1.00  0.00    -0.274 OA
ATOM     17  H1  UNL     1      -0.769  23.118  12.987  1.00  0.00     0.163 HD
ENDBRANCH   8  13
BRANCH   9  18
HETATM   18  O9  UNL     1      -1.099  24.085  15.494  1.00  0.00    -0.391 OA
ATOM     19  H9  UNL     1      -0.460  23.388  15.401  1.00  0.00     0.210 HD
ENDBRANCH   9  18
BRANCH  10  20
HETATM   20  O8  UNL     1       0.802  27.072  15.063  1.00  0.00    -0.390 OA
ATOM     21  H8  UNL     1       0.087  27.638  14.795  1.00  0.00     0.210 HD
ENDBRANCH  10  20
BRANCH  11  22
HETATM   22  C15 UNL     1       1.272  24.266  17.378  1.00  0.00     0.264 C 
BRANCH  22  23
HETATM   23  N6  UNL     1       0.439  25.021  18.294  1.00  0.00    -0.077 N 
ATOM     24  H63 UNL     1       0.495  26.023  18.108  1.00  0.00     0.274 HD
ATOM     25  H62 UNL     1      -0.552  24.878  18.100  1.00  0.00     0.274 HD
ATOM     26  H61 UNL     1       0.662  24.811  19.268  1.00  0.00     0.274 HD
ENDBRANCH  22  23
ENDBRANCH  11  22
ENDBRANCH   6   7
ENDBRANCH   1   6
BRANCH   2  27
HETATM   27  N2  UNL     1       2.589  25.768  10.731  1.00  0.00    -0.220 N 
ATOM     28  H2  UNL     1       3.509  26.204  10.661  1.00  0.00     0.200 HD
BRANCH  27  29
HETATM   29  N3  UNL     1       1.623  26.494  10.727  1.00  0.00    -0.246 NA
BRANCH  29  30
HETATM   30  N4  UNL     1       0.796  27.401  10.680  1.00  0.00    -0.261 N 
ATOM     31  H42 UNL     1       1.534  28.074  10.885  1.00  0.00     0.193 HD
ATOM     32  H41 UNL     1      -0.017  28.012  10.604  1.00  0.00     0.193 HD
ENDBRANCH  29  30
ENDBRANCH  27  29
ENDBRANCH   2  27
BRANCH   5  33
HETATM   33  O6  UNL     1       4.971  22.681  12.250  1.00  0.00    -0.388 OA
ATOM     34  H6  UNL     1       5.014  22.899  13.173  1.00  0.00     0.210 HD
ENDBRANCH   5  33
BRANCH   4  35
HETATM   35  O4  UNL     1       4.356  21.566   9.785  1.00  0.00    -0.270 OA
BRANCH  35  36
HETATM   36  C8  UNL     1       4.522  21.508   8.408  1.00  0.00     0.363 C 
HETATM   37  O5  UNL     1       3.825  20.642   7.805  1.00  0.00    -0.238 OA
HETATM   38  N5  UNL     1       5.413  22.360   7.699  1.00  0.00    -0.329 N 
ATOM     39  H5  UNL     1       5.966  23.052   8.204  1.00  0.00     0.165 HD
BRANCH  38  40
HETATM   40  C9  UNL     1       5.535  22.247   6.272  1.00  0.00     0.024 C 
HETATM   41  C10 UNL     1       4.224  22.498   5.557  1.00  0.00     0.037 C 
HETATM   42  C11 UNL     1       5.986  20.845   5.854  1.00  0.00     0.037 C 
HETATM   43  C12 UNL     1       6.539  23.238   5.776  1.00  0.00     0.037 C 
ENDBRANCH  38  40
ENDBRANCH  35  36
ENDBRANCH   4  35
TORSDOF 14
ENDMDL
