MODEL 1
REMARK VINA RESULT: -7.993817367      0.000      0.000
REMARK  10 active torsions:
REMARK  status: ('A' for Active; 'I' for Inactive)
REMARK    1  A    between atoms: O1_1  and  C1_3 
REMARK    2  A    between atoms: C1_3  and  N1_4 
REMARK    3  A    between atoms: C1_3  and  N7_33 
REMARK    4  A    between atoms: C2_6  and  C3_7 
REMARK    5  A    between atoms: C3_7  and  O2_8 
REMARK    6  A    between atoms: O2_8  and  N2_9 
REMARK    7  A    between atoms: N2_9  and  C4_10 
REMARK    8  A    between atoms: C4_10  and  C5_11 
REMARK    9  A    between atoms: N7_33  and  C16_34 
REMARK   10  A    between atoms: C16_34  and  C17_35 
ROOT
HETATM    1  C5  UNL     1       4.105  21.798  11.465  1.00  0.00     0.229 C 
HETATM    2  N3  UNL     1       3.329  22.915  10.950  1.00  0.00    -0.395 N 
ATOM      3  H3  UNL     1       3.806  23.764  10.647  1.00  0.00     0.155 HD
HETATM    4  C6  UNL     1       1.932  22.833  10.866  1.00  0.00     0.135 C 
HETATM    5  C7  UNL     1       1.415  24.273  10.819  1.00  0.00     0.133 C 
HETATM    6  N4  UNL     1       2.408  25.270  10.659  1.00  0.00    -0.418 N 
ATOM      7  H4  UNL     1       3.107  25.218   9.918  1.00  0.00     0.153 HD
HETATM    8  C8  UNL     1       2.376  26.369  11.608  1.00  0.00     0.141 C 
HETATM    9  C9  UNL     1       1.022  26.929  11.909  1.00  0.00     0.251 C 
HETATM   10  N5  UNL     1       0.898  27.360  13.289  1.00  0.00    -0.072 N 
ATOM     11  H51 UNL     1       0.480  28.288  13.354  1.00  0.00     0.277 HD
ATOM     12  H52 UNL     1       1.809  27.568  13.698  1.00  0.00     0.277 HD
HETATM   13  C10 UNL     1       0.166  26.388  14.085  1.00  0.00     0.258 C 
HETATM   14  C11 UNL     1       1.123  25.771  15.094  1.00  0.00     0.195 C 
HETATM   15  O3  UNL     1       0.882  24.421  15.233  1.00  0.00    -0.387 OA
HETATM   16  C12 UNL     1       1.877  23.598  14.695  1.00  0.00     0.193 C 
HETATM   17  C13 UNL     1       2.993  23.320  15.640  1.00  0.00     0.193 C 
HETATM   18  O4  UNL     1       4.150  24.018  15.235  1.00  0.00    -0.387 OA
HETATM   19  C14 UNL     1       5.143  23.187  14.764  1.00  0.00     0.187 C 
HETATM   20  C15 UNL     1       5.163  23.087  13.224  1.00  0.00     0.142 C 
HETATM   21  N6  UNL     1       4.383  21.948  12.863  1.00  0.00    -0.395 N 
ATOM     22  H6  UNL     1       4.044  21.282  13.556  1.00  0.00     0.155 HD
ENDROOT
BRANCH   1  23
HETATM   23  C4  UNL     1       5.374  22.018  10.655  1.00  0.00     0.236 C 
BRANCH  23  24
HETATM   24  N2  UNL     1       5.458  21.487   9.627  1.00  0.00    -0.294 NA
BRANCH  24  25
HETATM   25  O2  UNL     1       5.524  20.936   8.496  1.00  0.00    -0.205 OA
BRANCH  25  26
HETATM   26  C3  UNL     1       4.281  21.246   7.635  1.00  0.00     0.262 C 
BRANCH  26  27
HETATM   27  C2  UNL     1       4.950  20.991   6.314  1.00  0.00     0.095 C 
HETATM   28  N1  UNL     1       5.491  22.044   5.651  1.00  0.00    -0.322 N 
ATOM     29  H1  UNL     1       4.979  22.306   4.809  1.00  0.00     0.169 HD
BRANCH  28  30
HETATM   30  C1  UNL     1       6.650  22.866   5.908  1.00  0.00     0.292 C 
BRANCH  30  31
HETATM   31  O1  UNL     1       7.067  22.833   7.155  1.00  0.00    -0.322 OA
ATOM     32  H1  UNL     1       7.898  23.271   7.298  1.00  0.00     0.222 HD
ENDBRANCH  30  31
BRANCH  30  33
HETATM   33  N7  UNL     1       7.171  23.505   4.947  1.00  0.00    -0.405 NA
BRANCH  33  34
HETATM   34  C16 UNL     1       7.385  24.011   3.645  1.00  0.00     0.262 C 
BRANCH  34  35
HETATM   35  C17 UNL     1       8.682  24.803   3.877  1.00  0.00    -0.013 A 
HETATM   36  C18 UNL     1       8.814  25.452   5.047  1.00  0.00     0.012 A 
HETATM   37  C19 UNL     1       9.810  26.425   5.111  1.00  0.00     0.018 A 
HETATM   38  C20 UNL     1      10.611  26.669   3.992  1.00  0.00     0.087 A 
HETATM   39  N8  UNL     1      10.432  25.978   2.868  1.00  0.00    -0.375 N 
HETATM   40  C21 UNL     1       9.457  25.024   2.789  1.00  0.00     0.097 A 
ATOM     41  H8  UNL     1      11.027  26.163   2.060  1.00  0.00     0.164 HD
ENDBRANCH  34  35
ENDBRANCH  33  34
ENDBRANCH  30  33
ENDBRANCH  28  30
ENDBRANCH  26  27
ENDBRANCH  25  26
ENDBRANCH  24  25
ENDBRANCH  23  24
ENDBRANCH   1  23
TORSDOF 10
ENDMDL
MODEL 2
REMARK VINA RESULT: -7.772632124      1.194      1.492
REMARK  10 active torsions:
REMARK  status: ('A' for Active; 'I' for Inactive)
REMARK    1  A    between atoms: O1_1  and  C1_3 
REMARK    2  A    between atoms: C1_3  and  N1_4 
REMARK    3  A    between atoms: C1_3  and  N7_33 
REMARK    4  A    between atoms: C2_6  and  C3_7 
REMARK    5  A    between atoms: C3_7  and  O2_8 
REMARK    6  A    between atoms: O2_8  and  N2_9 
REMARK    7  A    between atoms: N2_9  and  C4_10 
REMARK    8  A    between atoms: C4_10  and  C5_11 
REMARK    9  A    between atoms: N7_33  and  C16_34 
REMARK   10  A    between atoms: C16_34  and  C17_35 
ROOT
HETATM    1  C5  UNL     1       4.296  21.686  11.634  1.00  0.00     0.229 C 
HETATM    2  N3  UNL     1       3.566  22.786  11.027  1.00  0.00    -0.395 N 
ATOM      3  H3  UNL     1       4.066  23.624  10.733  1.00  0.00     0.155 HD
HETATM    4  C6  UNL     1       2.178  22.703  10.842  1.00  0.00     0.135 C 
HETATM    5  C7  UNL     1       1.671  24.141  10.710  1.00  0.00     0.133 C 
HETATM    6  N4  UNL     1       2.676  25.131  10.593  1.00  0.00    -0.418 N 
ATOM      7  H4  UNL     1       3.429  25.055   9.908  1.00  0.00     0.153 HD
HETATM    8  C8  UNL     1       2.578  26.260  11.501  1.00  0.00     0.141 C 
HETATM    9  C9  UNL     1       1.207  26.832  11.681  1.00  0.00     0.251 C 
HETATM   10  N5  UNL     1       0.983  27.307  13.034  1.00  0.00    -0.072 N 
ATOM     11  H51 UNL     1       0.563  28.237  13.038  1.00  0.00     0.277 HD
ATOM     12  H52 UNL     1       1.861  27.527  13.503  1.00  0.00     0.277 HD
HETATM   13  C10 UNL     1       0.190  26.362  13.804  1.00  0.00     0.258 C 
HETATM   14  C11 UNL     1       1.067  25.776  14.901  1.00  0.00     0.195 C 
HETATM   15  O3  UNL     1       0.811  24.432  15.064  1.00  0.00    -0.387 OA
HETATM   16  C12 UNL     1       1.841  23.591  14.629  1.00  0.00     0.193 C 
HETATM   17  C13 UNL     1       2.882  23.342  15.663  1.00  0.00     0.193 C 
HETATM   18  O4  UNL     1       4.068  24.026  15.324  1.00  0.00    -0.387 OA
HETATM   19  C14 UNL     1       5.091  23.179  14.955  1.00  0.00     0.187 C 
HETATM   20  C15 UNL     1       5.225  23.029  13.424  1.00  0.00     0.142 C 
HETATM   21  N6  UNL     1       4.470  21.880  13.043  1.00  0.00    -0.395 N 
ATOM     22  H6  UNL     1       4.078  21.237  13.731  1.00  0.00     0.155 HD
ENDROOT
BRANCH   1  23
HETATM   23  C4  UNL     1       5.623  21.877  10.914  1.00  0.00     0.236 C 
BRANCH  23  24
HETATM   24  N2  UNL     1       5.696  21.526   9.811  1.00  0.00    -0.294 NA
BRANCH  24  25
HETATM   25  O2  UNL     1       5.777  21.106   8.626  1.00  0.00    -0.205 OA
BRANCH  25  26
HETATM   26  C3  UNL     1       4.756  21.804   7.701  1.00  0.00     0.262 C 
BRANCH  26  27
HETATM   27  C2  UNL     1       5.315  21.248   6.421  1.00  0.00     0.095 C 
HETATM   28  N1  UNL     1       5.440  22.080   5.358  1.00  0.00    -0.322 N 
ATOM     29  H1  UNL     1       4.780  21.887   4.604  1.00  0.00     0.169 HD
BRANCH  28  30
HETATM   30  C1  UNL     1       6.326  23.188   5.086  1.00  0.00     0.292 C 
BRANCH  30  31
HETATM   31  O1  UNL     1       5.921  23.975   4.114  1.00  0.00    -0.322 OA
ATOM     32  H1  UNL     1       5.798  23.534   3.282  1.00  0.00     0.222 HD
ENDBRANCH  30  31
BRANCH  30  33
HETATM   33  N7  UNL     1       7.367  23.326   5.795  1.00  0.00    -0.405 NA
BRANCH  33  34
HETATM   34  C16 UNL     1       8.205  23.391   6.931  1.00  0.00     0.262 C 
BRANCH  34  35
HETATM   35  C17 UNL     1       9.089  24.586   6.541  1.00  0.00    -0.013 A 
HETATM   36  C18 UNL     1       8.776  25.251   5.413  1.00  0.00     0.012 A 
HETATM   37  C19 UNL     1       9.757  26.092   4.893  1.00  0.00     0.018 A 
HETATM   38  C20 UNL     1      10.985  26.213   5.550  1.00  0.00     0.087 A 
HETATM   39  N8  UNL     1      11.222  25.533   6.671  1.00  0.00    -0.375 N 
HETATM   40  C21 UNL     1      10.271  24.702   7.191  1.00  0.00     0.097 A 
ATOM     41  H8  UNL     1      12.120  25.634   7.143  1.00  0.00     0.164 HD
ENDBRANCH  34  35
ENDBRANCH  33  34
ENDBRANCH  30  33
ENDBRANCH  28  30
ENDBRANCH  26  27
ENDBRANCH  25  26
ENDBRANCH  24  25
ENDBRANCH  23  24
ENDBRANCH   1  23
TORSDOF 10
ENDMDL
MODEL 3
REMARK VINA RESULT: -7.522802078      4.098      7.098
REMARK  10 active torsions:
REMARK  status: ('A' for Active; 'I' for Inactive)
REMARK    1  A    between atoms: O1_1  and  C1_3 
REMARK    2  A    between atoms: C1_3  and  N1_4 
REMARK    3  A    between atoms: C1_3  and  N7_33 
REMARK    4  A    between atoms: C2_6  and  C3_7 
REMARK    5  A    between atoms: C3_7  and  O2_8 
REMARK    6  A    between atoms: O2_8  and  N2_9 
REMARK    7  A    between atoms: N2_9  and  C4_10 
REMARK    8  A    between atoms: C4_10  and  C5_11 
REMARK    9  A    between atoms: N7_33  and  C16_34 
REMARK   10  A    between atoms: C16_34  and  C17_35 
ROOT
HETATM    1  C5  UNL     1       0.469  24.194   9.972  1.00  0.00     0.229 C 
HETATM    2  N3  UNL     1       0.998  25.122  10.958  1.00  0.00    -0.395 N 
ATOM      3  H3  UNL     1       1.427  24.762  11.811  1.00  0.00     0.155 HD
HETATM    4  C6  UNL     1       0.924  26.506  10.746  1.00  0.00     0.135 C 
HETATM    5  C7  UNL     1       1.047  27.163  12.123  1.00  0.00     0.133 C 
HETATM    6  N4  UNL     1       1.403  26.293  13.181  1.00  0.00    -0.418 N 
ATOM      7  H4  UNL     1       2.207  25.668  13.117  1.00  0.00     0.153 HD
HETATM    8  C8  UNL     1       0.561  26.338  14.364  1.00  0.00     0.141 C 
HETATM    9  C9  UNL     1       0.169  27.705  14.831  1.00  0.00     0.251 C 
HETATM   10  N5  UNL     1      -1.171  27.734  15.387  1.00  0.00    -0.072 N 
ATOM     11  H51 UNL     1      -1.195  28.233  16.276  1.00  0.00     0.277 HD
ATOM     12  H52 UNL     1      -1.459  26.812  15.714  1.00  0.00     0.277 HD
HETATM   13  C10 UNL     1      -2.126  28.286  14.440  1.00  0.00     0.258 C 
HETATM   14  C11 UNL     1      -3.079  27.179  14.014  1.00  0.00     0.195 C 
HETATM   15  O3  UNL     1      -3.366  27.273  12.669  1.00  0.00    -0.387 OA
HETATM   16  C12 UNL     1      -2.803  26.259  11.887  1.00  0.00     0.193 C 
HETATM   17  C13 UNL     1      -3.644  25.034  11.804  1.00  0.00     0.193 C 
HETATM   18  O4  UNL     1      -3.055  23.997  12.557  1.00  0.00    -0.387 OA
HETATM   19  C14 UNL     1      -2.559  22.977  11.773  1.00  0.00     0.187 C 
HETATM   20  C15 UNL     1      -1.041  23.100  11.519  1.00  0.00     0.142 C 
HETATM   21  N6  UNL     1      -0.871  23.796  10.286  1.00  0.00    -0.395 N 
ATOM     22  H6  UNL     1      -1.656  23.999   9.666  1.00  0.00     0.155 HD
ENDROOT
BRANCH   1  23
HETATM   23  C4  UNL     1       1.427  23.038  10.219  1.00  0.00     0.236 C 
BRANCH  23  24
HETATM   24  N2  UNL     1       2.340  22.932   9.511  1.00  0.00    -0.294 NA
BRANCH  24  25
HETATM   25  O2  UNL     1       3.312  22.838   8.716  1.00  0.00    -0.205 OA
BRANCH  25  26
HETATM   26  C3  UNL     1       3.579  21.373   8.308  1.00  0.00     0.262 C 
BRANCH  26  27
HETATM   27  C2  UNL     1       5.077  21.472   8.377  1.00  0.00     0.095 C 
HETATM   28  N1  UNL     1       5.631  22.152   9.411  1.00  0.00    -0.322 N 
ATOM     29  H1  UNL     1       6.054  23.040   9.140  1.00  0.00     0.169 HD
BRANCH  28  30
HETATM   30  C1  UNL     1       5.737  21.863  10.822  1.00  0.00     0.292 C 
BRANCH  30  31
HETATM   31  O1  UNL     1       6.536  20.858  11.107  1.00  0.00    -0.322 OA
ATOM     32  H1  UNL     1       6.270  20.353  11.866  1.00  0.00     0.222 HD
ENDBRANCH  30  31
BRANCH  30  33
HETATM   33  N7  UNL     1       5.102  22.587  11.645  1.00  0.00    -0.405 NA
BRANCH  33  34
HETATM   34  C16 UNL     1       4.514  23.728  12.236  1.00  0.00     0.262 C 
BRANCH  34  35
HETATM   35  C17 UNL     1       4.299  23.206  13.665  1.00  0.00    -0.013 A 
HETATM   36  C18 UNL     1       3.187  23.600  14.312  1.00  0.00     0.012 A 
HETATM   37  C19 UNL     1       3.169  23.410  15.692  1.00  0.00     0.018 A 
HETATM   38  C20 UNL     1       4.270  22.826  16.326  1.00  0.00     0.087 A 
HETATM   39  N8  UNL     1       5.334  22.447  15.620  1.00  0.00    -0.375 N 
HETATM   40  C21 UNL     1       5.368  22.631  14.266  1.00  0.00     0.097 A 
ATOM     41  H8  UNL     1       6.128  22.018  16.093  1.00  0.00     0.164 HD
ENDBRANCH  34  35
ENDBRANCH  33  34
ENDBRANCH  30  33
ENDBRANCH  28  30
ENDBRANCH  26  27
ENDBRANCH  25  26
ENDBRANCH  24  25
ENDBRANCH  23  24
ENDBRANCH   1  23
TORSDOF 10
ENDMDL
MODEL 4
REMARK VINA RESULT: -7.522619660      4.745      7.544
REMARK  10 active torsions:
REMARK  status: ('A' for Active; 'I' for Inactive)
REMARK    1  A    between atoms: O1_1  and  C1_3 
REMARK    2  A    between atoms: C1_3  and  N1_4 
REMARK    3  A    between atoms: C1_3  and  N7_33 
REMARK    4  A    between atoms: C2_6  and  C3_7 
REMARK    5  A    between atoms: C3_7  and  O2_8 
REMARK    6  A    between atoms: O2_8  and  N2_9 
REMARK    7  A    between atoms: N2_9  and  C4_10 
REMARK    8  A    between atoms: C4_10  and  C5_11 
REMARK    9  A    between atoms: N7_33  and  C16_34 
REMARK   10  A    between atoms: C16_34  and  C17_35 
ROOT
HETATM    1  C5  UNL     1       1.721  23.114  10.760  1.00  0.00     0.229 C 
HETATM    2  N3  UNL     1       0.409  23.211  10.141  1.00  0.00    -0.395 N 
ATOM      3  H3  UNL     1       0.302  23.715   9.261  1.00  0.00     0.155 HD
HETATM    4  C6  UNL     1      -0.709  22.618  10.745  1.00  0.00     0.135 C 
HETATM    5  C7  UNL     1      -1.938  23.332  10.178  1.00  0.00     0.133 C 
HETATM    6  N4  UNL     1      -1.686  24.207   9.094  1.00  0.00    -0.418 N 
ATOM      7  H4  UNL     1      -1.156  23.910   8.275  1.00  0.00     0.153 HD
HETATM    8  C8  UNL     1      -2.224  25.551   9.212  1.00  0.00     0.141 C 
HETATM    9  C9  UNL     1      -3.623  25.648   9.735  1.00  0.00     0.251 C 
HETATM   10  N5  UNL     1      -3.822  26.826  10.560  1.00  0.00    -0.072 N 
ATOM     11  H51 UNL     1      -4.675  27.322  10.302  1.00  0.00     0.277 HD
ATOM     12  H52 UNL     1      -3.142  27.554  10.341  1.00  0.00     0.277 HD
HETATM   13  C10 UNL     1      -3.807  26.491  11.975  1.00  0.00     0.258 C 
HETATM   14  C11 UNL     1      -2.571  27.115  12.606  1.00  0.00     0.195 C 
HETATM   15  O3  UNL     1      -2.009  26.258  13.528  1.00  0.00    -0.387 OA
HETATM   16  C12 UNL     1      -0.785  25.707  13.132  1.00  0.00     0.193 C 
HETATM   17  C13 UNL     1       0.387  26.560  13.467  1.00  0.00     0.193 C 
HETATM   18  O4  UNL     1       0.915  27.133  12.290  1.00  0.00    -0.387 OA
HETATM   19  C14 UNL     1       2.148  26.620  11.948  1.00  0.00     0.187 C 
HETATM   20  C15 UNL     1       2.062  25.510  10.879  1.00  0.00     0.142 C 
HETATM   21  N6  UNL     1       2.011  24.261  11.567  1.00  0.00    -0.395 N 
ATOM     22  H6  UNL     1       2.171  24.190  12.572  1.00  0.00     0.155 HD
ENDROOT
BRANCH   1  23
HETATM   23  C4  UNL     1       2.565  23.140   9.494  1.00  0.00     0.236 C 
BRANCH  23  24
HETATM   24  N2  UNL     1       3.388  22.332   9.376  1.00  0.00    -0.294 NA
BRANCH  24  25
HETATM   25  O2  UNL     1       4.293  21.460   9.285  1.00  0.00    -0.205 OA
BRANCH  25  26
HETATM   26  C3  UNL     1       4.551  20.760  10.637  1.00  0.00     0.262 C 
BRANCH  26  27
HETATM   27  C2  UNL     1       5.828  21.492  10.940  1.00  0.00     0.095 C 
HETATM   28  N1  UNL     1       5.774  22.836  11.116  1.00  0.00    -0.322 N 
ATOM     29  H1  UNL     1       6.200  23.368  10.357  1.00  0.00     0.169 HD
BRANCH  28  30
HETATM   30  C1  UNL     1       5.229  23.660  12.170  1.00  0.00     0.292 C 
BRANCH  30  31
HETATM   31  O1  UNL     1       5.188  24.943  11.883  1.00  0.00    -0.322 OA
ATOM     32  H1  UNL     1       5.071  25.506  12.639  1.00  0.00     0.222 HD
ENDBRANCH  30  31
BRANCH  30  33
HETATM   33  N7  UNL     1       4.823  23.104  13.233  1.00  0.00    -0.405 NA
BRANCH  33  34
HETATM   34  C16 UNL     1       4.809  22.289  14.387  1.00  0.00     0.262 C 
BRANCH  34  35
HETATM   35  C17 UNL     1       3.968  23.170  15.324  1.00  0.00    -0.013 A 
HETATM   36  C18 UNL     1       4.336  23.232  16.617  1.00  0.00     0.012 A 
HETATM   37  C19 UNL     1       3.394  23.741  17.509  1.00  0.00     0.018 A 
HETATM   38  C20 UNL     1       2.148  24.161  17.035  1.00  0.00     0.087 A 
HETATM   39  N8  UNL     1       1.856  24.082  15.738  1.00  0.00    -0.375 N 
HETATM   40  C21 UNL     1       2.768  23.582  14.852  1.00  0.00     0.097 A 
ATOM     41  H8  UNL     1       0.945  24.396  15.404  1.00  0.00     0.164 HD
ENDBRANCH  34  35
ENDBRANCH  33  34
ENDBRANCH  30  33
ENDBRANCH  28  30
ENDBRANCH  26  27
ENDBRANCH  25  26
ENDBRANCH  24  25
ENDBRANCH  23  24
ENDBRANCH   1  23
TORSDOF 10
ENDMDL
MODEL 5
REMARK VINA RESULT: -7.402440521      4.875      7.987
REMARK  10 active torsions:
REMARK  status: ('A' for Active; 'I' for Inactive)
REMARK    1  A    between atoms: O1_1  and  C1_3 
REMARK    2  A    between atoms: C1_3  and  N1_4 
REMARK    3  A    between atoms: C1_3  and  N7_33 
REMARK    4  A    between atoms: C2_6  and  C3_7 
REMARK    5  A    between atoms: C3_7  and  O2_8 
REMARK    6  A    between atoms: O2_8  and  N2_9 
REMARK    7  A    between atoms: N2_9  and  C4_10 
REMARK    8  A    between atoms: C4_10  and  C5_11 
REMARK    9  A    between atoms: N7_33  and  C16_34 
REMARK   10  A    between atoms: C16_34  and  C17_35 
ROOT
HETATM    1  C5  UNL     1       1.297  23.711   9.972  1.00  0.00     0.229 C 
HETATM    2  N3  UNL     1       1.411  24.730  11.002  1.00  0.00    -0.395 N 
ATOM      3  H3  UNL     1       1.339  24.467  11.984  1.00  0.00     0.155 HD
HETATM    4  C6  UNL     1       1.622  26.073  10.655  1.00  0.00     0.135 C 
HETATM    5  C7  UNL     1       1.164  26.907  11.853  1.00  0.00     0.133 C 
HETATM    6  N4  UNL     1       0.865  26.174  13.026  1.00  0.00    -0.418 N 
ATOM      7  H4  UNL     1       1.518  25.493  13.416  1.00  0.00     0.153 HD
HETATM    8  C8  UNL     1      -0.421  26.442  13.645  1.00  0.00     0.141 C 
HETATM    9  C9  UNL     1      -0.810  27.884  13.737  1.00  0.00     0.251 C 
HETATM   10  N5  UNL     1      -2.238  28.081  13.571  1.00  0.00    -0.072 N 
ATOM     11  H51 UNL     1      -2.615  28.701  14.288  1.00  0.00     0.277 HD
ATOM     12  H52 UNL     1      -2.761  27.236  13.801  1.00  0.00     0.277 HD
HETATM   13  C10 UNL     1      -2.555  28.557  12.235  1.00  0.00     0.258 C 
HETATM   14  C11 UNL     1      -3.327  27.467  11.504  1.00  0.00     0.195 C 
HETATM   15  O3  UNL     1      -2.932  27.390  10.186  1.00  0.00    -0.387 OA
HETATM   16  C12 UNL     1      -2.200  26.240   9.870  1.00  0.00     0.193 C 
HETATM   17  C13 UNL     1      -3.051  25.076   9.503  1.00  0.00     0.193 C 
HETATM   18  O4  UNL     1      -3.023  24.117  10.538  1.00  0.00    -0.387 OA
HETATM   19  C14 UNL     1      -2.349  22.967  10.188  1.00  0.00     0.187 C 
HETATM   20  C15 UNL     1      -0.889  22.949  10.690  1.00  0.00     0.142 C 
HETATM   21  N6  UNL     1      -0.072  23.452   9.634  1.00  0.00    -0.395 N 
ATOM     22  H6  UNL     1      -0.439  23.618   8.697  1.00  0.00     0.155 HD
ENDROOT
BRANCH   1  23
HETATM   23  C4  UNL     1       1.870  22.540  10.755  1.00  0.00     0.236 C 
BRANCH  23  24
HETATM   24  N2  UNL     1       2.828  22.031  10.344  1.00  0.00    -0.294 NA
BRANCH  24  25
HETATM   25  O2  UNL     1       3.855  21.444   9.911  1.00  0.00    -0.205 OA
BRANCH  25  26
HETATM   26  C3  UNL     1       4.610  20.705  11.036  1.00  0.00     0.262 C 
BRANCH  26  27
HETATM   27  C2  UNL     1       5.775  21.655  11.078  1.00  0.00     0.095 C 
HETATM   28  N1  UNL     1       5.519  22.986  11.132  1.00  0.00    -0.322 N 
ATOM     29  H1  UNL     1       5.749  23.483  10.272  1.00  0.00     0.169 HD
BRANCH  28  30
HETATM   30  C1  UNL     1       4.985  23.834  12.172  1.00  0.00     0.292 C 
BRANCH  30  31
HETATM   31  O1  UNL     1       4.569  25.007  11.748  1.00  0.00    -0.322 OA
ATOM     32  H1  UNL     1       5.064  25.742  12.090  1.00  0.00     0.222 HD
ENDBRANCH  30  31
BRANCH  30  33
HETATM   33  N7  UNL     1       4.933  23.391  13.357  1.00  0.00    -0.405 NA
BRANCH  33  34
HETATM   34  C16 UNL     1       5.352  22.899  14.614  1.00  0.00     0.262 C 
BRANCH  34  35
HETATM   35  C17 UNL     1       4.075  23.143  15.434  1.00  0.00    -0.013 A 
HETATM   36  C18 UNL     1       2.957  23.469  14.761  1.00  0.00     0.012 A 
HETATM   37  C19 UNL     1       1.916  24.014  15.510  1.00  0.00     0.018 A 
HETATM   38  C20 UNL     1       2.071  24.185  16.889  1.00  0.00     0.087 A 
HETATM   39  N8  UNL     1       3.204  23.828  17.492  1.00  0.00    -0.375 N 
HETATM   40  C21 UNL     1       4.235  23.296  16.770  1.00  0.00     0.097 A 
ATOM     41  H8  UNL     1       3.303  23.954  18.499  1.00  0.00     0.164 HD
ENDBRANCH  34  35
ENDBRANCH  33  34
ENDBRANCH  30  33
ENDBRANCH  28  30
ENDBRANCH  26  27
ENDBRANCH  25  26
ENDBRANCH  24  25
ENDBRANCH  23  24
ENDBRANCH   1  23
TORSDOF 10
ENDMDL
