MODEL 1
REMARK VINA RESULT: -9.564544126      0.000      0.000
REMARK  5 active torsions:
REMARK  status: ('A' for Active; 'I' for Inactive)
REMARK    1  A    between atoms: C2_2  and  C3_3 
REMARK    2  A    between atoms: C3_3  and  C4_4 
REMARK    3  A    between atoms: C4_4  and  C5_5 
REMARK    4  A    between atoms: N1_7  and  C7_8 
REMARK    5  A    between atoms: C12_19  and  C13_20 
ROOT
HETATM    1  C13 UNL     1      24.438 -19.863 -25.537  1.00  0.00     0.049 C 
HETATM    2  C14 UNL     1      23.747 -19.009 -26.190  1.00  0.00     0.021 C 
HETATM    3  C15 UNL     1      23.653 -17.579 -25.700  1.00  0.00     0.060 C 
HETATM    4  C16 UNL     1      22.990 -19.289 -27.357  1.00  0.00     0.094 C 
HETATM    5  N4  UNL     1      22.335 -19.505 -28.318  1.00  0.00    -0.192 NA
ENDROOT
BRANCH   1   6
HETATM    6  C12 UNL     1      24.668 -21.277 -25.825  1.00  0.00     0.064 A 
HETATM    7  N1  UNL     1      23.889 -22.273 -25.286  1.00  0.00    -0.157 N 
HETATM    8  C6  UNL     1      24.400 -23.432 -25.721  1.00  0.00     0.123 A 
HETATM    9  C5  UNL     1      25.481 -23.206 -26.522  1.00  0.00    -0.033 A 
HETATM   10  C17 UNL     1      25.664 -21.822 -26.597  1.00  0.00    -0.026 A 
HETATM   11  C18 UNL     1      26.759 -21.209 -27.354  1.00  0.00     0.051 C 
BRANCH   7  12
HETATM   12  C7  UNL     1      22.760 -22.111 -24.426  1.00  0.00     0.692 A 
HETATM   13  N2  UNL     1      21.498 -22.054 -24.924  1.00  0.00    -0.192 N 
HETATM   14  C8  UNL     1      20.423 -21.902 -24.128  1.00  0.00     0.067 A 
ATOM     15  H2  UNL     1      21.361 -22.128 -25.932  1.00  0.00     0.184 HD
HETATM   16  C9  UNL     1      19.034 -21.839 -24.660  1.00  0.00     0.072 C 
HETATM   17  C10 UNL     1      20.592 -21.798 -22.756  1.00  0.00     0.207 A 
HETATM   18  F1  UNL     1      19.529 -21.644 -21.923  1.00  0.00    -0.198 F 
HETATM   19  C11 UNL     1      21.880 -21.858 -22.254  1.00  0.00     0.300 A 
HETATM   20  O1  UNL     1      22.109 -21.768 -21.005  1.00  0.00    -0.264 OA
HETATM   21  N3  UNL     1      22.919 -22.010 -23.091  1.00  0.00    -0.153 N 
ATOM     22  H3  UNL     1      23.861 -22.051 -22.703  1.00  0.00     0.187 HD
ENDBRANCH   7  12
BRANCH   9  23
HETATM   23  C4  UNL     1      26.307 -24.251 -27.179  1.00  0.00     0.040 C 
BRANCH  23  24
HETATM   24  C3  UNL     1      27.208 -24.872 -26.133  1.00  0.00     0.004 C 
BRANCH  24  25
HETATM   25  C2  UNL     1      28.668 -24.689 -26.553  1.00  0.00    -0.004 C 
HETATM   26  C1  UNL     1      29.269 -23.601 -25.720  1.00  0.00     0.005 C 
ENDBRANCH  24  25
ENDBRANCH  23  24
ENDBRANCH   9  23
ENDBRANCH   1   6
TORSDOF 5
ENDMDL
MODEL 2
REMARK VINA RESULT: -9.323193393      3.634      6.968
REMARK  5 active torsions:
REMARK  status: ('A' for Active; 'I' for Inactive)
REMARK    1  A    between atoms: C2_2  and  C3_3 
REMARK    2  A    between atoms: C3_3  and  C4_4 
REMARK    3  A    between atoms: C4_4  and  C5_5 
REMARK    4  A    between atoms: N1_7  and  C7_8 
REMARK    5  A    between atoms: C12_19  and  C13_20 
ROOT
HETATM    1  C13 UNL     1      24.428 -22.197 -26.733  1.00  0.00     0.049 C 
HETATM    2  C14 UNL     1      25.442 -22.973 -26.788  1.00  0.00     0.021 C 
HETATM    3  C15 UNL     1      25.773 -23.696 -28.077  1.00  0.00     0.060 C 
HETATM    4  C16 UNL     1      26.303 -23.271 -25.701  1.00  0.00     0.094 C 
HETATM    5  N4  UNL     1      27.021 -23.550 -24.803  1.00  0.00    -0.192 NA
ENDROOT
BRANCH   1   6
HETATM    6  C12 UNL     1      23.931 -21.407 -25.609  1.00  0.00     0.064 A 
HETATM    7  N1  UNL     1      24.239 -20.076 -25.454  1.00  0.00    -0.157 N 
HETATM    8  C6  UNL     1      23.661 -19.684 -24.312  1.00  0.00     0.123 A 
HETATM    9  C5  UNL     1      22.993 -20.724 -23.733  1.00  0.00    -0.033 A 
HETATM   10  C17 UNL     1      23.160 -21.839 -24.559  1.00  0.00    -0.026 A 
HETATM   11  C18 UNL     1      22.600 -23.154 -24.234  1.00  0.00     0.051 C 
BRANCH   7  12
HETATM   12  C7  UNL     1      25.023 -19.267 -26.331  1.00  0.00     0.692 A 
HETATM   13  N2  UNL     1      24.443 -18.376 -27.176  1.00  0.00    -0.192 N 
HETATM   14  C8  UNL     1      25.167 -17.606 -28.009  1.00  0.00     0.067 A 
ATOM     15  H2  UNL     1      23.427 -18.289 -27.180  1.00  0.00     0.184 HD
HETATM   16  C9  UNL     1      24.544 -16.625 -28.940  1.00  0.00     0.072 C 
HETATM   17  C10 UNL     1      26.549 -17.713 -28.018  1.00  0.00     0.207 A 
HETATM   18  F1  UNL     1      27.311 -16.951 -28.846  1.00  0.00    -0.198 F 
HETATM   19  C11 UNL     1      27.136 -18.622 -27.155  1.00  0.00     0.300 A 
HETATM   20  O1  UNL     1      28.399 -18.773 -27.111  1.00  0.00    -0.264 OA
HETATM   21  N3  UNL     1      26.368 -19.367 -26.344  1.00  0.00    -0.153 N 
ATOM     22  H3  UNL     1      26.817 -20.032 -25.715  1.00  0.00     0.187 HD
ENDBRANCH   7  12
BRANCH   9  23
HETATM   23  C4  UNL     1      22.240 -20.666 -22.454  1.00  0.00     0.040 C 
BRANCH  23  24
HETATM   24  C3  UNL     1      20.823 -20.226 -22.757  1.00  0.00     0.004 C 
BRANCH  24  25
HETATM   25  C2  UNL     1      19.857 -21.360 -22.406  1.00  0.00    -0.004 C 
HETATM   26  C1  UNL     1      18.467 -20.916 -22.731  1.00  0.00     0.005 C 
ENDBRANCH  24  25
ENDBRANCH  23  24
ENDBRANCH   9  23
ENDBRANCH   1   6
TORSDOF 5
ENDMDL
MODEL 3
REMARK VINA RESULT: -9.283260663      1.179      1.549
REMARK  5 active torsions:
REMARK  status: ('A' for Active; 'I' for Inactive)
REMARK    1  A    between atoms: C2_2  and  C3_3 
REMARK    2  A    between atoms: C3_3  and  C4_4 
REMARK    3  A    between atoms: C4_4  and  C5_5 
REMARK    4  A    between atoms: N1_7  and  C7_8 
REMARK    5  A    between atoms: C12_19  and  C13_20 
ROOT
HETATM    1  C13 UNL     1      22.549 -21.416 -27.421  1.00  0.00     0.049 C 
HETATM    2  C14 UNL     1      22.555 -20.147 -27.573  1.00  0.00     0.021 C 
HETATM    3  C15 UNL     1      21.398 -19.463 -28.269  1.00  0.00     0.060 C 
HETATM    4  C16 UNL     1      23.605 -19.280 -27.173  1.00  0.00     0.094 C 
HETATM    5  N4  UNL     1      24.478 -18.542 -26.868  1.00  0.00    -0.192 NA
ENDROOT
BRANCH   1   6
HETATM    6  C12 UNL     1      23.545 -22.273 -26.783  1.00  0.00     0.064 A 
HETATM    7  N1  UNL     1      23.449 -22.659 -25.467  1.00  0.00    -0.157 N 
HETATM    8  C6  UNL     1      24.538 -23.393 -25.206  1.00  0.00     0.123 A 
HETATM    9  C5  UNL     1      25.326 -23.488 -26.316  1.00  0.00    -0.033 A 
HETATM   10  C17 UNL     1      24.698 -22.771 -27.338  1.00  0.00    -0.026 A 
HETATM   11  C18 UNL     1      25.278 -22.629 -28.676  1.00  0.00     0.051 C 
BRANCH   7  12
HETATM   12  C7  UNL     1      22.400 -22.339 -24.552  1.00  0.00     0.692 A 
HETATM   13  N2  UNL     1      21.113 -22.224 -24.968  1.00  0.00    -0.192 N 
HETATM   14  C8  UNL     1      20.112 -21.924 -24.119  1.00  0.00     0.067 A 
ATOM     15  H2  UNL     1      20.897 -22.370 -25.954  1.00  0.00     0.184 HD
HETATM   16  C9  UNL     1      18.697 -21.796 -24.561  1.00  0.00     0.072 C 
HETATM   17  C10 UNL     1      20.387 -21.721 -22.775  1.00  0.00     0.207 A 
HETATM   18  F1  UNL     1      19.402 -21.416 -21.891  1.00  0.00    -0.198 F 
HETATM   19  C11 UNL     1      21.701 -21.839 -22.357  1.00  0.00     0.300 A 
HETATM   20  O1  UNL     1      22.025 -21.666 -21.138  1.00  0.00    -0.264 OA
HETATM   21  N3  UNL     1      22.662 -22.141 -23.244  1.00  0.00    -0.153 N 
ATOM     22  H3  UNL     1      23.625 -22.224 -22.918  1.00  0.00     0.187 HD
ENDBRANCH   7  12
BRANCH   9  23
HETATM   23  C4  UNL     1      26.617 -24.218 -26.402  1.00  0.00     0.040 C 
BRANCH  23  24
HETATM   24  C3  UNL     1      27.456 -23.842 -25.199  1.00  0.00     0.004 C 
BRANCH  24  25
HETATM   25  C2  UNL     1      28.931 -23.805 -25.604  1.00  0.00    -0.004 C 
HETATM   26  C1  UNL     1      29.252 -25.066 -26.342  1.00  0.00     0.005 C 
ENDBRANCH  24  25
ENDBRANCH  23  24
ENDBRANCH   9  23
ENDBRANCH   1   6
TORSDOF 5
ENDMDL
MODEL 4
REMARK VINA RESULT: -9.222408818      4.019      6.827
REMARK  5 active torsions:
REMARK  status: ('A' for Active; 'I' for Inactive)
REMARK    1  A    between atoms: C2_2  and  C3_3 
REMARK    2  A    between atoms: C3_3  and  C4_4 
REMARK    3  A    between atoms: C4_4  and  C5_5 
REMARK    4  A    between atoms: N1_7  and  C7_8 
REMARK    5  A    between atoms: C12_19  and  C13_20 
ROOT
HETATM    1  C13 UNL     1      24.074 -21.827 -26.914  1.00  0.00     0.049 C 
HETATM    2  C14 UNL     1      23.643 -21.860 -28.117  1.00  0.00     0.021 C 
HETATM    3  C15 UNL     1      24.264 -22.813 -29.117  1.00  0.00     0.060 C 
HETATM    4  C16 UNL     1      22.622 -21.027 -28.643  1.00  0.00     0.094 C 
HETATM    5  N4  UNL     1      21.789 -20.328 -29.109  1.00  0.00    -0.192 NA
ENDROOT
BRANCH   1   6
HETATM    6  C12 UNL     1      23.624 -21.001 -25.796  1.00  0.00     0.064 A 
HETATM    7  N1  UNL     1      24.034 -19.699 -25.632  1.00  0.00    -0.157 N 
HETATM    8  C6  UNL     1      23.472 -19.263 -24.498  1.00  0.00     0.123 A 
HETATM    9  C5  UNL     1      22.716 -20.248 -23.932  1.00  0.00    -0.033 A 
HETATM   10  C17 UNL     1      22.806 -21.372 -24.758  1.00  0.00    -0.026 A 
HETATM   11  C18 UNL     1      22.138 -22.639 -24.445  1.00  0.00     0.051 C 
BRANCH   7  12
HETATM   12  C7  UNL     1      24.894 -18.954 -26.496  1.00  0.00     0.692 A 
HETATM   13  N2  UNL     1      24.394 -18.062 -27.389  1.00  0.00    -0.192 N 
HETATM   14  C8  UNL     1      25.190 -17.351 -28.210  1.00  0.00     0.067 A 
ATOM     15  H2  UNL     1      23.384 -17.926 -27.440  1.00  0.00     0.184 HD
HETATM   16  C9  UNL     1      24.656 -16.369 -29.193  1.00  0.00     0.072 C 
HETATM   17  C10 UNL     1      26.564 -17.524 -28.156  1.00  0.00     0.207 A 
HETATM   18  F1  UNL     1      27.397 -16.823 -28.970  1.00  0.00    -0.198 F 
HETATM   19  C11 UNL     1      27.069 -18.434 -27.244  1.00  0.00     0.300 A 
HETATM   20  O1  UNL     1      28.320 -18.643 -27.140  1.00  0.00    -0.264 OA
HETATM   21  N3  UNL     1      26.231 -19.118 -26.447  1.00  0.00    -0.153 N 
ATOM     22  H3  UNL     1      26.621 -19.785 -25.781  1.00  0.00     0.187 HD
ENDBRANCH   7  12
BRANCH   9  23
HETATM   23  C4  UNL     1      21.950 -20.132 -22.665  1.00  0.00     0.040 C 
BRANCH  23  24
HETATM   24  C3  UNL     1      20.557 -19.640 -22.994  1.00  0.00     0.004 C 
BRANCH  24  25
HETATM   25  C2  UNL     1      19.540 -20.727 -22.638  1.00  0.00    -0.004 C 
HETATM   26  C1  UNL     1      18.800 -21.111 -23.879  1.00  0.00     0.005 C 
ENDBRANCH  24  25
ENDBRANCH  23  24
ENDBRANCH   9  23
ENDBRANCH   1   6
TORSDOF 5
ENDMDL
MODEL 5
REMARK VINA RESULT: -9.053595056      3.770      7.308
REMARK  5 active torsions:
REMARK  status: ('A' for Active; 'I' for Inactive)
REMARK    1  A    between atoms: C2_2  and  C3_3 
REMARK    2  A    between atoms: C3_3  and  C4_4 
REMARK    3  A    between atoms: C4_4  and  C5_5 
REMARK    4  A    between atoms: N1_7  and  C7_8 
REMARK    5  A    between atoms: C12_19  and  C13_20 
ROOT
HETATM    1  C13 UNL     1      21.521 -19.286 -24.576  1.00  0.00     0.049 C 
HETATM    2  C14 UNL     1      22.468 -19.144 -23.730  1.00  0.00     0.021 C 
HETATM    3  C15 UNL     1      23.280 -17.866 -23.711  1.00  0.00     0.060 C 
HETATM    4  C16 UNL     1      22.880 -20.124 -22.790  1.00  0.00     0.094 C 
HETATM    5  N4  UNL     1      23.254 -20.934 -22.013  1.00  0.00    -0.192 NA
ENDROOT
BRANCH   1   6
HETATM    6  C12 UNL     1      20.618 -20.419 -24.767  1.00  0.00     0.064 A 
HETATM    7  N1  UNL     1      20.644 -21.197 -25.899  1.00  0.00    -0.157 N 
HETATM    8  C6  UNL     1      19.668 -22.103 -25.760  1.00  0.00     0.123 A 
HETATM    9  C5  UNL     1      19.019 -21.926 -24.573  1.00  0.00    -0.033 A 
HETATM   10  C17 UNL     1      19.621 -20.845 -23.924  1.00  0.00    -0.026 A 
HETATM   11  C18 UNL     1      19.162 -20.347 -22.624  1.00  0.00     0.051 C 
BRANCH   7  12
HETATM   12  C7  UNL     1      21.531 -21.068 -27.011  1.00  0.00     0.692 A 
HETATM   13  N2  UNL     1      22.546 -21.948 -27.209  1.00  0.00    -0.192 N 
HETATM   14  C8  UNL     1      23.391 -21.841 -28.252  1.00  0.00     0.067 A 
ATOM     15  H2  UNL     1      22.671 -22.714 -26.548  1.00  0.00     0.184 HD
HETATM   16  C9  UNL     1      24.506 -22.800 -28.482  1.00  0.00     0.072 C 
HETATM   17  C10 UNL     1      23.235 -20.805 -29.160  1.00  0.00     0.207 A 
HETATM   18  F1  UNL     1      24.070 -20.667 -30.223  1.00  0.00    -0.198 F 
HETATM   19  C11 UNL     1      22.200 -19.911 -28.954  1.00  0.00     0.300 A 
HETATM   20  O1  UNL     1      21.999 -18.936 -29.747  1.00  0.00    -0.264 OA
HETATM   21  N3  UNL     1      21.384 -20.063 -27.897  1.00  0.00    -0.153 N 
ATOM     22  H3  UNL     1      20.626 -19.393 -27.761  1.00  0.00     0.187 HD
ENDBRANCH   7  12
BRANCH   9  23
HETATM   23  C4  UNL     1      17.878 -22.738 -24.079  1.00  0.00     0.040 C 
BRANCH  23  24
HETATM   24  C3  UNL     1      16.597 -21.989 -24.378  1.00  0.00     0.004 C 
BRANCH  24  25
HETATM   25  C2  UNL     1      15.773 -21.865 -23.095  1.00  0.00    -0.004 C 
HETATM   26  C1  UNL     1      16.077 -23.039 -22.220  1.00  0.00     0.005 C 
ENDBRANCH  24  25
ENDBRANCH  23  24
ENDBRANCH   9  23
ENDBRANCH   1   6
TORSDOF 5
ENDMDL
