MODEL 1
REMARK VINA RESULT: -9.659022765      0.000      0.000
REMARK  3 active torsions:
REMARK  status: ('A' for Active; 'I' for Inactive)
REMARK       I    between atoms: C1_2  and  N1_3 
REMARK       I    between atoms: C1_2  and  N3_21 
REMARK    1  A    between atoms: N1_3  and  N2_5 
REMARK    2  A    between atoms: N2_5  and  C2_7 
REMARK    3  A    between atoms: N3_21  and  C14_23 
ROOT
HETATM    1  C2  UNL     1     -17.115  13.170 -18.970  1.00  0.00     0.138 A 
HETATM    2  C3  UNL     1     -18.344  12.449 -19.370  1.00  0.00     0.317 A 
HETATM    3  O2  UNL     1     -19.366  13.041 -19.779  1.00  0.00    -0.257 OA
HETATM    4  O3  UNL     1     -18.063  11.119 -19.182  1.00  0.00    -0.273 OA
HETATM    5  C4  UNL     1     -16.768  10.929 -18.700  1.00  0.00     0.093 A 
HETATM    6  C5  UNL     1     -16.076   9.763 -18.375  1.00  0.00     0.039 A 
HETATM    7  C6  UNL     1     -14.786   9.871 -17.913  1.00  0.00     0.015 A 
HETATM    8  C7  UNL     1     -14.169  11.095 -17.767  1.00  0.00    -0.025 A 
HETATM    9  C8  UNL     1     -12.869  11.205 -17.303  1.00  0.00     0.012 A 
HETATM   10  C9  UNL     1     -12.222  12.406 -17.145  1.00  0.00     0.001 A 
HETATM   11  C10 UNL     1     -12.936  13.542 -17.477  1.00  0.00     0.001 A 
HETATM   12  C11 UNL     1     -14.233  13.491 -17.944  1.00  0.00     0.013 A 
HETATM   13  C12 UNL     1     -14.846  12.263 -18.088  1.00  0.00    -0.010 A 
HETATM   14  C13 UNL     1     -16.157  12.168 -18.559  1.00  0.00     0.043 A 
ENDROOT
BRANCH   1  15
HETATM   15  N2  UNL     1     -16.951  14.437 -18.991  1.00  0.00    -0.290 N 
ATOM     16  H2  UNL     1     -17.160  14.986 -18.158  1.00  0.00     0.187 HD
BRANCH  15  17
HETATM   17  N1  UNL     1     -16.488  15.076 -20.142  1.00  0.00    -0.251 N 
HETATM   18  C1  UNL     1     -15.492  16.122 -20.058  1.00  0.00     0.339 C 
HETATM   19  O1  UNL     1     -15.091  16.402 -18.924  1.00  0.00    -0.245 OA
HETATM   20  N3  UNL     1     -15.029  16.763 -21.230  1.00  0.00    -0.308 N 
ATOM     21  H3  UNL     1     -15.425  16.448 -22.115  1.00  0.00     0.170 HD
ATOM     22  H1  UNL     1     -16.856  14.802 -21.053  1.00  0.00     0.191 HD
BRANCH  20  23
HETATM   23  C14 UNL     1     -14.081  17.787 -21.291  1.00  0.00     0.036 A 
HETATM   24  C15 UNL     1     -12.728  17.433 -21.355  1.00  0.00     0.029 A 
HETATM   25  C16 UNL     1     -11.740  18.376 -21.436  1.00  0.00     0.002 A 
HETATM   26  C17 UNL     1     -12.068  19.720 -21.458  1.00  0.00     0.000 A 
HETATM   27  C18 UNL     1     -13.381  20.118 -21.399  1.00  0.00     0.002 A 
HETATM   28  C19 UNL     1     -14.367  19.129 -21.316  1.00  0.00     0.029 A 
ENDBRANCH  20  23
ENDBRANCH  15  17
ENDBRANCH   1  15
TORSDOF 3
ENDMDL
MODEL 2
REMARK VINA RESULT: -9.493793724      2.846      5.347
REMARK  3 active torsions:
REMARK  status: ('A' for Active; 'I' for Inactive)
REMARK       I    between atoms: C1_2  and  N1_3 
REMARK       I    between atoms: C1_2  and  N3_21 
REMARK    1  A    between atoms: N1_3  and  N2_5 
REMARK    2  A    between atoms: N2_5  and  C2_7 
REMARK    3  A    between atoms: N3_21  and  C14_23 
ROOT
HETATM    1  C2  UNL     1     -14.305  15.358 -17.817  1.00  0.00     0.138 A 
HETATM    2  C3  UNL     1     -13.174  16.304 -17.678  1.00  0.00     0.317 A 
HETATM    3  O2  UNL     1     -13.329  17.543 -17.713  1.00  0.00    -0.257 OA
HETATM    4  O3  UNL     1     -12.061  15.518 -17.521  1.00  0.00    -0.273 OA
HETATM    5  C4  UNL     1     -12.379  14.160 -17.547  1.00  0.00     0.093 A 
HETATM    6  C5  UNL     1     -11.572  13.029 -17.426  1.00  0.00     0.039 A 
HETATM    7  C6  UNL     1     -12.162  11.790 -17.491  1.00  0.00     0.015 A 
HETATM    8  C7  UNL     1     -13.521  11.643 -17.670  1.00  0.00    -0.025 A 
HETATM    9  C8  UNL     1     -14.117  10.395 -17.735  1.00  0.00     0.012 A 
HETATM   10  C9  UNL     1     -15.467  10.210 -17.912  1.00  0.00     0.001 A 
HETATM   11  C10 UNL     1     -16.238  11.352 -18.028  1.00  0.00     0.001 A 
HETATM   12  C11 UNL     1     -15.697  12.619 -17.971  1.00  0.00     0.013 A 
HETATM   13  C12 UNL     1     -14.336  12.761 -17.792  1.00  0.00    -0.010 A 
HETATM   14  C13 UNL     1     -13.750  14.026 -17.728  1.00  0.00     0.043 A 
ENDROOT
BRANCH   1  15
HETATM   15  N2  UNL     1     -15.530  15.677 -17.984  1.00  0.00    -0.290 N 
ATOM     16  H2  UNL     1     -16.187  15.577 -17.211  1.00  0.00     0.187 HD
BRANCH  15  17
HETATM   17  N1  UNL     1     -15.979  16.161 -19.213  1.00  0.00    -0.251 N 
HETATM   18  C1  UNL     1     -17.331  15.907 -19.660  1.00  0.00     0.339 C 
HETATM   19  O1  UNL     1     -18.042  15.248 -18.895  1.00  0.00    -0.245 OA
HETATM   20  N3  UNL     1     -17.777  16.402 -20.907  1.00  0.00    -0.308 N 
ATOM     21  H3  UNL     1     -17.107  16.940 -21.456  1.00  0.00     0.170 HD
ATOM     22  H1  UNL     1     -15.346  16.701 -19.804  1.00  0.00     0.191 HD
BRANCH  20  23
HETATM   23  C14 UNL     1     -19.047  16.225 -21.459  1.00  0.00     0.036 A 
HETATM   24  C15 UNL     1     -19.208  15.248 -22.449  1.00  0.00     0.029 A 
HETATM   25  C16 UNL     1     -20.424  15.000 -23.026  1.00  0.00     0.002 A 
HETATM   26  C17 UNL     1     -21.536  15.724 -22.633  1.00  0.00     0.000 A 
HETATM   27  C18 UNL     1     -21.430  16.693 -21.665  1.00  0.00     0.002 A 
HETATM   28  C19 UNL     1     -20.173  16.922 -21.095  1.00  0.00     0.029 A 
ENDBRANCH  20  23
ENDBRANCH  15  17
ENDBRANCH   1  15
TORSDOF 3
ENDMDL
MODEL 3
REMARK VINA RESULT: -9.332291884      2.010      2.141
REMARK  3 active torsions:
REMARK  status: ('A' for Active; 'I' for Inactive)
REMARK       I    between atoms: C1_2  and  N1_3 
REMARK       I    between atoms: C1_2  and  N3_21 
REMARK    1  A    between atoms: N1_3  and  N2_5 
REMARK    2  A    between atoms: N2_5  and  C2_7 
REMARK    3  A    between atoms: N3_21  and  C14_23 
ROOT
HETATM    1  C2  UNL     1     -17.059  13.669 -19.876  1.00  0.00     0.138 A 
HETATM    2  C3  UNL     1     -18.503  13.472 -20.139  1.00  0.00     0.317 A 
HETATM    3  O2  UNL     1     -19.209  14.344 -20.688  1.00  0.00    -0.257 OA
HETATM    4  O3  UNL     1     -18.790  12.217 -19.665  1.00  0.00    -0.273 OA
HETATM    5  C4  UNL     1     -17.662  11.598 -19.125  1.00  0.00     0.093 A 
HETATM    6  C5  UNL     1     -17.500  10.342 -18.542  1.00  0.00     0.039 A 
HETATM    7  C6  UNL     1     -16.254   9.984 -18.086  1.00  0.00     0.015 A 
HETATM    8  C7  UNL     1     -15.173  10.833 -18.192  1.00  0.00    -0.025 A 
HETATM    9  C8  UNL     1     -13.917  10.475 -17.733  1.00  0.00     0.012 A 
HETATM   10  C9  UNL     1     -12.818  11.293 -17.821  1.00  0.00     0.001 A 
HETATM   11  C10 UNL     1     -13.013  12.531 -18.405  1.00  0.00     0.001 A 
HETATM   12  C11 UNL     1     -14.242  12.940 -18.879  1.00  0.00     0.013 A 
HETATM   13  C12 UNL     1     -15.321  12.087 -18.770  1.00  0.00    -0.010 A 
HETATM   14  C13 UNL     1     -16.582  12.463 -19.238  1.00  0.00     0.043 A 
ENDROOT
BRANCH   1  15
HETATM   15  N2  UNL     1     -16.383  14.713 -20.164  1.00  0.00    -0.290 N 
ATOM     16  H2  UNL     1     -16.142  14.906 -21.136  1.00  0.00     0.187 HD
BRANCH  15  17
HETATM   17  N1  UNL     1     -15.969  15.592 -19.163  1.00  0.00    -0.251 N 
HETATM   18  C1  UNL     1     -14.689  16.261 -19.248  1.00  0.00     0.339 C 
HETATM   19  O1  UNL     1     -14.006  16.005 -20.244  1.00  0.00    -0.245 OA
HETATM   20  N3  UNL     1     -14.278  17.151 -18.228  1.00  0.00    -0.308 N 
ATOM     21  H3  UNL     1     -14.925  17.294 -17.453  1.00  0.00     0.170 HD
ATOM     22  H1  UNL     1     -16.576  15.766 -18.362  1.00  0.00     0.191 HD
BRANCH  20  23
HETATM   23  C14 UNL     1     -13.073  17.854 -18.182  1.00  0.00     0.036 A 
HETATM   24  C15 UNL     1     -11.904  17.144 -17.878  1.00  0.00     0.029 A 
HETATM   25  C16 UNL     1     -10.681  17.756 -17.832  1.00  0.00     0.002 A 
HETATM   26  C17 UNL     1     -10.576  19.111 -18.090  1.00  0.00     0.000 A 
HETATM   27  C18 UNL     1     -11.693  19.851 -18.394  1.00  0.00     0.002 A 
HETATM   28  C19 UNL     1     -12.928  19.196 -18.433  1.00  0.00     0.029 A 
ENDBRANCH  20  23
ENDBRANCH  15  17
ENDBRANCH   1  15
TORSDOF 3
ENDMDL
MODEL 4
REMARK VINA RESULT: -9.260699564      2.886      4.904
REMARK  3 active torsions:
REMARK  status: ('A' for Active; 'I' for Inactive)
REMARK       I    between atoms: C1_2  and  N1_3 
REMARK       I    between atoms: C1_2  and  N3_21 
REMARK    1  A    between atoms: N1_3  and  N2_5 
REMARK    2  A    between atoms: N2_5  and  C2_7 
REMARK    3  A    between atoms: N3_21  and  C14_23 
ROOT
HETATM    1  C2  UNL     1     -15.593  11.979 -17.970  1.00  0.00     0.138 A 
HETATM    2  C3  UNL     1     -15.426  10.510 -17.894  1.00  0.00     0.317 A 
HETATM    3  O2  UNL     1     -16.374   9.717 -18.076  1.00  0.00    -0.257 OA
HETATM    4  O3  UNL     1     -14.100  10.310 -17.605  1.00  0.00    -0.273 OA
HETATM    5  C4  UNL     1     -13.408  11.516 -17.490  1.00  0.00     0.093 A 
HETATM    6  C5  UNL     1     -12.067  11.777 -17.211  1.00  0.00     0.039 A 
HETATM    7  C6  UNL     1     -11.650  13.086 -17.156  1.00  0.00     0.015 A 
HETATM    8  C7  UNL     1     -12.521  14.133 -17.370  1.00  0.00    -0.025 A 
HETATM    9  C8  UNL     1     -12.102  15.451 -17.316  1.00  0.00     0.012 A 
HETATM   10  C9  UNL     1     -12.940  16.520 -17.524  1.00  0.00     0.001 A 
HETATM   11  C10 UNL     1     -14.262  16.225 -17.799  1.00  0.00     0.001 A 
HETATM   12  C11 UNL     1     -14.733  14.931 -17.865  1.00  0.00     0.013 A 
HETATM   13  C12 UNL     1     -13.858  13.886 -17.649  1.00  0.00    -0.010 A 
HETATM   14  C13 UNL     1     -14.296  12.561 -17.708  1.00  0.00     0.043 A 
ENDROOT
BRANCH   1  15
HETATM   15  N2  UNL     1     -16.683  12.596 -18.219  1.00  0.00    -0.290 N 
ATOM     16  H2  UNL     1     -17.190  13.050 -17.460  1.00  0.00     0.187 HD
BRANCH  15  17
HETATM   17  N1  UNL     1     -17.187  12.654 -19.518  1.00  0.00    -0.251 N 
HETATM   18  C1  UNL     1     -17.984  13.780 -19.953  1.00  0.00     0.339 C 
HETATM   19  O1  UNL     1     -18.181  14.664 -19.114  1.00  0.00    -0.245 OA
HETATM   20  N3  UNL     1     -18.490  13.831 -21.273  1.00  0.00    -0.308 N 
ATOM     21  H3  UNL     1     -18.261  13.048 -21.885  1.00  0.00     0.170 HD
ATOM     22  H1  UNL     1     -16.992  11.894 -20.169  1.00  0.00     0.191 HD
BRANCH  20  23
HETATM   23  C14 UNL     1     -19.274  14.849 -21.818  1.00  0.00     0.036 A 
HETATM   24  C15 UNL     1     -18.628  15.985 -22.320  1.00  0.00     0.029 A 
HETATM   25  C16 UNL     1     -19.324  17.018 -22.887  1.00  0.00     0.002 A 
HETATM   26  C17 UNL     1     -20.703  16.956 -22.976  1.00  0.00     0.000 A 
HETATM   27  C18 UNL     1     -21.383  15.862 -22.500  1.00  0.00     0.002 A 
HETATM   28  C19 UNL     1     -20.643  14.823 -21.925  1.00  0.00     0.029 A 
ENDBRANCH  20  23
ENDBRANCH  15  17
ENDBRANCH   1  15
TORSDOF 3
ENDMDL
MODEL 5
REMARK VINA RESULT: -9.237832326      3.136      4.570
REMARK  3 active torsions:
REMARK  status: ('A' for Active; 'I' for Inactive)
REMARK       I    between atoms: C1_2  and  N1_3 
REMARK       I    between atoms: C1_2  and  N3_21 
REMARK    1  A    between atoms: N1_3  and  N2_5 
REMARK    2  A    between atoms: N2_5  and  C2_7 
REMARK    3  A    between atoms: N3_21  and  C14_23 
ROOT
HETATM    1  C2  UNL     1     -12.977  13.608 -17.479  1.00  0.00     0.138 A 
HETATM    2  C3  UNL     1     -11.833  12.757 -17.078  1.00  0.00     0.317 A 
HETATM    3  O2  UNL     1     -10.723  13.232 -16.760  1.00  0.00    -0.257 OA
HETATM    4  O3  UNL     1     -12.297  11.467 -17.152  1.00  0.00    -0.273 OA
HETATM    5  C4  UNL     1     -13.629  11.420 -17.562  1.00  0.00     0.093 A 
HETATM    6  C5  UNL     1     -14.485  10.338 -17.768  1.00  0.00     0.039 A 
HETATM    7  C6  UNL     1     -15.772  10.587 -18.180  1.00  0.00     0.015 A 
HETATM    8  C7  UNL     1     -16.230  11.870 -18.392  1.00  0.00    -0.025 A 
HETATM    9  C8  UNL     1     -17.526  12.122 -18.807  1.00  0.00     0.012 A 
HETATM   10  C9  UNL     1     -18.017  13.385 -19.028  1.00  0.00     0.001 A 
HETATM   11  C10 UNL     1     -17.144  14.435 -18.814  1.00  0.00     0.001 A 
HETATM   12  C11 UNL     1     -15.842  14.242 -18.401  1.00  0.00     0.013 A 
HETATM   13  C12 UNL     1     -15.388  12.955 -18.191  1.00  0.00    -0.010 A 
HETATM   14  C13 UNL     1     -14.078  12.718 -17.771  1.00  0.00     0.043 A 
ENDROOT
BRANCH   1  15
HETATM   15  N2  UNL     1     -12.972  14.883 -17.547  1.00  0.00    -0.290 N 
ATOM     16  H2  UNL     1     -13.839  15.399 -17.400  1.00  0.00     0.187 HD
BRANCH  15  17
HETATM   17  N1  UNL     1     -11.793  15.577 -17.821  1.00  0.00    -0.251 N 
HETATM   18  C1  UNL     1     -11.810  17.006 -18.044  1.00  0.00     0.339 C 
HETATM   19  O1  UNL     1     -12.915  17.554 -17.976  1.00  0.00    -0.245 OA
HETATM   20  N3  UNL     1     -10.610  17.701 -18.320  1.00  0.00    -0.308 N 
ATOM     21  H3  UNL     1      -9.753  17.149 -18.346  1.00  0.00     0.170 HD
ATOM     22  H1  UNL     1     -10.909  15.071 -17.864  1.00  0.00     0.191 HD
BRANCH  20  23
HETATM   23  C14 UNL     1     -10.486  19.070 -18.561  1.00  0.00     0.036 A 
HETATM   24  C15 UNL     1     -10.411  19.932 -17.459  1.00  0.00     0.029 A 
HETATM   25  C16 UNL     1     -10.270  21.284 -17.611  1.00  0.00     0.002 A 
HETATM   26  C17 UNL     1     -10.195  21.834 -18.878  1.00  0.00     0.000 A 
HETATM   27  C18 UNL     1     -10.262  21.031 -19.990  1.00  0.00     0.002 A 
HETATM   28  C19 UNL     1     -10.408  19.652 -19.802  1.00  0.00     0.029 A 
ENDBRANCH  20  23
ENDBRANCH  15  17
ENDBRANCH   1  15
TORSDOF 3
ENDMDL
