MODEL 1
REMARK VINA RESULT: -6.518778056      0.000      0.000
REMARK  8 active torsions:
REMARK  status: ('A' for Active; 'I' for Inactive)
REMARK    1  A    between atoms: O1_2  and  C2_3 
REMARK    2  A    between atoms: C2_3  and  C3_7 
REMARK    3  A    between atoms: C3_7  and  C4_8 
REMARK    4  A    between atoms: C3_7  and  C6_12 
REMARK    5  A    between atoms: C4_8  and  O3_10 
REMARK    6  A    between atoms: C7_17  and  N4_18 
REMARK       I    between atoms: N4_18  and  C8_20 
REMARK    7  A    between atoms: C8_20  and  C9_22 
REMARK    8  A    between atoms: C9_22  and  N5_25 
ROOT
HETATM    1  C6  UNL     1      12.414 -15.472   3.829  1.00  0.00     0.134 A 
HETATM    2  N2  UNL     1      11.319 -15.157   3.097  1.00  0.00    -0.273 N 
ATOM      3  H2  UNL     1      10.594 -15.798   2.774  1.00  0.00     0.189 HD
HETATM    4  N3  UNL     1      11.375 -13.856   2.885  1.00  0.00    -0.130 N 
ATOM      5  H3  UNL     1      10.680 -13.328   2.357  1.00  0.00     0.205 HD
HETATM    6  C7  UNL     1      12.473 -13.314   3.458  1.00  0.00     0.701 A 
HETATM    7  N6  UNL     1      13.093 -14.357   4.036  1.00  0.00    -0.176 N 
ATOM      8  H6  UNL     1      13.966 -14.297   4.561  1.00  0.00     0.185 HD
ENDROOT
BRANCH   1   9
HETATM    9  C3  UNL     1      12.810 -16.823   4.327  1.00  0.00     0.229 C 
BRANCH   9  10
HETATM   10  C2  UNL     1      14.267 -16.848   4.662  1.00  0.00     0.132 C 
HETATM   11  N1  UNL     1      14.628 -17.013   5.883  1.00  0.00    -0.382 N 
ATOM     12  H12 UNL     1      15.622 -17.030   6.112  1.00  0.00     0.158 HD
ATOM     13  H11 UNL     1      13.904 -17.123   6.593  1.00  0.00     0.158 HD
BRANCH  10  14
HETATM   14  O1  UNL     1      15.248 -16.698   3.700  1.00  0.00    -0.343 OA
HETATM   15  C1  UNL     1      16.417 -15.907   3.962  1.00  0.00     0.211 C 
ENDBRANCH  10  14
ENDBRANCH   9  10
BRANCH   9  16
HETATM   16  C4  UNL     1      12.012 -17.068   5.544  1.00  0.00     0.278 C 
HETATM   17  O2  UNL     1      11.514 -16.106   6.155  1.00  0.00    -0.264 OA
BRANCH  16  18
HETATM   18  O3  UNL     1      11.819 -18.351   5.995  1.00  0.00    -0.326 OA
HETATM   19  C5  UNL     1      11.885 -19.495   5.160  1.00  0.00     0.213 C 
ENDBRANCH  16  18
ENDBRANCH   9  16
ENDBRANCH   1   9
BRANCH   6  20
HETATM   20  N4  UNL     1      12.858 -12.093   3.464  1.00  0.00    -0.156 N 
HETATM   21  C8  UNL     1      13.825 -11.689   4.420  1.00  0.00     0.271 C 
HETATM   22  O4  UNL     1      13.492 -11.727   5.632  1.00  0.00    -0.270 OA
ATOM     23  H4  UNL     1      12.477 -11.425   2.794  1.00  0.00     0.187 HD
BRANCH  21  24
HETATM   24  C9  UNL     1      15.187 -11.232   4.024  1.00  0.00     0.197 C 
HETATM   25  C10 UNL     1      15.747 -10.354   5.138  1.00  0.00     0.056 C 
HETATM   26  C11 UNL     1      15.136 -10.377   2.774  1.00  0.00     0.056 C 
BRANCH  24  27
HETATM   27  N5  UNL     1      16.096 -12.342   3.874  1.00  0.00    -0.062 N 
ATOM     28  H53 UNL     1      15.616 -13.174   3.530  1.00  0.00     0.275 HD
ATOM     29  H52 UNL     1      16.737 -12.197   3.094  1.00  0.00     0.275 HD
ATOM     30  H51 UNL     1      16.600 -12.534   4.740  1.00  0.00     0.275 HD
ENDBRANCH  24  27
ENDBRANCH  21  24
ENDBRANCH   6  20
TORSDOF 8
ENDMDL
MODEL 2
REMARK VINA RESULT: -6.251445367      0.958      1.442
REMARK  8 active torsions:
REMARK  status: ('A' for Active; 'I' for Inactive)
REMARK    1  A    between atoms: O1_2  and  C2_3 
REMARK    2  A    between atoms: C2_3  and  C3_7 
REMARK    3  A    between atoms: C3_7  and  C4_8 
REMARK    4  A    between atoms: C3_7  and  C6_12 
REMARK    5  A    between atoms: C4_8  and  O3_10 
REMARK    6  A    between atoms: C7_17  and  N4_18 
REMARK       I    between atoms: N4_18  and  C8_20 
REMARK    7  A    between atoms: C8_20  and  C9_22 
REMARK    8  A    between atoms: C9_22  and  N5_25 
ROOT
HETATM    1  C6  UNL     1      12.098 -15.075   3.692  1.00  0.00     0.134 A 
HETATM    2  N2  UNL     1      11.050 -14.617   2.968  1.00  0.00    -0.273 N 
ATOM      3  H2  UNL     1      10.275 -15.169   2.599  1.00  0.00     0.189 HD
HETATM    4  N3  UNL     1      11.228 -13.317   2.835  1.00  0.00    -0.130 N 
ATOM      5  H3  UNL     1      10.594 -12.697   2.331  1.00  0.00     0.205 HD
HETATM    6  C7  UNL     1      12.361 -12.914   3.452  1.00  0.00     0.701 A 
HETATM    7  N6  UNL     1      12.874 -14.042   3.973  1.00  0.00    -0.176 N 
ATOM      8  H6  UNL     1      13.739 -14.093   4.511  1.00  0.00     0.185 HD
ENDROOT
BRANCH   1   9
HETATM    9  C3  UNL     1      12.361 -16.483   4.113  1.00  0.00     0.229 C 
BRANCH   9  10
HETATM   10  C2  UNL     1      13.780 -16.857   3.827  1.00  0.00     0.132 C 
HETATM   11  N1  UNL     1      14.242 -17.965   4.284  1.00  0.00    -0.382 N 
ATOM     12  H12 UNL     1      15.210 -18.220   4.089  1.00  0.00     0.158 HD
ATOM     13  H11 UNL     1      13.622 -18.560   4.832  1.00  0.00     0.158 HD
BRANCH  10  14
HETATM   14  O1  UNL     1      14.620 -16.049   3.085  1.00  0.00    -0.343 OA
HETATM   15  C1  UNL     1      15.981 -15.836   3.492  1.00  0.00     0.211 C 
ENDBRANCH  10  14
ENDBRANCH   9  10
BRANCH   9  16
HETATM   16  C4  UNL     1      12.112 -16.536   5.567  1.00  0.00     0.278 C 
HETATM   17  O2  UNL     1      11.645 -17.573   6.071  1.00  0.00    -0.264 OA
BRANCH  16  18
HETATM   18  O3  UNL     1      12.395 -15.448   6.355  1.00  0.00    -0.326 OA
HETATM   19  C5  UNL     1      13.598 -15.305   7.093  1.00  0.00     0.213 C 
ENDBRANCH  16  18
ENDBRANCH   9  16
ENDBRANCH   1   9
BRANCH   6  20
HETATM   20  N4  UNL     1      12.856 -11.736   3.535  1.00  0.00    -0.156 N 
HETATM   21  C8  UNL     1      13.890 -11.497   4.477  1.00  0.00     0.271 C 
HETATM   22  O4  UNL     1      13.599 -11.603   5.695  1.00  0.00    -0.270 OA
ATOM     23  H4  UNL     1      12.514 -10.985   2.935  1.00  0.00     0.187 HD
BRANCH  21  24
HETATM   24  C9  UNL     1      15.273 -11.133   4.058  1.00  0.00     0.197 C 
HETATM   25  C10 UNL     1      15.915 -10.309   5.171  1.00  0.00     0.056 C 
HETATM   26  C11 UNL     1      15.259 -10.261   2.820  1.00  0.00     0.056 C 
BRANCH  24  27
HETATM   27  N5  UNL     1      16.099 -12.302   3.879  1.00  0.00    -0.062 N 
ATOM     28  H53 UNL     1      15.553 -13.097   3.546  1.00  0.00     0.275 HD
ATOM     29  H52 UNL     1      16.726 -12.196   3.082  1.00  0.00     0.275 HD
ATOM     30  H51 UNL     1      16.613 -12.533   4.729  1.00  0.00     0.275 HD
ENDBRANCH  24  27
ENDBRANCH  21  24
ENDBRANCH   6  20
TORSDOF 8
ENDMDL
MODEL 3
REMARK VINA RESULT: -6.224514405      5.421      6.211
REMARK  8 active torsions:
REMARK  status: ('A' for Active; 'I' for Inactive)
REMARK    1  A    between atoms: O1_2  and  C2_3 
REMARK    2  A    between atoms: C2_3  and  C3_7 
REMARK    3  A    between atoms: C3_7  and  C4_8 
REMARK    4  A    between atoms: C3_7  and  C6_12 
REMARK    5  A    between atoms: C4_8  and  O3_10 
REMARK    6  A    between atoms: C7_17  and  N4_18 
REMARK       I    between atoms: N4_18  and  C8_20 
REMARK    7  A    between atoms: C8_20  and  C9_22 
REMARK    8  A    between atoms: C9_22  and  N5_25 
ROOT
HETATM    1  C6  UNL     1      15.133 -15.330  10.312  1.00  0.00     0.134 A 
HETATM    2  N2  UNL     1      14.217 -14.827  11.174  1.00  0.00    -0.273 N 
ATOM      3  H2  UNL     1      14.148 -15.019  12.174  1.00  0.00     0.189 HD
HETATM    4  N3  UNL     1      13.432 -14.038  10.466  1.00  0.00    -0.130 N 
ATOM      5  H3  UNL     1      12.642 -13.517  10.847  1.00  0.00     0.205 HD
HETATM    6  C7  UNL     1      13.810 -14.011   9.168  1.00  0.00     0.701 A 
HETATM    7  N6  UNL     1      14.874 -14.830   9.116  1.00  0.00    -0.176 N 
ATOM      8  H6  UNL     1      15.408 -15.038   8.271  1.00  0.00     0.185 HD
ENDROOT
BRANCH   1   9
HETATM    9  C3  UNL     1      16.244 -16.276  10.625  1.00  0.00     0.229 C 
BRANCH   9  10
HETATM   10  C2  UNL     1      17.568 -15.617  10.400  1.00  0.00     0.132 C 
HETATM   11  N1  UNL     1      18.645 -16.271  10.647  1.00  0.00    -0.382 N 
ATOM     12  H12 UNL     1      19.548 -15.822  10.494  1.00  0.00     0.158 HD
ATOM     13  H11 UNL     1      18.564 -17.228  10.991  1.00  0.00     0.158 HD
BRANCH  10  14
HETATM   14  O1  UNL     1      17.677 -14.321   9.934  1.00  0.00    -0.343 OA
HETATM   15  C1  UNL     1      18.434 -14.029   8.749  1.00  0.00     0.211 C 
ENDBRANCH  10  14
ENDBRANCH   9  10
BRANCH   9  16
HETATM   16  C4  UNL     1      16.098 -16.635  12.049  1.00  0.00     0.278 C 
HETATM   17  O2  UNL     1      16.594 -15.899  12.920  1.00  0.00    -0.264 OA
BRANCH  16  18
HETATM   18  O3  UNL     1      15.418 -17.773  12.407  1.00  0.00    -0.326 OA
HETATM   19  C5  UNL     1      15.079 -18.804  11.495  1.00  0.00     0.213 C 
ENDBRANCH  16  18
ENDBRANCH   9  16
ENDBRANCH   1   9
BRANCH   6  20
HETATM   20  N4  UNL     1      13.291 -13.364   8.193  1.00  0.00    -0.156 N 
HETATM   21  C8  UNL     1      14.025 -13.250   6.984  1.00  0.00     0.271 C 
HETATM   22  O4  UNL     1      15.099 -12.596   7.018  1.00  0.00    -0.270 OA
ATOM     23  H4  UNL     1      12.368 -12.939   8.283  1.00  0.00     0.187 HD
BRANCH  21  24
HETATM   24  C9  UNL     1      13.559 -13.872   5.713  1.00  0.00     0.197 C 
HETATM   25  C10 UNL     1      14.685 -14.737   5.155  1.00  0.00     0.056 C 
HETATM   26  C11 UNL     1      13.255 -12.819   4.667  1.00  0.00     0.056 C 
BRANCH  24  27
HETATM   27  N5  UNL     1      12.433 -14.747   5.932  1.00  0.00    -0.062 N 
ATOM     28  H53 UNL     1      12.731 -15.657   6.284  1.00  0.00     0.275 HD
ATOM     29  H52 UNL     1      11.876 -14.445   6.730  1.00  0.00     0.275 HD
ATOM     30  H51 UNL     1      11.861 -14.842   5.093  1.00  0.00     0.275 HD
ENDBRANCH  24  27
ENDBRANCH  21  24
ENDBRANCH   6  20
TORSDOF 8
ENDMDL
MODEL 4
REMARK VINA RESULT: -6.167378242      4.749      5.894
REMARK  8 active torsions:
REMARK  status: ('A' for Active; 'I' for Inactive)
REMARK    1  A    between atoms: O1_2  and  C2_3 
REMARK    2  A    between atoms: C2_3  and  C3_7 
REMARK    3  A    between atoms: C3_7  and  C4_8 
REMARK    4  A    between atoms: C3_7  and  C6_12 
REMARK    5  A    between atoms: C4_8  and  O3_10 
REMARK    6  A    between atoms: C7_17  and  N4_18 
REMARK       I    between atoms: N4_18  and  C8_20 
REMARK    7  A    between atoms: C8_20  and  C9_22 
REMARK    8  A    between atoms: C9_22  and  N5_25 
ROOT
HETATM    1  C6  UNL     1      14.531 -14.591   9.199  1.00  0.00     0.134 A 
HETATM    2  N2  UNL     1      13.948 -13.430   9.580  1.00  0.00    -0.273 N 
ATOM      3  H2  UNL     1      14.118 -12.916  10.445  1.00  0.00     0.189 HD
HETATM    4  N3  UNL     1      13.117 -13.094   8.612  1.00  0.00    -0.130 N 
ATOM      5  H3  UNL     1      12.532 -12.258   8.619  1.00  0.00     0.205 HD
HETATM    6  C7  UNL     1      13.143 -14.001   7.610  1.00  0.00     0.701 A 
HETATM    7  N6  UNL     1      14.038 -14.918   8.017  1.00  0.00    -0.176 N 
ATOM      8  H6  UNL     1      14.299 -15.750   7.488  1.00  0.00     0.185 HD
ENDROOT
BRANCH   1   9
HETATM    9  C3  UNL     1      15.549 -15.381   9.952  1.00  0.00     0.229 C 
BRANCH   9  10
HETATM   10  C2  UNL     1      16.824 -14.610  10.071  1.00  0.00     0.132 C 
HETATM   11  N1  UNL     1      17.634 -14.878  11.031  1.00  0.00    -0.382 N 
ATOM     12  H12 UNL     1      18.504 -14.352  11.112  1.00  0.00     0.158 HD
ATOM     13  H11 UNL     1      17.380 -15.615  11.688  1.00  0.00     0.158 HD
BRANCH  10  14
HETATM   14  O1  UNL     1      17.168 -13.610   9.180  1.00  0.00    -0.343 OA
HETATM   15  C1  UNL     1      18.051 -13.880   8.080  1.00  0.00     0.211 C 
ENDBRANCH  10  14
ENDBRANCH   9  10
BRANCH   9  16
HETATM   16  C4  UNL     1      14.981 -15.621  11.293  1.00  0.00     0.278 C 
HETATM   17  O2  UNL     1      14.655 -14.653  12.002  1.00  0.00    -0.264 OA
BRANCH  16  18
HETATM   18  O3  UNL     1      14.815 -16.905  11.753  1.00  0.00    -0.326 OA
HETATM   19  C5  UNL     1      15.629 -17.994  11.349  1.00  0.00     0.213 C 
ENDBRANCH  16  18
ENDBRANCH   9  16
ENDBRANCH   1   9
BRANCH   6  20
HETATM   20  N4  UNL     1      12.478 -14.010   6.516  1.00  0.00    -0.156 N 
HETATM   21  C8  UNL     1      13.010 -14.709   5.402  1.00  0.00     0.271 C 
HETATM   22  O4  UNL     1      14.079 -14.275   4.902  1.00  0.00    -0.270 OA
ATOM     23  H4  UNL     1      11.584 -13.524   6.447  1.00  0.00     0.187 HD
BRANCH  21  24
HETATM   24  C9  UNL     1      12.342 -15.913   4.831  1.00  0.00     0.197 C 
HETATM   25  C10 UNL     1      13.415 -16.934   4.464  1.00  0.00     0.056 C 
HETATM   26  C11 UNL     1      11.603 -15.574   3.553  1.00  0.00     0.056 C 
BRANCH  24  27
HETATM   27  N5  UNL     1      11.478 -16.548   5.796  1.00  0.00    -0.062 N 
ATOM     28  H53 UNL     1      11.990 -17.217   6.372  1.00  0.00     0.275 HD
ATOM     29  H52 UNL     1      11.192 -15.897   6.526  1.00  0.00     0.275 HD
ATOM     30  H51 UNL     1      10.671 -16.984   5.349  1.00  0.00     0.275 HD
ENDBRANCH  24  27
ENDBRANCH  21  24
ENDBRANCH   6  20
TORSDOF 8
ENDMDL
MODEL 5
REMARK VINA RESULT: -6.164436713      5.779      7.267
REMARK  8 active torsions:
REMARK  status: ('A' for Active; 'I' for Inactive)
REMARK    1  A    between atoms: O1_2  and  C2_3 
REMARK    2  A    between atoms: C2_3  and  C3_7 
REMARK    3  A    between atoms: C3_7  and  C4_8 
REMARK    4  A    between atoms: C3_7  and  C6_12 
REMARK    5  A    between atoms: C4_8  and  O3_10 
REMARK    6  A    between atoms: C7_17  and  N4_18 
REMARK       I    between atoms: N4_18  and  C8_20 
REMARK    7  A    between atoms: C8_20  and  C9_22 
REMARK    8  A    between atoms: C9_22  and  N5_25 
ROOT
HETATM    1  C6  UNL     1      15.155 -15.696  11.180  1.00  0.00     0.134 A 
HETATM    2  N2  UNL     1      14.180 -14.901  11.682  1.00  0.00    -0.273 N 
ATOM      3  H2  UNL     1      13.878 -14.845  12.655  1.00  0.00     0.189 HD
HETATM    4  N3  UNL     1      13.699 -14.213  10.664  1.00  0.00    -0.130 N 
ATOM      5  H3  UNL     1      12.947 -13.528  10.735  1.00  0.00     0.205 HD
HETATM    6  C7  UNL     1      14.333 -14.536   9.514  1.00  0.00     0.701 A 
HETATM    7  N6  UNL     1      15.233 -15.464   9.881  1.00  0.00    -0.176 N 
ATOM      8  H6  UNL     1      15.885 -15.925   9.246  1.00  0.00     0.185 HD
ENDROOT
BRANCH   1   9
HETATM    9  C3  UNL     1      16.005 -16.667  11.931  1.00  0.00     0.229 C 
BRANCH   9  10
HETATM   10  C2  UNL     1      15.555 -18.068  11.664  1.00  0.00     0.132 C 
HETATM   11  N1  UNL     1      15.578 -18.517  10.461  1.00  0.00    -0.382 N 
ATOM     12  H12 UNL     1      15.271 -19.472  10.279  1.00  0.00     0.158 HD
ATOM     13  H11 UNL     1      15.905 -17.900   9.719  1.00  0.00     0.158 HD
BRANCH  10  14
HETATM   14  O1  UNL     1      15.111 -18.905  12.670  1.00  0.00    -0.343 OA
HETATM   15  C1  UNL     1      15.283 -20.327  12.571  1.00  0.00     0.211 C 
ENDBRANCH  10  14
ENDBRANCH   9  10
BRANCH   9  16
HETATM   16  C4  UNL     1      17.384 -16.481  11.437  1.00  0.00     0.278 C 
HETATM   17  O2  UNL     1      18.164 -17.449  11.420  1.00  0.00    -0.264 OA
BRANCH  16  18
HETATM   18  O3  UNL     1      17.799 -15.248  11.000  1.00  0.00    -0.326 OA
HETATM   19  C5  UNL     1      18.865 -15.057  10.085  1.00  0.00     0.213 C 
ENDBRANCH  16  18
ENDBRANCH   9  16
ENDBRANCH   1   9
BRANCH   6  20
HETATM   20  N4  UNL     1      14.139 -14.079   8.334  1.00  0.00    -0.156 N 
HETATM   21  C8  UNL     1      14.685 -14.787   7.232  1.00  0.00     0.271 C 
HETATM   22  O4  UNL     1      15.938 -14.847   7.146  1.00  0.00    -0.270 OA
ATOM     23  H4  UNL     1      13.604 -13.223   8.189  1.00  0.00     0.187 HD
BRANCH  21  24
HETATM   24  C9  UNL     1      13.824 -15.439   6.206  1.00  0.00     0.197 C 
HETATM   25  C10 UNL     1      14.051 -16.947   6.270  1.00  0.00     0.056 C 
HETATM   26  C11 UNL     1      14.206 -14.997   4.808  1.00  0.00     0.056 C 
BRANCH  24  27
HETATM   27  N5  UNL     1      12.422 -15.220   6.471  1.00  0.00    -0.062 N 
ATOM     28  H53 UNL     1      11.834 -15.776   5.851  1.00  0.00     0.275 HD
ATOM     29  H52 UNL     1      12.144 -15.629   7.362  1.00  0.00     0.275 HD
ATOM     30  H51 UNL     1      12.182 -14.230   6.424  1.00  0.00     0.275 HD
ENDBRANCH  24  27
ENDBRANCH  21  24
ENDBRANCH   6  20
TORSDOF 8
ENDMDL
