MODEL 1
REMARK VINA RESULT: -5.818844122      0.000      0.000
REMARK  7 active torsions:
REMARK  status: ('A' for Active; 'I' for Inactive)
REMARK    1  A    between atoms: O1_1  and  C1_3 
REMARK    2  A    between atoms: C1_3  and  O2_4 
REMARK    3  A    between atoms: O2_4  and  C2_5 
REMARK    4  A    between atoms: C2_5  and  N1_6 
REMARK    5  A    between atoms: N1_6  and  C4_17 
REMARK    6  A    between atoms: C3_7  and  N2_8 
REMARK    7  A    between atoms: C4_17  and  O3_18 
ROOT
HETATM    1  N1  UNL     1      -6.294   8.469  -5.845  1.00  0.00    -0.332 N 
HETATM    2  C3  UNL     1      -5.856   7.757  -4.855  1.00  0.00     0.231 C 
ENDROOT
BRANCH   2   3
HETATM    3  N2  UNL     1      -5.812   6.338  -4.912  1.00  0.00    -0.161 N 
HETATM    4  N3  UNL     1      -6.726   5.546  -4.386  1.00  0.00    -0.203 N 
HETATM    5  N4  UNL     1      -6.384   4.271  -4.617  1.00  0.00    -0.211 N 
ATOM      6  H3  UNL     1      -7.560   5.855  -3.886  1.00  0.00     0.212 HD
HETATM    7  N5  UNL     1      -5.250   4.276  -5.289  1.00  0.00    -0.211 N 
ATOM      8  H4  UNL     1      -6.907   3.446  -4.324  1.00  0.00     0.211 HD
HETATM    9  N6  UNL     1      -4.917   5.566  -5.458  1.00  0.00    -0.203 N 
ATOM     10  H5  UNL     1      -4.729   3.462  -5.615  1.00  0.00     0.211 HD
ATOM     11  H6  UNL     1      -4.084   5.894  -5.946  1.00  0.00     0.212 HD
ENDBRANCH   2   3
BRANCH   1  12
HETATM   12  C2  UNL     1      -6.770   7.873  -7.072  1.00  0.00     0.298 C 
BRANCH  12  13
HETATM   13  O2  UNL     1      -7.991   7.282  -6.809  1.00  0.00    -0.348 OA
BRANCH  13  14
HETATM   14  C1  UNL     1      -8.170   6.084  -7.497  1.00  0.00     0.336 C 
BRANCH  14  15
HETATM   15  O1  UNL     1      -8.550   5.043  -6.655  1.00  0.00    -0.377 OA
ATOM     16  H1  UNL     1      -8.068   4.244  -6.830  1.00  0.00     0.212 HD
ENDBRANCH  14  15
ENDBRANCH  13  14
ENDBRANCH  12  13
ENDBRANCH   1  12
BRANCH   1  17
HETATM   17  C4  UNL     1      -6.314   9.913  -5.726  1.00  0.00     0.293 C 
BRANCH  17  18
HETATM   18  O3  UNL     1      -6.701  10.336  -4.469  1.00  0.00    -0.382 OA
ATOM     19  H3  UNL     1      -6.647   9.645  -3.818  1.00  0.00     0.211 HD
ENDBRANCH  17  18
ENDBRANCH   1  17
TORSDOF 7
ENDMDL
MODEL 2
REMARK VINA RESULT: -5.740803222      4.334      5.834
REMARK  7 active torsions:
REMARK  status: ('A' for Active; 'I' for Inactive)
REMARK    1  A    between atoms: O1_1  and  C1_3 
REMARK    2  A    between atoms: C1_3  and  O2_4 
REMARK    3  A    between atoms: O2_4  and  C2_5 
REMARK    4  A    between atoms: C2_5  and  N1_6 
REMARK    5  A    between atoms: N1_6  and  C4_17 
REMARK    6  A    between atoms: C3_7  and  N2_8 
REMARK    7  A    between atoms: C4_17  and  O3_18 
ROOT
HETATM    1  N1  UNL     1      -5.979  10.931  -6.432  1.00  0.00    -0.332 N 
HETATM    2  C3  UNL     1      -5.204  11.970  -6.394  1.00  0.00     0.231 C 
ENDROOT
BRANCH   2   3
HETATM    3  N2  UNL     1      -4.759  12.531  -5.167  1.00  0.00    -0.161 N 
HETATM    4  N3  UNL     1      -3.719  12.094  -4.486  1.00  0.00    -0.203 N 
HETATM    5  N4  UNL     1      -3.576  12.841  -3.382  1.00  0.00    -0.211 N 
ATOM      6  H3  UNL     1      -3.118  11.315  -4.755  1.00  0.00     0.212 HD
HETATM    7  N5  UNL     1      -4.536  13.744  -3.382  1.00  0.00    -0.211 N 
ATOM      8  H4  UNL     1      -2.854  12.729  -2.670  1.00  0.00     0.211 HD
HETATM    9  N6  UNL     1      -5.254  13.531  -4.496  1.00  0.00    -0.203 N 
ATOM     10  H5  UNL     1      -4.699  14.462  -2.676  1.00  0.00     0.211 HD
ATOM     11  H6  UNL     1      -6.070  14.075  -4.777  1.00  0.00     0.212 HD
ENDBRANCH   2   3
BRANCH   1  12
HETATM   12  C2  UNL     1      -6.445  10.273  -5.234  1.00  0.00     0.298 C 
BRANCH  12  13
HETATM   13  O2  UNL     1      -5.467   9.384  -4.831  1.00  0.00    -0.348 OA
BRANCH  13  14
HETATM   14  C1  UNL     1      -5.952   8.090  -4.657  1.00  0.00     0.336 C 
BRANCH  14  15
HETATM   15  O1  UNL     1      -5.995   7.719  -3.316  1.00  0.00    -0.377 OA
ATOM     16  H1  UNL     1      -5.697   6.827  -3.180  1.00  0.00     0.212 HD
ENDBRANCH  14  15
ENDBRANCH  13  14
ENDBRANCH  12  13
ENDBRANCH   1  12
BRANCH   1  17
HETATM   17  C4  UNL     1      -6.398  10.406  -7.716  1.00  0.00     0.293 C 
BRANCH  17  18
HETATM   18  O3  UNL     1      -6.311   9.029  -7.780  1.00  0.00    -0.382 OA
ATOM     19  H3  UNL     1      -6.019   8.721  -8.631  1.00  0.00     0.211 HD
ENDBRANCH  17  18
ENDBRANCH   1  17
TORSDOF 7
ENDMDL
MODEL 3
REMARK VINA RESULT: -5.725981262      5.491      6.442
REMARK  7 active torsions:
REMARK  status: ('A' for Active; 'I' for Inactive)
REMARK    1  A    between atoms: O1_1  and  C1_3 
REMARK    2  A    between atoms: C1_3  and  O2_4 
REMARK    3  A    between atoms: O2_4  and  C2_5 
REMARK    4  A    between atoms: C2_5  and  N1_6 
REMARK    5  A    between atoms: N1_6  and  C4_17 
REMARK    6  A    between atoms: C3_7  and  N2_8 
REMARK    7  A    between atoms: C4_17  and  O3_18 
ROOT
HETATM    1  N1  UNL     1      -5.127  12.187  -7.506  1.00  0.00    -0.332 N 
HETATM    2  C3  UNL     1      -4.179  12.793  -6.862  1.00  0.00     0.231 C 
ENDROOT
BRANCH   2   3
HETATM    3  N2  UNL     1      -4.241  13.008  -5.459  1.00  0.00    -0.161 N 
HETATM    4  N3  UNL     1      -3.541  12.328  -4.573  1.00  0.00    -0.203 N 
HETATM    5  N4  UNL     1      -3.835  12.779  -3.346  1.00  0.00    -0.211 N 
ATOM      6  H3  UNL     1      -2.882  11.578  -4.787  1.00  0.00     0.212 HD
HETATM    7  N5  UNL     1      -4.722  13.745  -3.476  1.00  0.00    -0.211 N 
ATOM      8  H4  UNL     1      -3.442  12.436  -2.469  1.00  0.00     0.211 HD
HETATM    9  N6  UNL     1      -4.957  13.867  -4.792  1.00  0.00    -0.203 N 
ATOM     10  H5  UNL     1      -5.146  14.291  -2.725  1.00  0.00     0.211 HD
ATOM     11  H6  UNL     1      -5.603  14.537  -5.210  1.00  0.00     0.212 HD
ENDBRANCH   2   3
BRANCH   1  12
HETATM   12  C2  UNL     1      -6.311  11.689  -6.845  1.00  0.00     0.298 C 
BRANCH  12  13
HETATM   13  O2  UNL     1      -6.083  10.369  -6.507  1.00  0.00    -0.348 OA
BRANCH  13  14
HETATM   14  C1  UNL     1      -6.345  10.102  -5.166  1.00  0.00     0.336 C 
BRANCH  14  15
HETATM   15  O1  UNL     1      -6.553  11.264  -4.428  1.00  0.00    -0.377 OA
ATOM     16  H1  UNL     1      -6.049  11.275  -3.623  1.00  0.00     0.212 HD
ENDBRANCH  14  15
ENDBRANCH  13  14
ENDBRANCH  12  13
ENDBRANCH   1  12
BRANCH   1  17
HETATM   17  C4  UNL     1      -5.005  11.999  -8.937  1.00  0.00     0.293 C 
BRANCH  17  18
HETATM   18  O3  UNL     1      -5.247  10.696  -9.324  1.00  0.00    -0.382 OA
ATOM     19  H3  UNL     1      -4.786  10.460 -10.121  1.00  0.00     0.211 HD
ENDBRANCH  17  18
ENDBRANCH   1  17
TORSDOF 7
ENDMDL
MODEL 4
REMARK VINA RESULT: -5.715422457      4.337      5.783
REMARK  7 active torsions:
REMARK  status: ('A' for Active; 'I' for Inactive)
REMARK    1  A    between atoms: O1_1  and  C1_3 
REMARK    2  A    between atoms: C1_3  and  O2_4 
REMARK    3  A    between atoms: O2_4  and  C2_5 
REMARK    4  A    between atoms: C2_5  and  N1_6 
REMARK    5  A    between atoms: N1_6  and  C4_17 
REMARK    6  A    between atoms: C3_7  and  N2_8 
REMARK    7  A    between atoms: C4_17  and  O3_18 
ROOT
HETATM    1  N1  UNL     1      -5.924  11.147  -6.494  1.00  0.00    -0.332 N 
HETATM    2  C3  UNL     1      -5.117  12.157  -6.395  1.00  0.00     0.231 C 
ENDROOT
BRANCH   2   3
HETATM    3  N2  UNL     1      -4.652  12.626  -5.138  1.00  0.00    -0.161 N 
HETATM    4  N3  UNL     1      -5.181  13.640  -4.483  1.00  0.00    -0.203 N 
HETATM    5  N4  UNL     1      -4.508  13.819  -3.338  1.00  0.00    -0.211 N 
ATOM      6  H3  UNL     1      -5.976  14.198  -4.796  1.00  0.00     0.212 HD
HETATM    7  N5  UNL     1      -3.555  12.909  -3.286  1.00  0.00    -0.211 N 
ATOM      8  H4  UNL     1      -4.698  14.532  -2.633  1.00  0.00     0.211 HD
HETATM    9  N6  UNL     1      -3.666  12.184  -4.412  1.00  0.00    -0.203 N 
ATOM     10  H5  UNL     1      -2.871  12.782  -2.541  1.00  0.00     0.211 HD
ATOM     11  H6  UNL     1      -3.064  11.400  -4.661  1.00  0.00     0.212 HD
ENDBRANCH   2   3
BRANCH   1  12
HETATM   12  C2  UNL     1      -6.407  10.430  -5.337  1.00  0.00     0.298 C 
BRANCH  12  13
HETATM   13  O2  UNL     1      -5.442   9.508  -4.978  1.00  0.00    -0.348 OA
BRANCH  13  14
HETATM   14  C1  UNL     1      -5.973   8.250  -4.703  1.00  0.00     0.336 C 
BRANCH  14  15
HETATM   15  O1  UNL     1      -6.771   7.777  -5.741  1.00  0.00    -0.377 OA
ATOM     16  H1  UNL     1      -6.271   7.606  -6.530  1.00  0.00     0.212 HD
ENDBRANCH  14  15
ENDBRANCH  13  14
ENDBRANCH  12  13
ENDBRANCH   1  12
BRANCH   1  17
HETATM   17  C4  UNL     1      -6.363  10.717  -7.806  1.00  0.00     0.293 C 
BRANCH  17  18
HETATM   18  O3  UNL     1      -6.257   9.350  -7.979  1.00  0.00    -0.382 OA
ATOM     19  H3  UNL     1      -5.646   9.116  -8.669  1.00  0.00     0.211 HD
ENDBRANCH  17  18
ENDBRANCH   1  17
TORSDOF 7
ENDMDL
MODEL 5
REMARK VINA RESULT: -5.680976595      1.416      1.416
REMARK  7 active torsions:
REMARK  status: ('A' for Active; 'I' for Inactive)
REMARK    1  A    between atoms: O1_1  and  C1_3 
REMARK    2  A    between atoms: C1_3  and  O2_4 
REMARK    3  A    between atoms: O2_4  and  C2_5 
REMARK    4  A    between atoms: C2_5  and  N1_6 
REMARK    5  A    between atoms: N1_6  and  C4_17 
REMARK    6  A    between atoms: C3_7  and  N2_8 
REMARK    7  A    between atoms: C4_17  and  O3_18 
ROOT
HETATM    1  N1  UNL     1      -6.328   9.373  -6.059  1.00  0.00    -0.332 N 
HETATM    2  C3  UNL     1      -6.046   8.358  -5.304  1.00  0.00     0.231 C 
ENDROOT
BRANCH   2   3
HETATM    3  N2  UNL     1      -6.219   7.020  -5.749  1.00  0.00    -0.161 N 
HETATM    4  N3  UNL     1      -7.157   6.206  -5.305  1.00  0.00    -0.203 N 
HETATM    5  N4  UNL     1      -7.040   5.026  -5.928  1.00  0.00    -0.211 N 
ATOM      6  H3  UNL     1      -7.859   6.438  -4.602  1.00  0.00     0.212 HD
HETATM    7  N5  UNL     1      -6.023   5.111  -6.762  1.00  0.00    -0.211 N 
ATOM      8  H4  UNL     1      -7.632   4.208  -5.783  1.00  0.00     0.211 HD
HETATM    9  N6  UNL     1      -5.532   6.354  -6.632  1.00  0.00    -0.203 N 
ATOM     10  H5  UNL     1      -5.678   4.378  -7.383  1.00  0.00     0.211 HD
ATOM     11  H6  UNL     1      -4.736   6.724  -7.151  1.00  0.00     0.212 HD
ENDBRANCH   2   3
BRANCH   1  12
HETATM   12  C2  UNL     1      -6.838   9.217  -7.402  1.00  0.00     0.298 C 
BRANCH  12  13
HETATM   13  O2  UNL     1      -7.990   8.457  -7.331  1.00  0.00    -0.348 OA
BRANCH  13  14
HETATM   14  C1  UNL     1      -8.253   7.765  -8.511  1.00  0.00     0.336 C 
BRANCH  14  15
HETATM   15  O1  UNL     1      -8.248   6.386  -8.326  1.00  0.00    -0.377 OA
ATOM     16  H1  UNL     1      -8.428   5.913  -9.130  1.00  0.00     0.212 HD
ENDBRANCH  14  15
ENDBRANCH  13  14
ENDBRANCH  12  13
ENDBRANCH   1  12
BRANCH   1  17
HETATM   17  C4  UNL     1      -6.130  10.714  -5.547  1.00  0.00     0.293 C 
BRANCH  17  18
HETATM   18  O3  UNL     1      -6.855  10.954  -4.396  1.00  0.00    -0.382 OA
ATOM     19  H3  UNL     1      -6.813  11.864  -4.122  1.00  0.00     0.211 HD
ENDBRANCH  17  18
ENDBRANCH   1  17
TORSDOF 7
ENDMDL
