MODEL 1
REMARK VINA RESULT: -6.666543245      0.000      0.000
REMARK  5 active torsions:
REMARK  status: ('A' for Active; 'I' for Inactive)
REMARK    1  A    between atoms: N1_4  and  O1_5 
REMARK    2  A    between atoms: C4_7  and  S1_8 
REMARK    3  A    between atoms: S1_8  and  C5_9 
REMARK    4  A    between atoms: C5_9  and  C7_11 
REMARK    5  A    between atoms: C9_15  and  C10_16 
ROOT
HETATM    1  C1  UNL     1       5.287   2.815 -30.103  1.00  0.00     0.050 C 
HETATM    2  C2  UNL     1       6.024   2.023 -29.117  1.00  0.00    -0.037 A 
HETATM    3  C3  UNL     1       7.165   2.473 -28.492  1.00  0.00     0.131 A 
HETATM    4  N1  UNL     1       7.855   1.747 -27.584  1.00  0.00    -0.229 N 
HETATM    5  C4  UNL     1       7.450   0.525 -27.243  1.00  0.00     0.100 A 
HETATM    6  C8  UNL     1       6.304   0.058 -27.862  1.00  0.00     0.048 A 
HETATM    7  C9  UNL     1       5.570   0.760 -28.791  1.00  0.00    -0.041 A 
ENDROOT
BRANCH   5   8
HETATM    8  S1  UNL     1       8.238  -0.534 -26.056  1.00  0.00    -0.095 SA
BRANCH   8   9
HETATM    9  C5  UNL     1       8.045  -2.276 -26.333  1.00  0.00     0.150 C 
HETATM   10  C6  UNL     1       8.358  -3.040 -25.057  1.00  0.00     0.033 C 
BRANCH   9  11
HETATM   11  C7  UNL     1       8.949  -2.743 -27.428  1.00  0.00     0.187 C 
HETATM   12  O2  UNL     1       9.957  -3.434 -27.136  1.00  0.00    -0.647 OA
HETATM   13  O3  UNL     1       8.684  -2.421 -28.741  1.00  0.00    -0.647 OA
ENDBRANCH   9  11
ENDBRANCH   8   9
ENDBRANCH   5   8
BRANCH   4  14
HETATM   14  O1  UNL     1       8.965   2.299 -27.012  1.00  0.00    -0.282 OA
ATOM     15  H1  UNL     1       9.402   1.824 -26.316  1.00  0.00     0.245 HD
ENDBRANCH   4  14
BRANCH   7  16
HETATM   16  C10 UNL     1       4.369   0.161 -29.370  1.00  0.00    -0.024 C 
HETATM   17  C11 UNL     1       4.548  -0.171 -30.836  1.00  0.00     0.019 C 
HETATM   18  C12 UNL     1       3.099   0.935 -29.116  1.00  0.00     0.019 C 
HETATM   19  C13 UNL     1       4.152  -1.178 -28.684  1.00  0.00     0.019 C 
ENDBRANCH   7  16
TORSDOF 5
ENDMDL
MODEL 2
REMARK VINA RESULT: -6.576590099      0.941      1.266
REMARK  5 active torsions:
REMARK  status: ('A' for Active; 'I' for Inactive)
REMARK    1  A    between atoms: N1_4  and  O1_5 
REMARK    2  A    between atoms: C4_7  and  S1_8 
REMARK    3  A    between atoms: S1_8  and  C5_9 
REMARK    4  A    between atoms: C5_9  and  C7_11 
REMARK    5  A    between atoms: C9_15  and  C10_16 
ROOT
HETATM    1  C1  UNL     1       5.483   3.587 -30.105  1.00  0.00     0.050 C 
HETATM    2  C2  UNL     1       6.099   2.548 -29.278  1.00  0.00    -0.037 A 
HETATM    3  C3  UNL     1       7.218   2.765 -28.506  1.00  0.00     0.131 A 
HETATM    4  N1  UNL     1       7.796   1.810 -27.745  1.00  0.00    -0.229 N 
HETATM    5  C4  UNL     1       7.294   0.577 -27.704  1.00  0.00     0.100 A 
HETATM    6  C8  UNL     1       6.167   0.343 -28.474  1.00  0.00     0.048 A 
HETATM    7  C9  UNL     1       5.545   1.283 -29.264  1.00  0.00    -0.041 A 
ENDROOT
BRANCH   5   8
HETATM    8  S1  UNL     1       7.929  -0.770 -26.738  1.00  0.00    -0.095 SA
BRANCH   8   9
HETATM    9  C5  UNL     1       7.534  -2.395 -27.332  1.00  0.00     0.150 C 
HETATM   10  C6  UNL     1       7.881  -3.430 -26.274  1.00  0.00     0.033 C 
BRANCH   9  11
HETATM   11  C7  UNL     1       8.284  -2.697 -28.589  1.00  0.00     0.187 C 
HETATM   12  O2  UNL     1       7.741  -2.461 -29.698  1.00  0.00    -0.647 OA
HETATM   13  O3  UNL     1       9.555  -3.227 -28.537  1.00  0.00    -0.647 OA
ENDBRANCH   9  11
ENDBRANCH   8   9
ENDBRANCH   5   8
BRANCH   4  14
HETATM   14  O1  UNL     1       8.894   2.140 -27.004  1.00  0.00    -0.282 OA
ATOM     15  H1  UNL     1       8.788   2.284 -26.072  1.00  0.00     0.245 HD
ENDBRANCH   4  14
BRANCH   7  16
HETATM   16  C10 UNL     1       4.354   0.915 -30.027  1.00  0.00    -0.024 C 
HETATM   17  C11 UNL     1       4.360   1.514 -31.417  1.00  0.00     0.019 C 
HETATM   18  C12 UNL     1       3.050   1.163 -29.309  1.00  0.00     0.019 C 
HETATM   19  C13 UNL     1       4.398  -0.589 -30.244  1.00  0.00     0.019 C 
ENDBRANCH   7  16
TORSDOF 5
ENDMDL
MODEL 3
REMARK VINA RESULT: -6.492776883      3.263      5.578
REMARK  5 active torsions:
REMARK  status: ('A' for Active; 'I' for Inactive)
REMARK    1  A    between atoms: N1_4  and  O1_5 
REMARK    2  A    between atoms: C4_7  and  S1_8 
REMARK    3  A    between atoms: S1_8  and  C5_9 
REMARK    4  A    between atoms: C5_9  and  C7_11 
REMARK    5  A    between atoms: C9_15  and  C10_16 
ROOT
HETATM    1  C1  UNL     1       2.258  -3.043 -27.311  1.00  0.00     0.050 C 
HETATM    2  C2  UNL     1       2.894  -1.969 -28.076  1.00  0.00    -0.037 A 
HETATM    3  C3  UNL     1       4.219  -1.997 -28.452  1.00  0.00     0.131 A 
HETATM    4  N1  UNL     1       4.815  -1.008 -29.154  1.00  0.00    -0.229 N 
HETATM    5  C4  UNL     1       4.129   0.072 -29.525  1.00  0.00     0.100 A 
HETATM    6  C8  UNL     1       2.795   0.113 -29.156  1.00  0.00     0.048 A 
HETATM    7  C9  UNL     1       2.146  -0.868 -28.442  1.00  0.00    -0.041 A 
ENDROOT
BRANCH   5   8
HETATM    8  S1  UNL     1       4.770   1.435 -30.464  1.00  0.00    -0.095 SA
BRANCH   8   9
HETATM    9  C5  UNL     1       5.364   2.811 -29.513  1.00  0.00     0.150 C 
HETATM   10  C6  UNL     1       5.304   4.080 -30.347  1.00  0.00     0.033 C 
BRANCH   9  11
HETATM   11  C7  UNL     1       6.769   2.576 -29.061  1.00  0.00     0.187 C 
HETATM   12  O2  UNL     1       7.643   3.445 -29.305  1.00  0.00    -0.647 OA
HETATM   13  O3  UNL     1       7.105   1.422 -28.387  1.00  0.00    -0.647 OA
ENDBRANCH   9  11
ENDBRANCH   8   9
ENDBRANCH   5   8
BRANCH   4  14
HETATM   14  O1  UNL     1       6.131  -1.146 -29.489  1.00  0.00    -0.282 OA
ATOM     15  H1  UNL     1       6.675  -1.726 -28.968  1.00  0.00     0.245 HD
ENDBRANCH   4  14
BRANCH   7  16
HETATM   16  C10 UNL     1       0.729  -0.712 -28.118  1.00  0.00    -0.024 C 
HETATM   17  C11 UNL     1       0.480  -0.734 -26.625  1.00  0.00     0.019 C 
HETATM   18  C12 UNL     1      -0.189  -1.653 -28.859  1.00  0.00     0.019 C 
HETATM   19  C13 UNL     1       0.309   0.677 -28.570  1.00  0.00     0.019 C 
ENDBRANCH   7  16
TORSDOF 5
ENDMDL
MODEL 4
REMARK VINA RESULT: -6.476667139      3.645      5.707
REMARK  5 active torsions:
REMARK  status: ('A' for Active; 'I' for Inactive)
REMARK    1  A    between atoms: N1_4  and  O1_5 
REMARK    2  A    between atoms: C4_7  and  S1_8 
REMARK    3  A    between atoms: S1_8  and  C5_9 
REMARK    4  A    between atoms: C5_9  and  C7_11 
REMARK    5  A    between atoms: C9_15  and  C10_16 
ROOT
HETATM    1  C1  UNL     1      -0.358  -2.094 -29.054  1.00  0.00     0.050 C 
HETATM    2  C2  UNL     1       0.806  -1.219 -29.213  1.00  0.00    -0.037 A 
HETATM    3  C3  UNL     1       1.684  -1.321 -30.269  1.00  0.00     0.131 A 
HETATM    4  N1  UNL     1       2.763  -0.522 -30.421  1.00  0.00    -0.229 N 
HETATM    5  C4  UNL     1       3.035   0.430 -29.530  1.00  0.00     0.100 A 
HETATM    6  C8  UNL     1       2.160   0.546 -28.463  1.00  0.00     0.048 A 
HETATM    7  C9  UNL     1       1.050  -0.244 -28.267  1.00  0.00    -0.041 A 
ENDROOT
BRANCH   5   8
HETATM    8  S1  UNL     1       4.398   1.564 -29.609  1.00  0.00    -0.095 SA
BRANCH   8   9
HETATM    9  C5  UNL     1       5.965   0.919 -29.082  1.00  0.00     0.150 C 
HETATM   10  C6  UNL     1       5.762  -0.058 -27.936  1.00  0.00     0.033 C 
BRANCH   9  11
HETATM   11  C7  UNL     1       6.872   2.023 -28.641  1.00  0.00     0.187 C 
HETATM   12  O2  UNL     1       7.570   1.866 -27.608  1.00  0.00    -0.647 OA
HETATM   13  O3  UNL     1       6.944   3.198 -29.356  1.00  0.00    -0.647 OA
ENDBRANCH   9  11
ENDBRANCH   8   9
ENDBRANCH   5   8
BRANCH   4  14
HETATM   14  O1  UNL     1       3.559  -0.700 -31.516  1.00  0.00    -0.282 OA
ATOM     15  H1  UNL     1       4.195  -0.028 -31.730  1.00  0.00     0.245 HD
ENDBRANCH   4  14
BRANCH   7  16
HETATM   16  C10 UNL     1       0.197  -0.018 -27.102  1.00  0.00    -0.024 C 
HETATM   17  C11 UNL     1      -0.044  -1.290 -26.317  1.00  0.00     0.019 C 
HETATM   18  C12 UNL     1      -1.089   0.714 -27.401  1.00  0.00     0.019 C 
HETATM   19  C13 UNL     1       0.953   0.897 -26.153  1.00  0.00     0.019 C 
ENDBRANCH   7  16
TORSDOF 5
ENDMDL
MODEL 5
REMARK VINA RESULT: -6.466525573      3.806      6.326
REMARK  5 active torsions:
REMARK  status: ('A' for Active; 'I' for Inactive)
REMARK    1  A    between atoms: N1_4  and  O1_5 
REMARK    2  A    between atoms: C4_7  and  S1_8 
REMARK    3  A    between atoms: S1_8  and  C5_9 
REMARK    4  A    between atoms: C5_9  and  C7_11 
REMARK    5  A    between atoms: C9_15  and  C10_16 
ROOT
HETATM    1  C1  UNL     1       0.001  -3.385 -26.553  1.00  0.00     0.050 C 
HETATM    2  C2  UNL     1       1.172  -2.693 -27.093  1.00  0.00    -0.037 A 
HETATM    3  C3  UNL     1       2.369  -3.325 -27.348  1.00  0.00     0.131 A 
HETATM    4  N1  UNL     1       3.456  -2.693 -27.841  1.00  0.00    -0.229 N 
HETATM    5  C4  UNL     1       3.421  -1.389 -28.110  1.00  0.00     0.100 A 
HETATM    6  C8  UNL     1       2.224  -0.739 -27.860  1.00  0.00     0.048 A 
HETATM    7  C9  UNL     1       1.092  -1.340 -27.359  1.00  0.00    -0.041 A 
ENDROOT
BRANCH   5   8
HETATM    8  S1  UNL     1       4.758  -0.432 -28.778  1.00  0.00    -0.095 SA
BRANCH   8   9
HETATM    9  C5  UNL     1       4.288   1.038 -29.654  1.00  0.00     0.150 C 
HETATM   10  C6  UNL     1       3.856   0.681 -31.067  1.00  0.00     0.033 C 
BRANCH   9  11
HETATM   11  C7  UNL     1       5.424   2.008 -29.711  1.00  0.00     0.187 C 
HETATM   12  O2  UNL     1       6.531   1.683 -29.213  1.00  0.00    -0.647 OA
HETATM   13  O3  UNL     1       5.263   3.243 -30.300  1.00  0.00    -0.647 OA
ENDBRANCH   9  11
ENDBRANCH   8   9
ENDBRANCH   5   8
BRANCH   4  14
HETATM   14  O1  UNL     1       4.587  -3.422 -28.073  1.00  0.00    -0.282 OA
ATOM     15  H1  UNL     1       5.249  -3.063 -28.651  1.00  0.00     0.245 HD
ENDBRANCH   4  14
BRANCH   7  16
HETATM   16  C10 UNL     1      -0.116  -0.546 -27.145  1.00  0.00    -0.024 C 
HETATM   17  C11 UNL     1      -0.107   0.154 -25.803  1.00  0.00     0.019 C 
HETATM   18  C12 UNL     1      -1.406  -1.293 -27.385  1.00  0.00     0.019 C 
HETATM   19  C13 UNL     1      -0.116   0.571 -28.175  1.00  0.00     0.019 C 
ENDBRANCH   7  16
TORSDOF 5
ENDMDL
