MODEL 1
REMARK VINA RESULT: -7.783235062      0.000      0.000
REMARK  6 active torsions:
REMARK  status: ('A' for Active; 'I' for Inactive)
REMARK    1  A    between atoms: C3_3  and  C4_4 
REMARK    2  A    between atoms: C5_5  and  C6_6 
REMARK    3  A    between atoms: C11_13  and  O1_14 
REMARK    4  A    between atoms: O1_14  and  C12_15 
REMARK    5  A    between atoms: C15_18  and  C16_19 
REMARK    6  A    between atoms: C16_19  and  O2_21 
ROOT
HETATM    1  C6  UNL     1      -0.218  -1.817 -27.516  1.00  0.00     0.089 C 
HETATM    2  C7  UNL     1      -0.377  -0.947 -26.314  1.00  0.00     0.031 C 
HETATM    3  C8  UNL     1       0.410   0.327 -26.361  1.00  0.00     0.004 C 
HETATM    4  C9  UNL     1       1.855   0.126 -26.719  1.00  0.00     0.026 C 
HETATM    5  C10 UNL     1       2.058  -0.642 -27.995  1.00  0.00     0.089 C 
HETATM    6  N1  UNL     1       2.124  -2.060 -27.710  1.00  0.00    -0.368 N 
ATOM      7  H1  UNL     1       3.013  -2.562 -27.700  1.00  0.00     0.161 HD
HETATM    8  C11 UNL     1       1.007  -2.660 -27.470  1.00  0.00     0.135 C 
HETATM    9  C15 UNL     1       1.052  -0.298 -29.040  1.00  0.00     0.039 C 
HETATM   10  C18 UNL     1      -0.199  -1.074 -28.810  1.00  0.00     0.040 C 
ENDROOT
BRANCH   1  11
HETATM   11  C5  UNL     1      -1.361  -2.755 -27.542  1.00  0.00    -0.083 C 
HETATM   12  C4  UNL     1      -2.284  -3.533 -27.552  1.00  0.00    -0.078 C 
BRANCH  12  13
HETATM   13  C3  UNL     1      -3.371  -4.469 -27.542  1.00  0.00     0.060 C 
HETATM   14  C2  UNL     1      -4.637  -4.087 -27.493  1.00  0.00    -0.022 C 
HETATM   15  C1  UNL     1      -5.753  -5.057 -27.483  1.00  0.00     0.036 C 
ENDBRANCH  12  13
ENDBRANCH   1  11
BRANCH   8  16
HETATM   16  O1  UNL     1       1.017  -3.997 -27.197  1.00  0.00    -0.333 OA
BRANCH  16  17
HETATM   17  C12 UNL     1       1.253  -4.464 -25.905  1.00  0.00     0.122 C 
HETATM   18  C13 UNL     1       0.242  -5.453 -25.408  1.00  0.00     0.040 C 
HETATM   19  C14 UNL     1       2.679  -5.005 -25.817  1.00  0.00     0.040 C 
ENDBRANCH  16  17
ENDBRANCH   8  16
BRANCH   9  20
HETATM   20  C16 UNL     1       1.675  -0.546 -30.394  1.00  0.00     0.120 C 
HETATM   21  C17 UNL     1       2.943   0.278 -30.481  1.00  0.00     0.040 C 
BRANCH  20  22
HETATM   22  O2  UNL     1       0.844  -0.164 -31.441  1.00  0.00    -0.396 OA
ATOM     23  H2  UNL     1       0.598  -0.894 -31.996  1.00  0.00     0.210 HD
ENDBRANCH  20  22
ENDBRANCH   9  20
TORSDOF 6
ENDMDL
MODEL 2
REMARK VINA RESULT: -7.402867593      3.509      7.013
REMARK  6 active torsions:
REMARK  status: ('A' for Active; 'I' for Inactive)
REMARK    1  A    between atoms: C3_3  and  C4_4 
REMARK    2  A    between atoms: C5_5  and  C6_6 
REMARK    3  A    between atoms: C11_13  and  O1_14 
REMARK    4  A    between atoms: O1_14  and  C12_15 
REMARK    5  A    between atoms: C15_18  and  C16_19 
REMARK    6  A    between atoms: C16_19  and  O2_21 
ROOT
HETATM    1  C6  UNL     1       3.030  -0.068 -29.200  1.00  0.00     0.089 C 
HETATM    2  C7  UNL     1       2.792  -0.583 -30.580  1.00  0.00     0.031 C 
HETATM    3  C8  UNL     1       1.419  -1.141 -30.805  1.00  0.00     0.004 C 
HETATM    4  C9  UNL     1       0.995  -2.130 -29.757  1.00  0.00     0.026 C 
HETATM    5  C10 UNL     1       1.103  -1.603 -28.354  1.00  0.00     0.089 C 
HETATM    6  N1  UNL     1       2.419  -1.887 -27.822  1.00  0.00    -0.368 N 
ATOM      7  H1  UNL     1       2.574  -2.644 -27.156  1.00  0.00     0.161 HD
HETATM    8  C11 UNL     1       3.387  -1.138 -28.230  1.00  0.00     0.135 C 
HETATM    9  C15 UNL     1       0.723  -0.165 -28.248  1.00  0.00     0.039 C 
HETATM   10  C18 UNL     1       1.882   0.692 -28.624  1.00  0.00     0.040 C 
ENDROOT
BRANCH   1  11
HETATM   11  C5  UNL     1       4.197   0.839 -29.258  1.00  0.00    -0.083 C 
HETATM   12  C4  UNL     1       5.138   1.594 -29.296  1.00  0.00    -0.078 C 
BRANCH  12  13
HETATM   13  C3  UNL     1       6.246   2.505 -29.323  1.00  0.00     0.060 C 
HETATM   14  C2  UNL     1       7.167   2.533 -28.374  1.00  0.00    -0.022 C 
HETATM   15  C1  UNL     1       8.306   3.475 -28.408  1.00  0.00     0.036 C 
ENDBRANCH  12  13
ENDBRANCH   1  11
BRANCH   8  16
HETATM   16  O1  UNL     1       4.647  -1.365 -27.756  1.00  0.00    -0.333 OA
BRANCH  16  17
HETATM   17  C12 UNL     1       5.526  -2.211 -28.432  1.00  0.00     0.122 C 
HETATM   18  C13 UNL     1       6.914  -1.667 -28.587  1.00  0.00     0.040 C 
HETATM   19  C14 UNL     1       5.517  -3.584 -27.763  1.00  0.00     0.040 C 
ENDBRANCH  16  17
ENDBRANCH   8  16
BRANCH   9  20
HETATM   20  C16 UNL     1       0.217   0.087 -26.847  1.00  0.00     0.120 C 
HETATM   21  C17 UNL     1       1.165   1.060 -26.177  1.00  0.00     0.040 C 
BRANCH  20  22
HETATM   22  O2  UNL     1       0.179  -1.070 -26.077  1.00  0.00    -0.396 OA
ATOM     23  H2  UNL     1       0.645  -0.977 -25.255  1.00  0.00     0.210 HD
ENDBRANCH  20  22
ENDBRANCH   9  20
TORSDOF 6
ENDMDL
MODEL 3
REMARK VINA RESULT: -7.355066620      2.979      6.405
REMARK  6 active torsions:
REMARK  status: ('A' for Active; 'I' for Inactive)
REMARK    1  A    between atoms: C3_3  and  C4_4 
REMARK    2  A    between atoms: C5_5  and  C6_6 
REMARK    3  A    between atoms: C11_13  and  O1_14 
REMARK    4  A    between atoms: O1_14  and  C12_15 
REMARK    5  A    between atoms: C15_18  and  C16_19 
REMARK    6  A    between atoms: C16_19  and  O2_21 
ROOT
HETATM    1  C6  UNL     1       2.741  -0.618 -28.656  1.00  0.00     0.089 C 
HETATM    2  C7  UNL     1       2.611  -0.808 -30.130  1.00  0.00     0.031 C 
HETATM    3  C8  UNL     1       1.205  -0.725 -30.644  1.00  0.00     0.004 C 
HETATM    4  C9  UNL     1       0.236  -1.582 -29.881  1.00  0.00     0.026 C 
HETATM    5  C10 UNL     1       0.248  -1.332 -28.399  1.00  0.00     0.089 C 
HETATM    6  N1  UNL     1       1.223  -2.193 -27.763  1.00  0.00    -0.368 N 
ATOM      7  H1  UNL     1       0.943  -3.027 -27.246  1.00  0.00     0.161 HD
HETATM    8  C11 UNL     1       2.463  -1.856 -27.879  1.00  0.00     0.135 C 
HETATM    9  C15 UNL     1       0.426   0.109 -28.060  1.00  0.00     0.039 C 
HETATM   10  C18 UNL     1       1.873   0.461 -28.099  1.00  0.00     0.040 C 
ENDROOT
BRANCH   1  11
HETATM   11  C5  UNL     1       4.149  -0.264 -28.375  1.00  0.00    -0.083 C 
HETATM   12  C4  UNL     1       5.294   0.044 -28.147  1.00  0.00    -0.078 C 
BRANCH  12  13
HETATM   13  C3  UNL     1       6.647   0.435 -27.873  1.00  0.00     0.060 C 
HETATM   14  C2  UNL     1       7.080   1.672 -28.050  1.00  0.00    -0.022 C 
HETATM   15  C1  UNL     1       8.475   2.067 -27.766  1.00  0.00     0.036 C 
ENDBRANCH  12  13
ENDBRANCH   1  11
BRANCH   8  16
HETATM   16  O1  UNL     1       3.420  -2.636 -27.296  1.00  0.00    -0.333 OA
BRANCH  16  17
HETATM   17  C12 UNL     1       3.430  -4.017 -27.480  1.00  0.00     0.122 C 
HETATM   18  C13 UNL     1       4.777  -4.588 -27.814  1.00  0.00     0.040 C 
HETATM   19  C14 UNL     1       2.805  -4.693 -26.261  1.00  0.00     0.040 C 
ENDBRANCH  16  17
ENDBRANCH   8  16
BRANCH   9  20
HETATM   20  C16 UNL     1      -0.220   0.361 -26.718  1.00  0.00     0.120 C 
HETATM   21  C17 UNL     1       0.857   0.834 -25.764  1.00  0.00     0.040 C 
BRANCH  20  22
HETATM   22  O2  UNL     1      -0.794  -0.785 -26.178  1.00  0.00    -0.396 OA
ATOM     23  H2  UNL     1      -1.151  -0.639 -25.310  1.00  0.00     0.210 HD
ENDBRANCH  20  22
ENDBRANCH   9  20
TORSDOF 6
ENDMDL
MODEL 4
REMARK VINA RESULT: -7.113774096      2.839      4.681
REMARK  6 active torsions:
REMARK  status: ('A' for Active; 'I' for Inactive)
REMARK    1  A    between atoms: C3_3  and  C4_4 
REMARK    2  A    between atoms: C5_5  and  C6_6 
REMARK    3  A    between atoms: C11_13  and  O1_14 
REMARK    4  A    between atoms: O1_14  and  C12_15 
REMARK    5  A    between atoms: C15_18  and  C16_19 
REMARK    6  A    between atoms: C16_19  and  O2_21 
ROOT
HETATM    1  C6  UNL     1       2.394  -1.741 -28.403  1.00  0.00     0.089 C 
HETATM    2  C7  UNL     1       1.577  -1.933 -29.637  1.00  0.00     0.031 C 
HETATM    3  C8  UNL     1       2.075  -1.178 -30.833  1.00  0.00     0.004 C 
HETATM    4  C9  UNL     1       2.340   0.274 -30.557  1.00  0.00     0.026 C 
HETATM    5  C10 UNL     1       3.261   0.507 -29.393  1.00  0.00     0.089 C 
HETATM    6  N1  UNL     1       2.493   0.608 -28.170  1.00  0.00    -0.368 N 
ATOM      7  H1  UNL     1       2.308   1.508 -27.728  1.00  0.00     0.161 HD
HETATM    8  C11 UNL     1       2.054  -0.496 -27.664  1.00  0.00     0.135 C 
HETATM    9  C15 UNL     1       4.359  -0.499 -29.317  1.00  0.00     0.039 C 
HETATM   10  C18 UNL     1       3.868  -1.732 -28.640  1.00  0.00     0.040 C 
ENDROOT
BRANCH   1  11
HETATM   11  C5  UNL     1       2.085  -2.859 -27.486  1.00  0.00    -0.083 C 
HETATM   12  C4  UNL     1       1.822  -3.781 -26.752  1.00  0.00    -0.078 C 
BRANCH  12  13
HETATM   13  C3  UNL     1       1.504  -4.891 -25.900  1.00  0.00     0.060 C 
HETATM   14  C2  UNL     1       2.075  -6.077 -26.034  1.00  0.00    -0.022 C 
HETATM   15  C1  UNL     1       1.742  -7.216 -25.153  1.00  0.00     0.036 C 
ENDBRANCH  12  13
ENDBRANCH   1  11
BRANCH   8  16
HETATM   16  O1  UNL     1       1.325  -0.453 -26.511  1.00  0.00    -0.333 OA
BRANCH  16  17
HETATM   17  C12 UNL     1       0.103   0.215 -26.459  1.00  0.00     0.122 C 
HETATM   18  C13 UNL     1      -1.040  -0.535 -27.076  1.00  0.00     0.040 C 
HETATM   19  C14 UNL     1      -0.189   0.622 -25.016  1.00  0.00     0.040 C 
ENDBRANCH  16  17
ENDBRANCH   8  16
BRANCH   9  20
HETATM   20  C16 UNL     1       5.538   0.141 -28.623  1.00  0.00     0.120 C 
HETATM   21  C17 UNL     1       5.778   1.493 -29.262  1.00  0.00     0.040 C 
BRANCH  20  22
HETATM   22  O2  UNL     1       6.704  -0.605 -28.753  1.00  0.00    -0.396 OA
ATOM     23  H2  UNL     1       6.843  -1.196 -28.022  1.00  0.00     0.210 HD
ENDBRANCH  20  22
ENDBRANCH   9  20
TORSDOF 6
ENDMDL
MODEL 5
REMARK VINA RESULT: -7.094939239      1.952      3.832
REMARK  6 active torsions:
REMARK  status: ('A' for Active; 'I' for Inactive)
REMARK    1  A    between atoms: C3_3  and  C4_4 
REMARK    2  A    between atoms: C5_5  and  C6_6 
REMARK    3  A    between atoms: C11_13  and  O1_14 
REMARK    4  A    between atoms: O1_14  and  C12_15 
REMARK    5  A    between atoms: C15_18  and  C16_19 
REMARK    6  A    between atoms: C16_19  and  O2_21 
ROOT
HETATM    1  C6  UNL     1       0.523  -2.253 -28.328  1.00  0.00     0.089 C 
HETATM    2  C7  UNL     1       0.425  -1.501 -29.613  1.00  0.00     0.031 C 
HETATM    3  C8  UNL     1       1.709  -1.417 -30.381  1.00  0.00     0.004 C 
HETATM    4  C9  UNL     1       2.875  -0.959 -29.552  1.00  0.00     0.026 C 
HETATM    5  C10 UNL     1       3.083  -1.773 -28.307  1.00  0.00     0.089 C 
HETATM    6  N1  UNL     1       2.322  -1.204 -27.214  1.00  0.00    -0.368 N 
ATOM      7  H1  UNL     1       2.770  -0.650 -26.483  1.00  0.00     0.161 HD
HETATM    8  C11 UNL     1       1.052  -1.431 -27.207  1.00  0.00     0.135 C 
HETATM    9  C15 UNL     1       2.817  -3.225 -28.515  1.00  0.00     0.039 C 
HETATM   10  C18 UNL     1       1.355  -3.490 -28.405  1.00  0.00     0.040 C 
ENDROOT
BRANCH   1  11
HETATM   11  C5  UNL     1      -0.848  -2.647 -27.936  1.00  0.00    -0.083 C 
HETATM   12  C4  UNL     1      -1.968  -2.980 -27.633  1.00  0.00    -0.078 C 
BRANCH  12  13
HETATM   13  C3  UNL     1      -3.298  -3.394 -27.290  1.00  0.00     0.060 C 
HETATM   14  C2  UNL     1      -3.840  -4.506 -27.760  1.00  0.00    -0.022 C 
HETATM   15  C1  UNL     1      -5.211  -4.927 -27.402  1.00  0.00     0.036 C 
ENDBRANCH  12  13
ENDBRANCH   1  11
BRANCH   8  16
HETATM   16  O1  UNL     1       0.291  -0.916 -26.197  1.00  0.00    -0.333 OA
BRANCH  16  17
HETATM   17  C12 UNL     1      -0.021   0.442 -26.155  1.00  0.00     0.122 C 
HETATM   18  C13 UNL     1      -1.208   0.831 -26.984  1.00  0.00     0.040 C 
HETATM   19  C14 UNL     1      -0.168   0.880 -24.699  1.00  0.00     0.040 C 
ENDBRANCH  16  17
ENDBRANCH   8  16
BRANCH   9  20
HETATM   20  C16 UNL     1       3.647  -4.005 -27.524  1.00  0.00     0.120 C 
HETATM   21  C17 UNL     1       3.667  -5.452 -27.969  1.00  0.00     0.040 C 
BRANCH  20  22
HETATM   22  O2  UNL     1       3.123  -3.961 -26.237  1.00  0.00    -0.396 OA
ATOM     23  H2  UNL     1       2.323  -3.452 -26.187  1.00  0.00     0.210 HD
ENDBRANCH  20  22
ENDBRANCH   9  20
TORSDOF 6
ENDMDL
