MODEL 1
REMARK VINA RESULT: -6.974858785      0.000      0.000
REMARK  6 active torsions:
REMARK  status: ('A' for Active; 'I' for Inactive)
REMARK    1  A    between atoms: C3_3  and  C4_4 
REMARK    2  A    between atoms: C5_5  and  O1_6 
REMARK    3  A    between atoms: O1_6  and  C6_7 
REMARK    4  A    between atoms: C8_9  and  N1_10 
REMARK    5  A    between atoms: C9_14  and  N2_15 
REMARK    6  A    between atoms: C11_20  and  N5_21 
ROOT
HETATM    1  C1  UNL     1      -9.424  25.976   6.803  1.00  0.00     0.113 C 
HETATM    2  C2  UNL     1      -9.472  26.701   8.069  1.00  0.00    -0.097 C 
HETATM    3  C3  UNL     1      -9.491  27.308   9.113  1.00  0.00    -0.013 C 
ENDROOT
BRANCH   3   4
HETATM    4  C4  UNL     1      -9.512  28.045  10.326  1.00  0.00     0.015 C 
HETATM    5  C5  UNL     1      -9.515  28.682  11.350  1.00  0.00     0.069 C 
BRANCH   5   6
HETATM    6  O1  UNL     1      -9.495  29.421  12.522  1.00  0.00    -0.295 OA
BRANCH   6   7
HETATM    7  C6  UNL     1      -9.244  28.741  13.702  1.00  0.00     0.167 C 
HETATM    8  C7  UNL     1      -9.176  29.615  14.927  1.00  0.00     0.070 C 
HETATM    9  C8  UNL     1      -8.173  28.973  15.863  1.00  0.00     0.210 C 
HETATM   10  C9  UNL     1      -7.851  27.654  15.204  1.00  0.00     0.139 C 
HETATM   11  C11 UNL     1      -7.856  28.089  13.729  1.00  0.00     0.139 C 
BRANCH   9  12
HETATM   12  N1  UNL     1      -8.719  28.799  17.194  1.00  0.00    -0.073 N 
ATOM     13  H13 UNL     1      -9.655  29.197  17.267  1.00  0.00     0.274 HD
ATOM     14  H12 UNL     1      -8.948  27.821  17.378  1.00  0.00     0.274 HD
ATOM     15  H11 UNL     1      -8.097  29.176  17.908  1.00  0.00     0.274 HD
ENDBRANCH   9  12
BRANCH  10  16
HETATM   16  N2  UNL     1      -6.601  27.098  15.599  1.00  0.00    -0.358 N 
HETATM   17  C10 UNL     1      -6.597  26.129  16.451  1.00  0.00     0.197 C 
HETATM   18  N3  UNL     1      -7.780  25.582  17.019  1.00  0.00    -0.067 NA
HETATM   19  N4  UNL     1      -5.337  25.590  16.829  1.00  0.00    -0.067 NA
ATOM     20  H2  UNL     1      -5.727  27.458  15.216  1.00  0.00     0.162 HD
ENDBRANCH  10  16
BRANCH  11  21
HETATM   21  N5  UNL     1      -6.810  29.055  13.586  1.00  0.00    -0.358 N 
HETATM   22  C12 UNL     1      -5.974  29.146  12.650  1.00  0.00     0.197 C 
HETATM   23  N6  UNL     1      -4.999  30.171  12.667  1.00  0.00    -0.067 NA
HETATM   24  N7  UNL     1      -5.983  28.237  11.567  1.00  0.00    -0.067 NA
ATOM     25  H5  UNL     1      -6.733  29.750  14.329  1.00  0.00     0.162 HD
ENDBRANCH  11  21
ENDBRANCH   6   7
ENDBRANCH   5   6
ENDBRANCH   3   4
TORSDOF 6
ENDMDL
MODEL 2
REMARK VINA RESULT: -6.302199767      3.482      6.121
REMARK  6 active torsions:
REMARK  status: ('A' for Active; 'I' for Inactive)
REMARK    1  A    between atoms: C3_3  and  C4_4 
REMARK    2  A    between atoms: C5_5  and  O1_6 
REMARK    3  A    between atoms: O1_6  and  C6_7 
REMARK    4  A    between atoms: C8_9  and  N1_10 
REMARK    5  A    between atoms: C9_14  and  N2_15 
REMARK    6  A    between atoms: C11_20  and  N5_21 
ROOT
HETATM    1  C1  UNL     1      -5.220  36.076  11.936  1.00  0.00     0.113 C 
HETATM    2  C2  UNL     1      -5.305  34.628  12.091  1.00  0.00    -0.097 C 
HETATM    3  C3  UNL     1      -5.356  33.428  12.225  1.00  0.00    -0.013 C 
ENDROOT
BRANCH   3   4
HETATM    4  C4  UNL     1      -5.408  32.021  12.407  1.00  0.00     0.015 C 
HETATM    5  C5  UNL     1      -5.464  30.830  12.579  1.00  0.00     0.069 C 
BRANCH   5   6
HETATM    6  O1  UNL     1      -5.531  29.463  12.800  1.00  0.00    -0.295 OA
BRANCH   6   7
HETATM    7  C6  UNL     1      -6.235  28.701  11.883  1.00  0.00     0.167 C 
HETATM    8  C7  UNL     1      -6.672  29.447  10.650  1.00  0.00     0.070 C 
HETATM    9  C8  UNL     1      -7.987  28.835  10.214  1.00  0.00     0.210 C 
HETATM   10  C9  UNL     1      -8.149  27.637  11.116  1.00  0.00     0.139 C 
HETATM   11  C11 UNL     1      -7.586  28.216  12.425  1.00  0.00     0.139 C 
BRANCH   9  12
HETATM   12  N1  UNL     1      -7.965  28.465   8.813  1.00  0.00    -0.073 N 
ATOM     13  H13 UNL     1      -7.498  29.173   8.248  1.00  0.00     0.274 HD
ATOM     14  H12 UNL     1      -7.331  27.683   8.644  1.00  0.00     0.274 HD
ATOM     15  H11 UNL     1      -8.901  28.266   8.462  1.00  0.00     0.274 HD
ENDBRANCH   9  12
BRANCH  10  16
HETATM   16  N2  UNL     1      -9.494  27.193  11.257  1.00  0.00    -0.358 N 
HETATM   17  C10 UNL     1      -9.708  25.962  11.580  1.00  0.00     0.197 C 
HETATM   18  N3  UNL     1      -8.668  25.020  11.806  1.00  0.00    -0.067 NA
HETATM   19  N4  UNL     1     -11.060  25.543  11.715  1.00  0.00    -0.067 NA
ATOM     20  H2  UNL     1     -10.272  27.834  11.105  1.00  0.00     0.162 HD
ENDBRANCH  10  16
BRANCH  11  21
HETATM   21  N5  UNL     1      -8.438  29.306  12.787  1.00  0.00    -0.358 N 
HETATM   22  C12 UNL     1      -9.101  29.442  13.849  1.00  0.00     0.197 C 
HETATM   23  N6  UNL     1      -9.899  30.593  14.045  1.00  0.00    -0.067 NA
HETATM   24  N7  UNL     1      -9.068  28.459  14.864  1.00  0.00    -0.067 NA
ATOM     25  H5  UNL     1      -8.518  30.062  12.106  1.00  0.00     0.162 HD
ENDBRANCH  11  21
ENDBRANCH   6   7
ENDBRANCH   5   6
ENDBRANCH   3   4
TORSDOF 6
ENDMDL
MODEL 3
REMARK VINA RESULT: -6.289176014      3.528      6.072
REMARK  6 active torsions:
REMARK  status: ('A' for Active; 'I' for Inactive)
REMARK    1  A    between atoms: C3_3  and  C4_4 
REMARK    2  A    between atoms: C5_5  and  O1_6 
REMARK    3  A    between atoms: O1_6  and  C6_7 
REMARK    4  A    between atoms: C8_9  and  N1_10 
REMARK    5  A    between atoms: C9_14  and  N2_15 
REMARK    6  A    between atoms: C11_20  and  N5_21 
ROOT
HETATM    1  C1  UNL     1      -5.453  35.144  12.207  1.00  0.00     0.113 C 
HETATM    2  C2  UNL     1      -5.590  33.692  12.249  1.00  0.00    -0.097 C 
HETATM    3  C3  UNL     1      -5.719  32.491  12.298  1.00  0.00    -0.013 C 
ENDROOT
BRANCH   3   4
HETATM    4  C4  UNL     1      -5.895  31.084  12.349  1.00  0.00     0.015 C 
HETATM    5  C5  UNL     1      -6.053  29.890  12.411  1.00  0.00     0.069 C 
BRANCH   5   6
HETATM    6  O1  UNL     1      -6.236  28.520  12.506  1.00  0.00    -0.295 OA
BRANCH   6   7
HETATM    7  C6  UNL     1      -7.162  27.938  11.657  1.00  0.00     0.167 C 
HETATM    8  C7  UNL     1      -7.545  28.783  10.471  1.00  0.00     0.070 C 
HETATM    9  C8  UNL     1      -8.992  28.464  10.158  1.00  0.00     0.210 C 
HETATM   10  C9  UNL     1      -9.316  27.306  11.070  1.00  0.00     0.139 C 
HETATM   11  C11 UNL     1      -8.529  27.730  12.322  1.00  0.00     0.139 C 
BRANCH   9  12
HETATM   12  N1  UNL     1      -9.175  28.126   8.761  1.00  0.00    -0.073 N 
ATOM     13  H13 UNL     1     -10.121  27.791   8.580  1.00  0.00     0.274 HD
ATOM     14  H12 UNL     1      -9.188  28.961   8.175  1.00  0.00     0.274 HD
ATOM     15  H11 UNL     1      -8.475  27.457   8.441  1.00  0.00     0.274 HD
ENDBRANCH   9  12
BRANCH  10  16
HETATM   16  N2  UNL     1     -10.705  27.146  11.335  1.00  0.00    -0.358 N 
HETATM   17  C10 UNL     1     -11.162  25.956  11.540  1.00  0.00     0.197 C 
HETATM   18  N3  UNL     1     -10.348  24.791  11.516  1.00  0.00    -0.067 NA
HETATM   19  N4  UNL     1     -12.553  25.822  11.802  1.00  0.00    -0.067 NA
ATOM     20  H2  UNL     1     -11.327  27.954  11.362  1.00  0.00     0.162 HD
ENDBRANCH  10  16
BRANCH  11  21
HETATM   21  N5  UNL     1      -9.101  28.964  12.763  1.00  0.00    -0.358 N 
HETATM   22  C12 UNL     1      -9.401  29.293  13.941  1.00  0.00     0.197 C 
HETATM   23  N6  UNL     1      -9.963  30.564  14.202  1.00  0.00    -0.067 NA
HETATM   24  N7  UNL     1      -9.189  28.410  15.025  1.00  0.00    -0.067 NA
ATOM     25  H5  UNL     1      -9.287  29.660  12.040  1.00  0.00     0.162 HD
ENDBRANCH  11  21
ENDBRANCH   6   7
ENDBRANCH   5   6
ENDBRANCH   3   4
TORSDOF 6
ENDMDL
MODEL 4
REMARK VINA RESULT: -6.270616777      5.808      8.958
REMARK  6 active torsions:
REMARK  status: ('A' for Active; 'I' for Inactive)
REMARK    1  A    between atoms: C3_3  and  C4_4 
REMARK    2  A    between atoms: C5_5  and  O1_6 
REMARK    3  A    between atoms: O1_6  and  C6_7 
REMARK    4  A    between atoms: C8_9  and  N1_10 
REMARK    5  A    between atoms: C9_14  and  N2_15 
REMARK    6  A    between atoms: C11_20  and  N5_21 
ROOT
HETATM    1  C1  UNL     1      -8.142  29.626  15.856  1.00  0.00     0.113 C 
HETATM    2  C2  UNL     1      -7.329  29.941  14.686  1.00  0.00    -0.097 C 
HETATM    3  C3  UNL     1      -6.667  30.186  13.705  1.00  0.00    -0.013 C 
ENDROOT
BRANCH   3   4
HETATM    4  C4  UNL     1      -5.911  30.481  12.541  1.00  0.00     0.015 C 
HETATM    5  C5  UNL     1      -5.286  30.731  11.541  1.00  0.00     0.069 C 
BRANCH   5   6
HETATM    6  O1  UNL     1      -4.584  31.005  10.378  1.00  0.00    -0.295 OA
BRANCH   6   7
HETATM    7  C6  UNL     1      -4.734  32.265   9.823  1.00  0.00     0.167 C 
HETATM    8  C7  UNL     1      -5.887  33.062  10.376  1.00  0.00     0.070 C 
HETATM    9  C8  UNL     1      -6.402  33.924   9.242  1.00  0.00     0.210 C 
HETATM   10  C9  UNL     1      -5.394  33.717   8.138  1.00  0.00     0.139 C 
HETATM   11  C11 UNL     1      -5.096  32.221   8.333  1.00  0.00     0.139 C 
BRANCH   9  12
HETATM   12  N1  UNL     1      -6.504  35.315   9.633  1.00  0.00    -0.073 N 
ATOM     13  H13 UNL     1      -7.284  35.466  10.273  1.00  0.00     0.274 HD
ATOM     14  H12 UNL     1      -5.738  35.586  10.251  1.00  0.00     0.274 HD
ATOM     15  H11 UNL     1      -6.563  35.931   8.823  1.00  0.00     0.274 HD
ENDBRANCH   9  12
BRANCH  10  16
HETATM   16  N2  UNL     1      -5.892  34.003   6.836  1.00  0.00    -0.358 N 
HETATM   17  C10 UNL     1      -5.642  35.158   6.318  1.00  0.00     0.197 C 
HETATM   18  N3  UNL     1      -4.890  36.166   6.981  1.00  0.00    -0.067 NA
HETATM   19  N4  UNL     1      -6.149  35.420   5.016  1.00  0.00    -0.067 NA
ATOM     20  H2  UNL     1      -6.436  33.309   6.323  1.00  0.00     0.162 HD
ENDBRANCH  10  16
BRANCH  11  21
HETATM   21  N5  UNL     1      -6.325  31.527   8.103  1.00  0.00    -0.358 N 
HETATM   22  C12 UNL     1      -6.705  30.972   7.039  1.00  0.00     0.197 C 
HETATM   23  N6  UNL     1      -7.962  30.325   6.986  1.00  0.00    -0.067 NA
HETATM   24  N7  UNL     1      -5.897  30.979   5.879  1.00  0.00    -0.067 NA
ATOM     25  H5  UNL     1      -6.969  31.476   8.893  1.00  0.00     0.162 HD
ENDBRANCH  11  21
ENDBRANCH   6   7
ENDBRANCH   5   6
ENDBRANCH   3   4
TORSDOF 6
ENDMDL
MODEL 5
REMARK VINA RESULT: -6.256422444      3.636      5.312
REMARK  6 active torsions:
REMARK  status: ('A' for Active; 'I' for Inactive)
REMARK    1  A    between atoms: C3_3  and  C4_4 
REMARK    2  A    between atoms: C5_5  and  O1_6 
REMARK    3  A    between atoms: O1_6  and  C6_7 
REMARK    4  A    between atoms: C8_9  and  N1_10 
REMARK    5  A    between atoms: C9_14  and  N2_15 
REMARK    6  A    between atoms: C11_20  and  N5_21 
ROOT
HETATM    1  C1  UNL     1      -5.727  35.662   7.126  1.00  0.00     0.113 C 
HETATM    2  C2  UNL     1      -5.756  34.918   8.381  1.00  0.00    -0.097 C 
HETATM    3  C3  UNL     1      -5.762  34.310   9.425  1.00  0.00    -0.013 C 
ENDROOT
BRANCH   3   4
HETATM    4  C4  UNL     1      -5.768  33.618  10.665  1.00  0.00     0.015 C 
HETATM    5  C5  UNL     1      -5.794  33.031  11.717  1.00  0.00     0.069 C 
BRANCH   5   6
HETATM    6  O1  UNL     1      -5.845  32.364  12.931  1.00  0.00    -0.295 OA
BRANCH   6   7
HETATM    7  C6  UNL     1      -5.698  30.988  12.911  1.00  0.00     0.167 C 
HETATM    8  C7  UNL     1      -6.140  30.327  11.632  1.00  0.00     0.070 C 
HETATM    9  C8  UNL     1      -6.678  28.963  12.010  1.00  0.00     0.210 C 
HETATM   10  C9  UNL     1      -6.344  28.832  13.476  1.00  0.00     0.139 C 
HETATM   11  C11 UNL     1      -6.598  30.279  13.932  1.00  0.00     0.139 C 
BRANCH   9  12
HETATM   12  N1  UNL     1      -6.073  27.912  11.217  1.00  0.00    -0.073 N 
ATOM     13  H13 UNL     1      -5.322  28.273  10.630  1.00  0.00     0.274 HD
ATOM     14  H12 UNL     1      -5.527  27.274  11.798  1.00  0.00     0.274 HD
ATOM     15  H11 UNL     1      -6.768  27.409  10.665  1.00  0.00     0.274 HD
ENDBRANCH   9  12
BRANCH  10  16
HETATM   16  N2  UNL     1      -7.157  27.895  14.175  1.00  0.00    -0.358 N 
HETATM   17  C10 UNL     1      -6.650  27.270  15.184  1.00  0.00     0.197 C 
HETATM   18  N3  UNL     1      -5.317  27.467  15.638  1.00  0.00    -0.067 NA
HETATM   19  N4  UNL     1      -7.480  26.340  15.866  1.00  0.00    -0.067 NA
ATOM     20  H2  UNL     1      -8.118  27.722  13.885  1.00  0.00     0.162 HD
ENDBRANCH  10  16
BRANCH  11  21
HETATM   21  N5  UNL     1      -7.983  30.543  13.697  1.00  0.00    -0.358 N 
HETATM   22  C12 UNL     1      -8.938  30.408  14.507  1.00  0.00     0.197 C 
HETATM   23  N6  UNL     1     -10.258  30.718  14.104  1.00  0.00    -0.067 NA
HETATM   24  N7  UNL     1      -8.721  29.948  15.826  1.00  0.00    -0.067 NA
ATOM     25  H5  UNL     1      -8.226  30.880  12.765  1.00  0.00     0.162 HD
ENDBRANCH  11  21
ENDBRANCH   6   7
ENDBRANCH   5   6
ENDBRANCH   3   4
TORSDOF 6
ENDMDL
