MODEL 1
REMARK VINA RESULT: -6.282032768      0.000      0.000
REMARK  13 active torsions:
REMARK  status: ('A' for Active; 'I' for Inactive)
REMARK    1  A    between atoms: O1_2  and  C2_3 
REMARK    2  A    between atoms: C5_7  and  O3_8 
REMARK    3  A    between atoms: C6_10  and  N1_11 
REMARK       I    between atoms: N1_11  and  C7_13 
REMARK    4  A    between atoms: C7_13  and  C8_15 
REMARK    5  A    between atoms: C8_15  and  N2_16 
REMARK    6  A    between atoms: C8_15  and  C14_28 
REMARK       I    between atoms: N2_16  and  C9_18 
REMARK    7  A    between atoms: C9_18  and  C10_20 
REMARK    8  A    between atoms: C10_20  and  N3_21 
REMARK    9  A    between atoms: C10_20  and  C11_25 
REMARK   10  A    between atoms: C14_28  and  C15_29 
REMARK   11  A    between atoms: C14_28  and  C17_32 
REMARK   12  A    between atoms: C15_29  and  S1_30 
REMARK   13  A    between atoms: C18_35  and  O8_36 
ROOT
HETATM    1  C8  UNL     1      -6.809 -26.934 -87.658  1.00  0.00     0.191 C 
ENDROOT
BRANCH   1   2
HETATM    2  C7  UNL     1      -5.539 -26.741 -86.936  1.00  0.00     0.241 C 
HETATM    3  N1  UNL     1      -4.287 -26.618 -87.576  1.00  0.00    -0.349 N 
ATOM      4  H1  UNL     1      -4.230 -26.657 -88.593  1.00  0.00     0.163 HD
HETATM    5  O4  UNL     1      -5.620 -26.684 -85.653  1.00  0.00    -0.271 OA
BRANCH   3   6
HETATM    6  C6  UNL     1      -3.082 -26.436 -86.793  1.00  0.00     0.149 C 
HETATM    7  C5  UNL     1      -2.072 -25.542 -87.469  1.00  0.00     0.172 C 
HETATM    8  C3  UNL     1      -1.017 -25.218 -86.434  1.00  0.00     0.151 C 
HETATM    9  O2  UNL     1      -0.624 -26.304 -85.703  1.00  0.00    -0.351 OA
HETATM   10  C4  UNL     1       0.137 -24.447 -87.034  1.00  0.00     0.042 C 
HETATM   11  C2  UNL     1      -0.898 -27.528 -86.251  1.00  0.00     0.290 C 
HETATM   12  C18 UNL     1      -2.386 -27.744 -86.489  1.00  0.00     0.198 C 
BRANCH   7  13
HETATM   13  O3  UNL     1      -2.658 -24.374 -87.950  1.00  0.00    -0.391 OA
ATOM     14  H3  UNL     1      -2.044 -23.892 -88.491  1.00  0.00     0.210 HD
ENDBRANCH   7  13
BRANCH  11  15
HETATM   15  O1  UNL     1      -0.490 -28.522 -85.368  1.00  0.00    -0.363 OA
HETATM   16  C1  UNL     1       0.750 -28.309 -84.822  1.00  0.00     0.204 C 
ENDBRANCH  11  15
BRANCH  12  17
HETATM   17  O8  UNL     1      -2.905 -28.351 -85.350  1.00  0.00    -0.388 OA
ATOM     18  H8  UNL     1      -3.786 -28.638 -85.557  1.00  0.00     0.210 HD
ENDBRANCH  12  17
ENDBRANCH   3   6
ENDBRANCH   1   2
BRANCH   1  19
HETATM   19  N2  UNL     1      -7.175 -25.699 -88.374  1.00  0.00    -0.345 N 
HETATM   20  C9  UNL     1      -6.834 -25.467 -89.725  1.00  0.00     0.249 C 
HETATM   21  O5  UNL     1      -6.182 -26.400 -90.292  1.00  0.00    -0.271 OA
ATOM     22  H2  UNL     1      -7.697 -24.981 -87.873  1.00  0.00     0.163 HD
BRANCH  20  23
HETATM   23  C10 UNL     1      -7.220 -24.234 -90.393  1.00  0.00     0.278 C 
BRANCH  23  24
HETATM   24  N3  UNL     1      -8.689 -24.134 -90.263  1.00  0.00    -0.066 N 
ATOM     25  H33 UNL     1      -9.184 -24.955 -90.613  1.00  0.00     0.275 HD
ATOM     26  H32 UNL     1      -9.015 -24.192 -89.299  1.00  0.00     0.275 HD
ATOM     27  H31 UNL     1      -8.959 -23.268 -90.730  1.00  0.00     0.275 HD
ENDBRANCH  23  24
BRANCH  23  28
HETATM   28  C11 UNL     1      -6.934 -24.107 -91.838  1.00  0.00     0.017 C 
HETATM   29  C12 UNL     1      -6.035 -23.011 -92.272  1.00  0.00     0.012 C 
HETATM   30  C13 UNL     1      -8.282 -23.939 -92.553  1.00  0.00     0.012 C 
ENDBRANCH  23  28
ENDBRANCH  20  23
ENDBRANCH   1  19
BRANCH   1  31
HETATM   31  C14 UNL     1      -7.989 -27.234 -86.735  1.00  0.00     0.128 C 
BRANCH  31  32
HETATM   32  C15 UNL     1      -8.823 -28.389 -87.087  1.00  0.00     0.091 C 
BRANCH  32  33
HETATM   33  S1  UNL     1      -8.327 -29.083 -88.672  1.00  0.00    -0.172 SA
HETATM   34  C16 UNL     1      -9.136 -28.443 -90.114  1.00  0.00     0.089 C 
ENDBRANCH  32  33
ENDBRANCH  31  32
BRANCH  31  35
HETATM   35  C17 UNL     1      -8.836 -25.981 -86.868  1.00  0.00     0.180 C 
HETATM   36  O6  UNL     1      -8.610 -25.073 -86.042  1.00  0.00    -0.648 OA
HETATM   37  O7  UNL     1      -9.797 -25.826 -87.815  1.00  0.00    -0.648 OA
ENDBRANCH  31  35
ENDBRANCH   1  31
TORSDOF 13
ENDMDL
MODEL 2
REMARK VINA RESULT: -6.228446784      1.172      1.564
REMARK  13 active torsions:
REMARK  status: ('A' for Active; 'I' for Inactive)
REMARK    1  A    between atoms: O1_2  and  C2_3 
REMARK    2  A    between atoms: C5_7  and  O3_8 
REMARK    3  A    between atoms: C6_10  and  N1_11 
REMARK       I    between atoms: N1_11  and  C7_13 
REMARK    4  A    between atoms: C7_13  and  C8_15 
REMARK    5  A    between atoms: C8_15  and  N2_16 
REMARK    6  A    between atoms: C8_15  and  C14_28 
REMARK       I    between atoms: N2_16  and  C9_18 
REMARK    7  A    between atoms: C9_18  and  C10_20 
REMARK    8  A    between atoms: C10_20  and  N3_21 
REMARK    9  A    between atoms: C10_20  and  C11_25 
REMARK   10  A    between atoms: C14_28  and  C15_29 
REMARK   11  A    between atoms: C14_28  and  C17_32 
REMARK   12  A    between atoms: C15_29  and  S1_30 
REMARK   13  A    between atoms: C18_35  and  O8_36 
ROOT
HETATM    1  C8  UNL     1      -6.716 -26.680 -87.934  1.00  0.00     0.191 C 
ENDROOT
BRANCH   1   2
HETATM    2  C7  UNL     1      -5.461 -26.650 -87.161  1.00  0.00     0.241 C 
HETATM    3  N1  UNL     1      -4.197 -26.391 -87.733  1.00  0.00    -0.349 N 
ATOM      4  H1  UNL     1      -4.120 -26.207 -88.733  1.00  0.00     0.163 HD
HETATM    5  O4  UNL     1      -5.568 -26.874 -85.899  1.00  0.00    -0.271 OA
BRANCH   3   6
HETATM    6  C6  UNL     1      -3.010 -26.386 -86.905  1.00  0.00     0.149 C 
HETATM    7  C5  UNL     1      -1.925 -25.482 -87.439  1.00  0.00     0.172 C 
HETATM    8  C3  UNL     1      -0.886 -25.356 -86.347  1.00  0.00     0.151 C 
HETATM    9  O2  UNL     1      -0.584 -26.547 -85.748  1.00  0.00    -0.351 OA
HETATM   10  C4  UNL     1       0.331 -24.593 -86.818  1.00  0.00     0.042 C 
HETATM   11  C2  UNL     1      -0.914 -27.674 -86.451  1.00  0.00     0.290 C 
HETATM   12  C18 UNL     1      -2.405 -27.763 -86.750  1.00  0.00     0.198 C 
BRANCH   7  13
HETATM   13  O3  UNL     1      -2.424 -24.228 -87.784  1.00  0.00    -0.391 OA
ATOM     14  H3  UNL     1      -3.142 -24.313 -88.399  1.00  0.00     0.210 HD
ENDBRANCH   7  13
BRANCH  11  15
HETATM   15  O1  UNL     1      -0.596 -28.794 -85.690  1.00  0.00    -0.363 OA
HETATM   16  C1  UNL     1       0.395 -28.578 -84.767  1.00  0.00     0.204 C 
ENDBRANCH  11  15
BRANCH  12  17
HETATM   17  O8  UNL     1      -2.995 -28.471 -85.709  1.00  0.00    -0.388 OA
ATOM     18  H8  UNL     1      -3.497 -29.179 -86.095  1.00  0.00     0.210 HD
ENDBRANCH  12  17
ENDBRANCH   3   6
ENDBRANCH   1   2
BRANCH   1  19
HETATM   19  N2  UNL     1      -7.156 -25.306 -88.235  1.00  0.00    -0.345 N 
HETATM   20  C9  UNL     1      -6.812 -24.636 -89.429  1.00  0.00     0.249 C 
HETATM   21  O5  UNL     1      -6.088 -25.297 -90.237  1.00  0.00    -0.271 OA
ATOM     22  H2  UNL     1      -7.735 -24.819 -87.551  1.00  0.00     0.163 HD
BRANCH  20  23
HETATM   23  C10 UNL     1      -7.273 -23.280 -89.685  1.00  0.00     0.278 C 
BRANCH  23  24
HETATM   24  N3  UNL     1      -7.351 -23.139 -91.154  1.00  0.00    -0.066 N 
ATOM     25  H33 UNL     1      -6.438 -23.138 -91.610  1.00  0.00     0.275 HD
ATOM     26  H32 UNL     1      -7.724 -23.965 -91.620  1.00  0.00     0.275 HD
ATOM     27  H31 UNL     1      -7.893 -22.294 -91.332  1.00  0.00     0.275 HD
ENDBRANCH  23  24
BRANCH  23  28
HETATM   28  C11 UNL     1      -6.429 -22.159 -89.217  1.00  0.00     0.017 C 
HETATM   29  C12 UNL     1      -4.963 -22.371 -89.166  1.00  0.00     0.012 C 
HETATM   30  C13 UNL     1      -6.913 -21.786 -87.808  1.00  0.00     0.012 C 
ENDBRANCH  23  28
ENDBRANCH  20  23
ENDBRANCH   1  19
BRANCH   1  31
HETATM   31  C14 UNL     1      -7.877 -27.323 -87.176  1.00  0.00     0.128 C 
BRANCH  31  32
HETATM   32  C15 UNL     1      -8.637 -28.356 -87.889  1.00  0.00     0.091 C 
BRANCH  32  33
HETATM   33  S1  UNL     1      -8.008 -28.580 -89.560  1.00  0.00    -0.172 SA
HETATM   34  C16 UNL     1      -8.809 -27.662 -90.849  1.00  0.00     0.089 C 
ENDBRANCH  32  33
ENDBRANCH  31  32
BRANCH  31  35
HETATM   35  C17 UNL     1      -8.799 -26.143 -86.928  1.00  0.00     0.180 C 
HETATM   36  O6  UNL     1      -9.719 -25.978 -87.756  1.00  0.00    -0.648 OA
HETATM   37  O7  UNL     1      -8.658 -25.292 -85.878  1.00  0.00    -0.648 OA
ENDBRANCH  31  35
ENDBRANCH   1  31
TORSDOF 13
ENDMDL
MODEL 3
REMARK VINA RESULT: -6.085328706      4.058      7.987
REMARK  13 active torsions:
REMARK  status: ('A' for Active; 'I' for Inactive)
REMARK    1  A    between atoms: O1_2  and  C2_3 
REMARK    2  A    between atoms: C5_7  and  O3_8 
REMARK    3  A    between atoms: C6_10  and  N1_11 
REMARK       I    between atoms: N1_11  and  C7_13 
REMARK    4  A    between atoms: C7_13  and  C8_15 
REMARK    5  A    between atoms: C8_15  and  N2_16 
REMARK    6  A    between atoms: C8_15  and  C14_28 
REMARK       I    between atoms: N2_16  and  C9_18 
REMARK    7  A    between atoms: C9_18  and  C10_20 
REMARK    8  A    between atoms: C10_20  and  N3_21 
REMARK    9  A    between atoms: C10_20  and  C11_25 
REMARK   10  A    between atoms: C14_28  and  C15_29 
REMARK   11  A    between atoms: C14_28  and  C17_32 
REMARK   12  A    between atoms: C15_29  and  S1_30 
REMARK   13  A    between atoms: C18_35  and  O8_36 
ROOT
HETATM    1  C8  UNL     1      -7.713 -24.488 -90.402  1.00  0.00     0.191 C 
ENDROOT
BRANCH   1   2
HETATM    2  C7  UNL     1      -7.883 -24.787 -91.835  1.00  0.00     0.241 C 
HETATM    3  N1  UNL     1      -6.949 -24.419 -92.827  1.00  0.00    -0.349 N 
ATOM      4  H1  UNL     1      -6.098 -23.921 -92.564  1.00  0.00     0.163 HD
HETATM    5  O4  UNL     1      -8.954 -25.422 -92.158  1.00  0.00    -0.271 OA
BRANCH   3   6
HETATM    6  C6  UNL     1      -7.193 -24.744 -94.216  1.00  0.00     0.149 C 
HETATM    7  C5  UNL     1      -5.924 -25.009 -94.989  1.00  0.00     0.172 C 
HETATM    8  C3  UNL     1      -6.339 -25.604 -96.317  1.00  0.00     0.151 C 
HETATM    9  O2  UNL     1      -7.398 -24.959 -96.892  1.00  0.00    -0.351 OA
HETATM   10  C4  UNL     1      -5.160 -25.775 -97.246  1.00  0.00     0.042 C 
HETATM   11  C2  UNL     1      -7.646 -23.691 -96.439  1.00  0.00     0.290 C 
HETATM   12  C18 UNL     1      -7.938 -23.649 -94.946  1.00  0.00     0.198 C 
BRANCH   7  13
HETATM   13  O3  UNL     1      -5.078 -25.880 -94.307  1.00  0.00    -0.391 OA
ATOM     14  H3  UNL     1      -4.808 -26.593 -94.874  1.00  0.00     0.210 HD
ENDBRANCH   7  13
BRANCH  11  15
HETATM   15  O1  UNL     1      -8.778 -23.195 -97.077  1.00  0.00    -0.363 OA
HETATM   16  C1  UNL     1      -9.157 -23.915 -98.181  1.00  0.00     0.204 C 
ENDBRANCH  11  15
BRANCH  12  17
HETATM   17  O8  UNL     1      -9.315 -23.769 -94.788  1.00  0.00    -0.388 OA
ATOM     18  H8  UNL     1      -9.513 -23.596 -93.876  1.00  0.00     0.210 HD
ENDBRANCH  12  17
ENDBRANCH   3   6
ENDBRANCH   1   2
BRANCH   1  19
HETATM   19  N2  UNL     1      -6.334 -24.038 -90.140  1.00  0.00    -0.345 N 
HETATM   20  C9  UNL     1      -5.991 -22.678 -89.978  1.00  0.00     0.249 C 
HETATM   21  O5  UNL     1      -6.955 -21.856 -90.074  1.00  0.00    -0.271 OA
ATOM     22  H2  UNL     1      -5.596 -24.739 -90.074  1.00  0.00     0.163 HD
BRANCH  20  23
HETATM   23  C10 UNL     1      -4.616 -22.280 -89.717  1.00  0.00     0.278 C 
BRANCH  23  24
HETATM   24  N3  UNL     1      -4.602 -21.700 -88.358  1.00  0.00    -0.066 N 
ATOM     25  H33 UNL     1      -4.625 -22.401 -87.617  1.00  0.00     0.275 HD
ATOM     26  H32 UNL     1      -3.708 -21.280 -88.106  1.00  0.00     0.275 HD
ATOM     27  H31 UNL     1      -5.382 -21.043 -88.320  1.00  0.00     0.275 HD
ENDBRANCH  23  24
BRANCH  23  28
HETATM   28  C11 UNL     1      -4.010 -21.258 -90.598  1.00  0.00     0.017 C 
HETATM   29  C12 UNL     1      -4.287 -19.833 -90.297  1.00  0.00     0.012 C 
HETATM   30  C13 UNL     1      -4.487 -21.552 -92.027  1.00  0.00     0.012 C 
ENDBRANCH  23  28
ENDBRANCH  20  23
ENDBRANCH   1  19
BRANCH   1  31
HETATM   31  C14 UNL     1      -7.921 -25.706 -89.503  1.00  0.00     0.128 C 
BRANCH  31  32
HETATM   32  C15 UNL     1      -9.308 -26.126 -89.272  1.00  0.00     0.091 C 
BRANCH  32  33
HETATM   33  S1  UNL     1      -9.418 -27.913 -89.093  1.00  0.00    -0.172 SA
HETATM   34  C16 UNL     1      -9.013 -28.585 -87.503  1.00  0.00     0.089 C 
ENDBRANCH  32  33
ENDBRANCH  31  32
BRANCH  31  35
HETATM   35  C17 UNL     1      -7.342 -25.238 -88.179  1.00  0.00     0.180 C 
HETATM   36  O6  UNL     1      -6.378 -25.896 -87.736  1.00  0.00    -0.648 OA
HETATM   37  O7  UNL     1      -7.825 -24.173 -87.488  1.00  0.00    -0.648 OA
ENDBRANCH  31  35
ENDBRANCH   1  31
TORSDOF 13
ENDMDL
MODEL 4
REMARK VINA RESULT: -6.075222017      3.216      7.184
REMARK  13 active torsions:
REMARK  status: ('A' for Active; 'I' for Inactive)
REMARK    1  A    between atoms: O1_2  and  C2_3 
REMARK    2  A    between atoms: C5_7  and  O3_8 
REMARK    3  A    between atoms: C6_10  and  N1_11 
REMARK       I    between atoms: N1_11  and  C7_13 
REMARK    4  A    between atoms: C7_13  and  C8_15 
REMARK    5  A    between atoms: C8_15  and  N2_16 
REMARK    6  A    between atoms: C8_15  and  C14_28 
REMARK       I    between atoms: N2_16  and  C9_18 
REMARK    7  A    between atoms: C9_18  and  C10_20 
REMARK    8  A    between atoms: C10_20  and  N3_21 
REMARK    9  A    between atoms: C10_20  and  C11_25 
REMARK   10  A    between atoms: C14_28  and  C15_29 
REMARK   11  A    between atoms: C14_28  and  C17_32 
REMARK   12  A    between atoms: C15_29  and  S1_30 
REMARK   13  A    between atoms: C18_35  and  O8_36 
ROOT
HETATM    1  C8  UNL     1      -7.228 -24.855 -87.958  1.00  0.00     0.191 C 
ENDROOT
BRANCH   1   2
HETATM    2  C7  UNL     1      -8.030 -25.284 -89.118  1.00  0.00     0.241 C 
HETATM    3  N1  UNL     1      -7.477 -25.590 -90.380  1.00  0.00    -0.349 N 
ATOM      4  H1  UNL     1      -6.469 -25.523 -90.523  1.00  0.00     0.163 HD
HETATM    5  O4  UNL     1      -9.299 -25.375 -88.927  1.00  0.00    -0.271 OA
BRANCH   3   6
HETATM    6  C6  UNL     1      -8.334 -25.999 -91.472  1.00  0.00     0.149 C 
HETATM    7  C5  UNL     1      -7.959 -27.345 -92.041  1.00  0.00     0.172 C 
HETATM    8  C3  UNL     1      -9.090 -27.762 -92.956  1.00  0.00     0.151 C 
HETATM    9  O2  UNL     1      -9.534 -26.752 -93.762  1.00  0.00    -0.351 OA
HETATM   10  C4  UNL     1      -8.762 -29.032 -93.707  1.00  0.00     0.042 C 
HETATM   11  C2  UNL     1      -8.677 -25.698 -93.931  1.00  0.00     0.290 C 
HETATM   12  C18 UNL     1      -8.323 -25.012 -92.619  1.00  0.00     0.198 C 
BRANCH   7  13
HETATM   13  O3  UNL     1      -7.769 -28.293 -91.038  1.00  0.00    -0.391 OA
ATOM     14  H3  UNL     1      -8.453 -28.225 -90.382  1.00  0.00     0.210 HD
ENDBRANCH   7  13
BRANCH  11  15
HETATM   15  O1  UNL     1      -9.292 -24.736 -94.726  1.00  0.00    -0.363 OA
HETATM   16  C1  UNL     1      -8.485 -24.228 -95.712  1.00  0.00     0.204 C 
ENDBRANCH  11  15
BRANCH  12  17
HETATM   17  O8  UNL     1      -9.242 -23.987 -92.425  1.00  0.00    -0.388 OA
ATOM     18  H8  UNL     1      -9.218 -23.754 -91.504  1.00  0.00     0.210 HD
ENDBRANCH  12  17
ENDBRANCH   3   6
ENDBRANCH   1   2
BRANCH   1  19
HETATM   19  N2  UNL     1      -6.006 -24.170 -88.414  1.00  0.00    -0.345 N 
HETATM   20  C9  UNL     1      -5.984 -22.806 -88.781  1.00  0.00     0.249 C 
HETATM   21  O5  UNL     1      -7.098 -22.200 -88.694  1.00  0.00    -0.271 OA
ATOM     22  H2  UNL     1      -5.139 -24.703 -88.467  1.00  0.00     0.163 HD
BRANCH  20  23
HETATM   23  C10 UNL     1      -4.753 -22.170 -89.223  1.00  0.00     0.278 C 
BRANCH  23  24
HETATM   24  N3  UNL     1      -4.342 -21.260 -88.133  1.00  0.00    -0.066 N 
ATOM     25  H33 UNL     1      -3.784 -21.716 -87.412  1.00  0.00     0.275 HD
ATOM     26  H32 UNL     1      -3.642 -20.576 -88.420  1.00  0.00     0.275 HD
ATOM     27  H31 UNL     1      -5.199 -20.837 -87.776  1.00  0.00     0.275 HD
ENDBRANCH  23  24
BRANCH  23  28
HETATM   28  C11 UNL     1      -4.800 -21.340 -90.446  1.00  0.00     0.017 C 
HETATM   29  C12 UNL     1      -4.129 -21.860 -91.661  1.00  0.00     0.012 C 
HETATM   30  C13 UNL     1      -4.177 -19.981 -90.094  1.00  0.00     0.012 C 
ENDBRANCH  23  28
ENDBRANCH  20  23
ENDBRANCH   1  19
BRANCH   1  31
HETATM   31  C14 UNL     1      -6.744 -26.020 -87.095  1.00  0.00     0.128 C 
BRANCH  31  32
HETATM   32  C15 UNL     1      -6.717 -27.343 -87.728  1.00  0.00     0.091 C 
BRANCH  32  33
HETATM   33  S1  UNL     1      -5.066 -28.056 -87.661  1.00  0.00    -0.172 SA
HETATM   34  C16 UNL     1      -3.855 -27.184 -86.702  1.00  0.00     0.089 C 
ENDBRANCH  32  33
ENDBRANCH  31  32
BRANCH  31  35
HETATM   35  C17 UNL     1      -7.772 -26.050 -85.979  1.00  0.00     0.180 C 
HETATM   36  O6  UNL     1      -7.658 -26.975 -85.148  1.00  0.00    -0.648 OA
HETATM   37  O7  UNL     1      -8.777 -25.142 -85.863  1.00  0.00    -0.648 OA
ENDBRANCH  31  35
ENDBRANCH   1  31
TORSDOF 13
ENDMDL
MODEL 5
REMARK VINA RESULT: -6.060854393      1.424      2.645
REMARK  13 active torsions:
REMARK  status: ('A' for Active; 'I' for Inactive)
REMARK    1  A    between atoms: O1_2  and  C2_3 
REMARK    2  A    between atoms: C5_7  and  O3_8 
REMARK    3  A    between atoms: C6_10  and  N1_11 
REMARK       I    between atoms: N1_11  and  C7_13 
REMARK    4  A    between atoms: C7_13  and  C8_15 
REMARK    5  A    between atoms: C8_15  and  N2_16 
REMARK    6  A    between atoms: C8_15  and  C14_28 
REMARK       I    between atoms: N2_16  and  C9_18 
REMARK    7  A    between atoms: C9_18  and  C10_20 
REMARK    8  A    between atoms: C10_20  and  N3_21 
REMARK    9  A    between atoms: C10_20  and  C11_25 
REMARK   10  A    between atoms: C14_28  and  C15_29 
REMARK   11  A    between atoms: C14_28  and  C17_32 
REMARK   12  A    between atoms: C15_29  and  S1_30 
REMARK   13  A    between atoms: C18_35  and  O8_36 
ROOT
HETATM    1  C8  UNL     1      -6.679 -27.071 -88.145  1.00  0.00     0.191 C 
ENDROOT
BRANCH   1   2
HETATM    2  C7  UNL     1      -5.221 -27.207 -87.977  1.00  0.00     0.241 C 
HETATM    3  N1  UNL     1      -4.399 -26.194 -87.438  1.00  0.00    -0.349 N 
ATOM      4  H1  UNL     1      -4.812 -25.310 -87.138  1.00  0.00     0.163 HD
HETATM    5  O4  UNL     1      -4.710 -28.327 -88.349  1.00  0.00    -0.271 OA
BRANCH   3   6
HETATM    6  C6  UNL     1      -2.973 -26.403 -87.310  1.00  0.00     0.149 C 
HETATM    7  C5  UNL     1      -2.583 -27.002 -85.981  1.00  0.00     0.172 C 
HETATM    8  C3  UNL     1      -1.135 -27.423 -86.100  1.00  0.00     0.151 C 
HETATM    9  O2  UNL     1      -0.348 -26.487 -86.713  1.00  0.00    -0.351 OA
HETATM   10  C4  UNL     1      -0.581 -27.903 -84.779  1.00  0.00     0.042 C 
HETATM   11  C2  UNL     1      -0.846 -25.212 -86.745  1.00  0.00     0.290 C 
HETATM   12  C18 UNL     1      -2.182 -25.123 -87.470  1.00  0.00     0.198 C 
BRANCH   7  13
HETATM   13  O3  UNL     1      -3.383 -28.095 -85.655  1.00  0.00    -0.391 OA
ATOM     14  H3  UNL     1      -3.788 -27.969 -84.806  1.00  0.00     0.210 HD
ENDBRANCH   7  13
BRANCH  11  15
HETATM   15  O1  UNL     1       0.038 -24.398 -87.445  1.00  0.00    -0.363 OA
HETATM   16  C1  UNL     1       1.269 -24.275 -86.854  1.00  0.00     0.204 C 
ENDBRANCH  11  15
BRANCH  12  17
HETATM   17  O8  UNL     1      -1.912 -24.847 -88.806  1.00  0.00    -0.388 OA
ATOM     18  H8  UNL     1      -2.710 -24.507 -89.193  1.00  0.00     0.210 HD
ENDBRANCH  12  17
ENDBRANCH   3   6
ENDBRANCH   1   2
BRANCH   1  19
HETATM   19  N2  UNL     1      -7.047 -25.647 -88.237  1.00  0.00    -0.345 N 
HETATM   20  C9  UNL     1      -7.165 -24.964 -89.467  1.00  0.00     0.249 C 
HETATM   21  O5  UNL     1      -6.930 -25.662 -90.504  1.00  0.00    -0.271 OA
ATOM     22  H2  UNL     1      -7.223 -25.133 -87.374  1.00  0.00     0.163 HD
BRANCH  20  23
HETATM   23  C10 UNL     1      -7.534 -23.558 -89.510  1.00  0.00     0.278 C 
BRANCH  23  24
HETATM   24  N3  UNL     1      -7.803 -23.242 -90.929  1.00  0.00    -0.066 N 
ATOM     25  H33 UNL     1      -7.333 -23.871 -91.580  1.00  0.00     0.275 HD
ATOM     26  H32 UNL     1      -8.758 -23.454 -91.216  1.00  0.00     0.275 HD
ATOM     27  H31 UNL     1      -7.549 -22.262 -91.056  1.00  0.00     0.275 HD
ENDBRANCH  23  24
BRANCH  23  28
HETATM   28  C11 UNL     1      -6.537 -22.564 -89.058  1.00  0.00     0.017 C 
HETATM   29  C12 UNL     1      -6.888 -21.711 -87.897  1.00  0.00     0.012 C 
HETATM   30  C13 UNL     1      -6.233 -21.652 -90.254  1.00  0.00     0.012 C 
ENDBRANCH  23  28
ENDBRANCH  20  23
ENDBRANCH   1  19
BRANCH   1  31
HETATM   31  C14 UNL     1      -7.478 -27.623 -86.965  1.00  0.00     0.128 C 
BRANCH  31  32
HETATM   32  C15 UNL     1      -8.851 -28.057 -87.245  1.00  0.00     0.091 C 
BRANCH  32  33
HETATM   33  S1  UNL     1      -9.021 -28.596 -88.953  1.00  0.00    -0.172 SA
HETATM   34  C16 UNL     1      -9.904 -27.517 -90.049  1.00  0.00     0.089 C 
ENDBRANCH  32  33
ENDBRANCH  31  32
BRANCH  31  35
HETATM   35  C17 UNL     1      -7.541 -26.431 -86.027  1.00  0.00     0.180 C 
HETATM   36  O6  UNL     1      -6.559 -26.271 -85.272  1.00  0.00    -0.648 OA
HETATM   37  O7  UNL     1      -8.592 -25.571 -85.980  1.00  0.00    -0.648 OA
ENDBRANCH  31  35
ENDBRANCH   1  31
TORSDOF 13
ENDMDL
