MODEL 1
REMARK VINA RESULT: -7.593636490      0.000      0.000
REMARK  3 active torsions:
REMARK  status: ('A' for Active; 'I' for Inactive)
REMARK       I    between atoms: C2_4  and  N2_5 
REMARK       I    between atoms: C2_4  and  N3_13 
REMARK    1  A    between atoms: N2_5  and  C3_7 
REMARK    2  A    between atoms: N3_13  and  S1_15 
REMARK    3  A    between atoms: S1_15  and  N4_18 
REMARK       I    between atoms: N4_18  and  C9_19 
ROOT
HETATM    1  C1  UNL     1     -33.172   3.127  95.440  1.00  0.00     0.165 C 
HETATM    2  N1  UNL     1     -33.042   4.508  95.220  1.00  0.00    -0.230 N 
ATOM      3  H1  UNL     1     -32.119   4.777  94.879  1.00  0.00     0.177 HD
HETATM    4  C2  UNL     1     -33.817   5.476  95.354  1.00  0.00     0.685 C 
HETATM    5  N2  UNL     1     -35.120   5.252  95.849  1.00  0.00    -0.221 N 
ATOM      6  H2  UNL     1     -35.591   4.390  95.574  1.00  0.00     0.178 HD
HETATM    7  N3  UNL     1     -33.420   6.750  94.894  1.00  0.00    -0.089 N 
ATOM      8  H3  UNL     1     -34.130   7.381  94.521  1.00  0.00     0.200 HD
ENDROOT
BRANCH   5   9
HETATM    9  C3  UNL     1     -35.823   6.150  96.707  1.00  0.00     0.099 C 
HETATM   10  C4  UNL     1     -35.157   6.193  98.092  1.00  0.00     0.026 C 
HETATM   11  C5  UNL     1     -35.897   7.250  98.848  1.00  0.00     0.002 C 
HETATM   12  C6  UNL     1     -37.321   6.853  99.125  1.00  0.00     0.000 C 
HETATM   13  C7  UNL     1     -37.981   5.982  98.121  1.00  0.00     0.002 C 
HETATM   14  C8  UNL     1     -37.258   5.660  96.842  1.00  0.00     0.026 C 
ENDBRANCH   5   9
BRANCH   7  15
HETATM   15  S1  UNL     1     -31.796   7.272  94.940  1.00  0.00     0.407 S 
HETATM   16  O1  UNL     1     -31.092   6.328  95.965  1.00  0.00    -0.169 OA
HETATM   17  O2  UNL     1     -31.127   6.795  93.644  1.00  0.00    -0.169 OA
BRANCH  15  18
HETATM   18  N4  UNL     1     -31.540   8.846  95.230  1.00  0.00    -0.267 NA
HETATM   19  C9  UNL     1     -31.321  10.183  95.481  1.00  0.00     0.301 C 
HETATM   20  C10 UNL     1     -31.920  11.036  94.338  1.00  0.00     0.136 C 
HETATM   21  O3  UNL     1     -30.774  10.713  96.464  1.00  0.00    -0.257 OA
ENDBRANCH  15  18
ENDBRANCH   7  15
TORSDOF 3
ENDMDL
MODEL 2
REMARK VINA RESULT: -7.165403690      0.977      1.308
REMARK  3 active torsions:
REMARK  status: ('A' for Active; 'I' for Inactive)
REMARK       I    between atoms: C2_4  and  N2_5 
REMARK       I    between atoms: C2_4  and  N3_13 
REMARK    1  A    between atoms: N2_5  and  C3_7 
REMARK    2  A    between atoms: N3_13  and  S1_15 
REMARK    3  A    between atoms: S1_15  and  N4_18 
REMARK       I    between atoms: N4_18  and  C9_19 
ROOT
HETATM    1  C1  UNL     1     -32.290   3.798  95.466  1.00  0.00     0.165 C 
HETATM    2  N1  UNL     1     -32.642   5.052  94.940  1.00  0.00    -0.230 N 
ATOM      3  H1  UNL     1     -31.928   5.446  94.327  1.00  0.00     0.177 HD
HETATM    4  C2  UNL     1     -33.641   5.787  95.064  1.00  0.00     0.685 C 
HETATM    5  N2  UNL     1     -34.695   5.378  95.910  1.00  0.00    -0.221 N 
ATOM      6  H2  UNL     1     -34.916   4.382  95.948  1.00  0.00     0.178 HD
HETATM    7  N3  UNL     1     -33.754   6.944  94.265  1.00  0.00    -0.089 N 
ATOM      8  H3  UNL     1     -34.681   7.245  93.963  1.00  0.00     0.200 HD
ENDROOT
BRANCH   5   9
HETATM    9  C3  UNL     1     -35.474   6.263  96.714  1.00  0.00     0.099 C 
HETATM   10  C4  UNL     1     -34.979   6.234  98.169  1.00  0.00     0.026 C 
HETATM   11  C5  UNL     1     -35.778   7.284  98.874  1.00  0.00     0.002 C 
HETATM   12  C6  UNL     1     -37.235   6.919  98.962  1.00  0.00     0.000 C 
HETATM   13  C7  UNL     1     -37.791   6.107  97.852  1.00  0.00     0.002 C 
HETATM   14  C8  UNL     1     -36.927   5.812  96.656  1.00  0.00     0.026 C 
ENDBRANCH   5   9
BRANCH   7  15
HETATM   15  S1  UNL     1     -32.395   7.858  93.786  1.00  0.00     0.407 S 
HETATM   16  O1  UNL     1     -31.288   6.807  93.464  1.00  0.00    -0.169 OA
HETATM   17  O2  UNL     1     -32.674   8.384  92.372  1.00  0.00    -0.169 OA
BRANCH  15  18
HETATM   18  N4  UNL     1     -31.902   9.025  94.799  1.00  0.00    -0.267 NA
HETATM   19  C9  UNL     1     -31.486  10.019  95.656  1.00  0.00     0.301 C 
HETATM   20  C10 UNL     1     -30.480   9.443  96.679  1.00  0.00     0.136 C 
HETATM   21  O3  UNL     1     -31.787  11.227  95.656  1.00  0.00    -0.257 OA
ENDBRANCH  15  18
ENDBRANCH   7  15
TORSDOF 3
ENDMDL
MODEL 3
REMARK VINA RESULT: -6.096053583      0.612      1.353
REMARK  3 active torsions:
REMARK  status: ('A' for Active; 'I' for Inactive)
REMARK       I    between atoms: C2_4  and  N2_5 
REMARK       I    between atoms: C2_4  and  N3_13 
REMARK    1  A    between atoms: N2_5  and  C3_7 
REMARK    2  A    between atoms: N3_13  and  S1_15 
REMARK    3  A    between atoms: S1_15  and  N4_18 
REMARK       I    between atoms: N4_18  and  C9_19 
ROOT
HETATM    1  C1  UNL     1     -32.906   2.848  94.769  1.00  0.00     0.165 C 
HETATM    2  N1  UNL     1     -32.871   4.249  94.867  1.00  0.00    -0.230 N 
ATOM      3  H1  UNL     1     -32.029   4.660  94.464  1.00  0.00     0.177 HD
HETATM    4  C2  UNL     1     -33.652   5.097  95.342  1.00  0.00     0.685 C 
HETATM    5  N2  UNL     1     -34.846   4.665  95.959  1.00  0.00    -0.221 N 
ATOM      6  H2  UNL     1     -35.320   3.854  95.561  1.00  0.00     0.178 HD
HETATM    7  N3  UNL     1     -33.389   6.469  95.143  1.00  0.00    -0.089 N 
ATOM      8  H3  UNL     1     -34.176   7.111  95.041  1.00  0.00     0.200 HD
ENDROOT
BRANCH   5   9
HETATM    9  C3  UNL     1     -35.435   5.286  97.100  1.00  0.00     0.099 C 
HETATM   10  C4  UNL     1     -36.667   6.106  96.684  1.00  0.00     0.026 C 
HETATM   11  C5  UNL     1     -37.261   6.595  97.967  1.00  0.00     0.002 C 
HETATM   12  C6  UNL     1     -36.366   7.583  98.663  1.00  0.00     0.000 C 
HETATM   13  C7  UNL     1     -34.904   7.409  98.479  1.00  0.00     0.002 C 
HETATM   14  C8  UNL     1     -34.398   6.202  97.736  1.00  0.00     0.026 C 
ENDBRANCH   5   9
BRANCH   7  15
HETATM   15  S1  UNL     1     -31.803   7.093  95.067  1.00  0.00     0.407 S 
HETATM   16  O1  UNL     1     -30.986   6.261  96.105  1.00  0.00    -0.169 OA
HETATM   17  O2  UNL     1     -31.172   6.577  93.766  1.00  0.00    -0.169 OA
BRANCH  15  18
HETATM   18  N4  UNL     1     -31.635   8.695  95.248  1.00  0.00    -0.267 NA
HETATM   19  C9  UNL     1     -31.492  10.056  95.405  1.00  0.00     0.301 C 
HETATM   20  C10 UNL     1     -32.046  10.790  94.162  1.00  0.00     0.136 C 
HETATM   21  O3  UNL     1     -31.038  10.686  96.378  1.00  0.00    -0.257 OA
ENDBRANCH  15  18
ENDBRANCH   7  15
TORSDOF 3
ENDMDL
MODEL 4
REMARK VINA RESULT: -5.940751944      2.790      5.987
REMARK  3 active torsions:
REMARK  status: ('A' for Active; 'I' for Inactive)
REMARK       I    between atoms: C2_4  and  N2_5 
REMARK       I    between atoms: C2_4  and  N3_13 
REMARK    1  A    between atoms: N2_5  and  C3_7 
REMARK    2  A    between atoms: N3_13  and  S1_15 
REMARK    3  A    between atoms: S1_15  and  N4_18 
REMARK       I    between atoms: N4_18  and  C9_19 
ROOT
HETATM    1  C1  UNL     1     -30.560   4.582  94.813  1.00  0.00     0.165 C 
HETATM    2  N1  UNL     1     -31.712   4.971  95.517  1.00  0.00    -0.230 N 
ATOM      3  H1  UNL     1     -32.345   4.196  95.713  1.00  0.00     0.177 HD
HETATM    4  C2  UNL     1     -32.123   6.065  95.954  1.00  0.00     0.685 C 
HETATM    5  N2  UNL     1     -31.358   7.229  95.727  1.00  0.00    -0.221 N 
ATOM      6  H2  UNL     1     -30.341   7.141  95.745  1.00  0.00     0.178 HD
HETATM    7  N3  UNL     1     -33.274   6.096  96.769  1.00  0.00    -0.089 N 
ATOM      8  H3  UNL     1     -33.333   6.793  97.511  1.00  0.00     0.200 HD
ENDROOT
BRANCH   5   9
HETATM    9  C3  UNL     1     -31.910   8.520  95.474  1.00  0.00     0.099 C 
HETATM   10  C4  UNL     1     -31.702   8.909  94.001  1.00  0.00     0.026 C 
HETATM   11  C5  UNL     1     -32.427  10.206  93.834  1.00  0.00     0.002 C 
HETATM   12  C6  UNL     1     -31.781  11.318  94.614  1.00  0.00     0.000 C 
HETATM   13  C7  UNL     1     -31.101  10.943  95.878  1.00  0.00     0.002 C 
HETATM   14  C8  UNL     1     -31.208   9.527  96.375  1.00  0.00     0.026 C 
ENDBRANCH   5   9
BRANCH   7  15
HETATM   15  S1  UNL     1     -34.572   5.008  96.556  1.00  0.00     0.407 S 
HETATM   16  O1  UNL     1     -34.591   4.687  95.029  1.00  0.00    -0.169 OA
HETATM   17  O2  UNL     1     -34.122   3.648  97.104  1.00  0.00    -0.169 OA
BRANCH  15  18
HETATM   18  N4  UNL     1     -36.015   5.467  97.137  1.00  0.00    -0.267 NA
HETATM   19  C9  UNL     1     -37.243   5.854  97.627  1.00  0.00     0.301 C 
HETATM   20  C10 UNL     1     -37.055   6.922  98.730  1.00  0.00     0.136 C 
HETATM   21  O3  UNL     1     -38.377   5.488  97.270  1.00  0.00    -0.257 OA
ENDBRANCH  15  18
ENDBRANCH   7  15
TORSDOF 3
ENDMDL
MODEL 5
REMARK VINA RESULT: -5.555844409      1.121      1.734
REMARK  3 active torsions:
REMARK  status: ('A' for Active; 'I' for Inactive)
REMARK       I    between atoms: C2_4  and  N2_5 
REMARK       I    between atoms: C2_4  and  N3_13 
REMARK    1  A    between atoms: N2_5  and  C3_7 
REMARK    2  A    between atoms: N3_13  and  S1_15 
REMARK    3  A    between atoms: S1_15  and  N4_18 
REMARK       I    between atoms: N4_18  and  C9_19 
ROOT
HETATM    1  C1  UNL     1     -32.307   2.875  95.006  1.00  0.00     0.165 C 
HETATM    2  N1  UNL     1     -32.714   4.198  94.765  1.00  0.00    -0.230 N 
ATOM      3  H1  UNL     1     -32.135   4.678  94.077  1.00  0.00     0.177 HD
HETATM    4  C2  UNL     1     -33.633   4.910  95.216  1.00  0.00     0.685 C 
HETATM    5  N2  UNL     1     -34.495   4.380  96.201  1.00  0.00    -0.221 N 
ATOM      6  H2  UNL     1     -34.741   3.392  96.136  1.00  0.00     0.178 HD
HETATM    7  N3  UNL     1     -33.870   6.178  94.645  1.00  0.00    -0.089 N 
ATOM      8  H3  UNL     1     -34.828   6.528  94.603  1.00  0.00     0.200 HD
ENDROOT
BRANCH   5   9
HETATM    9  C3  UNL     1     -35.045   5.134  97.280  1.00  0.00     0.099 C 
HETATM   10  C4  UNL     1     -36.460   5.621  96.923  1.00  0.00     0.026 C 
HETATM   11  C5  UNL     1     -36.971   6.278  98.165  1.00  0.00     0.002 C 
HETATM   12  C6  UNL     1     -36.211   7.534  98.493  1.00  0.00     0.000 C 
HETATM   13  C7  UNL     1     -34.779   7.571  98.105  1.00  0.00     0.002 C 
HETATM   14  C8  UNL     1     -34.141   6.331  97.540  1.00  0.00     0.026 C 
ENDBRANCH   5   9
BRANCH   7  15
HETATM   15  S1  UNL     1     -32.612   7.148  94.022  1.00  0.00     0.407 S 
HETATM   16  O1  UNL     1     -31.488   6.146  93.611  1.00  0.00    -0.169 OA
HETATM   17  O2  UNL     1     -33.052   7.630  92.633  1.00  0.00    -0.169 OA
BRANCH  15  18
HETATM   18  N4  UNL     1     -32.085   8.359  94.963  1.00  0.00    -0.267 NA
HETATM   19  C9  UNL     1     -31.637   9.384  95.766  1.00  0.00     0.301 C 
HETATM   20  C10 UNL     1     -31.681  10.719  94.986  1.00  0.00     0.136 C 
HETATM   21  O3  UNL     1     -31.273   9.343  96.955  1.00  0.00    -0.257 OA
ENDBRANCH  15  18
ENDBRANCH   7  15
TORSDOF 3
ENDMDL
