MODEL 1
REMARK VINA RESULT: -8.413015989      0.000      0.000
REMARK  4 active torsions:
REMARK  status: ('A' for Active; 'I' for Inactive)
REMARK    1  A    between atoms: C2_2  and  N1_3 
REMARK    2  A    between atoms: C2_2  and  C12_22 
REMARK       I    between atoms: N1_3  and  C3_5 
REMARK       I    between atoms: C3_5  and  N4_10 
REMARK    3  A    between atoms: N4_10  and  N5_12 
REMARK       I    between atoms: N5_12  and  C5_14 
REMARK    4  A    between atoms: C5_14  and  C6_16 
ROOT
HETATM    1  N1  UNL     1     -33.192   7.456  95.271  1.00  0.00    -0.210 N 
ATOM      2  H1  UNL     1     -33.714   8.201  95.735  1.00  0.00     0.178 HD
HETATM    3  C3  UNL     1     -33.351   6.104  95.671  1.00  0.00     0.702 C 
HETATM    4  N2  UNL     1     -33.117   5.147  94.888  1.00  0.00    -0.125 N 
ATOM      5  H2  UNL     1     -32.805   5.390  93.947  1.00  0.00     0.197 HD
HETATM    6  C4  UNL     1     -33.238   3.812  95.172  1.00  0.00     0.196 C 
HETATM    7  N3  UNL     1     -33.355   2.671  95.408  1.00  0.00    -0.171 NA
HETATM    8  N4  UNL     1     -33.793   5.843  97.004  1.00  0.00    -0.129 N 
ATOM      9  H4  UNL     1     -33.137   5.801  97.784  1.00  0.00     0.205 HD
ENDROOT
BRANCH   1  10
HETATM   10  C2  UNL     1     -32.281   7.756  94.198  1.00  0.00     0.196 C 
HETATM   11  C1  UNL     1     -32.989   7.764  92.864  1.00  0.00     0.044 C 
BRANCH  10  12
HETATM   12  C12 UNL     1     -31.546   9.005  94.471  1.00  0.00     0.196 C 
HETATM   13  O2  UNL     1     -31.758  10.022  93.727  1.00  0.00    -0.646 OA
HETATM   14  O3  UNL     1     -30.635   9.140  95.494  1.00  0.00    -0.646 OA
ENDBRANCH  10  12
ENDBRANCH   1  10
BRANCH   8  15
HETATM   15  N5  UNL     1     -35.158   5.652  97.193  1.00  0.00    -0.251 N 
HETATM   16  C5  UNL     1     -35.967   6.537  97.930  1.00  0.00     0.270 C 
HETATM   17  O1  UNL     1     -35.448   7.570  98.447  1.00  0.00    -0.266 OA
ATOM     18  H5  UNL     1     -35.593   4.829  96.778  1.00  0.00     0.191 HD
BRANCH  16  19
HETATM   19  C6  UNL     1     -37.409   6.276  98.106  1.00  0.00     0.033 A 
HETATM   20  C7  UNL     1     -38.188   5.826  97.063  1.00  0.00     0.017 A 
HETATM   21  C8  UNL     1     -39.542   5.591  97.225  1.00  0.00     0.001 A 
HETATM   22  C9  UNL     1     -40.172   5.795  98.435  1.00  0.00     0.000 A 
HETATM   23  C10 UNL     1     -39.385   6.244  99.478  1.00  0.00     0.001 A 
HETATM   24  C11 UNL     1     -38.025   6.482  99.318  1.00  0.00     0.017 A 
ENDBRANCH  16  19
ENDBRANCH   8  15
TORSDOF 4
ENDMDL
MODEL 2
REMARK VINA RESULT: -8.400802653      0.033      1.053
REMARK  4 active torsions:
REMARK  status: ('A' for Active; 'I' for Inactive)
REMARK    1  A    between atoms: C2_2  and  N1_3 
REMARK    2  A    between atoms: C2_2  and  C12_22 
REMARK       I    between atoms: N1_3  and  C3_5 
REMARK       I    between atoms: C3_5  and  N4_10 
REMARK    3  A    between atoms: N4_10  and  N5_12 
REMARK       I    between atoms: N5_12  and  C5_14 
REMARK    4  A    between atoms: C5_14  and  C6_16 
ROOT
HETATM    1  N1  UNL     1     -33.180   7.460  95.281  1.00  0.00    -0.210 N 
ATOM      2  H1  UNL     1     -33.701   8.201  95.750  1.00  0.00     0.178 HD
HETATM    3  C3  UNL     1     -33.336   6.105  95.675  1.00  0.00     0.702 C 
HETATM    4  N2  UNL     1     -33.103   5.153  94.886  1.00  0.00    -0.125 N 
ATOM      5  H2  UNL     1     -32.795   5.401  93.945  1.00  0.00     0.197 HD
HETATM    6  C4  UNL     1     -33.221   3.817  95.164  1.00  0.00     0.196 C 
HETATM    7  N3  UNL     1     -33.336   2.674  95.395  1.00  0.00    -0.171 NA
HETATM    8  N4  UNL     1     -33.773   5.838  97.008  1.00  0.00    -0.129 N 
ATOM      9  H4  UNL     1     -33.114   5.792  97.785  1.00  0.00     0.205 HD
ENDROOT
BRANCH   1  10
HETATM   10  C2  UNL     1     -32.273   7.766  94.206  1.00  0.00     0.196 C 
HETATM   11  C1  UNL     1     -32.987   7.784  92.876  1.00  0.00     0.044 C 
BRANCH  10  12
HETATM   12  C12 UNL     1     -31.537   9.013  94.485  1.00  0.00     0.196 C 
HETATM   13  O2  UNL     1     -31.751  10.035  93.749  1.00  0.00    -0.646 OA
HETATM   14  O3  UNL     1     -30.621   9.140  95.505  1.00  0.00    -0.646 OA
ENDBRANCH  10  12
ENDBRANCH   1  10
BRANCH   8  15
HETATM   15  N5  UNL     1     -35.137   5.643  97.201  1.00  0.00    -0.251 N 
HETATM   16  C5  UNL     1     -35.952   6.542  97.914  1.00  0.00     0.270 C 
HETATM   17  O1  UNL     1     -35.439   7.591  98.405  1.00  0.00    -0.266 OA
ATOM     18  H5  UNL     1     -35.567   4.807  96.807  1.00  0.00     0.191 HD
BRANCH  16  19
HETATM   19  C6  UNL     1     -37.392   6.277  98.096  1.00  0.00     0.033 A 
HETATM   20  C7  UNL     1     -38.016   6.509  99.302  1.00  0.00     0.017 A 
HETATM   21  C8  UNL     1     -39.364   6.250  99.477  1.00  0.00     0.001 A 
HETATM   22  C9  UNL     1     -40.143   5.750  98.454  1.00  0.00     0.000 A 
HETATM   23  C10 UNL     1     -39.512   5.520  97.246  1.00  0.00     0.001 A 
HETATM   24  C11 UNL     1     -38.158   5.778  97.068  1.00  0.00     0.017 A 
ENDBRANCH  16  19
ENDBRANCH   8  15
TORSDOF 4
ENDMDL
MODEL 3
REMARK VINA RESULT: -8.026187072      0.804      1.518
REMARK  4 active torsions:
REMARK  status: ('A' for Active; 'I' for Inactive)
REMARK    1  A    between atoms: C2_2  and  N1_3 
REMARK    2  A    between atoms: C2_2  and  C12_22 
REMARK       I    between atoms: N1_3  and  C3_5 
REMARK       I    between atoms: C3_5  and  N4_10 
REMARK    3  A    between atoms: N4_10  and  N5_12 
REMARK       I    between atoms: N5_12  and  C5_14 
REMARK    4  A    between atoms: C5_14  and  C6_16 
ROOT
HETATM    1  N1  UNL     1     -32.765   7.675  96.168  1.00  0.00    -0.210 N 
ATOM      2  H1  UNL     1     -33.238   8.266  96.853  1.00  0.00     0.178 HD
HETATM    3  C3  UNL     1     -33.044   6.285  96.097  1.00  0.00     0.702 C 
HETATM    4  N2  UNL     1     -32.866   5.625  95.040  1.00  0.00    -0.125 N 
ATOM      5  H2  UNL     1     -32.510   6.138  94.233  1.00  0.00     0.197 HD
HETATM    6  C4  UNL     1     -33.103   4.287  94.865  1.00  0.00     0.196 C 
HETATM    7  N3  UNL     1     -33.319   3.147  94.708  1.00  0.00    -0.171 NA
HETATM    8  N4  UNL     1     -33.543   5.637  97.268  1.00  0.00    -0.129 N 
ATOM      9  H4  UNL     1     -32.915   5.283  97.989  1.00  0.00     0.205 HD
ENDROOT
BRANCH   1  10
HETATM   10  C2  UNL     1     -31.803   8.234  95.255  1.00  0.00     0.196 C 
HETATM   11  C1  UNL     1     -32.423   8.506  93.906  1.00  0.00     0.044 C 
BRANCH  10  12
HETATM   12  C12 UNL     1     -31.152   9.419  95.844  1.00  0.00     0.196 C 
HETATM   13  O2  UNL     1     -30.127   9.255  96.588  1.00  0.00    -0.646 OA
HETATM   14  O3  UNL     1     -31.592  10.706  95.634  1.00  0.00    -0.646 OA
ENDBRANCH  10  12
ENDBRANCH   1  10
BRANCH   8  15
HETATM   15  N5  UNL     1     -34.924   5.511  97.383  1.00  0.00    -0.251 N 
HETATM   16  C5  UNL     1     -35.738   6.477  98.003  1.00  0.00     0.270 C 
HETATM   17  O1  UNL     1     -35.209   7.523  98.480  1.00  0.00    -0.266 OA
ATOM     18  H5  UNL     1     -35.367   4.677  96.998  1.00  0.00     0.191 HD
BRANCH  16  19
HETATM   19  C6  UNL     1     -37.197   6.283  98.106  1.00  0.00     0.033 A 
HETATM   20  C7  UNL     1     -37.873   6.539  99.279  1.00  0.00     0.017 A 
HETATM   21  C8  UNL     1     -39.240   6.346  99.379  1.00  0.00     0.001 A 
HETATM   22  C9  UNL     1     -39.987   5.893  98.311  1.00  0.00     0.000 A 
HETATM   23  C10 UNL     1     -39.304   5.640  97.137  1.00  0.00     0.001 A 
HETATM   24  C11 UNL     1     -37.931   5.831  97.034  1.00  0.00     0.017 A 
ENDBRANCH  16  19
ENDBRANCH   8  15
TORSDOF 4
ENDMDL
MODEL 4
REMARK VINA RESULT: -7.598065200      1.074      1.525
REMARK  4 active torsions:
REMARK  status: ('A' for Active; 'I' for Inactive)
REMARK    1  A    between atoms: C2_2  and  N1_3 
REMARK    2  A    between atoms: C2_2  and  C12_22 
REMARK       I    between atoms: N1_3  and  C3_5 
REMARK       I    between atoms: C3_5  and  N4_10 
REMARK    3  A    between atoms: N4_10  and  N5_12 
REMARK       I    between atoms: N5_12  and  C5_14 
REMARK    4  A    between atoms: C5_14  and  C6_16 
ROOT
HETATM    1  N1  UNL     1     -33.838   7.055  94.983  1.00  0.00    -0.210 N 
ATOM      2  H1  UNL     1     -34.490   7.838  95.033  1.00  0.00     0.178 HD
HETATM    3  C3  UNL     1     -33.926   5.981  95.907  1.00  0.00     0.702 C 
HETATM    4  N2  UNL     1     -33.489   4.833  95.635  1.00  0.00    -0.125 N 
ATOM      5  H2  UNL     1     -33.067   4.709  94.714  1.00  0.00     0.197 HD
HETATM    6  C4  UNL     1     -33.525   3.732  96.450  1.00  0.00     0.196 C 
HETATM    7  N3  UNL     1     -33.568   2.786  97.139  1.00  0.00    -0.171 NA
HETATM    8  N4  UNL     1     -34.534   6.232  97.175  1.00  0.00    -0.129 N 
ATOM      9  H4  UNL     1     -33.998   6.612  97.956  1.00  0.00     0.205 HD
ENDROOT
BRANCH   1  10
HETATM   10  C2  UNL     1     -32.811   7.017  93.976  1.00  0.00     0.196 C 
HETATM   11  C1  UNL     1     -33.225   7.782  92.742  1.00  0.00     0.044 C 
BRANCH  10  12
HETATM   12  C12 UNL     1     -31.520   7.466  94.530  1.00  0.00     0.196 C 
HETATM   13  O2  UNL     1     -30.915   8.444  93.973  1.00  0.00    -0.646 OA
HETATM   14  O3  UNL     1     -30.924   6.887  95.627  1.00  0.00    -0.646 OA
ENDBRANCH  10  12
ENDBRANCH   1  10
BRANCH   8  15
HETATM   15  N5  UNL     1     -35.887   5.935  97.299  1.00  0.00    -0.251 N 
HETATM   16  C5  UNL     1     -36.774   6.693  98.087  1.00  0.00     0.270 C 
HETATM   17  O1  UNL     1     -36.341   7.702  98.716  1.00  0.00    -0.266 OA
ATOM     18  H5  UNL     1     -36.254   5.129  96.794  1.00  0.00     0.191 HD
BRANCH  16  19
HETATM   19  C6  UNL     1     -38.199   6.323  98.189  1.00  0.00     0.033 A 
HETATM   20  C7  UNL     1     -38.789   6.077  99.410  1.00  0.00     0.017 A 
HETATM   21  C8  UNL     1     -40.123   5.720  99.506  1.00  0.00     0.001 A 
HETATM   22  C9  UNL     1     -40.921   5.596  98.387  1.00  0.00     0.000 A 
HETATM   23  C10 UNL     1     -40.324   5.845  97.166  1.00  0.00     0.001 A 
HETATM   24  C11 UNL     1     -38.984   6.203  97.066  1.00  0.00     0.017 A 
ENDBRANCH  16  19
ENDBRANCH   8  15
TORSDOF 4
ENDMDL
MODEL 5
REMARK VINA RESULT: -7.392931693      1.380      1.496
REMARK  4 active torsions:
REMARK  status: ('A' for Active; 'I' for Inactive)
REMARK    1  A    between atoms: C2_2  and  N1_3 
REMARK    2  A    between atoms: C2_2  and  C12_22 
REMARK       I    between atoms: N1_3  and  C3_5 
REMARK       I    between atoms: C3_5  and  N4_10 
REMARK    3  A    between atoms: N4_10  and  N5_12 
REMARK       I    between atoms: N5_12  and  C5_14 
REMARK    4  A    between atoms: C5_14  and  C6_16 
ROOT
HETATM    1  N1  UNL     1     -33.945   6.936  95.160  1.00  0.00    -0.210 N 
ATOM      2  H1  UNL     1     -34.515   7.761  95.350  1.00  0.00     0.178 HD
HETATM    3  C3  UNL     1     -33.911   5.852  96.075  1.00  0.00     0.702 C 
HETATM    4  N2  UNL     1     -33.623   4.683  95.710  1.00  0.00    -0.125 N 
ATOM      5  H2  UNL     1     -33.414   4.550  94.720  1.00  0.00     0.197 HD
HETATM    6  C4  UNL     1     -33.563   3.571  96.508  1.00  0.00     0.196 C 
HETATM    7  N3  UNL     1     -33.526   2.616  97.185  1.00  0.00    -0.171 NA
HETATM    8  N4  UNL     1     -34.219   6.117  97.444  1.00  0.00    -0.129 N 
ATOM      9  H4  UNL     1     -33.506   6.444  98.096  1.00  0.00     0.205 HD
ENDROOT
BRANCH   1  10
HETATM   10  C2  UNL     1     -33.158   6.850  93.958  1.00  0.00     0.196 C 
HETATM   11  C1  UNL     1     -33.460   7.996  93.022  1.00  0.00     0.044 C 
BRANCH  10  12
HETATM   12  C12 UNL     1     -31.724   6.728  94.281  1.00  0.00     0.196 C 
HETATM   13  O2  UNL     1     -31.005   7.783  94.312  1.00  0.00    -0.646 OA
HETATM   14  O3  UNL     1     -31.109   5.527  94.554  1.00  0.00    -0.646 OA
ENDBRANCH  10  12
ENDBRANCH   1  10
BRANCH   8  15
HETATM   15  N5  UNL     1     -35.533   5.910  97.850  1.00  0.00    -0.251 N 
HETATM   16  C5  UNL     1     -36.632   6.581  97.282  1.00  0.00     0.270 C 
HETATM   17  O1  UNL     1     -36.437   7.413  96.348  1.00  0.00    -0.266 OA
ATOM     18  H5  UNL     1     -35.709   5.238  98.597  1.00  0.00     0.191 HD
BRANCH  16  19
HETATM   19  C6  UNL     1     -38.004   6.328  97.761  1.00  0.00     0.033 A 
HETATM   20  C7  UNL     1     -39.031   6.057  96.883  1.00  0.00     0.017 A 
HETATM   21  C8  UNL     1     -40.320   5.830  97.332  1.00  0.00     0.001 A 
HETATM   22  C9  UNL     1     -40.636   5.865  98.675  1.00  0.00     0.000 A 
HETATM   23  C10 UNL     1     -39.602   6.136  99.550  1.00  0.00     0.001 A 
HETATM   24  C11 UNL     1     -38.306   6.365  99.103  1.00  0.00     0.017 A 
ENDBRANCH  16  19
ENDBRANCH   8  15
TORSDOF 4
ENDMDL
