MODEL 1
REMARK VINA RESULT: -5.844380147      0.000      0.000
REMARK  5 active torsions:
REMARK  status: ('A' for Active; 'I' for Inactive)
REMARK    1  A    between atoms: S1_2  and  N1_5 
REMARK    2  A    between atoms: N1_5  and  C2_7 
REMARK    3  A    between atoms: C2_7  and  C3_8 
REMARK       I    between atoms: C3_8  and  N2_10 
REMARK    4  A    between atoms: N2_10  and  N3_12 
REMARK       I    between atoms: N3_12  and  C4_14 
REMARK       I    between atoms: C4_14  and  N4_16 
REMARK    5  A    between atoms: N4_16  and  C5_18 
ROOT
HETATM    1  C3  UNL     1      17.198  -6.516  32.264  1.00  0.00     0.254 C 
HETATM    2  O3  UNL     1      17.217  -5.422  32.897  1.00  0.00    -0.270 OA
HETATM    3  N2  UNL     1      18.101  -7.562  32.561  1.00  0.00    -0.265 N 
ATOM      4  H2  UNL     1      18.074  -8.440  32.043  1.00  0.00     0.190 HD
ENDROOT
BRANCH   3   5
HETATM    5  N3  UNL     1      19.029  -7.359  33.583  1.00  0.00    -0.249 N 
HETATM    6  C4  UNL     1      20.339  -6.869  33.328  1.00  0.00     0.339 C 
HETATM    7  O4  UNL     1      20.631  -6.624  32.155  1.00  0.00    -0.245 OA
HETATM    8  N4  UNL     1      21.227  -6.685  34.391  1.00  0.00    -0.307 N 
ATOM      9  H4  UNL     1      20.919  -6.914  35.336  1.00  0.00     0.170 HD
ATOM     10  H3  UNL     1      18.759  -7.570  34.544  1.00  0.00     0.192 HD
BRANCH   8  11
HETATM   11  C5  UNL     1      22.572  -6.179  34.196  1.00  0.00     0.043 A 
HETATM   12  C6  UNL     1      23.552  -6.807  33.532  1.00  0.00     0.037 A 
HETATM   13  C7  UNL     1      24.780  -6.195  33.468  1.00  0.00     0.052 A 
HETATM   14  S2  UNL     1      24.535  -4.757  34.337  1.00  0.00    -0.111 SA
HETATM   15  C8  UNL     1      22.899  -4.958  34.760  1.00  0.00     0.079 A 
ENDBRANCH   8  11
ENDBRANCH   3   5
BRANCH   1  16
HETATM   16  C2  UNL     1      16.201  -6.745  31.160  1.00  0.00     0.236 C 
BRANCH  16  17
HETATM   17  N1  UNL     1      16.722  -7.778  30.291  1.00  0.00    -0.311 N 
ATOM     18  H1  UNL     1      17.665  -8.162  30.345  1.00  0.00     0.172 HD
BRANCH  17  19
HETATM   19  S1  UNL     1      15.518  -8.270  29.148  1.00  0.00     0.223 S 
HETATM   20  C1  UNL     1      15.140  -9.965  29.464  1.00  0.00     0.185 C 
HETATM   21  O1  UNL     1      14.277  -7.442  29.317  1.00  0.00    -0.206 OA
HETATM   22  O2  UNL     1      16.045  -8.147  27.744  1.00  0.00    -0.206 OA
ENDBRANCH  17  19
ENDBRANCH  16  17
ENDBRANCH   1  16
TORSDOF 5
ENDMDL
MODEL 2
REMARK VINA RESULT: -5.759049767      2.609      8.422
REMARK  5 active torsions:
REMARK  status: ('A' for Active; 'I' for Inactive)
REMARK    1  A    between atoms: S1_2  and  N1_5 
REMARK    2  A    between atoms: N1_5  and  C2_7 
REMARK    3  A    between atoms: C2_7  and  C3_8 
REMARK       I    between atoms: C3_8  and  N2_10 
REMARK    4  A    between atoms: N2_10  and  N3_12 
REMARK       I    between atoms: N3_12  and  C4_14 
REMARK       I    between atoms: C4_14  and  N4_16 
REMARK    5  A    between atoms: N4_16  and  C5_18 
ROOT
HETATM    1  C3  UNL     1      22.246  -6.599  33.617  1.00  0.00     0.254 C 
HETATM    2  O3  UNL     1      22.873  -6.991  32.592  1.00  0.00    -0.270 OA
HETATM    3  N2  UNL     1      20.835  -6.637  33.684  1.00  0.00    -0.265 N 
ATOM      4  H2  UNL     1      20.341  -6.318  34.517  1.00  0.00     0.190 HD
ENDROOT
BRANCH   3   5
HETATM    5  N3  UNL     1      20.137  -7.123  32.577  1.00  0.00    -0.249 N 
HETATM    6  C4  UNL     1      18.748  -6.879  32.392  1.00  0.00     0.339 C 
HETATM    7  O4  UNL     1      18.174  -6.213  33.257  1.00  0.00    -0.245 OA
HETATM    8  N4  UNL     1      18.101  -7.391  31.265  1.00  0.00    -0.307 N 
ATOM      9  H4  UNL     1      18.639  -7.939  30.594  1.00  0.00     0.170 HD
ATOM     10  H3  UNL     1      20.639  -7.671  31.879  1.00  0.00     0.192 HD
BRANCH   8  11
HETATM   11  C5  UNL     1      16.690  -7.168  31.016  1.00  0.00     0.043 A 
HETATM   12  C6  UNL     1      15.703  -8.030  31.300  1.00  0.00     0.037 A 
HETATM   13  C7  UNL     1      14.420  -7.669  30.969  1.00  0.00     0.052 A 
HETATM   14  S2  UNL     1      14.623  -6.135  30.272  1.00  0.00    -0.111 SA
HETATM   15  C8  UNL     1      16.312  -5.982  30.410  1.00  0.00     0.079 A 
ENDBRANCH   8  11
ENDBRANCH   3   5
BRANCH   1  16
HETATM   16  C2  UNL     1      22.989  -6.073  34.815  1.00  0.00     0.236 C 
BRANCH  16  17
HETATM   17  N1  UNL     1      23.797  -4.951  34.386  1.00  0.00    -0.311 N 
ATOM     18  H1  UNL     1      23.426  -4.055  34.071  1.00  0.00     0.172 HD
BRANCH  17  19
HETATM   19  S1  UNL     1      25.480  -5.346  34.484  1.00  0.00     0.223 S 
HETATM   20  C1  UNL     1      26.236  -4.849  32.967  1.00  0.00     0.185 C 
HETATM   21  O1  UNL     1      26.118  -4.606  35.623  1.00  0.00    -0.206 OA
HETATM   22  O2  UNL     1      25.664  -6.829  34.651  1.00  0.00    -0.206 OA
ENDBRANCH  17  19
ENDBRANCH  16  17
ENDBRANCH   1  16
TORSDOF 5
ENDMDL
MODEL 3
REMARK VINA RESULT: -5.753957285      0.944      1.118
REMARK  5 active torsions:
REMARK  status: ('A' for Active; 'I' for Inactive)
REMARK    1  A    between atoms: S1_2  and  N1_5 
REMARK    2  A    between atoms: N1_5  and  C2_7 
REMARK    3  A    between atoms: C2_7  and  C3_8 
REMARK       I    between atoms: C3_8  and  N2_10 
REMARK    4  A    between atoms: N2_10  and  N3_12 
REMARK       I    between atoms: N3_12  and  C4_14 
REMARK       I    between atoms: C4_14  and  N4_16 
REMARK    5  A    between atoms: N4_16  and  C5_18 
ROOT
HETATM    1  C3  UNL     1      17.472  -6.514  32.191  1.00  0.00     0.254 C 
HETATM    2  O3  UNL     1      17.371  -5.473  32.901  1.00  0.00    -0.270 OA
HETATM    3  N2  UNL     1      18.451  -7.499  32.452  1.00  0.00    -0.265 N 
ATOM      4  H2  UNL     1      18.522  -8.334  31.871  1.00  0.00     0.190 HD
ENDROOT
BRANCH   3   5
HETATM    5  N3  UNL     1      19.318  -7.296  33.527  1.00  0.00    -0.249 N 
HETATM    6  C4  UNL     1      20.630  -6.777  33.353  1.00  0.00     0.339 C 
HETATM    7  O4  UNL     1      20.981  -6.508  32.201  1.00  0.00    -0.245 OA
HETATM    8  N4  UNL     1      21.454  -6.595  34.466  1.00  0.00    -0.307 N 
ATOM      9  H4  UNL     1      21.099  -6.846  35.388  1.00  0.00     0.170 HD
ATOM     10  H3  UNL     1      18.999  -7.528  34.468  1.00  0.00     0.192 HD
BRANCH   8  11
HETATM   11  C5  UNL     1      22.798  -6.062  34.354  1.00  0.00     0.043 A 
HETATM   12  C6  UNL     1      23.908  -6.783  34.145  1.00  0.00     0.037 A 
HETATM   13  C7  UNL     1      25.107  -6.116  34.095  1.00  0.00     0.052 A 
HETATM   14  S2  UNL     1      24.655  -4.498  34.339  1.00  0.00    -0.111 SA
HETATM   15  C8  UNL     1      22.973  -4.696  34.499  1.00  0.00     0.079 A 
ENDBRANCH   8  11
ENDBRANCH   3   5
BRANCH   1  16
HETATM   16  C2  UNL     1      16.542  -6.742  31.029  1.00  0.00     0.236 C 
BRANCH  16  17
HETATM   17  N1  UNL     1      16.968  -7.942  30.343  1.00  0.00    -0.311 N 
ATOM     18  H1  UNL     1      17.859  -8.416  30.496  1.00  0.00     0.172 HD
BRANCH  17  19
HETATM   19  S1  UNL     1      15.752  -8.463  29.225  1.00  0.00     0.223 S 
HETATM   20  C1  UNL     1      14.319  -7.464  29.489  1.00  0.00     0.185 C 
HETATM   21  O1  UNL     1      16.234  -8.280  27.816  1.00  0.00    -0.206 OA
HETATM   22  O2  UNL     1      15.389  -9.901  29.474  1.00  0.00    -0.206 OA
ENDBRANCH  17  19
ENDBRANCH  16  17
ENDBRANCH   1  16
TORSDOF 5
ENDMDL
MODEL 4
REMARK VINA RESULT: -5.743010720      2.004      2.102
REMARK  5 active torsions:
REMARK  status: ('A' for Active; 'I' for Inactive)
REMARK    1  A    between atoms: S1_2  and  N1_5 
REMARK    2  A    between atoms: N1_5  and  C2_7 
REMARK    3  A    between atoms: C2_7  and  C3_8 
REMARK       I    between atoms: C3_8  and  N2_10 
REMARK    4  A    between atoms: N2_10  and  N3_12 
REMARK       I    between atoms: N3_12  and  C4_14 
REMARK       I    between atoms: C4_14  and  N4_16 
REMARK    5  A    between atoms: N4_16  and  C5_18 
ROOT
HETATM    1  C3  UNL     1      18.343  -6.774  32.627  1.00  0.00     0.254 C 
HETATM    2  O3  UNL     1      17.883  -6.557  33.784  1.00  0.00    -0.270 OA
HETATM    3  N2  UNL     1      19.725  -6.965  32.401  1.00  0.00    -0.265 N 
ATOM      4  H2  UNL     1      20.083  -7.140  31.462  1.00  0.00     0.190 HD
ENDROOT
BRANCH   3   5
HETATM    5  N3  UNL     1      20.585  -6.909  33.498  1.00  0.00    -0.249 N 
HETATM    6  C4  UNL     1      21.948  -6.524  33.372  1.00  0.00     0.339 C 
HETATM    7  O4  UNL     1      22.350  -6.237  32.242  1.00  0.00    -0.245 OA
HETATM    8  N4  UNL     1      22.763  -6.485  34.507  1.00  0.00    -0.307 N 
ATOM      9  H4  UNL     1      22.364  -6.742  35.409  1.00  0.00     0.170 HD
ATOM     10  H3  UNL     1      20.224  -7.152  34.421  1.00  0.00     0.192 HD
BRANCH   8  11
HETATM   11  C5  UNL     1      24.157  -6.091  34.444  1.00  0.00     0.043 A 
HETATM   12  C6  UNL     1      25.175  -6.883  34.075  1.00  0.00     0.037 A 
HETATM   13  C7  UNL     1      26.441  -6.354  34.101  1.00  0.00     0.052 A 
HETATM   14  S2  UNL     1      26.181  -4.765  34.637  1.00  0.00    -0.111 SA
HETATM   15  C8  UNL     1      24.490  -4.801  34.817  1.00  0.00     0.079 A 
ENDBRANCH   8  11
ENDBRANCH   3   5
BRANCH   1  16
HETATM   16  C2  UNL     1      17.424  -6.837  31.437  1.00  0.00     0.236 C 
BRANCH  16  17
HETATM   17  N1  UNL     1      16.628  -5.629  31.420  1.00  0.00    -0.311 N 
ATOM     18  H1  UNL     1      16.878  -4.760  31.892  1.00  0.00     0.172 HD
BRANCH  17  19
HETATM   19  S1  UNL     1      15.189  -5.866  30.485  1.00  0.00     0.223 S 
HETATM   20  C1  UNL     1      15.545  -7.081  29.254  1.00  0.00     0.185 C 
HETATM   21  O1  UNL     1      14.078  -6.359  31.365  1.00  0.00    -0.206 OA
HETATM   22  O2  UNL     1      14.790  -4.588  29.801  1.00  0.00    -0.206 OA
ENDBRANCH  17  19
ENDBRANCH  16  17
ENDBRANCH   1  16
TORSDOF 5
ENDMDL
MODEL 5
REMARK VINA RESULT: -5.615914670      1.042      1.161
REMARK  5 active torsions:
REMARK  status: ('A' for Active; 'I' for Inactive)
REMARK    1  A    between atoms: S1_2  and  N1_5 
REMARK    2  A    between atoms: N1_5  and  C2_7 
REMARK    3  A    between atoms: C2_7  and  C3_8 
REMARK       I    between atoms: C3_8  and  N2_10 
REMARK    4  A    between atoms: N2_10  and  N3_12 
REMARK       I    between atoms: N3_12  and  C4_14 
REMARK       I    between atoms: C4_14  and  N4_16 
REMARK    5  A    between atoms: N4_16  and  C5_18 
ROOT
HETATM    1  C3  UNL     1      16.612  -6.146  32.160  1.00  0.00     0.254 C 
HETATM    2  O3  UNL     1      16.769  -5.119  32.879  1.00  0.00    -0.270 OA
HETATM    3  N2  UNL     1      17.417  -7.297  32.323  1.00  0.00    -0.265 N 
ATOM      4  H2  UNL     1      17.280  -8.120  31.737  1.00  0.00     0.190 HD
ENDROOT
BRANCH   3   5
HETATM    5  N3  UNL     1      18.404  -7.274  33.310  1.00  0.00    -0.249 N 
HETATM    6  C4  UNL     1      19.730  -6.837  33.044  1.00  0.00     0.339 C 
HETATM    7  O4  UNL     1      19.982  -6.472  31.893  1.00  0.00    -0.245 OA
HETATM    8  N4  UNL     1      20.676  -6.836  34.071  1.00  0.00    -0.307 N 
ATOM      9  H4  UNL     1      20.398  -7.158  34.998  1.00  0.00     0.170 HD
ATOM     10  H3  UNL     1      18.165  -7.582  34.253  1.00  0.00     0.192 HD
BRANCH   8  11
HETATM   11  C5  UNL     1      22.042  -6.393  33.864  1.00  0.00     0.043 A 
HETATM   12  C6  UNL     1      22.875  -6.851  32.920  1.00  0.00     0.037 A 
HETATM   13  C7  UNL     1      24.149  -6.339  32.884  1.00  0.00     0.052 A 
HETATM   14  S2  UNL     1      24.151  -5.230  34.169  1.00  0.00    -0.111 SA
HETATM   15  C8  UNL     1      22.555  -5.434  34.721  1.00  0.00     0.079 A 
ENDBRANCH   8  11
ENDBRANCH   3   5
BRANCH   1  16
HETATM   16  C2  UNL     1      15.552  -6.180  31.093  1.00  0.00     0.236 C 
BRANCH  16  17
HETATM   17  N1  UNL     1      16.210  -6.286  29.808  1.00  0.00    -0.311 N 
ATOM     18  H1  UNL     1      16.767  -5.547  29.377  1.00  0.00     0.172 HD
BRANCH  17  19
HETATM   19  S1  UNL     1      15.919  -7.842  29.106  1.00  0.00     0.223 S 
HETATM   20  C1  UNL     1      14.277  -8.327  29.538  1.00  0.00     0.185 C 
HETATM   21  O1  UNL     1      16.038  -7.763  27.612  1.00  0.00    -0.206 OA
HETATM   22  O2  UNL     1      16.883  -8.856  29.657  1.00  0.00    -0.206 OA
ENDBRANCH  17  19
ENDBRANCH  16  17
ENDBRANCH   1  16
TORSDOF 5
ENDMDL
