MODEL 1
REMARK VINA RESULT: -7.631210426      0.000      0.000
REMARK  7 active torsions:
REMARK  status: ('A' for Active; 'I' for Inactive)
REMARK       I    between atoms: C2_2  and  N1_4 
REMARK    1  A    between atoms: N1_4  and  N2_5 
REMARK       I    between atoms: N2_5  and  C3_7 
REMARK    2  A    between atoms: C3_7  and  C4_9 
REMARK    3  A    between atoms: C6_16  and  C7_17 
REMARK    4  A    between atoms: C7_17  and  C8_18 
REMARK    5  A    between atoms: C8_18  and  C9_19 
REMARK    6  A    between atoms: C9_19  and  O5_21 
REMARK    7  A    between atoms: O5_21  and  C10_22 
ROOT
HETATM    1  C4  UNL     1      15.923  -6.233  30.795  1.00  0.00     0.134 A 
HETATM    2  N3  UNL     1      15.173  -5.297  30.148  1.00  0.00    -0.302 N 
ATOM      3  H3  UNL     1      14.501  -5.489  29.404  1.00  0.00     0.171 HD
HETATM    4  C5  UNL     1      15.461  -4.074  30.646  1.00  0.00     0.325 A 
HETATM    5  O3  UNL     1      14.954  -2.949  30.283  1.00  0.00    -0.247 OA
HETATM    6  N4  UNL     1      16.383  -4.261  31.593  1.00  0.00    -0.306 N 
ATOM      7  H4  UNL     1      16.797  -3.516  32.154  1.00  0.00     0.171 HD
HETATM    8  C6  UNL     1      16.698  -5.591  31.709  1.00  0.00     0.069 A 
ENDROOT
BRANCH   1   9
HETATM    9  C3  UNL     1      15.757  -7.655  30.598  1.00  0.00     0.299 C 
HETATM   10  N2  UNL     1      14.687  -8.366  31.291  1.00  0.00    -0.194 N 
ATOM     11  H2  UNL     1      14.052  -7.860  31.908  1.00  0.00     0.205 HD
HETATM   12  O2  UNL     1      16.450  -8.395  29.882  1.00  0.00    -0.263 OA
BRANCH  10  13
HETATM   13  N1  UNL     1      14.547  -9.644  31.120  1.00  0.00    -0.284 NA
HETATM   14  C2  UNL     1      14.390 -10.985  30.955  1.00  0.00     0.308 C 
HETATM   15  C1  UNL     1      15.027 -11.634  29.727  1.00  0.00     0.137 C 
HETATM   16  O1  UNL     1      13.778 -11.775  31.680  1.00  0.00    -0.256 OA
ENDBRANCH  10  13
ENDBRANCH   1   9
BRANCH   8  17
HETATM   17  C7  UNL     1      17.770  -6.084  32.538  1.00  0.00     0.038 C 
BRANCH  17  18
HETATM   18  C8  UNL     1      18.944  -6.558  32.186  1.00  0.00     0.084 C 
BRANCH  18  19
HETATM   19  C9  UNL     1      20.040  -6.703  33.132  1.00  0.00     0.283 C 
HETATM   20  O4  UNL     1      19.854  -7.301  34.207  1.00  0.00    -0.260 OA
BRANCH  19  21
HETATM   21  O5  UNL     1      21.268  -6.163  32.829  1.00  0.00    -0.314 OA
BRANCH  21  22
HETATM   22  C10 UNL     1      22.412  -6.560  33.524  1.00  0.00     0.124 C 
HETATM   23  C11 UNL     1      22.763  -5.374  34.431  1.00  0.00     0.040 C 
HETATM   24  C12 UNL     1      23.506  -6.833  32.547  1.00  0.00     0.040 C 
ENDBRANCH  21  22
ENDBRANCH  19  21
ENDBRANCH  18  19
ENDBRANCH  17  18
ENDBRANCH   8  17
TORSDOF 7
ENDMDL
MODEL 2
REMARK VINA RESULT: -7.546146640      1.844      6.671
REMARK  7 active torsions:
REMARK  status: ('A' for Active; 'I' for Inactive)
REMARK       I    between atoms: C2_2  and  N1_4 
REMARK    1  A    between atoms: N1_4  and  N2_5 
REMARK       I    between atoms: N2_5  and  C3_7 
REMARK    2  A    between atoms: C3_7  and  C4_9 
REMARK    3  A    between atoms: C6_16  and  C7_17 
REMARK    4  A    between atoms: C7_17  and  C8_18 
REMARK    5  A    between atoms: C8_18  and  C9_19 
REMARK    6  A    between atoms: C9_19  and  O5_21 
REMARK    7  A    between atoms: O5_21  and  C10_22 
ROOT
HETATM    1  C4  UNL     1      17.121  -5.731  31.607  1.00  0.00     0.134 A 
HETATM    2  N3  UNL     1      16.528  -4.504  31.624  1.00  0.00    -0.302 N 
ATOM      3  H3  UNL     1      16.714  -3.768  32.305  1.00  0.00     0.171 HD
HETATM    4  C5  UNL     1      15.653  -4.418  30.597  1.00  0.00     0.325 A 
HETATM    5  O3  UNL     1      14.908  -3.415  30.293  1.00  0.00    -0.247 OA
HETATM    6  N4  UNL     1      15.711  -5.588  29.954  1.00  0.00    -0.306 N 
ATOM      7  H4  UNL     1      15.162  -5.822  29.127  1.00  0.00     0.171 HD
HETATM    8  C6  UNL     1      16.610  -6.430  30.558  1.00  0.00     0.069 A 
ENDROOT
BRANCH   1   9
HETATM    9  C3  UNL     1      18.206  -6.098  32.487  1.00  0.00     0.299 C 
HETATM   10  N2  UNL     1      19.588  -5.970  32.032  1.00  0.00    -0.194 N 
ATOM     11  H2  UNL     1      19.788  -5.614  31.098  1.00  0.00     0.205 HD
HETATM   12  O2  UNL     1      18.113  -6.542  33.642  1.00  0.00    -0.263 OA
BRANCH  10  13
HETATM   13  N1  UNL     1      20.560  -6.309  32.821  1.00  0.00    -0.284 NA
HETATM   14  C2  UNL     1      21.569  -6.667  33.660  1.00  0.00     0.308 C 
HETATM   15  C1  UNL     1      22.990  -6.697  33.099  1.00  0.00     0.137 C 
HETATM   16  O1  UNL     1      21.492  -6.990  34.849  1.00  0.00    -0.256 OA
ENDBRANCH  10  13
ENDBRANCH   1   9
BRANCH   8  17
HETATM   17  C7  UNL     1      16.777  -7.813  30.184  1.00  0.00     0.038 C 
BRANCH  17  18
HETATM   18  C8  UNL     1      16.189  -8.492  29.226  1.00  0.00     0.084 C 
BRANCH  18  19
HETATM   19  C9  UNL     1      14.767  -8.799  29.249  1.00  0.00     0.283 C 
HETATM   20  O4  UNL     1      13.934  -7.882  29.121  1.00  0.00    -0.260 OA
BRANCH  19  21
HETATM   21  O5  UNL     1      14.360 -10.101  29.425  1.00  0.00    -0.314 OA
BRANCH  21  22
HETATM   22  C10 UNL     1      14.778 -10.833  30.537  1.00  0.00     0.124 C 
HETATM   23  C11 UNL     1      14.830 -12.291  30.063  1.00  0.00     0.040 C 
HETATM   24  C12 UNL     1      13.784 -10.660  31.637  1.00  0.00     0.040 C 
ENDBRANCH  21  22
ENDBRANCH  19  21
ENDBRANCH  18  19
ENDBRANCH  17  18
ENDBRANCH   8  17
TORSDOF 7
ENDMDL
MODEL 3
REMARK VINA RESULT: -6.795011262      1.776      6.579
REMARK  7 active torsions:
REMARK  status: ('A' for Active; 'I' for Inactive)
REMARK       I    between atoms: C2_2  and  N1_4 
REMARK    1  A    between atoms: N1_4  and  N2_5 
REMARK       I    between atoms: N2_5  and  C3_7 
REMARK    2  A    between atoms: C3_7  and  C4_9 
REMARK    3  A    between atoms: C6_16  and  C7_17 
REMARK    4  A    between atoms: C7_17  and  C8_18 
REMARK    5  A    between atoms: C8_18  and  C9_19 
REMARK    6  A    between atoms: C9_19  and  O5_21 
REMARK    7  A    between atoms: O5_21  and  C10_22 
ROOT
HETATM    1  C4  UNL     1      17.007  -5.610  31.797  1.00  0.00     0.134 A 
HETATM    2  N3  UNL     1      16.584  -4.320  31.673  1.00  0.00    -0.302 N 
ATOM      3  H3  UNL     1      16.945  -3.527  32.205  1.00  0.00     0.171 HD
HETATM    4  C5  UNL     1      15.613  -4.257  30.736  1.00  0.00     0.325 A 
HETATM    5  O3  UNL     1      14.974  -3.210  30.348  1.00  0.00    -0.247 OA
HETATM    6  N4  UNL     1      15.441  -5.503  30.288  1.00  0.00    -0.306 N 
ATOM      7  H4  UNL     1      14.771  -5.773  29.567  1.00  0.00     0.171 HD
HETATM    8  C6  UNL     1      16.287  -6.371  30.929  1.00  0.00     0.069 A 
ENDROOT
BRANCH   1   9
HETATM    9  C3  UNL     1      18.131  -6.000  32.615  1.00  0.00     0.299 C 
HETATM   10  N2  UNL     1      19.486  -5.921  32.075  1.00  0.00    -0.194 N 
ATOM     11  H2  UNL     1      19.640  -5.583  31.125  1.00  0.00     0.205 HD
HETATM   12  O2  UNL     1      18.095  -6.426  33.780  1.00  0.00    -0.263 OA
BRANCH  10  13
HETATM   13  N1  UNL     1      20.494  -6.281  32.809  1.00  0.00    -0.284 NA
HETATM   14  C2  UNL     1      21.540  -6.661  33.590  1.00  0.00     0.308 C 
HETATM   15  C1  UNL     1      22.927  -6.713  32.951  1.00  0.00     0.137 C 
HETATM   16  O1  UNL     1      21.522  -6.987  34.780  1.00  0.00    -0.256 OA
ENDBRANCH  10  13
ENDBRANCH   1   9
BRANCH   8  17
HETATM   17  C7  UNL     1      16.226  -7.803  30.769  1.00  0.00     0.038 C 
BRANCH  17  18
HETATM   18  C8  UNL     1      16.518  -8.536  29.719  1.00  0.00     0.084 C 
BRANCH  18  19
HETATM   19  C9  UNL     1      15.498  -9.226  28.944  1.00  0.00     0.283 C 
HETATM   20  O4  UNL     1      15.739  -9.573  27.773  1.00  0.00    -0.260 OA
BRANCH  19  21
HETATM   21  O5  UNL     1      14.271  -9.475  29.514  1.00  0.00    -0.314 OA
BRANCH  21  22
HETATM   22  C10 UNL     1      13.999 -10.709  30.108  1.00  0.00     0.124 C 
HETATM   23  C11 UNL     1      14.002 -10.439  31.618  1.00  0.00     0.040 C 
HETATM   24  C12 UNL     1      15.071 -11.677  29.733  1.00  0.00     0.040 C 
ENDBRANCH  21  22
ENDBRANCH  19  21
ENDBRANCH  18  19
ENDBRANCH  17  18
ENDBRANCH   8  17
TORSDOF 7
ENDMDL
MODEL 4
REMARK VINA RESULT: -6.550527902      1.657      6.483
REMARK  7 active torsions:
REMARK  status: ('A' for Active; 'I' for Inactive)
REMARK       I    between atoms: C2_2  and  N1_4 
REMARK    1  A    between atoms: N1_4  and  N2_5 
REMARK       I    between atoms: N2_5  and  C3_7 
REMARK    2  A    between atoms: C3_7  and  C4_9 
REMARK    3  A    between atoms: C6_16  and  C7_17 
REMARK    4  A    between atoms: C7_17  and  C8_18 
REMARK    5  A    between atoms: C8_18  and  C9_19 
REMARK    6  A    between atoms: C9_19  and  O5_21 
REMARK    7  A    between atoms: O5_21  and  C10_22 
ROOT
HETATM    1  C4  UNL     1      16.618  -5.599  31.857  1.00  0.00     0.134 A 
HETATM    2  N3  UNL     1      16.418  -4.307  31.472  1.00  0.00    -0.302 N 
ATOM      3  H3  UNL     1      16.983  -3.510  31.763  1.00  0.00     0.171 HD
HETATM    4  C5  UNL     1      15.351  -4.249  30.644  1.00  0.00     0.325 A 
HETATM    5  O3  UNL     1      14.859  -3.202  30.082  1.00  0.00    -0.247 OA
HETATM    6  N4  UNL     1      14.900  -5.501  30.524  1.00  0.00    -0.306 N 
ATOM      7  H4  UNL     1      14.098  -5.776  29.956  1.00  0.00     0.171 HD
HETATM    8  C6  UNL     1      15.661  -6.366  31.269  1.00  0.00     0.069 A 
ENDROOT
BRANCH   1   9
HETATM    9  C3  UNL     1      17.760  -6.026  32.632  1.00  0.00     0.299 C 
HETATM   10  N2  UNL     1      19.103  -5.912  32.073  1.00  0.00    -0.194 N 
ATOM     11  H2  UNL     1      19.238  -5.524  31.139  1.00  0.00     0.205 HD
HETATM   12  O2  UNL     1      17.747  -6.514  33.774  1.00  0.00    -0.263 OA
BRANCH  10  13
HETATM   13  N1  UNL     1      20.126  -6.306  32.767  1.00  0.00    -0.284 NA
HETATM   14  C2  UNL     1      21.188  -6.721  33.508  1.00  0.00     0.308 C 
HETATM   15  C1  UNL     1      22.570  -6.697  32.854  1.00  0.00     0.137 C 
HETATM   16  O1  UNL     1      21.190  -7.137  34.670  1.00  0.00    -0.256 OA
ENDBRANCH  10  13
ENDBRANCH   1   9
BRANCH   8  17
HETATM   17  C7  UNL     1      15.326  -7.755  31.460  1.00  0.00     0.038 C 
BRANCH  17  18
HETATM   18  C8  UNL     1      14.150  -8.340  31.427  1.00  0.00     0.084 C 
BRANCH  18  19
HETATM   19  C9  UNL     1      13.991  -9.777  31.584  1.00  0.00     0.283 C 
HETATM   20  O4  UNL     1      13.047 -10.225  32.261  1.00  0.00    -0.260 OA
BRANCH  19  21
HETATM   21  O5  UNL     1      14.896 -10.625  30.990  1.00  0.00    -0.314 OA
BRANCH  21  22
HETATM   22  C10 UNL     1      14.749 -11.003  29.654  1.00  0.00     0.124 C 
HETATM   23  C11 UNL     1      15.130 -12.487  29.611  1.00  0.00     0.040 C 
HETATM   24  C12 UNL     1      15.670 -10.185  28.812  1.00  0.00     0.040 C 
ENDBRANCH  21  22
ENDBRANCH  19  21
ENDBRANCH  18  19
ENDBRANCH  17  18
ENDBRANCH   8  17
TORSDOF 7
ENDMDL
MODEL 5
REMARK VINA RESULT: -5.682123216      1.944      6.543
REMARK  7 active torsions:
REMARK  status: ('A' for Active; 'I' for Inactive)
REMARK       I    between atoms: C2_2  and  N1_4 
REMARK    1  A    between atoms: N1_4  and  N2_5 
REMARK       I    between atoms: N2_5  and  C3_7 
REMARK    2  A    between atoms: C3_7  and  C4_9 
REMARK    3  A    between atoms: C6_16  and  C7_17 
REMARK    4  A    between atoms: C7_17  and  C8_18 
REMARK    5  A    between atoms: C8_18  and  C9_19 
REMARK    6  A    between atoms: C9_19  and  O5_21 
REMARK    7  A    between atoms: O5_21  and  C10_22 
ROOT
HETATM    1  C4  UNL     1      17.089  -6.023  32.094  1.00  0.00     0.134 A 
HETATM    2  N3  UNL     1      16.751  -4.782  31.644  1.00  0.00    -0.302 N 
ATOM      3  H3  UNL     1      17.257  -3.920  31.851  1.00  0.00     0.171 HD
HETATM    4  C5  UNL     1      15.641  -4.873  30.879  1.00  0.00     0.325 A 
HETATM    5  O3  UNL     1      15.026  -3.912  30.284  1.00  0.00    -0.247 OA
HETATM    6  N4  UNL     1      15.300  -6.164  30.862  1.00  0.00    -0.306 N 
ATOM      7  H4  UNL     1      14.498  -6.545  30.360  1.00  0.00     0.171 HD
HETATM    8  C6  UNL     1      16.176  -6.908  31.612  1.00  0.00     0.069 A 
ENDROOT
BRANCH   1   9
HETATM    9  C3  UNL     1      18.305  -6.297  32.825  1.00  0.00     0.299 C 
HETATM   10  N2  UNL     1      19.601  -6.052  32.199  1.00  0.00    -0.194 N 
ATOM     11  H2  UNL     1      19.649  -5.681  31.250  1.00  0.00     0.205 HD
HETATM   12  O2  UNL     1      18.398  -6.746  33.978  1.00  0.00    -0.263 OA
BRANCH  10  13
HETATM   13  N1  UNL     1      20.692  -6.307  32.853  1.00  0.00    -0.284 NA
HETATM   14  C2  UNL     1      21.826  -6.575  33.554  1.00  0.00     0.308 C 
HETATM   15  C1  UNL     1      23.118  -6.794  32.767  1.00  0.00     0.137 C 
HETATM   16  O1  UNL     1      21.960  -6.676  34.777  1.00  0.00    -0.256 OA
ENDBRANCH  10  13
ENDBRANCH   1   9
BRANCH   8  17
HETATM   17  C7  UNL     1      15.980  -8.306  31.907  1.00  0.00     0.038 C 
BRANCH  17  18
HETATM   18  C8  UNL     1      14.861  -8.964  32.111  1.00  0.00     0.084 C 
BRANCH  18  19
HETATM   19  C9  UNL     1      14.071  -9.513  31.019  1.00  0.00     0.283 C 
HETATM   20  O4  UNL     1      13.288 -10.456  31.236  1.00  0.00    -0.260 OA
BRANCH  19  21
HETATM   21  O5  UNL     1      14.211  -8.988  29.756  1.00  0.00    -0.314 OA
BRANCH  21  22
HETATM   22  C10 UNL     1      14.985  -9.641  28.795  1.00  0.00     0.124 C 
HETATM   23  C11 UNL     1      15.301 -11.015  29.398  1.00  0.00     0.040 C 
HETATM   24  C12 UNL     1      16.232  -8.857  28.559  1.00  0.00     0.040 C 
ENDBRANCH  21  22
ENDBRANCH  19  21
ENDBRANCH  18  19
ENDBRANCH  17  18
ENDBRANCH   8  17
TORSDOF 7
ENDMDL
