MODEL 1
REMARK VINA RESULT: -6.125726976      0.000      0.000
REMARK  9 active torsions:
REMARK  status: ('A' for Active; 'I' for Inactive)
REMARK    1  A    between atoms: C1_2  and  C2_4 
REMARK    2  A    between atoms: C2_4  and  C3_6 
REMARK    3  A    between atoms: C3_6  and  C9_13 
REMARK    4  A    between atoms: C4_7  and  C5_8 
REMARK    5  A    between atoms: C9_13  and  O4_14 
REMARK    6  A    between atoms: C9_13  and  N2_16 
REMARK    7  A    between atoms: N2_16  and  C10_18 
REMARK    8  A    between atoms: C10_18  and  C11_19 
REMARK    9  A    between atoms: C10_18  and  C12_22 
ROOT
HETATM    1  C9  UNL     1      67.766  17.017  49.553  1.00  0.00     0.253 C 
ENDROOT
BRANCH   1   2
HETATM    2  C3  UNL     1      66.883  18.049  49.081  1.00  0.00     0.046 C 
HETATM    3  C4  UNL     1      66.703  18.484  47.854  1.00  0.00     0.029 C 
BRANCH   2   4
HETATM    4  C2  UNL     1      66.018  18.742  50.070  1.00  0.00     0.246 C 
HETATM    5  O2  UNL     1      64.978  18.079  50.463  1.00  0.00    -0.282 OA
BRANCH   4   6
HETATM    6  C1  UNL     1      66.151  20.036  50.646  1.00  0.00     0.305 C 
HETATM    7  N1  UNL     1      67.450  20.479  51.150  1.00  0.00    -0.054 NA
HETATM    8  O1  UNL     1      65.233  20.871  50.773  1.00  0.00    -0.267 OA
ENDBRANCH   4   6
ENDBRANCH   2   4
BRANCH   3   9
HETATM    9  C5  UNL     1      67.297  18.138  46.608  1.00  0.00    -0.011 A 
HETATM   10  C6  UNL     1      66.692  17.680  45.467  1.00  0.00     0.038 A 
HETATM   11  C7  UNL     1      67.691  17.500  44.544  1.00  0.00     0.142 A 
HETATM   12  O3  UNL     1      68.818  17.827  45.099  1.00  0.00    -0.334 OA
HETATM   13  C8  UNL     1      68.643  18.212  46.324  1.00  0.00     0.152 A 
ENDBRANCH   3   9
ENDBRANCH   1   2
BRANCH   1  14
HETATM   14  O4  UNL     1      67.983  17.426  50.990  1.00  0.00    -0.373 OA
ATOM     15  H4  UNL     1      68.011  16.584  51.431  1.00  0.00     0.212 HD
ENDBRANCH   1  14
BRANCH   1  16
HETATM   16  N2  UNL     1      67.551  15.664  49.685  1.00  0.00    -0.376 N 
ATOM     17  H2  UNL     1      67.584  15.138  48.812  1.00  0.00     0.157 HD
BRANCH  16  18
HETATM   18  C10 UNL     1      67.300  14.906  50.807  1.00  0.00     0.214 C 
BRANCH  18  19
HETATM   19  C11 UNL     1      66.051  14.901  51.511  1.00  0.00     0.201 C 
HETATM   20  O5  UNL     1      65.039  14.256  51.186  1.00  0.00    -0.646 OA
HETATM   21  O6  UNL     1      65.958  15.704  52.690  1.00  0.00    -0.646 OA
ENDBRANCH  18  19
BRANCH  18  22
HETATM   22  C12 UNL     1      67.716  13.472  50.591  1.00  0.00    -0.025 A 
HETATM   23  C13 UNL     1      67.708  12.581  51.604  1.00  0.00     0.010 A 
HETATM   24  C14 UNL     1      68.106  11.247  51.395  1.00  0.00     0.001 A 
HETATM   25  C15 UNL     1      68.511  10.828  50.156  1.00  0.00     0.000 A 
HETATM   26  C16 UNL     1      68.519  11.735  49.128  1.00  0.00     0.001 A 
HETATM   27  C17 UNL     1      68.125  13.035  49.357  1.00  0.00     0.010 A 
ENDBRANCH  18  22
ENDBRANCH  16  18
ENDBRANCH   1  16
TORSDOF 9
ENDMDL
MODEL 2
REMARK VINA RESULT: -6.120826635      5.264     10.095
REMARK  9 active torsions:
REMARK  status: ('A' for Active; 'I' for Inactive)
REMARK    1  A    between atoms: C1_2  and  C2_4 
REMARK    2  A    between atoms: C2_4  and  C3_6 
REMARK    3  A    between atoms: C3_6  and  C9_13 
REMARK    4  A    between atoms: C4_7  and  C5_8 
REMARK    5  A    between atoms: C9_13  and  O4_14 
REMARK    6  A    between atoms: C9_13  and  N2_16 
REMARK    7  A    between atoms: N2_16  and  C10_18 
REMARK    8  A    between atoms: C10_18  and  C11_19 
REMARK    9  A    between atoms: C10_18  and  C12_22 
ROOT
HETATM    1  C9  UNL     1      66.626  17.127  42.775  1.00  0.00     0.253 C 
ENDROOT
BRANCH   1   2
HETATM    2  C3  UNL     1      67.125  16.055  43.593  1.00  0.00     0.046 C 
HETATM    3  C4  UNL     1      67.496  16.081  44.853  1.00  0.00     0.029 C 
BRANCH   2   4
HETATM    4  C2  UNL     1      67.244  14.704  42.987  1.00  0.00     0.246 C 
HETATM    5  O2  UNL     1      68.449  14.324  42.703  1.00  0.00    -0.282 OA
BRANCH   4   6
HETATM    6  C1  UNL     1      66.231  13.763  42.656  1.00  0.00     0.305 C 
HETATM    7  N1  UNL     1      64.846  14.208  42.498  1.00  0.00    -0.054 NA
HETATM    8  O1  UNL     1      66.406  12.541  42.477  1.00  0.00    -0.267 OA
ENDBRANCH   4   6
ENDBRANCH   2   4
BRANCH   3   9
HETATM    9  C5  UNL     1      67.564  17.124  45.819  1.00  0.00    -0.011 A 
HETATM   10  C6  UNL     1      66.665  17.440  46.805  1.00  0.00     0.038 A 
HETATM   11  C7  UNL     1      67.188  18.518  47.475  1.00  0.00     0.142 A 
HETATM   12  O3  UNL     1      68.322  18.825  46.924  1.00  0.00    -0.334 OA
HETATM   13  C8  UNL     1      68.595  18.031  45.936  1.00  0.00     0.152 A 
ENDBRANCH   3   9
ENDBRANCH   1   2
BRANCH   1  14
HETATM   14  O4  UNL     1      67.879  17.923  42.505  1.00  0.00    -0.373 OA
ATOM     15  H4  UNL     1      67.694  18.740  42.955  1.00  0.00     0.212 HD
ENDBRANCH   1  14
BRANCH   1  16
HETATM   16  N2  UNL     1      66.053  17.090  41.524  1.00  0.00    -0.376 N 
ATOM     17  H2  UNL     1      65.060  17.320  41.500  1.00  0.00     0.157 HD
BRANCH  16  18
HETATM   18  C10 UNL     1      66.607  16.792  40.299  1.00  0.00     0.214 C 
BRANCH  18  19
HETATM   19  C11 UNL     1      66.320  15.600  39.555  1.00  0.00     0.201 C 
HETATM   20  O5  UNL     1      65.264  15.365  38.942  1.00  0.00    -0.646 OA
HETATM   21  O6  UNL     1      67.333  14.593  39.510  1.00  0.00    -0.646 OA
ENDBRANCH  18  19
BRANCH  18  22
HETATM   22  C12 UNL     1      66.491  17.965  39.357  1.00  0.00    -0.025 A 
HETATM   23  C13 UNL     1      67.574  18.469  38.730  1.00  0.00     0.010 A 
HETATM   24  C14 UNL     1      67.458  19.569  37.860  1.00  0.00     0.001 A 
HETATM   25  C15 UNL     1      66.239  20.150  37.633  1.00  0.00     0.000 A 
HETATM   26  C16 UNL     1      65.139  19.637  38.271  1.00  0.00     0.001 A 
HETATM   27  C17 UNL     1      65.278  18.560  39.118  1.00  0.00     0.010 A 
ENDBRANCH  18  22
ENDBRANCH  16  18
ENDBRANCH   1  16
TORSDOF 9
ENDMDL
MODEL 3
REMARK VINA RESULT: -6.058955370      1.599      2.142
REMARK  9 active torsions:
REMARK  status: ('A' for Active; 'I' for Inactive)
REMARK    1  A    between atoms: C1_2  and  C2_4 
REMARK    2  A    between atoms: C2_4  and  C3_6 
REMARK    3  A    between atoms: C3_6  and  C9_13 
REMARK    4  A    between atoms: C4_7  and  C5_8 
REMARK    5  A    between atoms: C9_13  and  O4_14 
REMARK    6  A    between atoms: C9_13  and  N2_16 
REMARK    7  A    between atoms: N2_16  and  C10_18 
REMARK    8  A    between atoms: C10_18  and  C11_19 
REMARK    9  A    between atoms: C10_18  and  C12_22 
ROOT
HETATM    1  C9  UNL     1      67.249  16.468  50.260  1.00  0.00     0.253 C 
ENDROOT
BRANCH   1   2
HETATM    2  C3  UNL     1      66.266  17.405  49.786  1.00  0.00     0.046 C 
HETATM    3  C4  UNL     1      66.212  18.032  48.632  1.00  0.00     0.029 C 
BRANCH   2   4
HETATM    4  C2  UNL     1      65.122  17.734  50.674  1.00  0.00     0.246 C 
HETATM    5  O2  UNL     1      65.213  18.860  51.307  1.00  0.00    -0.282 OA
BRANCH   4   6
HETATM    6  C1  UNL     1      63.939  16.993  50.947  1.00  0.00     0.305 C 
HETATM    7  N1  UNL     1      63.802  16.284  52.219  1.00  0.00    -0.054 NA
HETATM    8  O1  UNL     1      62.961  16.878  50.182  1.00  0.00    -0.267 OA
ENDBRANCH   4   6
ENDBRANCH   2   4
BRANCH   3   9
HETATM    9  C5  UNL     1      67.068  18.041  47.496  1.00  0.00    -0.011 A 
HETATM   10  C6  UNL     1      66.820  17.574  46.231  1.00  0.00     0.038 A 
HETATM   11  C7  UNL     1      67.954  17.819  45.498  1.00  0.00     0.142 A 
HETATM   12  O3  UNL     1      68.821  18.394  46.275  1.00  0.00    -0.334 OA
HETATM   13  C8  UNL     1      68.349  18.550  47.471  1.00  0.00     0.152 A 
ENDBRANCH   3   9
ENDBRANCH   1   2
BRANCH   1  14
HETATM   14  O4  UNL     1      67.142  16.636  51.756  1.00  0.00    -0.373 OA
ATOM     15  H4  UNL     1      66.268  16.302  51.929  1.00  0.00     0.212 HD
ENDBRANCH   1  14
BRANCH   1  16
HETATM   16  N2  UNL     1      67.291  15.098  50.142  1.00  0.00    -0.376 N 
ATOM     17  H2  UNL     1      67.285  14.750  49.184  1.00  0.00     0.157 HD
BRANCH  16  18
HETATM   18  C10 UNL     1      67.339  14.121  51.111  1.00  0.00     0.214 C 
BRANCH  18  19
HETATM   19  C11 UNL     1      66.220  13.731  51.918  1.00  0.00     0.201 C 
HETATM   20  O5  UNL     1      65.221  13.108  51.518  1.00  0.00    -0.646 OA
HETATM   21  O6  UNL     1      66.252  14.087  53.301  1.00  0.00    -0.646 OA
ENDBRANCH  18  19
BRANCH  18  22
HETATM   22  C12 UNL     1      67.985  12.866  50.576  1.00  0.00    -0.025 A 
HETATM   23  C13 UNL     1      68.224  12.709  49.258  1.00  0.00     0.010 A 
HETATM   24  C14 UNL     1      68.819  11.532  48.767  1.00  0.00     0.001 A 
HETATM   25  C15 UNL     1      69.165  10.520  49.621  1.00  0.00     0.000 A 
HETATM   26  C16 UNL     1      68.921  10.680  50.961  1.00  0.00     0.001 A 
HETATM   27  C17 UNL     1      68.338  11.842  51.418  1.00  0.00     0.010 A 
ENDBRANCH  18  22
ENDBRANCH  16  18
ENDBRANCH   1  16
TORSDOF 9
ENDMDL
MODEL 4
REMARK VINA RESULT: -6.034931294      1.453      1.576
REMARK  9 active torsions:
REMARK  status: ('A' for Active; 'I' for Inactive)
REMARK    1  A    between atoms: C1_2  and  C2_4 
REMARK    2  A    between atoms: C2_4  and  C3_6 
REMARK    3  A    between atoms: C3_6  and  C9_13 
REMARK    4  A    between atoms: C4_7  and  C5_8 
REMARK    5  A    between atoms: C9_13  and  O4_14 
REMARK    6  A    between atoms: C9_13  and  N2_16 
REMARK    7  A    between atoms: N2_16  and  C10_18 
REMARK    8  A    between atoms: C10_18  and  C11_19 
REMARK    9  A    between atoms: C10_18  and  C12_22 
ROOT
HETATM    1  C9  UNL     1      67.240  16.173  50.434  1.00  0.00     0.253 C 
ENDROOT
BRANCH   1   2
HETATM    2  C3  UNL     1      66.255  17.154  50.064  1.00  0.00     0.046 C 
HETATM    3  C4  UNL     1      66.195  17.896  48.981  1.00  0.00     0.029 C 
BRANCH   2   4
HETATM    4  C2  UNL     1      65.118  17.392  50.988  1.00  0.00     0.246 C 
HETATM    5  O2  UNL     1      64.316  16.389  51.155  1.00  0.00    -0.282 OA
BRANCH   4   6
HETATM    6  C1  UNL     1      64.763  18.563  51.713  1.00  0.00     0.305 C 
HETATM    7  N1  UNL     1      65.715  19.154  52.654  1.00  0.00    -0.054 NA
HETATM    8  O1  UNL     1      63.676  19.168  51.627  1.00  0.00    -0.267 OA
ENDBRANCH   4   6
ENDBRANCH   2   4
BRANCH   3   9
HETATM    9  C5  UNL     1      67.044  18.019  47.845  1.00  0.00    -0.011 A 
HETATM   10  C6  UNL     1      66.826  17.594  46.561  1.00  0.00     0.038 A 
HETATM   11  C7  UNL     1      67.936  17.955  45.839  1.00  0.00     0.142 A 
HETATM   12  O3  UNL     1      68.762  18.556  46.641  1.00  0.00    -0.334 OA
HETATM   13  C8  UNL     1      68.284  18.621  47.844  1.00  0.00     0.152 A 
ENDBRANCH   3   9
ENDBRANCH   1   2
BRANCH   1  14
HETATM   14  O4  UNL     1      67.269  16.312  51.936  1.00  0.00    -0.373 OA
ATOM     15  H4  UNL     1      67.161  15.411  52.219  1.00  0.00     0.212 HD
ENDBRANCH   1  14
BRANCH   1  16
HETATM   16  N2  UNL     1      67.220  14.804  50.288  1.00  0.00    -0.376 N 
ATOM     17  H2  UNL     1      67.192  14.477  49.323  1.00  0.00     0.157 HD
BRANCH  16  18
HETATM   18  C10 UNL     1      67.233  13.807  51.237  1.00  0.00     0.214 C 
BRANCH  18  19
HETATM   19  C11 UNL     1      66.071  13.353  51.943  1.00  0.00     0.201 C 
HETATM   20  O5  UNL     1      65.329  12.419  51.592  1.00  0.00    -0.646 OA
HETATM   21  O6  UNL     1      65.733  14.029  53.155  1.00  0.00    -0.646 OA
ENDBRANCH  18  19
BRANCH  18  22
HETATM   22  C12 UNL     1      67.970  12.592  50.728  1.00  0.00    -0.025 A 
HETATM   23  C13 UNL     1      68.516  11.698  51.579  1.00  0.00     0.010 A 
HETATM   24  C14 UNL     1      69.210  10.572  51.096  1.00  0.00     0.001 A 
HETATM   25  C15 UNL     1      69.343  10.363  49.750  1.00  0.00     0.000 A 
HETATM   26  C16 UNL     1      68.788  11.272  48.887  1.00  0.00     0.001 A 
HETATM   27  C17 UNL     1      68.114  12.366  49.383  1.00  0.00     0.010 A 
ENDBRANCH  18  22
ENDBRANCH  16  18
ENDBRANCH   1  16
TORSDOF 9
ENDMDL
MODEL 5
REMARK VINA RESULT: -6.018113735      0.960      1.275
REMARK  9 active torsions:
REMARK  status: ('A' for Active; 'I' for Inactive)
REMARK    1  A    between atoms: C1_2  and  C2_4 
REMARK    2  A    between atoms: C2_4  and  C3_6 
REMARK    3  A    between atoms: C3_6  and  C9_13 
REMARK    4  A    between atoms: C4_7  and  C5_8 
REMARK    5  A    between atoms: C9_13  and  O4_14 
REMARK    6  A    between atoms: C9_13  and  N2_16 
REMARK    7  A    between atoms: N2_16  and  C10_18 
REMARK    8  A    between atoms: C10_18  and  C11_19 
REMARK    9  A    between atoms: C10_18  and  C12_22 
ROOT
HETATM    1  C9  UNL     1      67.755  17.166  49.380  1.00  0.00     0.253 C 
ENDROOT
BRANCH   1   2
HETATM    2  C3  UNL     1      66.822  18.118  48.838  1.00  0.00     0.046 C 
HETATM    3  C4  UNL     1      66.650  18.485  47.588  1.00  0.00     0.029 C 
BRANCH   2   4
HETATM    4  C2  UNL     1      65.889  18.798  49.772  1.00  0.00     0.246 C 
HETATM    5  O2  UNL     1      66.300  19.930  50.245  1.00  0.00    -0.282 OA
BRANCH   4   6
HETATM    6  C1  UNL     1      64.610  18.388  50.240  1.00  0.00     0.305 C 
HETATM    7  N1  UNL     1      64.084  18.930  51.492  1.00  0.00    -0.054 NA
HETATM    8  O1  UNL     1      63.854  17.577  49.668  1.00  0.00    -0.267 OA
ENDBRANCH   4   6
ENDBRANCH   2   4
BRANCH   3   9
HETATM    9  C5  UNL     1      67.299  18.121  46.375  1.00  0.00    -0.011 A 
HETATM   10  C6  UNL     1      66.744  17.664  45.209  1.00  0.00     0.038 A 
HETATM   11  C7  UNL     1      67.784  17.464  44.337  1.00  0.00     0.142 A 
HETATM   12  O3  UNL     1      68.887  17.779  44.944  1.00  0.00    -0.334 OA
HETATM   13  C8  UNL     1      68.659  18.176  46.156  1.00  0.00     0.152 A 
ENDBRANCH   3   9
ENDBRANCH   1   2
BRANCH   1  14
HETATM   14  O4  UNL     1      67.990  17.715  50.766  1.00  0.00    -0.373 OA
ATOM     15  H4  UNL     1      67.199  18.221  50.913  1.00  0.00     0.212 HD
ENDBRANCH   1  14
BRANCH   1  16
HETATM   16  N2  UNL     1      67.595  15.824  49.642  1.00  0.00    -0.376 N 
ATOM     17  H2  UNL     1      67.730  15.212  48.838  1.00  0.00     0.157 HD
BRANCH  16  18
HETATM   18  C10 UNL     1      67.282  15.177  50.816  1.00  0.00     0.214 C 
BRANCH  18  19
HETATM   19  C11 UNL     1      66.030  15.314  51.502  1.00  0.00     0.201 C 
HETATM   20  O5  UNL     1      64.965  14.757  51.183  1.00  0.00    -0.646 OA
HETATM   21  O6  UNL     1      66.000  16.162  52.652  1.00  0.00    -0.646 OA
ENDBRANCH  18  19
BRANCH  18  22
HETATM   22  C12 UNL     1      67.598  13.705  50.718  1.00  0.00    -0.025 A 
HETATM   23  C13 UNL     1      67.533  12.901  51.801  1.00  0.00     0.010 A 
HETATM   24  C14 UNL     1      67.838  11.531  51.702  1.00  0.00     0.001 A 
HETATM   25  C15 UNL     1      68.207  10.986  50.502  1.00  0.00     0.000 A 
HETATM   26  C16 UNL     1      68.273  11.803  49.403  1.00  0.00     0.001 A 
HETATM   27  C17 UNL     1      67.970  13.142  49.524  1.00  0.00     0.010 A 
ENDBRANCH  18  22
ENDBRANCH  16  18
ENDBRANCH   1  16
TORSDOF 9
ENDMDL
