MODEL 1
REMARK VINA RESULT: -7.188997884      0.000      0.000
REMARK  9 active torsions:
REMARK  status: ('A' for Active; 'I' for Inactive)
REMARK    1  A    between atoms: C2_2  and  C4_4 
REMARK    2  A    between atoms: C4_4  and  C5_5 
REMARK    3  A    between atoms: C5_5  and  N1_6 
REMARK    4  A    between atoms: C5_5  and  C13_22 
REMARK       I    between atoms: N1_6  and  C6_8 
REMARK       I    between atoms: C6_8  and  N2_10 
REMARK    5  A    between atoms: N2_10  and  C7_12 
REMARK    6  A    between atoms: C7_12  and  C9_14 
REMARK       I    between atoms: C9_14  and  N3_16 
REMARK    7  A    between atoms: C11_18  and  C12_19 
REMARK    8  A    between atoms: C13_22  and  O5_23 
REMARK    9  A    between atoms: N4_25  and  O6_27 
ROOT
HETATM    1  N1  UNL     1      66.313  16.040  42.958  1.00  0.00    -0.331 N 
ATOM      2  H1  UNL     1      65.307  16.124  43.103  1.00  0.00     0.165 HD
HETATM    3  C6  UNL     1      67.200  16.445  43.965  1.00  0.00     0.317 C 
HETATM    4  O1  UNL     1      68.436  16.330  43.761  1.00  0.00    -0.247 OA
HETATM    5  N2  UNL     1      66.782  16.980  45.211  1.00  0.00    -0.330 N 
ATOM      6  H2  UNL     1      65.784  17.081  45.400  1.00  0.00     0.165 HD
ENDROOT
BRANCH   1   7
HETATM    7  C5  UNL     1      66.830  15.492  41.689  1.00  0.00     0.163 C 
BRANCH   7   8
HETATM    8  C4  UNL     1      65.797  15.765  40.625  1.00  0.00     0.037 C 
BRANCH   8   9
HETATM    9  C2  UNL     1      65.647  17.218  40.328  1.00  0.00    -0.020 C 
HETATM   10  C1  UNL     1      64.173  17.437  39.941  1.00  0.00     0.009 C 
HETATM   11  C3  UNL     1      66.459  17.617  39.102  1.00  0.00     0.009 C 
ENDBRANCH   8   9
ENDBRANCH   7   8
BRANCH   7  12
HETATM   12  C13 UNL     1      66.909  13.997  41.872  1.00  0.00     0.158 C 
HETATM   13  N4  UNL     1      66.116  13.263  41.230  1.00  0.00    -0.249 N 
ATOM     14  H4  UNL     1      65.459  13.743  40.616  1.00  0.00     0.196 HD
BRANCH  12  15
HETATM   15  O5  UNL     1      67.873  13.516  42.761  1.00  0.00    -0.347 OA
ATOM     16  H5  UNL     1      68.225  12.651  42.590  1.00  0.00     0.219 HD
ENDBRANCH  12  15
BRANCH  13  17
HETATM   17  O6  UNL     1      66.027  11.916  41.256  1.00  0.00    -0.288 OA
ATOM     18  H6  UNL     1      65.325  11.371  40.922  1.00  0.00     0.244 HD
ENDBRANCH  13  17
ENDBRANCH   7  12
ENDBRANCH   1   7
BRANCH   5  19
HETATM   19  C7  UNL     1      67.729  17.382  46.215  1.00  0.00     0.174 C 
HETATM   20  C8  UNL     1      68.651  18.479  45.723  1.00  0.00     0.042 C 
BRANCH  19  21
HETATM   21  C9  UNL     1      67.045  17.819  47.454  1.00  0.00     0.243 C 
HETATM   22  O2  UNL     1      66.263  18.794  47.396  1.00  0.00    -0.271 OA
HETATM   23  N3  UNL     1      67.304  17.114  48.651  1.00  0.00    -0.332 N 
HETATM   24  C10 UNL     1      67.911  16.101  49.483  1.00  0.00     0.163 A 
HETATM   25  C11 UNL     1      66.997  17.020  50.101  1.00  0.00     0.206 A 
BRANCH  25  26
HETATM   26  C12 UNL     1      67.460  18.192  50.858  1.00  0.00     0.198 C 
HETATM   27  O3  UNL     1      68.397  18.084  51.689  1.00  0.00    -0.646 OA
HETATM   28  O4  UNL     1      66.889  19.443  50.682  1.00  0.00    -0.646 OA
ENDBRANCH  25  26
ENDBRANCH  19  21
ENDBRANCH   5  19
TORSDOF 9
ENDMDL
MODEL 2
REMARK VINA RESULT: -6.748229762      0.930      1.270
REMARK  9 active torsions:
REMARK  status: ('A' for Active; 'I' for Inactive)
REMARK    1  A    between atoms: C2_2  and  C4_4 
REMARK    2  A    between atoms: C4_4  and  C5_5 
REMARK    3  A    between atoms: C5_5  and  N1_6 
REMARK    4  A    between atoms: C5_5  and  C13_22 
REMARK       I    between atoms: N1_6  and  C6_8 
REMARK       I    between atoms: C6_8  and  N2_10 
REMARK    5  A    between atoms: N2_10  and  C7_12 
REMARK    6  A    between atoms: C7_12  and  C9_14 
REMARK       I    between atoms: C9_14  and  N3_16 
REMARK    7  A    between atoms: C11_18  and  C12_19 
REMARK    8  A    between atoms: C13_22  and  O5_23 
REMARK    9  A    between atoms: N4_25  and  O6_27 
ROOT
HETATM    1  N1  UNL     1      66.090  17.004  42.316  1.00  0.00    -0.331 N 
ATOM      2  H1  UNL     1      65.142  17.356  42.448  1.00  0.00     0.165 HD
HETATM    3  C6  UNL     1      66.981  16.975  43.398  1.00  0.00     0.317 C 
HETATM    4  O1  UNL     1      68.145  16.535  43.209  1.00  0.00    -0.247 OA
HETATM    5  N2  UNL     1      66.644  17.414  44.704  1.00  0.00    -0.330 N 
ATOM      6  H2  UNL     1      65.705  17.774  44.882  1.00  0.00     0.165 HD
ENDROOT
BRANCH   1   7
HETATM    7  C5  UNL     1      66.520  16.527  40.987  1.00  0.00     0.163 C 
BRANCH   7   8
HETATM    8  C4  UNL     1      65.501  17.005  39.984  1.00  0.00     0.037 C 
BRANCH   8   9
HETATM    9  C2  UNL     1      66.125  17.576  38.758  1.00  0.00    -0.020 C 
HETATM   10  C1  UNL     1      67.584  17.909  39.121  1.00  0.00     0.009 C 
HETATM   11  C3  UNL     1      65.483  18.905  38.379  1.00  0.00     0.009 C 
ENDBRANCH   8   9
ENDBRANCH   7   8
BRANCH   7  12
HETATM   12  C13 UNL     1      66.442  15.021  41.031  1.00  0.00     0.158 C 
HETATM   13  N4  UNL     1      65.317  14.467  40.939  1.00  0.00    -0.249 N 
ATOM     14  H4  UNL     1      64.517  15.092  40.839  1.00  0.00     0.196 HD
BRANCH  12  15
HETATM   15  O5  UNL     1      67.645  14.327  41.176  1.00  0.00    -0.347 OA
ATOM     16  H5  UNL     1      68.446  14.832  41.098  1.00  0.00     0.219 HD
ENDBRANCH  12  15
BRANCH  13  17
HETATM   17  O6  UNL     1      65.039  13.147  40.957  1.00  0.00    -0.288 OA
ATOM     18  H6  UNL     1      64.462  12.664  40.378  1.00  0.00     0.244 HD
ENDBRANCH  13  17
ENDBRANCH   7  12
ENDBRANCH   1   7
BRANCH   5  19
HETATM   19  C7  UNL     1      67.592  17.366  45.784  1.00  0.00     0.174 C 
HETATM   20  C8  UNL     1      68.817  18.212  45.508  1.00  0.00     0.042 C 
BRANCH  19  21
HETATM   21  C9  UNL     1      66.971  17.784  47.062  1.00  0.00     0.243 C 
HETATM   22  O2  UNL     1      66.114  18.695  47.044  1.00  0.00    -0.271 OA
HETATM   23  N3  UNL     1      67.373  17.133  48.252  1.00  0.00    -0.332 N 
HETATM   24  C10 UNL     1      68.118  16.193  49.056  1.00  0.00     0.163 A 
HETATM   25  C11 UNL     1      67.185  17.057  49.723  1.00  0.00     0.206 A 
BRANCH  25  26
HETATM   26  C12 UNL     1      67.611  18.281  50.416  1.00  0.00     0.198 C 
HETATM   27  O3  UNL     1      68.457  18.227  51.344  1.00  0.00    -0.646 OA
HETATM   28  O4  UNL     1      67.104  19.525  50.073  1.00  0.00    -0.646 OA
ENDBRANCH  25  26
ENDBRANCH  19  21
ENDBRANCH   5  19
TORSDOF 9
ENDMDL
MODEL 3
REMARK VINA RESULT: -6.544251846      1.668      1.995
REMARK  9 active torsions:
REMARK  status: ('A' for Active; 'I' for Inactive)
REMARK    1  A    between atoms: C2_2  and  C4_4 
REMARK    2  A    between atoms: C4_4  and  C5_5 
REMARK    3  A    between atoms: C5_5  and  N1_6 
REMARK    4  A    between atoms: C5_5  and  C13_22 
REMARK       I    between atoms: N1_6  and  C6_8 
REMARK       I    between atoms: C6_8  and  N2_10 
REMARK    5  A    between atoms: N2_10  and  C7_12 
REMARK    6  A    between atoms: C7_12  and  C9_14 
REMARK       I    between atoms: C9_14  and  N3_16 
REMARK    7  A    between atoms: C11_18  and  C12_19 
REMARK    8  A    between atoms: C13_22  and  O5_23 
REMARK    9  A    between atoms: N4_25  and  O6_27 
ROOT
HETATM    1  N1  UNL     1      66.338  16.289  43.518  1.00  0.00    -0.331 N 
ATOM      2  H1  UNL     1      65.352  16.251  43.773  1.00  0.00     0.165 HD
HETATM    3  C6  UNL     1      67.295  16.646  44.478  1.00  0.00     0.317 C 
HETATM    4  O1  UNL     1      68.506  16.685  44.138  1.00  0.00    -0.247 OA
HETATM    5  N2  UNL     1      66.975  16.968  45.823  1.00  0.00    -0.330 N 
ATOM      6  H2  UNL     1      66.000  16.943  46.123  1.00  0.00     0.165 HD
ENDROOT
BRANCH   1   7
HETATM    7  C5  UNL     1      66.755  15.967  42.139  1.00  0.00     0.163 C 
BRANCH   7   8
HETATM    8  C4  UNL     1      65.599  16.296  41.230  1.00  0.00     0.037 C 
BRANCH   8   9
HETATM    9  C2  UNL     1      65.938  17.341  40.223  1.00  0.00    -0.020 C 
HETATM   10  C1  UNL     1      64.628  17.690  39.493  1.00  0.00     0.009 C 
HETATM   11  C3  UNL     1      66.873  16.794  39.153  1.00  0.00     0.009 C 
ENDBRANCH   8   9
ENDBRANCH   7   8
BRANCH   7  12
HETATM   12  C13 UNL     1      66.957  14.473  42.094  1.00  0.00     0.158 C 
HETATM   13  N4  UNL     1      66.068  13.754  41.573  1.00  0.00    -0.249 N 
ATOM     14  H4  UNL     1      65.252  14.245  41.208  1.00  0.00     0.196 HD
BRANCH  12  15
HETATM   15  O5  UNL     1      68.140  13.975  42.648  1.00  0.00    -0.347 OA
ATOM     16  H5  UNL     1      68.426  13.118  42.356  1.00  0.00     0.219 HD
ENDBRANCH  12  15
BRANCH  13  17
HETATM   17  O6  UNL     1      66.061  12.411  41.437  1.00  0.00    -0.288 OA
ATOM     18  H6  UNL     1      65.545  11.778  41.921  1.00  0.00     0.244 HD
ENDBRANCH  13  17
ENDBRANCH   7  12
ENDBRANCH   1   7
BRANCH   5  19
HETATM   19  C7  UNL     1      67.991  17.330  46.774  1.00  0.00     0.174 C 
HETATM   20  C8  UNL     1      68.475  18.752  46.581  1.00  0.00     0.042 C 
BRANCH  19  21
HETATM   21  C9  UNL     1      67.514  17.147  48.164  1.00  0.00     0.243 C 
HETATM   22  O2  UNL     1      68.054  16.270  48.874  1.00  0.00    -0.271 OA
HETATM   23  N3  UNL     1      66.467  17.974  48.632  1.00  0.00    -0.332 N 
HETATM   24  C10 UNL     1      65.467  19.014  48.550  1.00  0.00     0.163 A 
HETATM   25  C11 UNL     1      65.594  18.299  49.789  1.00  0.00     0.206 A 
BRANCH  25  26
HETATM   26  C12 UNL     1      64.692  17.195  50.149  1.00  0.00     0.198 C 
HETATM   27  O3  UNL     1      63.523  17.152  49.691  1.00  0.00    -0.646 OA
HETATM   28  O4  UNL     1      65.096  16.174  50.995  1.00  0.00    -0.646 OA
ENDBRANCH  25  26
ENDBRANCH  19  21
ENDBRANCH   5  19
TORSDOF 9
ENDMDL
MODEL 4
REMARK VINA RESULT: -5.937567643      1.993      8.471
REMARK  9 active torsions:
REMARK  status: ('A' for Active; 'I' for Inactive)
REMARK    1  A    between atoms: C2_2  and  C4_4 
REMARK    2  A    between atoms: C4_4  and  C5_5 
REMARK    3  A    between atoms: C5_5  and  N1_6 
REMARK    4  A    between atoms: C5_5  and  C13_22 
REMARK       I    between atoms: N1_6  and  C6_8 
REMARK       I    between atoms: C6_8  and  N2_10 
REMARK    5  A    between atoms: N2_10  and  C7_12 
REMARK    6  A    between atoms: C7_12  and  C9_14 
REMARK       I    between atoms: C9_14  and  N3_16 
REMARK    7  A    between atoms: C11_18  and  C12_19 
REMARK    8  A    between atoms: C13_22  and  O5_23 
REMARK    9  A    between atoms: N4_25  and  O6_27 
ROOT
HETATM    1  N1  UNL     1      67.331  16.970  48.117  1.00  0.00    -0.331 N 
ATOM      2  H1  UNL     1      67.940  16.162  48.244  1.00  0.00     0.165 HD
HETATM    3  C6  UNL     1      67.061  17.448  46.828  1.00  0.00     0.317 C 
HETATM    4  O1  UNL     1      66.307  18.446  46.699  1.00  0.00    -0.247 OA
HETATM    5  N2  UNL     1      67.593  16.864  45.648  1.00  0.00    -0.330 N 
ATOM      6  H2  UNL     1      68.207  16.053  45.726  1.00  0.00     0.165 HD
ENDROOT
BRANCH   1   7
HETATM    7  C5  UNL     1      66.737  17.635  49.294  1.00  0.00     0.163 C 
BRANCH   7   8
HETATM    8  C4  UNL     1      67.780  18.561  49.865  1.00  0.00     0.037 C 
BRANCH   8   9
HETATM    9  C2  UNL     1      67.199  19.831  50.384  1.00  0.00    -0.020 C 
HETATM   10  C1  UNL     1      67.168  19.705  51.918  1.00  0.00     0.009 C 
HETATM   11  C3  UNL     1      65.746  19.990  49.955  1.00  0.00     0.009 C 
ENDBRANCH   8   9
ENDBRANCH   7   8
BRANCH   7  12
HETATM   12  C13 UNL     1      66.486  16.550  50.313  1.00  0.00     0.158 C 
HETATM   13  N4  UNL     1      67.333  15.632  50.444  1.00  0.00    -0.249 N 
ATOM     14  H4  UNL     1      68.151  15.686  49.837  1.00  0.00     0.196 HD
BRANCH  12  15
HETATM   15  O5  UNL     1      65.306  16.638  51.055  1.00  0.00    -0.347 OA
ATOM     16  H5  UNL     1      65.281  17.284  51.751  1.00  0.00     0.219 HD
ENDBRANCH  12  15
BRANCH  13  17
HETATM   17  O6  UNL     1      67.293  14.582  51.290  1.00  0.00    -0.288 OA
ATOM     18  H6  UNL     1      68.003  13.999  51.532  1.00  0.00     0.244 HD
ENDBRANCH  13  17
ENDBRANCH   7  12
ENDBRANCH   1   7
BRANCH   5  19
HETATM   19  C7  UNL     1      67.288  17.389  44.344  1.00  0.00     0.174 C 
HETATM   20  C8  UNL     1      68.302  18.420  43.892  1.00  0.00     0.042 C 
BRANCH  19  21
HETATM   21  C9  UNL     1      67.192  16.305  43.339  1.00  0.00     0.243 C 
HETATM   22  O2  UNL     1      67.879  15.272  43.501  1.00  0.00    -0.271 OA
HETATM   23  N3  UNL     1      66.324  16.483  42.237  1.00  0.00    -0.332 N 
HETATM   24  C10 UNL     1      65.363  17.176  41.411  1.00  0.00     0.163 A 
HETATM   25  C11 UNL     1      65.795  15.873  40.991  1.00  0.00     0.206 A 
BRANCH  25  26
HETATM   26  C12 UNL     1      66.831  15.687  39.965  1.00  0.00     0.198 C 
HETATM   27  O3  UNL     1      67.391  14.571  39.819  1.00  0.00    -0.646 OA
HETATM   28  O4  UNL     1      67.221  16.723  39.129  1.00  0.00    -0.646 OA
ENDBRANCH  25  26
ENDBRANCH  19  21
ENDBRANCH   5  19
TORSDOF 9
ENDMDL
MODEL 5
REMARK VINA RESULT: -5.908769496      6.108      8.439
REMARK  9 active torsions:
REMARK  status: ('A' for Active; 'I' for Inactive)
REMARK    1  A    between atoms: C2_2  and  C4_4 
REMARK    2  A    between atoms: C4_4  and  C5_5 
REMARK    3  A    between atoms: C5_5  and  N1_6 
REMARK    4  A    between atoms: C5_5  and  C13_22 
REMARK       I    between atoms: N1_6  and  C6_8 
REMARK       I    between atoms: C6_8  and  N2_10 
REMARK    5  A    between atoms: N2_10  and  C7_12 
REMARK    6  A    between atoms: C7_12  and  C9_14 
REMARK       I    between atoms: C9_14  and  N3_16 
REMARK    7  A    between atoms: C11_18  and  C12_19 
REMARK    8  A    between atoms: C13_22  and  O5_23 
REMARK    9  A    between atoms: N4_25  and  O6_27 
ROOT
HETATM    1  N1  UNL     1      68.035  12.877  50.702  1.00  0.00    -0.331 N 
ATOM      2  H1  UNL     1      68.950  13.307  50.835  1.00  0.00     0.165 HD
HETATM    3  C6  UNL     1      66.872  13.608  50.975  1.00  0.00     0.317 C 
HETATM    4  O1  UNL     1      65.756  13.053  50.802  1.00  0.00    -0.247 OA
HETATM    5  N2  UNL     1      66.879  14.950  51.439  1.00  0.00    -0.330 N 
ATOM      6  H2  UNL     1      67.772  15.421  51.586  1.00  0.00     0.165 HD
ENDROOT
BRANCH   1   7
HETATM    7  C5  UNL     1      67.941  11.484  50.222  1.00  0.00     0.163 C 
BRANCH   7   8
HETATM    8  C4  UNL     1      68.126  10.581  51.415  1.00  0.00     0.037 C 
BRANCH   8   9
HETATM    9  C2  UNL     1      69.255  11.007  52.289  1.00  0.00    -0.020 C 
HETATM   10  C1  UNL     1      70.262   9.843  52.304  1.00  0.00     0.009 C 
HETATM   11  C3  UNL     1      68.801  11.178  53.733  1.00  0.00     0.009 C 
ENDBRANCH   8   9
ENDBRANCH   7   8
BRANCH   7  12
HETATM   12  C13 UNL     1      69.119  11.270  49.304  1.00  0.00     0.158 C 
HETATM   13  N4  UNL     1      70.028  12.138  49.268  1.00  0.00    -0.249 N 
ATOM     14  H4  UNL     1      69.900  12.945  49.878  1.00  0.00     0.196 HD
BRANCH  12  15
HETATM   15  O5  UNL     1      69.123  10.102  48.538  1.00  0.00    -0.347 OA
ATOM     16  H5  UNL     1      68.499  10.053  47.823  1.00  0.00     0.219 HD
ENDBRANCH  12  15
BRANCH  13  17
HETATM   17  O6  UNL     1      71.152  12.131  48.522  1.00  0.00    -0.288 OA
ATOM     18  H6  UNL     1      71.905  12.704  48.596  1.00  0.00     0.244 HD
ENDBRANCH  13  17
ENDBRANCH   7  12
ENDBRANCH   1   7
BRANCH   5  19
HETATM   19  C7  UNL     1      65.658  15.661  51.707  1.00  0.00     0.174 C 
HETATM   20  C8  UNL     1      65.552  16.090  53.156  1.00  0.00     0.042 C 
BRANCH  19  21
HETATM   21  C9  UNL     1      65.521  16.842  50.823  1.00  0.00     0.243 C 
HETATM   22  O2  UNL     1      64.450  17.002  50.196  1.00  0.00    -0.271 OA
HETATM   23  N3  UNL     1      66.607  17.742  50.727  1.00  0.00    -0.332 N 
HETATM   24  C10 UNL     1      67.927  18.254  51.010  1.00  0.00     0.163 A 
HETATM   25  C11 UNL     1      67.101  18.994  50.099  1.00  0.00     0.206 A 
BRANCH  25  26
HETATM   26  C12 UNL     1      67.249  18.880  48.641  1.00  0.00     0.198 C 
HETATM   27  O3  UNL     1      68.390  18.800  48.121  1.00  0.00    -0.646 OA
HETATM   28  O4  UNL     1      66.148  18.854  47.798  1.00  0.00    -0.646 OA
ENDBRANCH  25  26
ENDBRANCH  19  21
ENDBRANCH   5  19
TORSDOF 9
ENDMDL
