MODEL 1
REMARK VINA RESULT: -7.030485292      0.000      0.000
REMARK  2 active torsions:
REMARK  status: ('A' for Active; 'I' for Inactive)
REMARK    1  A    between atoms: N1_4  and  C3_6 
REMARK    2  A    between atoms: C8_14  and  C9_15 
ROOT
HETATM    1  C1  UNL     1     -18.097 -17.084  19.051  1.00  0.00     0.085 A 
HETATM    2  S1  UNL     1     -18.744 -15.590  18.557  1.00  0.00    -0.064 SA
HETATM    3  C2  UNL     1     -18.878 -15.906  16.899  1.00  0.00     0.145 A 
HETATM    4  N1  UNL     1     -19.315 -15.158  15.907  1.00  0.00    -0.364 N 
ATOM      5  H1  UNL     1     -19.299 -15.573  14.975  1.00  0.00     0.162 HD
HETATM    6  N2  UNL     1     -18.418 -17.156  16.782  1.00  0.00    -0.334 N 
ATOM      7  H2  UNL     1     -18.381 -17.616  15.873  1.00  0.00     0.168 HD
HETATM    8  C8  UNL     1     -18.014 -17.777  17.865  1.00  0.00     0.071 A 
ENDROOT
BRANCH   8   9
HETATM    9  C9  UNL     1     -17.475 -19.179  17.888  1.00  0.00     0.108 A 
HETATM   10  C10 UNL     1     -17.599 -20.066  18.933  1.00  0.00     0.124 A 
HETATM   11  N3  UNL     1     -16.982 -21.192  18.549  1.00  0.00    -0.343 N 
HETATM   12  C11 UNL     1     -16.505 -21.022  17.348  1.00  0.00     0.172 A 
ATOM     13  H3  UNL     1     -16.898 -22.043  19.106  1.00  0.00     0.167 HD
HETATM   14  N4  UNL     1     -16.795 -19.783  16.910  1.00  0.00    -0.196 N 
HETATM   15  S2  UNL     1     -15.588 -22.110  16.276  1.00  0.00    -0.089 SA
HETATM   16  O2  UNL     1     -16.409 -19.352  15.674  1.00  0.00    -0.270 OA
HETATM   17  C12 UNL     1     -16.335 -20.121  14.524  1.00  0.00     0.212 C 
HETATM   18  C13 UNL     1     -15.784 -21.484  14.610  1.00  0.00     0.111 C 
ENDBRANCH   8   9
BRANCH   4  19
HETATM   19  C3  UNL     1     -19.800 -13.851  16.007  1.00  0.00     0.107 C 
HETATM   20  C4  UNL     1     -20.016 -13.271  14.616  1.00  0.00     0.029 C 
HETATM   21  C5  UNL     1     -20.062 -11.751  14.838  1.00  0.00     0.028 C 
HETATM   22  C6  UNL     1     -20.760 -11.531  16.158  1.00  0.00     0.167 C 
HETATM   23  O1  UNL     1     -19.868 -11.819  17.187  1.00  0.00    -0.389 OA
HETATM   24  C7  UNL     1     -19.033 -12.901  16.873  1.00  0.00     0.192 C 
ENDBRANCH   4  19
TORSDOF 2
ENDMDL
MODEL 2
REMARK VINA RESULT: -6.922887912      3.320      4.042
REMARK  2 active torsions:
REMARK  status: ('A' for Active; 'I' for Inactive)
REMARK    1  A    between atoms: N1_4  and  C3_6 
REMARK    2  A    between atoms: C8_14  and  C9_15 
ROOT
HETATM    1  C1  UNL     1     -16.350 -18.516  17.695  1.00  0.00     0.085 A 
HETATM    2  S1  UNL     1     -17.027 -17.231  16.807  1.00  0.00    -0.064 SA
HETATM    3  C2  UNL     1     -17.844 -16.452  18.069  1.00  0.00     0.145 A 
HETATM    4  N1  UNL     1     -18.588 -15.366  18.079  1.00  0.00    -0.364 N 
ATOM      5  H1  UNL     1     -18.983 -15.086  18.976  1.00  0.00     0.162 HD
HETATM    6  N2  UNL     1     -17.566 -17.211  19.134  1.00  0.00    -0.334 N 
ATOM      7  H2  UNL     1     -17.937 -16.973  20.054  1.00  0.00     0.168 HD
HETATM    8  C8  UNL     1     -16.807 -18.268  18.969  1.00  0.00     0.071 A 
ENDROOT
BRANCH   8   9
HETATM    9  C9  UNL     1     -16.412 -19.210  20.069  1.00  0.00     0.108 A 
HETATM   10  C10 UNL     1     -17.093 -20.351  20.428  1.00  0.00     0.124 A 
HETATM   11  N3  UNL     1     -16.412 -20.895  21.446  1.00  0.00    -0.343 N 
HETATM   12  C11 UNL     1     -15.376 -20.147  21.706  1.00  0.00     0.172 A 
ATOM     13  H3  UNL     1     -16.663 -21.753  21.937  1.00  0.00     0.167 HD
HETATM   14  N4  UNL     1     -15.349 -19.094  20.869  1.00  0.00    -0.196 N 
HETATM   15  S2  UNL     1     -14.084 -20.300  22.923  1.00  0.00    -0.089 SA
HETATM   16  O2  UNL     1     -14.358 -18.157  20.930  1.00  0.00    -0.270 OA
HETATM   17  C12 UNL     1     -13.029 -18.387  21.246  1.00  0.00     0.212 C 
HETATM   18  C13 UNL     1     -12.706 -19.313  22.345  1.00  0.00     0.111 C 
ENDBRANCH   8   9
BRANCH   4  19
HETATM   19  C3  UNL     1     -18.890 -14.559  16.978  1.00  0.00     0.107 C 
HETATM   20  C4  UNL     1     -19.222 -13.148  17.445  1.00  0.00     0.029 C 
HETATM   21  C5  UNL     1     -19.985 -12.524  16.266  1.00  0.00     0.028 C 
HETATM   22  C6  UNL     1     -19.345 -13.062  15.009  1.00  0.00     0.167 C 
HETATM   23  O1  UNL     1     -19.781 -14.369  14.811  1.00  0.00    -0.389 OA
HETATM   24  C7  UNL     1     -19.922 -15.066  16.019  1.00  0.00     0.192 C 
ENDBRANCH   4  19
TORSDOF 2
ENDMDL
MODEL 3
REMARK VINA RESULT: -6.559099012      2.044      2.159
REMARK  2 active torsions:
REMARK  status: ('A' for Active; 'I' for Inactive)
REMARK    1  A    between atoms: N1_4  and  C3_6 
REMARK    2  A    between atoms: C8_14  and  C9_15 
ROOT
HETATM    1  C1  UNL     1     -18.666 -17.368  16.714  1.00  0.00     0.085 A 
HETATM    2  S1  UNL     1     -19.417 -15.954  16.139  1.00  0.00    -0.064 SA
HETATM    3  C2  UNL     1     -18.799 -14.859  17.272  1.00  0.00     0.145 A 
HETATM    4  N1  UNL     1     -18.981 -13.562  17.412  1.00  0.00    -0.364 N 
ATOM      5  H1  UNL     1     -18.494 -13.109  18.186  1.00  0.00     0.162 HD
HETATM    6  N2  UNL     1     -18.033 -15.623  18.058  1.00  0.00    -0.334 N 
ATOM      7  H2  UNL     1     -17.526 -15.218  18.844  1.00  0.00     0.168 HD
HETATM    8  C8  UNL     1     -17.949 -16.904  17.794  1.00  0.00     0.071 A 
ENDROOT
BRANCH   8   9
HETATM    9  C9  UNL     1     -17.130 -17.883  18.586  1.00  0.00     0.108 A 
HETATM   10  C10 UNL     1     -17.456 -18.378  19.828  1.00  0.00     0.124 A 
HETATM   11  N3  UNL     1     -16.467 -19.213  20.175  1.00  0.00    -0.343 N 
HETATM   12  C11 UNL     1     -15.583 -19.240  19.217  1.00  0.00     0.172 A 
ATOM     13  H3  UNL     1     -16.413 -19.740  21.047  1.00  0.00     0.167 HD
HETATM   14  N4  UNL     1     -15.966 -18.425  18.217  1.00  0.00    -0.196 N 
HETATM   15  S2  UNL     1     -14.049 -20.129  19.049  1.00  0.00    -0.089 SA
HETATM   16  O2  UNL     1     -15.214 -18.275  17.088  1.00  0.00    -0.270 OA
HETATM   17  C12 UNL     1     -14.459 -19.258  16.468  1.00  0.00     0.212 C 
HETATM   18  C13 UNL     1     -13.667 -20.180  17.300  1.00  0.00     0.111 C 
ENDBRANCH   8   9
BRANCH   4  19
HETATM   19  C3  UNL     1     -19.776 -12.746  16.603  1.00  0.00     0.107 C 
HETATM   20  C4  UNL     1     -19.530 -13.074  15.136  1.00  0.00     0.029 C 
HETATM   21  C5  UNL     1     -20.047 -11.842  14.376  1.00  0.00     0.028 C 
HETATM   22  C6  UNL     1     -21.264 -11.356  15.126  1.00  0.00     0.167 C 
HETATM   23  O1  UNL     1     -20.844 -10.679  16.266  1.00  0.00    -0.389 OA
HETATM   24  C7  UNL     1     -19.710 -11.270  16.843  1.00  0.00     0.192 C 
ENDBRANCH   4  19
TORSDOF 2
ENDMDL
MODEL 4
REMARK VINA RESULT: -6.528011587      2.489      3.194
REMARK  2 active torsions:
REMARK  status: ('A' for Active; 'I' for Inactive)
REMARK    1  A    between atoms: N1_4  and  C3_6 
REMARK    2  A    between atoms: C8_14  and  C9_15 
ROOT
HETATM    1  C1  UNL     1     -16.385 -18.436  17.326  1.00  0.00     0.085 A 
HETATM    2  S1  UNL     1     -17.088 -17.118  16.510  1.00  0.00    -0.064 SA
HETATM    3  C2  UNL     1     -17.849 -16.379  17.829  1.00  0.00     0.145 A 
HETATM    4  N1  UNL     1     -18.585 -15.289  17.906  1.00  0.00    -0.364 N 
ATOM      5  H1  UNL     1     -18.943 -15.038  18.827  1.00  0.00     0.162 HD
HETATM    6  N2  UNL     1     -17.535 -17.175  18.856  1.00  0.00    -0.334 N 
ATOM      7  H2  UNL     1     -17.867 -16.967  19.798  1.00  0.00     0.168 HD
HETATM    8  C8  UNL     1     -16.790 -18.229  18.625  1.00  0.00     0.071 A 
ENDROOT
BRANCH   8   9
HETATM    9  C9  UNL     1     -16.358 -19.212  19.676  1.00  0.00     0.108 A 
HETATM   10  C10 UNL     1     -15.677 -18.900  20.830  1.00  0.00     0.124 A 
HETATM   11  N3  UNL     1     -15.488 -20.056  21.483  1.00  0.00    -0.343 N 
HETATM   12  C11 UNL     1     -16.016 -21.023  20.786  1.00  0.00     0.172 A 
ATOM     13  H3  UNL     1     -15.010 -20.160  22.378  1.00  0.00     0.167 HD
HETATM   14  N4  UNL     1     -16.563 -20.532  19.659  1.00  0.00    -0.196 N 
HETATM   15  S2  UNL     1     -16.108 -22.778  21.082  1.00  0.00    -0.089 SA
HETATM   16  O2  UNL     1     -17.186 -21.341  18.754  1.00  0.00    -0.270 OA
HETATM   17  C12 UNL     1     -17.934 -22.471  19.042  1.00  0.00     0.212 C 
HETATM   18  C13 UNL     1     -17.450 -23.403  20.075  1.00  0.00     0.111 C 
ENDBRANCH   8   9
BRANCH   4  19
HETATM   19  C3  UNL     1     -18.925 -14.444  16.846  1.00  0.00     0.107 C 
HETATM   20  C4  UNL     1     -19.230 -13.048  17.374  1.00  0.00     0.029 C 
HETATM   21  C5  UNL     1     -20.035 -12.380  16.248  1.00  0.00     0.028 C 
HETATM   22  C6  UNL     1     -19.448 -12.877  14.949  1.00  0.00     0.167 C 
HETATM   23  O1  UNL     1     -19.899 -14.174  14.723  1.00  0.00    -0.389 OA
HETATM   24  C7  UNL     1     -19.996 -14.912  15.912  1.00  0.00     0.192 C 
ENDBRANCH   4  19
TORSDOF 2
ENDMDL
MODEL 5
REMARK VINA RESULT: -6.447764853      2.362      2.622
REMARK  2 active torsions:
REMARK  status: ('A' for Active; 'I' for Inactive)
REMARK    1  A    between atoms: N1_4  and  C3_6 
REMARK    2  A    between atoms: C8_14  and  C9_15 
ROOT
HETATM    1  C1  UNL     1     -18.631 -17.731  16.886  1.00  0.00     0.085 A 
HETATM    2  S1  UNL     1     -19.154 -16.304  16.121  1.00  0.00    -0.064 SA
HETATM    3  C2  UNL     1     -18.603 -15.185  17.265  1.00  0.00     0.145 A 
HETATM    4  N1  UNL     1     -18.679 -13.870  17.297  1.00  0.00    -0.364 N 
ATOM      5  H1  UNL     1     -18.267 -13.405  18.105  1.00  0.00     0.162 HD
HETATM    6  N2  UNL     1     -18.032 -15.951  18.200  1.00  0.00    -0.334 N 
ATOM      7  H2  UNL     1     -17.606 -15.534  19.027  1.00  0.00     0.168 HD
HETATM    8  C8  UNL     1     -18.034 -17.251  18.030  1.00  0.00     0.071 A 
ENDROOT
BRANCH   8   9
HETATM    9  C9  UNL     1     -17.433 -18.235  18.992  1.00  0.00     0.108 A 
HETATM   10  C10 UNL     1     -18.091 -18.828  20.046  1.00  0.00     0.124 A 
HETATM   11  N3  UNL     1     -17.200 -19.629  20.647  1.00  0.00    -0.343 N 
HETATM   12  C11 UNL     1     -16.064 -19.545  20.013  1.00  0.00     0.172 A 
ATOM     13  H3  UNL     1     -17.382 -20.209  21.465  1.00  0.00     0.167 HD
HETATM   14  N4  UNL     1     -16.176 -18.687  18.982  1.00  0.00    -0.196 N 
HETATM   15  S2  UNL     1     -14.493 -20.337  20.294  1.00  0.00    -0.089 SA
HETATM   16  O2  UNL     1     -15.123 -18.422  18.154  1.00  0.00    -0.270 OA
HETATM   17  C12 UNL     1     -14.145 -19.320  17.758  1.00  0.00     0.212 C 
HETATM   18  C13 UNL     1     -13.586 -20.251  18.753  1.00  0.00     0.111 C 
ENDBRANCH   8   9
BRANCH   4  19
HETATM   19  C3  UNL     1     -19.270 -13.052  16.331  1.00  0.00     0.107 C 
HETATM   20  C4  UNL     1     -19.916 -11.845  16.999  1.00  0.00     0.029 C 
HETATM   21  C5  UNL     1     -20.911 -11.315  15.954  1.00  0.00     0.028 C 
HETATM   22  C6  UNL     1     -20.262 -11.513  14.606  1.00  0.00     0.167 C 
HETATM   23  O1  UNL     1     -20.359 -12.856  14.257  1.00  0.00    -0.389 OA
HETATM   24  C7  UNL     1     -20.213 -13.701  15.366  1.00  0.00     0.192 C 
ENDBRANCH   4  19
TORSDOF 2
ENDMDL
