MODEL 1
REMARK VINA RESULT: -6.618704658      0.000      0.000
REMARK  3 active torsions:
REMARK  status: ('A' for Active; 'I' for Inactive)
REMARK    1  A    between atoms: C2_2  and  C3_3 
REMARK    2  A    between atoms: C9_9  and  N1_10 
REMARK       I    between atoms: N1_10  and  C10_12 
REMARK    3  A    between atoms: C10_12  and  C11_14 
ROOT
HETATM    1  C3  UNL     1      -2.973   0.878  11.597  1.00  0.00     0.041 C 
HETATM    2  C4  UNL     1      -1.854   1.096  10.571  1.00  0.00    -0.023 C 
HETATM    3  C5  UNL     1      -0.702   1.896  10.859  1.00  0.00    -0.029 C 
HETATM    4  C6  UNL     1      -0.610   3.384  10.558  1.00  0.00     0.038 C 
HETATM    5  C7  UNL     1      -1.740   4.193  11.282  1.00  0.00     0.086 C 
HETATM    6  C8  UNL     1      -2.703   3.245  11.680  1.00  0.00    -0.157 C 
HETATM    7  C9  UNL     1      -3.613   2.240  12.037  1.00  0.00     0.159 C 
ENDROOT
BRANCH   7   8
HETATM    8  N1  UNL     1      -3.861   2.051  13.472  1.00  0.00    -0.345 N 
HETATM    9  C10 UNL     1      -4.873   2.690  14.200  1.00  0.00     0.233 C 
HETATM   10  O1  UNL     1      -5.640   3.488  13.606  1.00  0.00    -0.272 OA
ATOM     11  H1  UNL     1      -3.252   1.408  13.977  1.00  0.00     0.163 HD
BRANCH   9  12
HETATM   12  C11 UNL     1      -5.012   2.414  15.628  1.00  0.00     0.151 C 
HETATM   13  C12 UNL     1      -6.427   2.637  16.041  1.00  0.00     0.036 C 
HETATM   14  C13 UNL     1      -6.556   2.384  17.525  1.00  0.00     0.088 C 
HETATM   15  S1  UNL     1      -6.110   0.600  17.678  1.00  0.00    -0.097 SA
HETATM   16  S2  UNL     1      -4.749   0.625  15.992  1.00  0.00    -0.083 SA
ENDBRANCH   9  12
ENDBRANCH   7   8
BRANCH   1  17
HETATM   17  C2  UNL     1      -4.003  -0.038  11.066  1.00  0.00     0.007 C 
HETATM   18  C1  UNL     1      -4.087  -1.365  11.738  1.00  0.00     0.006 C 
ENDBRANCH   1  17
TORSDOF 3
ENDMDL
MODEL 2
REMARK VINA RESULT: -6.507351427      2.453      5.558
REMARK  3 active torsions:
REMARK  status: ('A' for Active; 'I' for Inactive)
REMARK    1  A    between atoms: C2_2  and  C3_3 
REMARK    2  A    between atoms: C9_9  and  N1_10 
REMARK       I    between atoms: N1_10  and  C10_12 
REMARK    3  A    between atoms: C10_12  and  C11_14 
ROOT
HETATM    1  C3  UNL     1      -5.573   2.107  15.719  1.00  0.00     0.041 C 
HETATM    2  C4  UNL     1      -6.263   3.406  16.151  1.00  0.00    -0.023 C 
HETATM    3  C5  UNL     1      -6.376   4.534  15.276  1.00  0.00    -0.029 C 
HETATM    4  C6  UNL     1      -5.357   5.662  15.216  1.00  0.00     0.038 C 
HETATM    5  C7  UNL     1      -3.927   5.132  14.858  1.00  0.00     0.086 C 
HETATM    6  C8  UNL     1      -3.963   3.740  15.071  1.00  0.00    -0.157 C 
HETATM    7  C9  UNL     1      -4.082   2.364  15.311  1.00  0.00     0.159 C 
ENDROOT
BRANCH   7   8
HETATM    8  N1  UNL     1      -3.884   1.472  14.161  1.00  0.00    -0.345 N 
HETATM    9  C10 UNL     1      -4.469   1.650  12.901  1.00  0.00     0.233 C 
HETATM   10  O1  UNL     1      -5.222   2.638  12.712  1.00  0.00    -0.272 OA
ATOM     11  H1  UNL     1      -3.277   0.663  14.289  1.00  0.00     0.163 HD
BRANCH   9  12
HETATM   12  C11 UNL     1      -4.190   0.685  11.839  1.00  0.00     0.151 C 
HETATM   13  C12 UNL     1      -2.761   0.800  11.430  1.00  0.00     0.036 C 
HETATM   14  C13 UNL     1      -2.488  -0.176  10.309  1.00  0.00     0.088 C 
HETATM   15  S1  UNL     1      -2.807  -1.812  11.100  1.00  0.00    -0.097 SA
HETATM   16  S2  UNL     1      -4.309  -1.046  12.461  1.00  0.00    -0.083 SA
ENDBRANCH   9  12
ENDBRANCH   7   8
BRANCH   1  17
HETATM   17  C2  UNL     1      -5.657   1.088  16.785  1.00  0.00     0.007 C 
HETATM   18  C1  UNL     1      -7.027   0.813  17.301  1.00  0.00     0.006 C 
ENDBRANCH   1  17
TORSDOF 3
ENDMDL
MODEL 3
REMARK VINA RESULT: -6.029499080      1.084      1.409
REMARK  3 active torsions:
REMARK  status: ('A' for Active; 'I' for Inactive)
REMARK    1  A    between atoms: C2_2  and  C3_3 
REMARK    2  A    between atoms: C9_9  and  N1_10 
REMARK       I    between atoms: N1_10  and  C10_12 
REMARK    3  A    between atoms: C10_12  and  C11_14 
ROOT
HETATM    1  C3  UNL     1      -1.700   1.605  11.172  1.00  0.00     0.041 C 
HETATM    2  C4  UNL     1      -0.853   2.241  10.063  1.00  0.00    -0.023 C 
HETATM    3  C5  UNL     1      -0.514   3.632  10.068  1.00  0.00    -0.029 C 
HETATM    4  C6  UNL     1      -1.345   4.706   9.384  1.00  0.00     0.038 C 
HETATM    5  C7  UNL     1      -2.812   4.742   9.935  1.00  0.00     0.086 C 
HETATM    6  C8  UNL     1      -3.000   3.525  10.619  1.00  0.00    -0.157 C 
HETATM    7  C9  UNL     1      -3.106   2.291  11.277  1.00  0.00     0.159 C 
ENDROOT
BRANCH   7   8
HETATM    8  N1  UNL     1      -3.358   2.331  12.724  1.00  0.00    -0.345 N 
HETATM    9  C10 UNL     1      -4.627   2.291  13.316  1.00  0.00     0.233 C 
HETATM   10  O1  UNL     1      -5.641   2.214  12.579  1.00  0.00    -0.272 OA
ATOM     11  H1  UNL     1      -2.550   2.393  13.342  1.00  0.00     0.163 HD
BRANCH   9  12
HETATM   12  C11 UNL     1      -4.738   2.340  14.772  1.00  0.00     0.151 C 
HETATM   13  C12 UNL     1      -6.138   2.687  15.150  1.00  0.00     0.036 C 
HETATM   14  C13 UNL     1      -6.239   2.770  16.655  1.00  0.00     0.088 C 
HETATM   15  S1  UNL     1      -5.831   1.053  17.190  1.00  0.00    -0.097 SA
HETATM   16  S2  UNL     1      -4.508   0.669  15.517  1.00  0.00    -0.083 SA
ENDBRANCH   9  12
ENDBRANCH   7   8
BRANCH   1  17
HETATM   17  C2  UNL     1      -1.842   0.151  10.958  1.00  0.00     0.007 C 
HETATM   18  C1  UNL     1      -3.201  -0.307  10.553  1.00  0.00     0.006 C 
ENDBRANCH   1  17
TORSDOF 3
ENDMDL
MODEL 4
REMARK VINA RESULT: -5.981003729      3.567      6.322
REMARK  3 active torsions:
REMARK  status: ('A' for Active; 'I' for Inactive)
REMARK    1  A    between atoms: C2_2  and  C3_3 
REMARK    2  A    between atoms: C9_9  and  N1_10 
REMARK       I    between atoms: N1_10  and  C10_12 
REMARK    3  A    between atoms: C10_12  and  C11_14 
ROOT
HETATM    1  C3  UNL     1      -4.230   3.794  14.379  1.00  0.00     0.041 C 
HETATM    2  C4  UNL     1      -4.580   2.972  15.625  1.00  0.00    -0.023 C 
HETATM    3  C5  UNL     1      -3.867   1.780  15.975  1.00  0.00    -0.029 C 
HETATM    4  C6  UNL     1      -4.283   0.386  15.530  1.00  0.00     0.038 C 
HETATM    5  C7  UNL     1      -4.337   0.269  13.968  1.00  0.00     0.086 C 
HETATM    6  C8  UNL     1      -4.347   1.590  13.479  1.00  0.00    -0.157 C 
HETATM    7  C9  UNL     1      -4.358   2.933  13.076  1.00  0.00     0.159 C 
ENDROOT
BRANCH   7   8
HETATM    8  N1  UNL     1      -3.227   3.387  12.255  1.00  0.00    -0.345 N 
HETATM    9  C10 UNL     1      -3.215   3.412  10.855  1.00  0.00     0.233 C 
HETATM   10  O1  UNL     1      -4.232   3.024  10.229  1.00  0.00    -0.272 OA
ATOM     11  H1  UNL     1      -2.390   3.708  12.741  1.00  0.00     0.163 HD
BRANCH   9  12
HETATM   12  C11 UNL     1      -2.021   3.887  10.158  1.00  0.00     0.151 C 
HETATM   13  C12 UNL     1      -1.453   5.055  10.891  1.00  0.00     0.036 C 
HETATM   14  C13 UNL     1      -0.240   5.564  10.148  1.00  0.00     0.088 C 
HETATM   15  S1  UNL     1       0.917   4.129  10.219  1.00  0.00    -0.097 SA
HETATM   16  S2  UNL     1      -0.661   2.645  10.237  1.00  0.00    -0.083 SA
ENDBRANCH   9  12
ENDBRANCH   7   8
BRANCH   1  17
HETATM   17  C2  UNL     1      -5.072   5.004  14.294  1.00  0.00     0.007 C 
HETATM   18  C1  UNL     1      -6.156   5.102  15.311  1.00  0.00     0.006 C 
ENDBRANCH   1  17
TORSDOF 3
ENDMDL
MODEL 5
REMARK VINA RESULT: -5.963172878      3.885      6.531
REMARK  3 active torsions:
REMARK  status: ('A' for Active; 'I' for Inactive)
REMARK    1  A    between atoms: C2_2  and  C3_3 
REMARK    2  A    between atoms: C9_9  and  N1_10 
REMARK       I    between atoms: N1_10  and  C10_12 
REMARK    3  A    between atoms: C10_12  and  C11_14 
ROOT
HETATM    1  C3  UNL     1      -3.910   3.834  14.656  1.00  0.00     0.041 C 
HETATM    2  C4  UNL     1      -4.464   2.839  15.684  1.00  0.00    -0.023 C 
HETATM    3  C5  UNL     1      -3.902   1.535  15.859  1.00  0.00    -0.029 C 
HETATM    4  C6  UNL     1      -4.389   0.298  15.118  1.00  0.00     0.038 C 
HETATM    5  C7  UNL     1      -4.284   0.476  13.565  1.00  0.00     0.086 C 
HETATM    6  C8  UNL     1      -4.125   1.858  13.341  1.00  0.00    -0.157 C 
HETATM    7  C9  UNL     1      -3.973   3.245  13.205  1.00  0.00     0.159 C 
ENDROOT
BRANCH   7   8
HETATM    8  N1  UNL     1      -2.725   3.718  12.591  1.00  0.00    -0.345 N 
HETATM    9  C10 UNL     1      -2.466   3.733  11.215  1.00  0.00     0.233 C 
HETATM   10  O1  UNL     1      -3.349   3.319  10.424  1.00  0.00    -0.272 OA
ATOM     11  H1  UNL     1      -1.993   4.060  13.213  1.00  0.00     0.163 HD
BRANCH   9  12
HETATM   12  C11 UNL     1      -1.178   4.230  10.734  1.00  0.00     0.151 C 
HETATM   13  C12 UNL     1      -0.078   3.473  11.398  1.00  0.00     0.036 C 
HETATM   14  C13 UNL     1       1.251   4.014  10.923  1.00  0.00     0.088 C 
HETATM   15  S1  UNL     1       1.218   3.657   9.114  1.00  0.00    -0.097 SA
HETATM   16  S2  UNL     1      -0.934   3.841   8.949  1.00  0.00    -0.083 SA
ENDBRANCH   9  12
ENDBRANCH   7   8
BRANCH   1  17
HETATM   17  C2  UNL     1      -4.629   5.122  14.730  1.00  0.00     0.007 C 
HETATM   18  C1  UNL     1      -6.059   5.035  15.137  1.00  0.00     0.006 C 
ENDBRANCH   1  17
TORSDOF 3
ENDMDL
