MODEL 1
REMARK VINA RESULT: -9.979360497      0.000      0.000
REMARK  14 active torsions:
REMARK  status: ('A' for Active; 'I' for Inactive)
REMARK    1  A    between atoms: O1_2  and  C2_3 
REMARK    2  A    between atoms: C6_7  and  C7_8 
REMARK    3  A    between atoms: C7_8  and  C8_9 
REMARK    4  A    between atoms: C8_9  and  C9_10 
REMARK       I    between atoms: N1_15  and  C12_16 
REMARK    5  A    between atoms: C12_16  and  C13_18 
REMARK    6  A    between atoms: C13_18  and  S1_19 
REMARK    7  A    between atoms: S1_19  and  C14_20 
REMARK    8  A    between atoms: C15_25  and  C16_26 
REMARK    9  A    between atoms: C16_26  and  C17_27 
REMARK   10  A    between atoms: C17_27  and  C18_28 
REMARK   11  A    between atoms: C18_28  and  C19_29 
REMARK   12  A    between atoms: C19_29  and  C20_30 
REMARK   13  A    between atoms: C21_35  and  N6_36 
REMARK       I    between atoms: N6_36  and  C22_38 
REMARK   14  A    between atoms: C27_46  and  O6_47 
ROOT
HETATM    1  C13 UNL     1      17.065  21.864  19.284  1.00  0.00     0.185 C 
ENDROOT
BRANCH   1   2
HETATM    2  C12 UNL     1      17.694  22.152  17.983  1.00  0.00     0.229 C 
HETATM    3  N1  UNL     1      18.106  23.400  17.502  1.00  0.00    -0.351 N 
HETATM    4  C11 UNL     1      18.699  23.513  16.158  1.00  0.00     0.127 C 
HETATM    5  C25 UNL     1      18.019  24.634  18.238  1.00  0.00     0.127 C 
HETATM    6  C10 UNL     1      19.828  24.556  16.322  1.00  0.00     0.041 C 
HETATM    7  C8  UNL     1      19.166  25.877  16.365  1.00  0.00     0.055 C 
HETATM    8  C26 UNL     1      17.942  25.805  17.277  1.00  0.00     0.041 C 
HETATM    9  O4  UNL     1      17.869  21.132  17.231  1.00  0.00    -0.273 OA
BRANCH   7  10
HETATM   10  C7  UNL     1      19.999  27.051  16.791  1.00  0.00     0.062 C 
BRANCH  10  11
HETATM   11  C6  UNL     1      21.348  26.730  17.258  1.00  0.00    -0.022 A 
HETATM   12  C5  UNL     1      21.478  26.267  18.577  1.00  0.00     0.019 A 
HETATM   13  C3  UNL     1      22.731  26.000  19.050  1.00  0.00    -0.027 A 
HETATM   14  C2  UNL     1      23.884  26.162  18.297  1.00  0.00     0.082 A 
HETATM   15  C4  UNL     1      22.893  25.508  20.456  1.00  0.00     0.051 C 
HETATM   16  C29 UNL     1      23.714  26.616  17.009  1.00  0.00     0.006 A 
HETATM   17  C27 UNL     1      22.460  26.906  16.465  1.00  0.00     0.083 A 
HETATM   18  C30 UNL     1      24.900  26.811  16.137  1.00  0.00     0.054 C 
BRANCH  14  19
HETATM   19  O1  UNL     1      25.133  25.879  18.824  1.00  0.00    -0.355 OA
HETATM   20  C1  UNL     1      25.810  24.664  18.737  1.00  0.00     0.210 C 
ENDBRANCH  14  19
BRANCH  17  21
HETATM   21  O6  UNL     1      22.403  27.354  15.153  1.00  0.00    -0.355 OA
HETATM   22  C28 UNL     1      22.284  28.763  14.956  1.00  0.00     0.210 C 
ENDBRANCH  17  21
ENDBRANCH  10  11
ENDBRANCH   7  10
BRANCH   7  23
HETATM   23  C9  UNL     1      18.587  26.132  14.986  1.00  0.00     0.182 C 
HETATM   24  O2  UNL     1      17.374  26.127  14.745  1.00  0.00    -0.647 OA
HETATM   25  O3  UNL     1      19.518  26.376  13.985  1.00  0.00    -0.647 OA
ENDBRANCH   7  23
ENDBRANCH   1   2
BRANCH   1  26
HETATM   26  S1  UNL     1      15.332  21.481  19.044  1.00  0.00    -0.083 SA
BRANCH  26  27
HETATM   27  C14 UNL     1      14.634  22.409  17.694  1.00  0.00     0.162 A 
HETATM   28  N2  UNL     1      14.327  23.711  17.684  1.00  0.00    -0.278 N 
HETATM   29  N3  UNL     1      13.865  24.000  16.489  1.00  0.00    -0.287 N 
ATOM     30  H2  UNL     1      14.433  24.360  18.462  1.00  0.00     0.189 HD
HETATM   31  C15 UNL     1      13.859  22.892  15.685  1.00  0.00     0.099 A 
ATOM     32  H3  UNL     1      13.553  24.926  16.198  1.00  0.00     0.188 HD
HETATM   33  N7  UNL     1      14.336  21.927  16.455  1.00  0.00    -0.319 N 
HETATM   34  C24 UNL     1      14.519  20.525  16.123  1.00  0.00     0.159 C 
BRANCH  31  35
HETATM   35  C16 UNL     1      13.368  22.898  14.287  1.00  0.00     0.078 C 
BRANCH  35  36
HETATM   36  C17 UNL     1      12.042  22.243  14.132  1.00  0.00     0.008 C 
BRANCH  36  37
HETATM   37  C18 UNL     1      11.986  20.825  13.738  1.00  0.00     0.007 C 
BRANCH  37  38
HETATM   38  C19 UNL     1      10.639  20.232  13.967  1.00  0.00     0.066 C 
BRANCH  38  39
HETATM   39  C20 UNL     1      10.768  19.335  15.181  1.00  0.00     0.069 A 
HETATM   40  N4  UNL     1      11.106  18.054  15.211  1.00  0.00    -0.296 N 
HETATM   41  N5  UNL     1      11.174  17.435  16.314  1.00  0.00    -0.279 N 
ATOM     42  H4  UNL     1      11.313  17.565  14.341  1.00  0.00     0.187 HD
HETATM   43  C21 UNL     1      10.899  18.094  17.441  1.00  0.00     0.167 A 
ATOM     44  H5  UNL     1      11.435  16.449  16.340  1.00  0.00     0.189 HD
HETATM   45  S2  UNL     1      10.534  19.658  16.843  1.00  0.00    -0.038 SA
BRANCH  43  46
HETATM   46  N6  UNL     1      10.921  17.641  18.671  1.00  0.00    -0.306 N 
HETATM   47  C22 UNL     1      11.822  18.210  19.601  1.00  0.00     0.219 C 
HETATM   48  C23 UNL     1      13.278  18.006  19.492  1.00  0.00     0.117 C 
HETATM   49  O5  UNL     1      11.371  18.904  20.538  1.00  0.00    -0.274 OA
ATOM     50  H6  UNL     1      10.295  16.887  18.955  1.00  0.00     0.171 HD
ENDBRANCH  43  46
ENDBRANCH  38  39
ENDBRANCH  37  38
ENDBRANCH  36  37
ENDBRANCH  35  36
ENDBRANCH  31  35
ENDBRANCH  26  27
ENDBRANCH   1  26
TORSDOF 14
ENDMDL
MODEL 2
REMARK VINA RESULT: -9.806737735      0.791      1.750
REMARK  14 active torsions:
REMARK  status: ('A' for Active; 'I' for Inactive)
REMARK    1  A    between atoms: O1_2  and  C2_3 
REMARK    2  A    between atoms: C6_7  and  C7_8 
REMARK    3  A    between atoms: C7_8  and  C8_9 
REMARK    4  A    between atoms: C8_9  and  C9_10 
REMARK       I    between atoms: N1_15  and  C12_16 
REMARK    5  A    between atoms: C12_16  and  C13_18 
REMARK    6  A    between atoms: C13_18  and  S1_19 
REMARK    7  A    between atoms: S1_19  and  C14_20 
REMARK    8  A    between atoms: C15_25  and  C16_26 
REMARK    9  A    between atoms: C16_26  and  C17_27 
REMARK   10  A    between atoms: C17_27  and  C18_28 
REMARK   11  A    between atoms: C18_28  and  C19_29 
REMARK   12  A    between atoms: C19_29  and  C20_30 
REMARK   13  A    between atoms: C21_35  and  N6_36 
REMARK       I    between atoms: N6_36  and  C22_38 
REMARK   14  A    between atoms: C27_46  and  O6_47 
ROOT
HETATM    1  C13 UNL     1      16.937  21.844  19.436  1.00  0.00     0.185 C 
ENDROOT
BRANCH   1   2
HETATM    2  C12 UNL     1      17.673  22.117  18.190  1.00  0.00     0.229 C 
HETATM    3  N1  UNL     1      18.121  23.360  17.727  1.00  0.00    -0.351 N 
HETATM    4  C11 UNL     1      18.826  23.456  16.437  1.00  0.00     0.127 C 
HETATM    5  C25 UNL     1      17.969  24.604  18.436  1.00  0.00     0.127 C 
HETATM    6  C10 UNL     1      19.933  24.506  16.681  1.00  0.00     0.041 C 
HETATM    7  C8  UNL     1      19.267  25.825  16.649  1.00  0.00     0.055 C 
HETATM    8  C26 UNL     1      17.970  25.761  17.455  1.00  0.00     0.041 C 
HETATM    9  O4  UNL     1      17.914  21.087  17.470  1.00  0.00    -0.273 OA
BRANCH   7  10
HETATM   10  C7  UNL     1      20.058  27.008  17.127  1.00  0.00     0.062 C 
BRANCH  10  11
HETATM   11  C6  UNL     1      21.458  26.738  17.456  1.00  0.00    -0.022 A 
HETATM   12  C5  UNL     1      22.417  27.029  16.472  1.00  0.00     0.019 A 
HETATM   13  C3  UNL     1      23.726  26.747  16.739  1.00  0.00    -0.027 A 
HETATM   14  C2  UNL     1      24.161  26.189  17.932  1.00  0.00     0.082 A 
HETATM   15  C4  UNL     1      24.766  27.046  15.702  1.00  0.00     0.051 C 
HETATM   16  C29 UNL     1      23.191  25.920  18.870  1.00  0.00     0.006 A 
HETATM   17  C27 UNL     1      21.835  26.185  18.659  1.00  0.00     0.083 A 
HETATM   18  C30 UNL     1      23.577  25.326  20.175  1.00  0.00     0.054 C 
BRANCH  14  19
HETATM   19  O1  UNL     1      25.501  25.921  18.153  1.00  0.00    -0.355 OA
HETATM   20  C1  UNL     1      26.189  24.774  17.760  1.00  0.00     0.210 C 
ENDBRANCH  14  19
BRANCH  17  21
HETATM   21  O6  UNL     1      20.942  25.879  19.676  1.00  0.00    -0.355 OA
HETATM   22  C28 UNL     1      20.704  26.892  20.652  1.00  0.00     0.210 C 
ENDBRANCH  17  21
ENDBRANCH  10  11
ENDBRANCH   7  10
BRANCH   7  23
HETATM   23  C9  UNL     1      18.806  26.058  15.223  1.00  0.00     0.182 C 
HETATM   24  O2  UNL     1      17.617  26.068  14.884  1.00  0.00    -0.647 OA
HETATM   25  O3  UNL     1      19.819  26.264  14.296  1.00  0.00    -0.647 OA
ENDBRANCH   7  23
ENDBRANCH   1   2
BRANCH   1  26
HETATM   26  S1  UNL     1      15.249  21.386  19.052  1.00  0.00    -0.083 SA
BRANCH  26  27
HETATM   27  C14 UNL     1      14.596  22.349  17.704  1.00  0.00     0.162 A 
HETATM   28  N2  UNL     1      14.341  23.662  17.701  1.00  0.00    -0.278 N 
HETATM   29  N3  UNL     1      13.898  23.978  16.505  1.00  0.00    -0.287 N 
ATOM     30  H2  UNL     1      14.468  24.302  18.484  1.00  0.00     0.189 HD
HETATM   31  C15 UNL     1      13.853  22.876  15.694  1.00  0.00     0.099 A 
ATOM     32  H3  UNL     1      13.624  24.917  16.219  1.00  0.00     0.188 HD
HETATM   33  N7  UNL     1      14.287  21.887  16.460  1.00  0.00    -0.319 N 
HETATM   34  C24 UNL     1      14.416  20.482  16.121  1.00  0.00     0.159 C 
BRANCH  31  35
HETATM   35  C16 UNL     1      13.371  22.910  14.294  1.00  0.00     0.078 C 
BRANCH  35  36
HETATM   36  C17 UNL     1      12.022  22.307  14.126  1.00  0.00     0.008 C 
BRANCH  36  37
HETATM   37  C18 UNL     1      11.915  20.887  13.748  1.00  0.00     0.007 C 
BRANCH  37  38
HETATM   38  C19 UNL     1      10.564  20.330  14.034  1.00  0.00     0.066 C 
BRANCH  38  39
HETATM   39  C20 UNL     1      10.726  19.410  15.227  1.00  0.00     0.069 A 
HETATM   40  N4  UNL     1      11.052  18.125  15.222  1.00  0.00    -0.296 N 
HETATM   41  N5  UNL     1      11.152  17.486  16.311  1.00  0.00    -0.279 N 
ATOM     42  H4  UNL     1      11.224  17.650  14.337  1.00  0.00     0.187 HD
HETATM   43  C21 UNL     1      10.923  18.127  17.458  1.00  0.00     0.167 A 
ATOM     44  H5  UNL     1      11.404  16.497  16.311  1.00  0.00     0.189 HD
HETATM   45  S2  UNL     1      10.553  19.705  16.901  1.00  0.00    -0.038 SA
BRANCH  43  46
HETATM   46  N6  UNL     1      10.982  17.651  18.679  1.00  0.00    -0.306 N 
HETATM   47  C22 UNL     1      11.882  18.231  19.604  1.00  0.00     0.219 C 
HETATM   48  C23 UNL     1      13.342  18.076  19.463  1.00  0.00     0.117 C 
HETATM   49  O5  UNL     1      11.427  18.892  20.562  1.00  0.00    -0.274 OA
ATOM     50  H6  UNL     1      10.387  16.871  18.959  1.00  0.00     0.171 HD
ENDBRANCH  43  46
ENDBRANCH  38  39
ENDBRANCH  37  38
ENDBRANCH  36  37
ENDBRANCH  35  36
ENDBRANCH  31  35
ENDBRANCH  26  27
ENDBRANCH   1  26
TORSDOF 14
ENDMDL
MODEL 3
REMARK VINA RESULT: -9.672276466      1.078      1.533
REMARK  14 active torsions:
REMARK  status: ('A' for Active; 'I' for Inactive)
REMARK    1  A    between atoms: O1_2  and  C2_3 
REMARK    2  A    between atoms: C6_7  and  C7_8 
REMARK    3  A    between atoms: C7_8  and  C8_9 
REMARK    4  A    between atoms: C8_9  and  C9_10 
REMARK       I    between atoms: N1_15  and  C12_16 
REMARK    5  A    between atoms: C12_16  and  C13_18 
REMARK    6  A    between atoms: C13_18  and  S1_19 
REMARK    7  A    between atoms: S1_19  and  C14_20 
REMARK    8  A    between atoms: C15_25  and  C16_26 
REMARK    9  A    between atoms: C16_26  and  C17_27 
REMARK   10  A    between atoms: C17_27  and  C18_28 
REMARK   11  A    between atoms: C18_28  and  C19_29 
REMARK   12  A    between atoms: C19_29  and  C20_30 
REMARK   13  A    between atoms: C21_35  and  N6_36 
REMARK       I    between atoms: N6_36  and  C22_38 
REMARK   14  A    between atoms: C27_46  and  O6_47 
ROOT
HETATM    1  C13 UNL     1      16.628  22.442  19.474  1.00  0.00     0.185 C 
ENDROOT
BRANCH   1   2
HETATM    2  C12 UNL     1      17.731  22.525  18.502  1.00  0.00     0.229 C 
HETATM    3  N1  UNL     1      18.256  23.682  17.914  1.00  0.00    -0.351 N 
HETATM    4  C11 UNL     1      19.352  23.579  16.935  1.00  0.00     0.127 C 
HETATM    5  C25 UNL     1      17.817  25.022  18.205  1.00  0.00     0.127 C 
HETATM    6  C10 UNL     1      20.264  24.786  17.252  1.00  0.00     0.041 C 
HETATM    7  C8  UNL     1      19.591  25.973  16.683  1.00  0.00     0.055 C 
HETATM    8  C26 UNL     1      18.102  25.927  17.022  1.00  0.00     0.041 C 
HETATM    9  O4  UNL     1      18.247  21.400  18.176  1.00  0.00    -0.273 OA
BRANCH   7  10
HETATM   10  C7  UNL     1      20.120  27.321  17.079  1.00  0.00     0.062 C 
BRANCH  10  11
HETATM   11  C6  UNL     1      21.546  27.536  16.830  1.00  0.00    -0.022 A 
HETATM   12  C5  UNL     1      22.453  26.751  17.561  1.00  0.00     0.019 A 
HETATM   13  C3  UNL     1      23.789  26.963  17.376  1.00  0.00    -0.027 A 
HETATM   14  C2  UNL     1      24.300  27.911  16.505  1.00  0.00     0.082 A 
HETATM   15  C4  UNL     1      24.773  26.138  18.149  1.00  0.00     0.051 C 
HETATM   16  C29 UNL     1      23.380  28.659  15.807  1.00  0.00     0.006 A 
HETATM   17  C27 UNL     1      22.000  28.492  15.949  1.00  0.00     0.083 A 
HETATM   18  C30 UNL     1      23.850  29.694  14.850  1.00  0.00     0.054 C 
BRANCH  14  19
HETATM   19  O1  UNL     1      25.666  28.088  16.356  1.00  0.00    -0.355 OA
HETATM   20  C1  UNL     1      26.460  27.563  15.338  1.00  0.00     0.210 C 
ENDBRANCH  14  19
BRANCH  17  21
HETATM   21  O6  UNL     1      21.161  29.297  15.191  1.00  0.00    -0.355 OA
HETATM   22  C28 UNL     1      20.931  28.899  13.841  1.00  0.00     0.210 C 
ENDBRANCH  17  21
ENDBRANCH  10  11
ENDBRANCH   7  10
BRANCH   7  23
HETATM   23  C9  UNL     1      19.633  25.829  15.173  1.00  0.00     0.182 C 
HETATM   24  O2  UNL     1      20.617  25.402  14.557  1.00  0.00    -0.647 OA
HETATM   25  O3  UNL     1      18.479  26.213  14.506  1.00  0.00    -0.647 OA
ENDBRANCH   7  23
ENDBRANCH   1   2
BRANCH   1  26
HETATM   26  S1  UNL     1      15.253  21.551  18.752  1.00  0.00    -0.083 SA
BRANCH  26  27
HETATM   27  C14 UNL     1      14.503  22.465  17.419  1.00  0.00     0.162 A 
HETATM   28  N2  UNL     1      14.087  23.736  17.447  1.00  0.00    -0.278 N 
HETATM   29  N3  UNL     1      13.625  24.028  16.253  1.00  0.00    -0.287 N 
ATOM     30  H2  UNL     1      14.122  24.363  18.249  1.00  0.00     0.189 HD
HETATM   31  C15 UNL     1      13.729  22.953  15.411  1.00  0.00     0.099 A 
ATOM     32  H3  UNL     1      13.240  24.934  15.987  1.00  0.00     0.188 HD
HETATM   33  N7  UNL     1      14.272  22.004  16.158  1.00  0.00    -0.319 N 
HETATM   34  C24 UNL     1      14.581  20.636  15.783  1.00  0.00     0.159 C 
BRANCH  31  35
HETATM   35  C16 UNL     1      13.267  22.968  14.004  1.00  0.00     0.078 C 
BRANCH  35  36
HETATM   36  C17 UNL     1      12.391  21.814  13.666  1.00  0.00     0.008 C 
BRANCH  36  37
HETATM   37  C18 UNL     1      11.161  21.596  14.447  1.00  0.00     0.007 C 
BRANCH  37  38
HETATM   38  C19 UNL     1      10.489  20.316  14.091  1.00  0.00     0.066 C 
BRANCH  38  39
HETATM   39  C20 UNL     1      10.667  19.395  15.281  1.00  0.00     0.069 A 
HETATM   40  N4  UNL     1      10.994  18.111  15.271  1.00  0.00    -0.296 N 
HETATM   41  N5  UNL     1      11.109  17.471  16.357  1.00  0.00    -0.279 N 
ATOM     42  H4  UNL     1      11.154  17.636  14.383  1.00  0.00     0.187 HD
HETATM   43  C21 UNL     1      10.895  18.111  17.508  1.00  0.00     0.167 A 
ATOM     44  H5  UNL     1      11.361  16.482  16.353  1.00  0.00     0.189 HD
HETATM   45  S2  UNL     1      10.518  19.689  16.957  1.00  0.00    -0.038 SA
BRANCH  43  46
HETATM   46  N6  UNL     1      10.972  17.634  18.728  1.00  0.00    -0.306 N 
HETATM   47  C22 UNL     1      11.867  18.229  19.647  1.00  0.00     0.219 C 
HETATM   48  C23 UNL     1      13.329  18.102  19.497  1.00  0.00     0.117 C 
HETATM   49  O5  UNL     1      11.406  18.880  20.610  1.00  0.00    -0.274 OA
ATOM     50  H6  UNL     1      10.393  16.843  19.010  1.00  0.00     0.171 HD
ENDBRANCH  43  46
ENDBRANCH  38  39
ENDBRANCH  37  38
ENDBRANCH  36  37
ENDBRANCH  35  36
ENDBRANCH  31  35
ENDBRANCH  26  27
ENDBRANCH   1  26
TORSDOF 14
ENDMDL
MODEL 4
REMARK VINA RESULT: -9.509416722      1.535      2.791
REMARK  14 active torsions:
REMARK  status: ('A' for Active; 'I' for Inactive)
REMARK    1  A    between atoms: O1_2  and  C2_3 
REMARK    2  A    between atoms: C6_7  and  C7_8 
REMARK    3  A    between atoms: C7_8  and  C8_9 
REMARK    4  A    between atoms: C8_9  and  C9_10 
REMARK       I    between atoms: N1_15  and  C12_16 
REMARK    5  A    between atoms: C12_16  and  C13_18 
REMARK    6  A    between atoms: C13_18  and  S1_19 
REMARK    7  A    between atoms: S1_19  and  C14_20 
REMARK    8  A    between atoms: C15_25  and  C16_26 
REMARK    9  A    between atoms: C16_26  and  C17_27 
REMARK   10  A    between atoms: C17_27  and  C18_28 
REMARK   11  A    between atoms: C18_28  and  C19_29 
REMARK   12  A    between atoms: C19_29  and  C20_30 
REMARK   13  A    between atoms: C21_35  and  N6_36 
REMARK       I    between atoms: N6_36  and  C22_38 
REMARK   14  A    between atoms: C27_46  and  O6_47 
ROOT
HETATM    1  C13 UNL     1      18.019  24.032  17.564  1.00  0.00     0.185 C 
ENDROOT
BRANCH   1   2
HETATM    2  C12 UNL     1      18.844  24.453  16.418  1.00  0.00     0.229 C 
HETATM    3  N1  UNL     1      19.748  25.521  16.375  1.00  0.00    -0.351 N 
HETATM    4  C11 UNL     1      20.477  25.820  15.130  1.00  0.00     0.127 C 
HETATM    5  C25 UNL     1      20.058  26.380  17.488  1.00  0.00     0.127 C 
HETATM    6  C10 UNL     1      21.893  26.222  15.602  1.00  0.00     0.041 C 
HETATM    7  C8  UNL     1      21.782  27.605  16.111  1.00  0.00     0.055 C 
HETATM    8  C26 UNL     1      20.534  27.729  16.983  1.00  0.00     0.041 C 
HETATM    9  O4  UNL     1      18.697  23.749  15.360  1.00  0.00    -0.273 OA
BRANCH   7  10
HETATM   10  C7  UNL     1      22.949  28.151  16.882  1.00  0.00     0.062 C 
BRANCH  10  11
HETATM   11  C6  UNL     1      24.011  27.190  17.182  1.00  0.00    -0.022 A 
HETATM   12  C5  UNL     1      25.099  27.137  16.295  1.00  0.00     0.019 A 
HETATM   13  C3  UNL     1      26.083  26.219  16.530  1.00  0.00    -0.027 A 
HETATM   14  C2  UNL     1      26.066  25.336  17.599  1.00  0.00     0.082 A 
HETATM   15  C4  UNL     1      27.251  26.144  15.595  1.00  0.00     0.051 C 
HETATM   16  C29 UNL     1      24.984  25.421  18.444  1.00  0.00     0.006 A 
HETATM   17  C27 UNL     1      23.945  26.337  18.260  1.00  0.00     0.083 A 
HETATM   18  C30 UNL     1      24.895  24.511  19.615  1.00  0.00     0.054 C 
BRANCH  14  19
HETATM   19  O1  UNL     1      27.089  24.423  17.791  1.00  0.00    -0.355 OA
HETATM   20  C1  UNL     1      28.243  24.622  18.546  1.00  0.00     0.210 C 
ENDBRANCH  14  19
BRANCH  17  21
HETATM   21  O6  UNL     1      22.904  26.339  19.177  1.00  0.00    -0.355 OA
HETATM   22  C28 UNL     1      22.981  27.288  20.240  1.00  0.00     0.210 C 
ENDBRANCH  17  21
ENDBRANCH  10  11
ENDBRANCH   7  10
BRANCH   7  23
HETATM   23  C9  UNL     1      21.493  28.497  14.919  1.00  0.00     0.182 C 
HETATM   24  O2  UNL     1      22.194  28.522  13.901  1.00  0.00    -0.647 OA
HETATM   25  O3  UNL     1      20.369  29.304  15.037  1.00  0.00    -0.647 OA
ENDBRANCH   7  23
ENDBRANCH   1   2
BRANCH   1  26
HETATM   26  S1  UNL     1      17.032  22.610  17.105  1.00  0.00    -0.083 SA
BRANCH  26  27
HETATM   27  C14 UNL     1      15.442  23.091  16.463  1.00  0.00     0.162 A 
HETATM   28  N2  UNL     1      14.537  23.877  17.057  1.00  0.00    -0.278 N 
HETATM   29  N3  UNL     1      13.520  24.003  16.235  1.00  0.00    -0.287 N 
ATOM     30  H2  UNL     1      14.622  24.302  17.980  1.00  0.00     0.189 HD
HETATM   31  C15 UNL     1      13.735  23.301  15.080  1.00  0.00     0.099 A 
ATOM     32  H3  UNL     1      12.682  24.550  16.431  1.00  0.00     0.188 HD
HETATM   33  N7  UNL     1      14.926  22.748  15.250  1.00  0.00    -0.319 N 
HETATM   34  C24 UNL     1      15.641  21.866  14.345  1.00  0.00     0.159 C 
BRANCH  31  35
HETATM   35  C16 UNL     1      12.755  23.229  13.971  1.00  0.00     0.078 C 
BRANCH  35  36
HETATM   36  C17 UNL     1      11.723  22.177  14.173  1.00  0.00     0.008 C 
BRANCH  36  37
HETATM   37  C18 UNL     1      12.078  20.769  13.921  1.00  0.00     0.007 C 
BRANCH  37  38
HETATM   38  C19 UNL     1      10.878  19.888  13.874  1.00  0.00     0.066 C 
BRANCH  38  39
HETATM   39  C20 UNL     1      10.898  19.072  15.151  1.00  0.00     0.069 A 
HETATM   40  N4  UNL     1      11.194  17.788  15.287  1.00  0.00    -0.296 N 
HETATM   41  N5  UNL     1      11.169  17.243  16.430  1.00  0.00    -0.279 N 
ATOM     42  H4  UNL     1      11.444  17.235  14.467  1.00  0.00     0.187 HD
HETATM   43  C21 UNL     1      10.839  17.983  17.490  1.00  0.00     0.167 A 
ATOM     44  H5  UNL     1      11.397  16.254  16.539  1.00  0.00     0.189 HD
HETATM   45  S2  UNL     1      10.563  19.513  16.767  1.00  0.00    -0.038 SA
BRANCH  43  46
HETATM   46  N6  UNL     1      10.764  17.613  18.746  1.00  0.00    -0.306 N 
HETATM   47  C22 UNL     1      11.713  18.111  19.671  1.00  0.00     0.219 C 
HETATM   48  C23 UNL     1      13.128  17.698  19.625  1.00  0.00     0.117 C 
HETATM   49  O5  UNL     1      11.341  18.921  20.546  1.00  0.00    -0.274 OA
ATOM     50  H6  UNL     1      10.031  16.974  19.054  1.00  0.00     0.171 HD
ENDBRANCH  43  46
ENDBRANCH  38  39
ENDBRANCH  37  38
ENDBRANCH  36  37
ENDBRANCH  35  36
ENDBRANCH  31  35
ENDBRANCH  26  27
ENDBRANCH   1  26
TORSDOF 14
ENDMDL
MODEL 5
REMARK VINA RESULT: -9.447968557      1.039      2.120
REMARK  14 active torsions:
REMARK  status: ('A' for Active; 'I' for Inactive)
REMARK    1  A    between atoms: O1_2  and  C2_3 
REMARK    2  A    between atoms: C6_7  and  C7_8 
REMARK    3  A    between atoms: C7_8  and  C8_9 
REMARK    4  A    between atoms: C8_9  and  C9_10 
REMARK       I    between atoms: N1_15  and  C12_16 
REMARK    5  A    between atoms: C12_16  and  C13_18 
REMARK    6  A    between atoms: C13_18  and  S1_19 
REMARK    7  A    between atoms: S1_19  and  C14_20 
REMARK    8  A    between atoms: C15_25  and  C16_26 
REMARK    9  A    between atoms: C16_26  and  C17_27 
REMARK   10  A    between atoms: C17_27  and  C18_28 
REMARK   11  A    between atoms: C18_28  and  C19_29 
REMARK   12  A    between atoms: C19_29  and  C20_30 
REMARK   13  A    between atoms: C21_35  and  N6_36 
REMARK       I    between atoms: N6_36  and  C22_38 
REMARK   14  A    between atoms: C27_46  and  O6_47 
ROOT
HETATM    1  C13 UNL     1      17.095  21.543  18.938  1.00  0.00     0.185 C 
ENDROOT
BRANCH   1   2
HETATM    2  C12 UNL     1      17.839  21.958  17.736  1.00  0.00     0.229 C 
HETATM    3  N1  UNL     1      18.259  23.252  17.406  1.00  0.00    -0.351 N 
HETATM    4  C11 UNL     1      18.977  23.495  16.143  1.00  0.00     0.127 C 
HETATM    5  C25 UNL     1      18.062  24.415  18.232  1.00  0.00     0.127 C 
HETATM    6  C10 UNL     1      20.052  24.544  16.507  1.00  0.00     0.041 C 
HETATM    7  C8  UNL     1      19.349  25.842  16.596  1.00  0.00     0.055 C 
HETATM    8  C26 UNL     1      18.044  25.663  17.371  1.00  0.00     0.041 C 
HETATM    9  O4  UNL     1      18.119  21.011  16.921  1.00  0.00    -0.273 OA
BRANCH   7  10
HETATM   10  C7  UNL     1      20.100  26.992  17.201  1.00  0.00     0.062 C 
BRANCH  10  11
HETATM   11  C6  UNL     1      21.505  26.731  17.514  1.00  0.00    -0.022 A 
HETATM   12  C5  UNL     1      22.456  27.077  16.540  1.00  0.00     0.019 A 
HETATM   13  C3  UNL     1      23.770  26.805  16.792  1.00  0.00    -0.027 A 
HETATM   14  C2  UNL     1      24.218  26.207  17.959  1.00  0.00     0.082 A 
HETATM   15  C4  UNL     1      24.801  27.163  15.764  1.00  0.00     0.051 C 
HETATM   16  C29 UNL     1      23.256  25.885  18.889  1.00  0.00     0.006 A 
HETATM   17  C27 UNL     1      21.895  26.137  18.693  1.00  0.00     0.083 A 
HETATM   18  C30 UNL     1      23.657  25.245  20.168  1.00  0.00     0.054 C 
BRANCH  14  19
HETATM   19  O1  UNL     1      25.563  25.951  18.165  1.00  0.00    -0.355 OA
HETATM   20  C1  UNL     1      26.427  26.680  18.980  1.00  0.00     0.210 C 
ENDBRANCH  14  19
BRANCH  17  21
HETATM   21  O6  UNL     1      21.011  25.775  19.700  1.00  0.00    -0.355 OA
HETATM   22  C28 UNL     1      20.740  26.754  20.702  1.00  0.00     0.210 C 
ENDBRANCH  17  21
ENDBRANCH  10  11
ENDBRANCH   7  10
BRANCH   7  23
HETATM   23  C9  UNL     1      18.901  26.203  15.192  1.00  0.00     0.182 C 
HETATM   24  O2  UNL     1      19.686  26.467  14.274  1.00  0.00    -0.647 OA
HETATM   25  O3  UNL     1      17.528  26.222  14.991  1.00  0.00    -0.647 OA
ENDBRANCH   7  23
ENDBRANCH   1   2
BRANCH   1  26
HETATM   26  S1  UNL     1      15.362  21.951  18.744  1.00  0.00    -0.083 SA
BRANCH  26  27
HETATM   27  C14 UNL     1      14.705  21.322  17.212  1.00  0.00     0.162 A 
HETATM   28  N2  UNL     1      14.491  20.041  16.892  1.00  0.00    -0.278 N 
HETATM   29  N3  UNL     1      13.972  20.015  15.686  1.00  0.00    -0.287 N 
ATOM     30  H2  UNL     1      14.693  19.232  17.479  1.00  0.00     0.189 HD
HETATM   31  C15 UNL     1      13.833  21.282  15.186  1.00  0.00     0.099 A 
ATOM     32  H3  UNL     1      13.708  19.165  15.188  1.00  0.00     0.188 HD
HETATM   33  N7  UNL     1      14.294  22.066  16.147  1.00  0.00    -0.319 N 
HETATM   34  C24 UNL     1      14.413  23.513  16.143  1.00  0.00     0.159 C 
BRANCH  31  35
HETATM   35  C16 UNL     1      13.299  21.574  13.835  1.00  0.00     0.078 C 
BRANCH  35  36
HETATM   36  C17 UNL     1      11.975  22.253  13.865  1.00  0.00     0.008 C 
BRANCH  36  37
HETATM   37  C18 UNL     1      10.840  21.578  14.517  1.00  0.00     0.007 C 
BRANCH  37  38
HETATM   38  C19 UNL     1      10.655  20.185  14.023  1.00  0.00     0.066 C 
BRANCH  38  39
HETATM   39  C20 UNL     1      10.744  19.286  15.238  1.00  0.00     0.069 A 
HETATM   40  N4  UNL     1      11.007  17.987  15.268  1.00  0.00    -0.296 N 
HETATM   41  N5  UNL     1      11.050  17.368  16.372  1.00  0.00    -0.279 N 
ATOM     42  H4  UNL     1      11.175  17.484  14.398  1.00  0.00     0.187 HD
HETATM   43  C21 UNL     1      10.826  18.045  17.500  1.00  0.00     0.167 A 
ATOM     44  H5  UNL     1      11.252  16.368  16.399  1.00  0.00     0.189 HD
HETATM   45  S2  UNL     1      10.547  19.626  16.901  1.00  0.00    -0.038 SA
BRANCH  43  46
HETATM   46  N6  UNL     1      10.833  17.594  18.732  1.00  0.00    -0.306 N 
HETATM   47  C22 UNL     1      11.750  18.139  19.662  1.00  0.00     0.219 C 
HETATM   48  C23 UNL     1      13.200  17.894  19.554  1.00  0.00     0.117 C 
HETATM   49  O5  UNL     1      11.318  18.848  20.596  1.00  0.00    -0.274 OA
ATOM     50  H6  UNL     1      10.187  16.858  19.017  1.00  0.00     0.171 HD
ENDBRANCH  43  46
ENDBRANCH  38  39
ENDBRANCH  37  38
ENDBRANCH  36  37
ENDBRANCH  35  36
ENDBRANCH  31  35
ENDBRANCH  26  27
ENDBRANCH   1  26
TORSDOF 14
ENDMDL
