MODEL 1
REMARK VINA RESULT: -4.682246442      0.000      0.000
REMARK  1 active torsions:
REMARK  status: ('A' for Active; 'I' for Inactive)
REMARK    1  A    between atoms: N1_1  and  C1_5 
ROOT
HETATM    1  C1  UNL     1     -35.319 -38.878  57.413  1.00  0.00     0.183 C 
HETATM    2  C2  UNL     1     -35.769 -40.142  58.048  1.00  0.00     0.033 C 
HETATM    3  C3  UNL     1     -36.031 -41.301  57.147  1.00  0.00     0.002 C 
HETATM    4  C4  UNL     1     -37.235 -41.125  56.289  1.00  0.00     0.002 C 
HETATM    5  C5  UNL     1     -37.057 -41.396  54.836  1.00  0.00     0.019 C 
HETATM    6  C6  UNL     1     -35.780 -40.895  54.229  1.00  0.00     0.113 C 
HETATM    7  N2  UNL     1     -35.706 -39.490  54.394  1.00  0.00    -0.421 N 
ATOM      8  H2  UNL     1     -36.545 -38.912  54.452  1.00  0.00     0.153 HD
HETATM    9  C7  UNL     1     -34.409 -38.925  54.474  1.00  0.00     0.113 C 
HETATM   10  C8  UNL     1     -33.568 -39.336  55.616  1.00  0.00     0.021 C 
HETATM   11  C9  UNL     1     -33.924 -38.826  56.952  1.00  0.00     0.034 C 
ENDROOT
BRANCH   1  12
HETATM   12  N1  UNL     1     -35.383 -37.914  58.548  1.00  0.00    -0.075 N 
ATOM     13  H13 UNL     1     -34.697 -37.160  58.512  1.00  0.00     0.274 HD
ATOM     14  H12 UNL     1     -36.200 -37.303  58.549  1.00  0.00     0.274 HD
ATOM     15  H11 UNL     1     -35.304 -38.530  59.358  1.00  0.00     0.274 HD
ENDBRANCH   1  12
TORSDOF 1
ENDMDL
MODEL 2
REMARK VINA RESULT: -4.387949893      1.449      3.484
REMARK  1 active torsions:
REMARK  status: ('A' for Active; 'I' for Inactive)
REMARK    1  A    between atoms: N1_1  and  C1_5 
ROOT
HETATM    1  C1  UNL     1     -35.118 -38.735  54.997  1.00  0.00     0.183 C 
HETATM    2  C2  UNL     1     -33.762 -38.772  55.601  1.00  0.00     0.033 C 
HETATM    3  C3  UNL     1     -33.523 -39.775  56.677  1.00  0.00     0.002 C 
HETATM    4  C4  UNL     1     -34.244 -39.470  57.944  1.00  0.00     0.002 C 
HETATM    5  C5  UNL     1     -35.028 -40.584  58.543  1.00  0.00     0.019 C 
HETATM    6  C6  UNL     1     -35.797 -41.436  57.578  1.00  0.00     0.113 C 
HETATM    7  N2  UNL     1     -36.718 -40.624  56.871  1.00  0.00    -0.421 N 
ATOM      8  H2  UNL     1     -37.110 -39.777  57.282  1.00  0.00     0.153 HD
HETATM    9  C7  UNL     1     -37.068 -41.047  55.565  1.00  0.00     0.113 C 
HETATM   10  C8  UNL     1     -35.985 -41.094  54.563  1.00  0.00     0.021 C 
HETATM   11  C9  UNL     1     -35.457 -39.814  54.058  1.00  0.00     0.034 C 
ENDROOT
BRANCH   1  12
HETATM   12  N1  UNL     1     -35.058 -37.504  54.161  1.00  0.00    -0.075 N 
ATOM     13  H13 UNL     1     -35.620 -36.723  54.501  1.00  0.00     0.274 HD
ATOM     14  H12 UNL     1     -34.168 -37.005  54.193  1.00  0.00     0.274 HD
ATOM     15  H11 UNL     1     -35.322 -37.855  53.240  1.00  0.00     0.274 HD
ENDBRANCH   1  12
TORSDOF 1
ENDMDL
MODEL 3
REMARK VINA RESULT: -4.387472117      1.717      3.184
REMARK  1 active torsions:
REMARK  status: ('A' for Active; 'I' for Inactive)
REMARK    1  A    between atoms: N1_1  and  C1_5 
ROOT
HETATM    1  C1  UNL     1     -33.274 -40.217  55.719  1.00  0.00     0.183 C 
HETATM    2  C2  UNL     1     -33.758 -39.607  54.454  1.00  0.00     0.033 C 
HETATM    3  C3  UNL     1     -35.231 -39.588  54.228  1.00  0.00     0.002 C 
HETATM    4  C4  UNL     1     -35.811 -40.936  53.978  1.00  0.00     0.002 C 
HETATM    5  C5  UNL     1     -37.009 -41.299  54.783  1.00  0.00     0.019 C 
HETATM    6  C6  UNL     1     -36.976 -40.893  56.226  1.00  0.00     0.113 C 
HETATM    7  N2  UNL     1     -35.862 -41.501  56.856  1.00  0.00    -0.421 N 
ATOM      8  H2  UNL     1     -35.484 -42.392  56.531  1.00  0.00     0.153 HD
HETATM    9  C7  UNL     1     -35.299 -40.812  57.958  1.00  0.00     0.113 C 
HETATM   10  C8  UNL     1     -34.715 -39.483  57.690  1.00  0.00     0.021 C 
HETATM   11  C9  UNL     1     -33.445 -39.425  56.946  1.00  0.00     0.034 C 
ENDROOT
BRANCH   1  12
HETATM   12  N1  UNL     1     -31.801 -40.271  55.500  1.00  0.00    -0.075 N 
ATOM     13  H13 UNL     1     -31.494 -40.942  54.796  1.00  0.00     0.274 HD
ATOM     14  H12 UNL     1     -31.405 -39.454  55.035  1.00  0.00     0.274 HD
ATOM     15  H11 UNL     1     -31.449 -40.443  56.442  1.00  0.00     0.274 HD
ENDBRANCH   1  12
TORSDOF 1
ENDMDL
MODEL 4
REMARK VINA RESULT: -4.368495621      1.899      3.700
REMARK  1 active torsions:
REMARK  status: ('A' for Active; 'I' for Inactive)
REMARK    1  A    between atoms: N1_1  and  C1_5 
ROOT
HETATM    1  C1  UNL     1     -35.339 -40.010  56.354  1.00  0.00     0.183 C 
HETATM    2  C2  UNL     1     -34.415 -40.105  55.195  1.00  0.00     0.033 C 
HETATM    3  C3  UNL     1     -33.964 -38.825  54.578  1.00  0.00     0.002 C 
HETATM    4  C4  UNL     1     -35.045 -38.103  53.851  1.00  0.00     0.002 C 
HETATM    5  C5  UNL     1     -35.208 -36.659  54.173  1.00  0.00     0.019 C 
HETATM    6  C6  UNL     1     -35.079 -36.293  55.621  1.00  0.00     0.113 C 
HETATM    7  N2  UNL     1     -36.062 -36.990  56.367  1.00  0.00    -0.421 N 
ATOM      8  H2  UNL     1     -36.951 -37.268  55.953  1.00  0.00     0.153 HD
HETATM    9  C7  UNL     1     -35.748 -37.282  57.718  1.00  0.00     0.113 C 
HETATM   10  C8  UNL     1     -34.597 -38.175  57.961  1.00  0.00     0.021 C 
HETATM   11  C9  UNL     1     -34.753 -39.604  57.640  1.00  0.00     0.034 C 
ENDROOT
BRANCH   1  12
HETATM   12  N1  UNL     1     -35.746 -41.430  56.550  1.00  0.00    -0.075 N 
ATOM     13  H13 UNL     1     -36.712 -41.564  56.851  1.00  0.00     0.274 HD
ATOM     14  H12 UNL     1     -35.835 -41.975  55.692  1.00  0.00     0.274 HD
ATOM     15  H11 UNL     1     -35.040 -41.768  57.204  1.00  0.00     0.274 HD
ENDBRANCH   1  12
TORSDOF 1
ENDMDL
MODEL 5
REMARK VINA RESULT: -4.353800531      1.958      3.505
REMARK  1 active torsions:
REMARK  status: ('A' for Active; 'I' for Inactive)
REMARK    1  A    between atoms: N1_1  and  C1_5 
ROOT
HETATM    1  C1  UNL     1     -35.234 -40.936  56.433  1.00  0.00     0.183 C 
HETATM    2  C2  UNL     1     -34.378 -39.806  56.876  1.00  0.00     0.033 C 
HETATM    3  C3  UNL     1     -33.368 -39.297  55.905  1.00  0.00     0.002 C 
HETATM    4  C4  UNL     1     -32.249 -40.248  55.658  1.00  0.00     0.002 C 
HETATM    5  C5  UNL     1     -31.919 -40.524  54.233  1.00  0.00     0.019 C 
HETATM    6  C6  UNL     1     -33.089 -40.686  53.310  1.00  0.00     0.113 C 
HETATM    7  N2  UNL     1     -33.891 -41.765  53.759  1.00  0.00    -0.421 N 
ATOM      8  H2  UNL     1     -33.493 -42.548  54.278  1.00  0.00     0.153 HD
HETATM    9  C7  UNL     1     -35.273 -41.701  53.453  1.00  0.00     0.113 C 
HETATM   10  C8  UNL     1     -36.039 -40.583  54.040  1.00  0.00     0.021 C 
HETATM   11  C9  UNL     1     -36.314 -40.621  55.486  1.00  0.00     0.034 C 
ENDROOT
BRANCH   1  12
HETATM   12  N1  UNL     1     -35.930 -41.317  57.695  1.00  0.00    -0.075 N 
ATOM     13  H13 UNL     1     -36.406 -42.220  57.669  1.00  0.00     0.274 HD
ATOM     14  H12 UNL     1     -35.313 -41.555  58.472  1.00  0.00     0.274 HD
ATOM     15  H11 UNL     1     -36.538 -40.514  57.857  1.00  0.00     0.274 HD
ENDBRANCH   1  12
TORSDOF 1
ENDMDL
