MODEL 1
REMARK VINA RESULT: -5.228919725      0.000      0.000
REMARK  1 active torsions:
REMARK  status: ('A' for Active; 'I' for Inactive)
REMARK    1  A    between atoms: C1_2  and  C2_4 
ROOT
HETATM    1  C2  UNL     1     -34.797  33.613  54.096  1.00  0.00     0.049 C 
HETATM    2  C3  UNL     1     -33.473  33.633  53.450  1.00  0.00     0.020 C 
HETATM    3  C4  UNL     1     -32.506  34.640  53.919  1.00  0.00     0.002 C 
HETATM    4  C5  UNL     1     -32.844  35.374  55.155  1.00  0.00     0.005 C 
HETATM    5  C6  UNL     1     -34.347  35.472  55.394  1.00  0.00    -0.013 C 
HETATM    6  C7  UNL     1     -35.025  35.941  54.121  1.00  0.00     0.006 C 
HETATM    7  C8  UNL     1     -35.727  34.717  53.568  1.00  0.00     0.021 C 
HETATM    8  C9  UNL     1     -34.780  34.008  55.563  1.00  0.00     0.025 C 
ENDROOT
BRANCH   1   9
HETATM    9  C1  UNL     1     -35.462  32.317  53.874  1.00  0.00     0.181 C 
HETATM   10  O1  UNL     1     -36.487  31.942  54.489  1.00  0.00    -0.647 OA
HETATM   11  O2  UNL     1     -34.927  31.461  52.936  1.00  0.00    -0.647 OA
ENDBRANCH   1   9
TORSDOF 1
ENDMDL
MODEL 2
REMARK VINA RESULT: -5.151356714      2.084      2.606
REMARK  1 active torsions:
REMARK  status: ('A' for Active; 'I' for Inactive)
REMARK    1  A    between atoms: C1_2  and  C2_4 
ROOT
HETATM    1  C2  UNL     1     -34.316  34.469  55.494  1.00  0.00     0.049 C 
HETATM    2  C3  UNL     1     -34.421  33.406  54.479  1.00  0.00     0.020 C 
HETATM    3  C4  UNL     1     -33.537  33.503  53.305  1.00  0.00     0.002 C 
HETATM    4  C5  UNL     1     -32.454  34.506  53.356  1.00  0.00     0.005 C 
HETATM    5  C6  UNL     1     -32.783  35.686  54.266  1.00  0.00    -0.013 C 
HETATM    6  C7  UNL     1     -34.168  36.203  53.931  1.00  0.00     0.006 C 
HETATM    7  C8  UNL     1     -35.050  35.754  55.079  1.00  0.00     0.021 C 
HETATM    8  C9  UNL     1     -32.918  35.042  55.654  1.00  0.00     0.025 C 
ENDROOT
BRANCH   1   9
HETATM    9  C1  UNL     1     -34.884  34.017  56.777  1.00  0.00     0.181 C 
HETATM   10  O1  UNL     1     -36.002  34.377  57.212  1.00  0.00    -0.647 OA
HETATM   11  O2  UNL     1     -34.145  33.148  57.549  1.00  0.00    -0.647 OA
ENDBRANCH   1   9
TORSDOF 1
ENDMDL
MODEL 3
REMARK VINA RESULT: -5.129184252      1.553      2.698
REMARK  1 active torsions:
REMARK  status: ('A' for Active; 'I' for Inactive)
REMARK    1  A    between atoms: C1_2  and  C2_4 
ROOT
HETATM    1  C2  UNL     1     -34.749  34.853  54.069  1.00  0.00     0.049 C 
HETATM    2  C3  UNL     1     -35.900  35.064  53.174  1.00  0.00     0.020 C 
HETATM    3  C4  UNL     1     -36.465  36.422  53.107  1.00  0.00     0.002 C 
HETATM    4  C5  UNL     1     -35.689  37.508  53.739  1.00  0.00     0.005 C 
HETATM    5  C6  UNL     1     -34.806  37.016  54.882  1.00  0.00    -0.013 C 
HETATM    6  C7  UNL     1     -35.629  36.144  55.809  1.00  0.00     0.006 C 
HETATM    7  C8  UNL     1     -35.164  34.726  55.543  1.00  0.00     0.021 C 
HETATM    8  C9  UNL     1     -33.826  36.055  54.190  1.00  0.00     0.025 C 
ENDROOT
BRANCH   1   9
HETATM    9  C1  UNL     1     -34.021  33.627  53.696  1.00  0.00     0.181 C 
HETATM   10  O1  UNL     1     -34.553  32.496  53.614  1.00  0.00    -0.647 OA
HETATM   11  O2  UNL     1     -32.675  33.724  53.423  1.00  0.00    -0.647 OA
ENDBRANCH   1   9
TORSDOF 1
ENDMDL
MODEL 4
REMARK VINA RESULT: -5.061500227     10.119     11.427
REMARK  1 active torsions:
REMARK  status: ('A' for Active; 'I' for Inactive)
REMARK    1  A    between atoms: C1_2  and  C2_4 
ROOT
HETATM    1  C2  UNL     1     -43.519  29.001  50.017  1.00  0.00     0.049 C 
HETATM    2  C3  UNL     1     -43.692  27.723  50.729  1.00  0.00     0.020 C 
HETATM    3  C4  UNL     1     -42.672  26.683  50.511  1.00  0.00     0.002 C 
HETATM    4  C5  UNL     1     -41.440  27.086  49.803  1.00  0.00     0.005 C 
HETATM    5  C6  UNL     1     -41.657  28.268  48.863  1.00  0.00    -0.013 C 
HETATM    6  C7  UNL     1     -42.876  28.003  48.002  1.00  0.00     0.006 C 
HETATM    7  C8  UNL     1     -43.955  28.918  48.545  1.00  0.00     0.021 C 
HETATM    8  C9  UNL     1     -42.070  29.406  49.807  1.00  0.00     0.025 C 
ENDROOT
BRANCH   1   9
HETATM    9  C1  UNL     1     -44.309  30.064  50.664  1.00  0.00     0.181 C 
HETATM   10  O1  UNL     1     -43.837  31.170  51.016  1.00  0.00    -0.647 OA
HETATM   11  O2  UNL     1     -45.646  29.834  50.898  1.00  0.00    -0.647 OA
ENDBRANCH   1   9
TORSDOF 1
ENDMDL
MODEL 5
REMARK VINA RESULT: -5.057329645      2.659      3.630
REMARK  1 active torsions:
REMARK  status: ('A' for Active; 'I' for Inactive)
REMARK    1  A    between atoms: C1_2  and  C2_4 
ROOT
HETATM    1  C2  UNL     1     -34.816  35.576  55.309  1.00  0.00     0.049 C 
HETATM    2  C3  UNL     1     -33.349  35.682  55.400  1.00  0.00     0.020 C 
HETATM    3  C4  UNL     1     -32.552  34.757  54.578  1.00  0.00     0.002 C 
HETATM    4  C5  UNL     1     -33.271  33.975  53.552  1.00  0.00     0.005 C 
HETATM    5  C6  UNL     1     -34.737  33.742  53.905  1.00  0.00    -0.013 C 
HETATM    6  C7  UNL     1     -34.833  33.237  55.331  1.00  0.00     0.006 C 
HETATM    7  C8  UNL     1     -35.373  34.403  56.133  1.00  0.00     0.021 C 
HETATM    8  C9  UNL     1     -35.327  35.160  53.940  1.00  0.00     0.025 C 
ENDROOT
BRANCH   1   9
HETATM    9  C1  UNL     1     -35.455  36.812  55.792  1.00  0.00     0.181 C 
HETATM   10  O1  UNL     1     -36.486  36.835  56.504  1.00  0.00    -0.647 OA
HETATM   11  O2  UNL     1     -34.891  38.019  55.443  1.00  0.00    -0.647 OA
ENDBRANCH   1   9
TORSDOF 1
ENDMDL
