MODEL 1
REMARK VINA RESULT: -7.664436922      0.000      0.000
REMARK  5 active torsions:
REMARK  status: ('A' for Active; 'I' for Inactive)
REMARK    1  A    between atoms: C2_2  and  C3_3 
REMARK    2  A    between atoms: C3_3  and  N1_4 
REMARK    3  A    between atoms: C10_15  and  C12_17 
REMARK    4  A    between atoms: C12_17  and  C13_18 
REMARK    5  A    between atoms: N4_22  and  O1_24 
ROOT
HETATM    1  N1  UNL     1      26.096  -4.358  15.164  1.00  0.00    -0.276 NA
HETATM    2  C4  UNL     1      27.241  -3.752  15.772  1.00  0.00     0.155 C 
HETATM    3  C5  UNL     1      28.220  -3.190  14.822  1.00  0.00     0.049 A 
HETATM    4  C6  UNL     1      28.114  -3.439  13.494  1.00  0.00     0.037 A 
HETATM    5  N2  UNL     1      29.128  -2.803  12.893  1.00  0.00    -0.335 N 
ATOM      6  H2  UNL     1      29.312  -2.806  11.890  1.00  0.00     0.168 HD
HETATM    7  C7  UNL     1      29.865  -2.164  13.810  1.00  0.00     0.178 A 
HETATM    8  S1  UNL     1      31.207  -1.251  13.582  1.00  0.00    -0.040 SA
HETATM    9  N3  UNL     1      29.282  -2.417  15.017  1.00  0.00    -0.329 N 
HETATM   10  C8  UNL     1      29.811  -1.879  16.275  1.00  0.00     0.158 C 
HETATM   11  C9  UNL     1      27.030  -4.276  12.934  1.00  0.00     0.084 C 
HETATM   12  C10 UNL     1      26.414  -5.156  14.040  1.00  0.00     0.027 C 
HETATM   13  C11 UNL     1      27.556  -6.087  14.455  1.00  0.00     0.033 C 
ENDROOT
BRANCH   1  14
HETATM   14  C3  UNL     1      25.032  -3.449  15.063  1.00  0.00     0.087 C 
BRANCH  14  15
HETATM   15  C2  UNL     1      24.205  -3.457  16.297  1.00  0.00     0.038 C 
HETATM   16  C1  UNL     1      22.723  -3.717  16.235  1.00  0.00     0.071 C 
HETATM   17  N4  UNL     1      24.675  -3.267  17.479  1.00  0.00    -0.273 N 
ATOM     18  H4  UNL     1      25.677  -3.088  17.550  1.00  0.00     0.194 HD
BRANCH  17  19
HETATM   19  O1  UNL     1      23.979  -3.281  18.632  1.00  0.00    -0.290 OA
ATOM     20  H1  UNL     1      24.291  -3.003  19.486  1.00  0.00     0.244 HD
ENDBRANCH  17  19
ENDBRANCH  14  15
ENDBRANCH   1  14
BRANCH  12  21
HETATM   21  C12 UNL     1      25.303  -5.886  13.382  1.00  0.00     0.143 C 
BRANCH  21  22
HETATM   22  C13 UNL     1      24.591  -6.946  14.125  1.00  0.00     0.389 C 
HETATM   23  F1  UNL     1      25.414  -8.005  14.540  1.00  0.00    -0.171 F 
HETATM   24  F2  UNL     1      23.738  -6.561  15.107  1.00  0.00    -0.171 F 
HETATM   25  F3  UNL     1      23.761  -7.601  13.182  1.00  0.00    -0.171 F 
ENDBRANCH  21  22
ENDBRANCH  12  21
TORSDOF 5
ENDMDL
MODEL 2
REMARK VINA RESULT: -7.511789638      2.427      3.775
REMARK  5 active torsions:
REMARK  status: ('A' for Active; 'I' for Inactive)
REMARK    1  A    between atoms: C2_2  and  C3_3 
REMARK    2  A    between atoms: C3_3  and  N1_4 
REMARK    3  A    between atoms: C10_15  and  C12_17 
REMARK    4  A    between atoms: C12_17  and  C13_18 
REMARK    5  A    between atoms: N4_22  and  O1_24 
ROOT
HETATM    1  N1  UNL     1      26.361  -3.582  14.674  1.00  0.00    -0.276 NA
HETATM    2  C4  UNL     1      27.473  -2.904  14.078  1.00  0.00     0.155 C 
HETATM    3  C5  UNL     1      28.426  -2.318  15.040  1.00  0.00     0.049 A 
HETATM    4  C6  UNL     1      28.126  -2.258  16.361  1.00  0.00     0.037 A 
HETATM    5  N2  UNL     1      29.168  -1.685  16.975  1.00  0.00    -0.335 N 
ATOM      6  H2  UNL     1      29.234  -1.504  17.977  1.00  0.00     0.168 HD
HETATM    7  C7  UNL     1      30.112  -1.383  16.074  1.00  0.00     0.178 A 
HETATM    8  S1  UNL     1      31.567  -0.672  16.322  1.00  0.00    -0.040 SA
HETATM    9  N3  UNL     1      29.630  -1.787  14.863  1.00  0.00    -0.329 N 
HETATM   10  C8  UNL     1      30.390  -1.622  13.620  1.00  0.00     0.158 C 
HETATM   11  C9  UNL     1      26.846  -2.769  16.900  1.00  0.00     0.084 C 
HETATM   12  C10 UNL     1      25.803  -2.885  15.771  1.00  0.00     0.027 C 
HETATM   13  C11 UNL     1      25.576  -1.440  15.322  1.00  0.00     0.033 C 
ENDROOT
BRANCH   1  14
HETATM   14  C3  UNL     1      26.616  -4.955  14.808  1.00  0.00     0.087 C 
BRANCH  14  15
HETATM   15  C2  UNL     1      25.611  -5.759  14.067  1.00  0.00     0.038 C 
HETATM   16  C1  UNL     1      25.442  -5.609  12.578  1.00  0.00     0.071 C 
HETATM   17  N4  UNL     1      24.842  -6.632  14.616  1.00  0.00    -0.273 N 
ATOM     18  H4  UNL     1      24.935  -6.755  15.624  1.00  0.00     0.194 HD
BRANCH  17  19
HETATM   19  O1  UNL     1      23.928  -7.402  13.995  1.00  0.00    -0.290 OA
ATOM     20  H1  UNL     1      23.224  -7.890  14.406  1.00  0.00     0.244 HD
ENDBRANCH  17  19
ENDBRANCH  14  15
ENDBRANCH   1  14
BRANCH  12  21
HETATM   21  C12 UNL     1      24.600  -3.471  16.412  1.00  0.00     0.143 C 
BRANCH  21  22
HETATM   22  C13 UNL     1      23.292  -3.364  15.734  1.00  0.00     0.389 C 
HETATM   23  F1  UNL     1      22.467  -2.347  16.241  1.00  0.00    -0.171 F 
HETATM   24  F2  UNL     1      23.283  -3.386  14.378  1.00  0.00    -0.171 F 
HETATM   25  F3  UNL     1      22.559  -4.518  16.105  1.00  0.00    -0.171 F 
ENDBRANCH  21  22
ENDBRANCH  12  21
TORSDOF 5
ENDMDL
MODEL 3
REMARK VINA RESULT: -7.354022528      3.907      5.902
REMARK  5 active torsions:
REMARK  status: ('A' for Active; 'I' for Inactive)
REMARK    1  A    between atoms: C2_2  and  C3_3 
REMARK    2  A    between atoms: C3_3  and  N1_4 
REMARK    3  A    between atoms: C10_15  and  C12_17 
REMARK    4  A    between atoms: C12_17  and  C13_18 
REMARK    5  A    between atoms: N4_22  and  O1_24 
ROOT
HETATM    1  N1  UNL     1      28.998  -2.322  14.861  1.00  0.00    -0.276 NA
HETATM    2  C4  UNL     1      27.693  -1.917  14.436  1.00  0.00     0.155 C 
HETATM    3  C5  UNL     1      26.580  -2.613  15.112  1.00  0.00     0.049 A 
HETATM    4  C6  UNL     1      26.817  -3.689  15.902  1.00  0.00     0.037 A 
HETATM    5  N2  UNL     1      25.633  -4.100  16.371  1.00  0.00    -0.335 N 
ATOM      6  H2  UNL     1      25.491  -4.894  16.995  1.00  0.00     0.168 HD
HETATM    7  C7  UNL     1      24.661  -3.311  15.896  1.00  0.00     0.178 A 
HETATM    8  S1  UNL     1      23.049  -3.400  16.174  1.00  0.00    -0.040 SA
HETATM    9  N3  UNL     1      25.273  -2.381  15.106  1.00  0.00    -0.329 N 
HETATM   10  C8  UNL     1      24.526  -1.333  14.403  1.00  0.00     0.158 C 
HETATM   11  C9  UNL     1      28.182  -4.216  16.125  1.00  0.00     0.084 C 
HETATM   12  C10 UNL     1      29.130  -3.721  15.014  1.00  0.00     0.027 C 
HETATM   13  C11 UNL     1      28.582  -4.369  13.739  1.00  0.00     0.033 C 
ENDROOT
BRANCH   1  14
HETATM   14  C3  UNL     1      29.483  -1.485  15.879  1.00  0.00     0.087 C 
BRANCH  14  15
HETATM   15  C2  UNL     1      30.316  -0.391  15.318  1.00  0.00     0.038 C 
HETATM   16  C1  UNL     1      31.305  -0.656  14.215  1.00  0.00     0.071 C 
HETATM   17  N4  UNL     1      30.247   0.834  15.705  1.00  0.00    -0.273 N 
ATOM     18  H4  UNL     1      29.585   1.043  16.453  1.00  0.00     0.194 HD
BRANCH  17  19
HETATM   19  O1  UNL     1      30.961   1.870  15.224  1.00  0.00    -0.290 OA
ATOM     20  H1  UNL     1      30.961   2.762  15.554  1.00  0.00     0.244 HD
ENDBRANCH  17  19
ENDBRANCH  14  15
ENDBRANCH   1  14
BRANCH  12  21
HETATM   21  C12 UNL     1      30.467  -4.247  15.382  1.00  0.00     0.143 C 
BRANCH  21  22
HETATM   22  C13 UNL     1      30.567  -5.527  16.113  1.00  0.00     0.389 C 
HETATM   23  F1  UNL     1      30.578  -5.388  17.510  1.00  0.00    -0.171 F 
HETATM   24  F2  UNL     1      29.759  -6.542  15.718  1.00  0.00    -0.171 F 
HETATM   25  F3  UNL     1      31.876  -6.015  15.879  1.00  0.00    -0.171 F 
ENDBRANCH  21  22
ENDBRANCH  12  21
TORSDOF 5
ENDMDL
MODEL 4
REMARK VINA RESULT: -7.307643294      4.816      6.170
REMARK  5 active torsions:
REMARK  status: ('A' for Active; 'I' for Inactive)
REMARK    1  A    between atoms: C2_2  and  C3_3 
REMARK    2  A    between atoms: C3_3  and  N1_4 
REMARK    3  A    between atoms: C10_15  and  C12_17 
REMARK    4  A    between atoms: C12_17  and  C13_18 
REMARK    5  A    between atoms: N4_22  and  O1_24 
ROOT
HETATM    1  N1  UNL     1      28.986  -1.868  14.747  1.00  0.00    -0.276 NA
HETATM    2  C4  UNL     1      28.836  -2.512  13.478  1.00  0.00     0.155 C 
HETATM    3  C5  UNL     1      29.760  -3.639  13.244  1.00  0.00     0.049 A 
HETATM    4  C6  UNL     1      30.793  -3.872  14.092  1.00  0.00     0.037 A 
HETATM    5  N2  UNL     1      31.446  -4.945  13.630  1.00  0.00    -0.335 N 
ATOM      6  H2  UNL     1      32.272  -5.361  14.060  1.00  0.00     0.168 HD
HETATM    7  C7  UNL     1      30.851  -5.389  12.516  1.00  0.00     0.178 A 
HETATM    8  S1  UNL     1      31.268  -6.667  11.579  1.00  0.00    -0.040 SA
HETATM    9  N3  UNL     1      29.793  -4.558  12.287  1.00  0.00    -0.329 N 
HETATM   10  C8  UNL     1      28.892  -4.729  11.143  1.00  0.00     0.158 C 
HETATM   11  C9  UNL     1      31.045  -3.022  15.277  1.00  0.00     0.084 C 
HETATM   12  C10 UNL     1      30.336  -1.662  15.115  1.00  0.00     0.027 C 
HETATM   13  C11 UNL     1      31.038  -1.015  13.919  1.00  0.00     0.033 C 
ENDROOT
BRANCH   1  14
HETATM   14  C3  UNL     1      28.103  -2.404  15.697  1.00  0.00     0.087 C 
BRANCH  14  15
HETATM   15  C2  UNL     1      26.702  -2.004  15.409  1.00  0.00     0.038 C 
HETATM   16  C1  UNL     1      25.636  -3.039  15.160  1.00  0.00     0.071 C 
HETATM   17  N4  UNL     1      26.296  -0.784  15.367  1.00  0.00    -0.273 N 
ATOM     18  H4  UNL     1      26.998  -0.062  15.531  1.00  0.00     0.194 HD
BRANCH  17  19
HETATM   19  O1  UNL     1      25.039  -0.363  15.130  1.00  0.00    -0.290 OA
ATOM     20  H1  UNL     1      24.481  -0.623  14.407  1.00  0.00     0.244 HD
ENDBRANCH  17  19
ENDBRANCH  14  15
ENDBRANCH   1  14
BRANCH  12  21
HETATM   21  C12 UNL     1      30.597  -0.935  16.382  1.00  0.00     0.143 C 
BRANCH  21  22
HETATM   22  C13 UNL     1      31.064   0.466  16.331  1.00  0.00     0.389 C 
HETATM   23  F1  UNL     1      32.437   0.601  16.069  1.00  0.00    -0.171 F 
HETATM   24  F2  UNL     1      30.328   1.349  15.611  1.00  0.00    -0.171 F 
HETATM   25  F3  UNL     1      30.992   0.955  17.658  1.00  0.00    -0.171 F 
ENDBRANCH  21  22
ENDBRANCH  12  21
TORSDOF 5
ENDMDL
MODEL 5
REMARK VINA RESULT: -7.282906065      3.869      5.638
REMARK  5 active torsions:
REMARK  status: ('A' for Active; 'I' for Inactive)
REMARK    1  A    between atoms: C2_2  and  C3_3 
REMARK    2  A    between atoms: C3_3  and  N1_4 
REMARK    3  A    between atoms: C10_15  and  C12_17 
REMARK    4  A    between atoms: C12_17  and  C13_18 
REMARK    5  A    between atoms: N4_22  and  O1_24 
ROOT
HETATM    1  N1  UNL     1      28.700  -3.176  14.104  1.00  0.00    -0.276 NA
HETATM    2  C4  UNL     1      27.489  -2.425  13.971  1.00  0.00     0.155 C 
HETATM    3  C5  UNL     1      26.313  -3.027  14.631  1.00  0.00     0.049 A 
HETATM    4  C6  UNL     1      26.368  -4.289  15.122  1.00  0.00     0.037 A 
HETATM    5  N2  UNL     1      25.170  -4.556  15.656  1.00  0.00    -0.335 N 
ATOM      6  H2  UNL     1      24.908  -5.433  16.104  1.00  0.00     0.168 HD
HETATM    7  C7  UNL     1      24.367  -3.494  15.511  1.00  0.00     0.178 A 
HETATM    8  S1  UNL     1      22.810  -3.322  15.993  1.00  0.00    -0.040 SA
HETATM    9  N3  UNL     1      25.100  -2.542  14.865  1.00  0.00    -0.329 N 
HETATM   10  C8  UNL     1      24.552  -1.224  14.525  1.00  0.00     0.158 C 
HETATM   11  C9  UNL     1      27.590  -5.119  15.024  1.00  0.00     0.084 C 
HETATM   12  C10 UNL     1      28.519  -4.567  13.924  1.00  0.00     0.027 C 
HETATM   13  C11 UNL     1      27.721  -4.757  12.631  1.00  0.00     0.033 C 
ENDROOT
BRANCH   1  14
HETATM   14  C3  UNL     1      29.456  -2.732  15.199  1.00  0.00     0.087 C 
BRANCH  14  15
HETATM   15  C2  UNL     1      29.968  -1.356  14.971  1.00  0.00     0.038 C 
HETATM   16  C1  UNL     1      30.920  -1.060  13.843  1.00  0.00     0.071 C 
HETATM   17  N4  UNL     1      29.635  -0.338  15.684  1.00  0.00    -0.273 N 
ATOM     18  H4  UNL     1      28.991  -0.511  16.457  1.00  0.00     0.194 HD
BRANCH  17  19
HETATM   19  O1  UNL     1      30.050   0.932  15.515  1.00  0.00    -0.290 OA
ATOM     20  H1  UNL     1      29.544   1.651  15.157  1.00  0.00     0.244 HD
ENDBRANCH  17  19
ENDBRANCH  14  15
ENDBRANCH   1  14
BRANCH  12  21
HETATM   21  C12 UNL     1      29.728  -5.426  13.970  1.00  0.00     0.143 C 
BRANCH  21  22
HETATM   22  C13 UNL     1      30.633  -5.468  12.803  1.00  0.00     0.389 C 
HETATM   23  F1  UNL     1      30.581  -6.672  12.082  1.00  0.00    -0.171 F 
HETATM   24  F2  UNL     1      30.646  -4.392  11.978  1.00  0.00    -0.171 F 
HETATM   25  F3  UNL     1      31.949  -5.521  13.324  1.00  0.00    -0.171 F 
ENDBRANCH  21  22
ENDBRANCH  12  21
TORSDOF 5
ENDMDL
