MODEL 1
REMARK VINA RESULT: -7.691870266      0.000      0.000
REMARK  5 active torsions:
REMARK  status: ('A' for Active; 'I' for Inactive)
REMARK    1  A    between atoms: C3_4  and  O1_5 
REMARK    2  A    between atoms: N2_7  and  C4_8 
REMARK    3  A    between atoms: C4_8  and  C5_9 
REMARK    4  A    between atoms: C5_9  and  C7_11 
REMARK    5  A    between atoms: C5_9  and  C13_17 
ROOT
HETATM    1  C4  UNL     1      27.994  -2.573  16.362  1.00  0.00     0.106 C 
ENDROOT
BRANCH   1   2
HETATM    2  N2  UNL     1      26.607  -2.820  16.242  1.00  0.00    -0.139 N 
HETATM    3  C3  UNL     1      25.836  -3.615  16.978  1.00  0.00     0.178 A 
HETATM    4  C2  UNL     1      24.556  -3.531  16.462  1.00  0.00     0.165 A 
HETATM    5  N1  UNL     1      24.535  -2.703  15.434  1.00  0.00    -0.193 N 
HETATM    6  C1  UNL     1      23.376  -2.330  14.600  1.00  0.00     0.175 C 
HETATM    7  C14 UNL     1      25.794  -2.262  15.295  1.00  0.00     0.685 A 
HETATM    8  N3  UNL     1      26.100  -1.408  14.378  1.00  0.00    -0.234 N 
ATOM      9  H32 UNL     1      25.494  -0.991  13.671  1.00  0.00     0.174 HD
ATOM     10  H31 UNL     1      27.058  -1.073  14.272  1.00  0.00     0.174 HD
BRANCH   3  11
HETATM   11  O1  UNL     1      26.175  -4.427  18.104  1.00  0.00    -0.344 OA
ATOM     12  H1  UNL     1      26.831  -4.180  18.745  1.00  0.00     0.219 HD
ENDBRANCH   3  11
ENDBRANCH   1   2
BRANCH   1  13
HETATM   13  C5  UNL     1      29.028  -3.363  15.673  1.00  0.00     0.058 C 
HETATM   14  C6  UNL     1      28.497  -4.207  14.528  1.00  0.00     0.027 C 
BRANCH  13  15
HETATM   15  C7  UNL     1      30.017  -2.335  15.125  1.00  0.00     0.004 C 
HETATM   16  C8  UNL     1      30.519  -2.587  13.750  1.00  0.00     0.006 C 
HETATM   17  C9  UNL     1      31.178  -1.301  13.229  1.00  0.00     0.000 C 
HETATM   18  C10 UNL     1      31.691  -0.418  14.312  1.00  0.00     0.000 C 
HETATM   19  C11 UNL     1      30.634   0.011  15.290  1.00  0.00     0.000 C 
HETATM   20  C12 UNL     1      29.445  -0.938  15.064  1.00  0.00     0.006 C 
ENDBRANCH  13  15
BRANCH  13  21
HETATM   21  C13 UNL     1      29.768  -4.293  16.571  1.00  0.00     0.267 C 
HETATM   22  F1  UNL     1      29.102  -4.546  17.774  1.00  0.00    -0.206 F 
HETATM   23 CL1  UNL     1      29.800  -5.972  15.871  1.00  0.00    -0.065 Cl
HETATM   24 CL2  UNL     1      31.416  -3.787  16.942  1.00  0.00    -0.065 Cl
ENDBRANCH  13  21
ENDBRANCH   1  13
TORSDOF 5
ENDMDL
MODEL 2
REMARK VINA RESULT: -7.530258370      0.779      1.039
REMARK  5 active torsions:
REMARK  status: ('A' for Active; 'I' for Inactive)
REMARK    1  A    between atoms: C3_4  and  O1_5 
REMARK    2  A    between atoms: N2_7  and  C4_8 
REMARK    3  A    between atoms: C4_8  and  C5_9 
REMARK    4  A    between atoms: C5_9  and  C7_11 
REMARK    5  A    between atoms: C5_9  and  C13_17 
ROOT
HETATM    1  C4  UNL     1      28.023  -2.569  16.379  1.00  0.00     0.106 C 
ENDROOT
BRANCH   1   2
HETATM    2  N2  UNL     1      26.640  -2.812  16.223  1.00  0.00    -0.139 N 
HETATM    3  C3  UNL     1      25.846  -3.599  16.942  1.00  0.00     0.178 A 
HETATM    4  C2  UNL     1      24.580  -3.514  16.391  1.00  0.00     0.165 A 
HETATM    5  N1  UNL     1      24.590  -2.691  15.358  1.00  0.00    -0.193 N 
HETATM    6  C1  UNL     1      23.456  -2.319  14.490  1.00  0.00     0.175 C 
HETATM    7  C14 UNL     1      25.855  -2.256  15.251  1.00  0.00     0.685 A 
HETATM    8  N3  UNL     1      26.189  -1.408  14.337  1.00  0.00    -0.234 N 
ATOM      9  H32 UNL     1      25.604  -0.993  13.612  1.00  0.00     0.174 HD
ATOM     10  H31 UNL     1      27.150  -1.078  14.256  1.00  0.00     0.174 HD
BRANCH   3  11
HETATM   11  O1  UNL     1      26.151  -4.407  18.081  1.00  0.00    -0.344 OA
ATOM     12  H1  UNL     1      25.797  -5.279  18.211  1.00  0.00     0.219 HD
ENDBRANCH   3  11
ENDBRANCH   1   2
BRANCH   1  13
HETATM   13  C5  UNL     1      29.072  -3.330  15.678  1.00  0.00     0.058 C 
HETATM   14  C6  UNL     1      28.555  -4.168  14.522  1.00  0.00     0.027 C 
BRANCH  13  15
HETATM   15  C7  UNL     1      30.039  -2.274  15.142  1.00  0.00     0.004 C 
HETATM   16  C8  UNL     1      30.636  -2.559  13.812  1.00  0.00     0.006 C 
HETATM   17  C9  UNL     1      31.260  -1.263  13.272  1.00  0.00     0.000 C 
HETATM   18  C10 UNL     1      31.661  -0.309  14.341  1.00  0.00     0.000 C 
HETATM   19  C11 UNL     1      30.526   0.106  15.234  1.00  0.00     0.000 C 
HETATM   20  C12 UNL     1      29.402  -0.914  14.983  1.00  0.00     0.006 C 
ENDBRANCH  13  15
BRANCH  13  21
HETATM   21  C13 UNL     1      29.831  -4.257  16.561  1.00  0.00     0.267 C 
HETATM   22  F1  UNL     1      31.138  -3.832  16.815  1.00  0.00    -0.206 F 
HETATM   23 CL1  UNL     1      29.158  -4.230  18.251  1.00  0.00    -0.065 Cl
HETATM   24 CL2  UNL     1      29.889  -5.924  15.986  1.00  0.00    -0.065 Cl
ENDBRANCH  13  21
ENDBRANCH   1  13
TORSDOF 5
ENDMDL
MODEL 3
REMARK VINA RESULT: -7.343720930      2.135      3.228
REMARK  5 active torsions:
REMARK  status: ('A' for Active; 'I' for Inactive)
REMARK    1  A    between atoms: C3_4  and  O1_5 
REMARK    2  A    between atoms: N2_7  and  C4_8 
REMARK    3  A    between atoms: C4_8  and  C5_9 
REMARK    4  A    between atoms: C5_9  and  C7_11 
REMARK    5  A    between atoms: C5_9  and  C13_17 
ROOT
HETATM    1  C4  UNL     1      27.716  -4.543  15.549  1.00  0.00     0.106 C 
ENDROOT
BRANCH   1   2
HETATM    2  N2  UNL     1      26.400  -4.073  15.764  1.00  0.00    -0.139 N 
HETATM    3  C3  UNL     1      25.692  -4.064  16.890  1.00  0.00     0.178 A 
HETATM    4  C2  UNL     1      24.458  -3.518  16.591  1.00  0.00     0.165 A 
HETATM    5  N1  UNL     1      24.404  -3.195  15.311  1.00  0.00    -0.193 N 
HETATM    6  C1  UNL     1      23.274  -2.588  14.582  1.00  0.00     0.175 C 
HETATM    7  C14 UNL     1      25.597  -3.533  14.799  1.00  0.00     0.685 A 
HETATM    8  N3  UNL     1      25.870  -3.318  13.556  1.00  0.00    -0.234 N 
ATOM      9  H32 UNL     1      25.271  -2.915  12.836  1.00  0.00     0.174 HD
ATOM     10  H31 UNL     1      26.776  -3.575  13.167  1.00  0.00     0.174 HD
BRANCH   3  11
HETATM   11  O1  UNL     1      26.057  -4.505  18.200  1.00  0.00    -0.344 OA
ATOM     12  H1  UNL     1      26.924  -4.826  18.419  1.00  0.00     0.219 HD
ENDBRANCH   3  11
ENDBRANCH   1   2
BRANCH   1  13
HETATM   13  C5  UNL     1      28.924  -3.801  15.947  1.00  0.00     0.058 C 
HETATM   14  C6  UNL     1      29.151  -3.755  17.448  1.00  0.00     0.027 C 
BRANCH  13  15
HETATM   15  C7  UNL     1      30.084  -4.545  15.286  1.00  0.00     0.004 C 
HETATM   16  C8  UNL     1      31.143  -5.041  16.202  1.00  0.00     0.006 C 
HETATM   17  C9  UNL     1      32.004  -6.062  15.443  1.00  0.00     0.000 C 
HETATM   18  C10 UNL     1      32.002  -5.859  13.969  1.00  0.00     0.000 C 
HETATM   19  C11 UNL     1      30.632  -5.917  13.354  1.00  0.00     0.000 C 
HETATM   20  C12 UNL     1      29.643  -5.773  14.524  1.00  0.00     0.006 C 
ENDBRANCH  13  15
BRANCH  13  21
HETATM   21  C13 UNL     1      28.943  -2.389  15.477  1.00  0.00     0.267 C 
HETATM   22  F1  UNL     1      27.848  -1.643  15.923  1.00  0.00    -0.206 F 
HETATM   23 CL1  UNL     1      30.296  -1.465  16.268  1.00  0.00    -0.065 Cl
HETATM   24 CL2  UNL     1      29.062  -2.209  13.726  1.00  0.00    -0.065 Cl
ENDBRANCH  13  21
ENDBRANCH   1  13
TORSDOF 5
ENDMDL
MODEL 4
REMARK VINA RESULT: -7.317173042      1.735      2.085
REMARK  5 active torsions:
REMARK  status: ('A' for Active; 'I' for Inactive)
REMARK    1  A    between atoms: C3_4  and  O1_5 
REMARK    2  A    between atoms: N2_7  and  C4_8 
REMARK    3  A    between atoms: C4_8  and  C5_9 
REMARK    4  A    between atoms: C5_9  and  C7_11 
REMARK    5  A    between atoms: C5_9  and  C13_17 
ROOT
HETATM    1  C4  UNL     1      28.492  -1.781  15.016  1.00  0.00     0.106 C 
ENDROOT
BRANCH   1   2
HETATM    2  N2  UNL     1      27.525  -2.615  15.623  1.00  0.00    -0.139 N 
HETATM    3  C3  UNL     1      27.297  -2.819  16.917  1.00  0.00     0.178 A 
HETATM    4  C2  UNL     1      26.260  -3.729  17.008  1.00  0.00     0.165 A 
HETATM    5  N1  UNL     1      25.855  -4.078  15.800  1.00  0.00    -0.193 N 
HETATM    6  C1  UNL     1      24.778  -5.022  15.448  1.00  0.00     0.175 C 
HETATM    7  C14 UNL     1      26.630  -3.394  14.945  1.00  0.00     0.685 A 
HETATM    8  N3  UNL     1      26.464  -3.501  13.670  1.00  0.00    -0.234 N 
ATOM      9  H32 UNL     1      25.796  -4.081  13.163  1.00  0.00     0.174 HD
ATOM     10  H31 UNL     1      27.053  -2.981  13.020  1.00  0.00     0.174 HD
BRANCH   3  11
HETATM   11  O1  UNL     1      27.941  -2.249  18.058  1.00  0.00    -0.344 OA
ATOM     12  H1  UNL     1      28.868  -2.041  18.083  1.00  0.00     0.219 HD
ENDBRANCH   3  11
ENDBRANCH   1   2
BRANCH   1  13
HETATM   13  C5  UNL     1      29.797  -2.261  14.531  1.00  0.00     0.058 C 
HETATM   14  C6  UNL     1      29.877  -2.409  13.022  1.00  0.00     0.027 C 
BRANCH  13  15
HETATM   15  C7  UNL     1      30.804  -1.205  14.987  1.00  0.00     0.004 C 
HETATM   16  C8  UNL     1      31.629  -0.590  13.915  1.00  0.00     0.006 C 
HETATM   17  C9  UNL     1      32.290   0.678  14.476  1.00  0.00     0.000 C 
HETATM   18  C10 UNL     1      32.469   0.648  15.953  1.00  0.00     0.000 C 
HETATM   19  C11 UNL     1      31.185   0.466  16.712  1.00  0.00     0.000 C 
HETATM   20  C12 UNL     1      30.157  -0.029  15.681  1.00  0.00     0.006 C 
ENDBRANCH  13  15
BRANCH  13  21
HETATM   21  C13 UNL     1      30.203  -3.574  15.104  1.00  0.00     0.267 C 
HETATM   22  F1  UNL     1      29.196  -4.541  15.035  1.00  0.00    -0.206 F 
HETATM   23 CL1  UNL     1      31.470  -4.364  14.064  1.00  0.00    -0.065 Cl
HETATM   24 CL2  UNL     1      30.784  -3.493  16.767  1.00  0.00    -0.065 Cl
ENDBRANCH  13  21
ENDBRANCH   1  13
TORSDOF 5
ENDMDL
MODEL 5
REMARK VINA RESULT: -7.166368760      3.515      4.679
REMARK  5 active torsions:
REMARK  status: ('A' for Active; 'I' for Inactive)
REMARK    1  A    between atoms: C3_4  and  O1_5 
REMARK    2  A    between atoms: N2_7  and  C4_8 
REMARK    3  A    between atoms: C4_8  and  C5_9 
REMARK    4  A    between atoms: C5_9  and  C7_11 
REMARK    5  A    between atoms: C5_9  and  C13_17 
ROOT
HETATM    1  C4  UNL     1      29.486  -5.168  14.527  1.00  0.00     0.106 C 
ENDROOT
BRANCH   1   2
HETATM    2  N2  UNL     1      28.738  -4.559  15.560  1.00  0.00    -0.139 N 
HETATM    3  C3  UNL     1      29.172  -4.002  16.687  1.00  0.00     0.178 A 
HETATM    4  C2  UNL     1      28.059  -3.558  17.377  1.00  0.00     0.165 A 
HETATM    5  N1  UNL     1      26.963  -3.832  16.693  1.00  0.00    -0.193 N 
HETATM    6  C1  UNL     1      25.568  -3.533  17.069  1.00  0.00     0.175 C 
HETATM    7  C14 UNL     1      27.376  -4.446  15.574  1.00  0.00     0.685 A 
HETATM    8  N3  UNL     1      26.530  -4.824  14.675  1.00  0.00    -0.234 N 
ATOM      9  H32 UNL     1      25.513  -4.740  14.686  1.00  0.00     0.174 HD
ATOM     10  H31 UNL     1      26.843  -5.291  13.825  1.00  0.00     0.174 HD
BRANCH   3  11
HETATM   11  O1  UNL     1      30.508  -3.841  17.169  1.00  0.00    -0.344 OA
ATOM     12  H1  UNL     1      30.889  -2.996  17.375  1.00  0.00     0.219 HD
ENDBRANCH   3  11
ENDBRANCH   1   2
BRANCH   1  13
HETATM   13  C5  UNL     1      30.137  -4.420  13.438  1.00  0.00     0.058 C 
HETATM   14  C6  UNL     1      30.788  -3.123  13.885  1.00  0.00     0.027 C 
BRANCH  13  15
HETATM   15  C7  UNL     1      31.211  -5.361  12.894  1.00  0.00     0.004 C 
HETATM   16  C8  UNL     1      32.296  -5.723  13.842  1.00  0.00     0.006 C 
HETATM   17  C9  UNL     1      33.051  -6.935  13.277  1.00  0.00     0.000 C 
HETATM   18  C10 UNL     1      32.969  -7.046  11.795  1.00  0.00     0.000 C 
HETATM   19  C11 UNL     1      31.562  -7.141  11.276  1.00  0.00     0.000 C 
HETATM   20  C12 UNL     1      30.657  -6.689  12.434  1.00  0.00     0.006 C 
ENDBRANCH  13  15
BRANCH  13  21
HETATM   21  C13 UNL     1      29.216  -4.064  12.323  1.00  0.00     0.267 C 
HETATM   22  F1  UNL     1      28.158  -4.965  12.171  1.00  0.00    -0.206 F 
HETATM   23 CL1  UNL     1      28.285  -2.551  12.716  1.00  0.00    -0.065 Cl
HETATM   24 CL2  UNL     1      30.010  -3.869  10.760  1.00  0.00    -0.065 Cl
ENDBRANCH  13  21
ENDBRANCH   1  13
TORSDOF 5
ENDMDL
