MODEL 1
REMARK VINA RESULT: -8.525692998      0.000      0.000
REMARK  3 active torsions:
REMARK  status: ('A' for Active; 'I' for Inactive)
REMARK    1  A    between atoms: C6_10  and  O3_11 
REMARK    2  A    between atoms: O3_11  and  C7_12 
REMARK    3  A    between atoms: C7_12  and  C8_13 
ROOT
HETATM    1  O1  UNL     1      35.236  -7.189  16.365  1.00  0.00    -0.251 OA
HETATM    2  C1  UNL     1      34.556  -7.159  15.278  1.00  0.00     0.332 A 
HETATM    3  O2  UNL     1      34.978  -7.501  14.116  1.00  0.00    -0.268 OA
HETATM    4  C2  UNL     1      34.231  -7.436  13.101  1.00  0.00     0.101 A 
HETATM    5  C3  UNL     1      34.581  -7.783  11.776  1.00  0.00     0.064 A 
HETATM    6  C4  UNL     1      33.685  -7.673  10.744  1.00  0.00     0.061 A 
HETATM    7 CL1  UNL     1      34.179  -8.119   9.118  1.00  0.00    -0.082 Cl
HETATM    8  C5  UNL     1      32.401  -7.218  10.956  1.00  0.00     0.090 A 
HETATM    9 CL2  UNL     1      31.223  -7.062   9.669  1.00  0.00    -0.079 Cl
HETATM   10  C6  UNL     1      32.017  -6.869  12.234  1.00  0.00     0.112 A 
HETATM   11  C12 UNL     1      32.949  -6.989  13.274  1.00  0.00     0.079 A 
HETATM   12  S1  UNL     1      32.945  -6.691  14.963  1.00  0.00    -0.016 SA
ENDROOT
BRANCH  10  13
HETATM   13  O3  UNL     1      30.777  -6.407  12.571  1.00  0.00    -0.343 OA
BRANCH  13  14
HETATM   14  C7  UNL     1      30.379  -5.060  12.542  1.00  0.00     0.219 C 
BRANCH  14  15
HETATM   15  C8  UNL     1      30.036  -4.588  13.904  1.00  0.00     0.026 A 
HETATM   16  C9  UNL     1      30.611  -3.514  14.542  1.00  0.00     0.075 A 
HETATM   17  C10 UNL     1      30.038  -3.370  15.810  1.00  0.00     0.191 A 
HETATM   18  F1  UNL     1      30.383  -2.406  16.692  1.00  0.00    -0.186 F 
HETATM   19  N1  UNL     1      29.126  -4.354  15.930  1.00  0.00    -0.309 N 
HETATM   20  C11 UNL     1      29.115  -5.090  14.796  1.00  0.00     0.199 A 
ATOM     21  H1  UNL     1      28.537  -4.518  16.747  1.00  0.00     0.170 HD
HETATM   22  F2  UNL     1      28.307  -6.148  14.611  1.00  0.00    -0.185 F 
ENDBRANCH  14  15
ENDBRANCH  13  14
ENDBRANCH  10  13
TORSDOF 3
ENDMDL
MODEL 2
REMARK VINA RESULT: -8.379793468      1.172      1.528
REMARK  3 active torsions:
REMARK  status: ('A' for Active; 'I' for Inactive)
REMARK    1  A    between atoms: C6_10  and  O3_11 
REMARK    2  A    between atoms: O3_11  and  C7_12 
REMARK    3  A    between atoms: C7_12  and  C8_13 
ROOT
HETATM    1  O1  UNL     1      35.393  -7.234  16.336  1.00  0.00    -0.251 OA
HETATM    2  C1  UNL     1      34.647  -7.146  15.295  1.00  0.00     0.332 A 
HETATM    3  O2  UNL     1      34.969  -7.503  14.106  1.00  0.00    -0.268 OA
HETATM    4  C2  UNL     1      34.164  -7.377  13.142  1.00  0.00     0.101 A 
HETATM    5  C3  UNL     1      34.403  -7.732  11.795  1.00  0.00     0.064 A 
HETATM    6  C4  UNL     1      33.451  -7.550  10.825  1.00  0.00     0.061 A 
HETATM    7 CL1  UNL     1      33.807  -8.012   9.168  1.00  0.00    -0.082 Cl
HETATM    8  C5  UNL     1      32.218  -7.011  11.123  1.00  0.00     0.090 A 
HETATM    9 CL2  UNL     1      30.973  -6.761   9.917  1.00  0.00    -0.079 Cl
HETATM   10  C6  UNL     1      31.942  -6.651  12.426  1.00  0.00     0.112 A 
HETATM   11  C12 UNL     1      32.930  -6.845  13.402  1.00  0.00     0.079 A 
HETATM   12  S1  UNL     1      33.055  -6.566  15.089  1.00  0.00    -0.016 SA
ENDROOT
BRANCH  10  13
HETATM   13  O3  UNL     1      30.762  -6.109  12.846  1.00  0.00    -0.343 OA
BRANCH  13  14
HETATM   14  C7  UNL     1      30.330  -4.799  12.578  1.00  0.00     0.219 C 
BRANCH  14  15
HETATM   15  C8  UNL     1      30.335  -3.985  13.816  1.00  0.00     0.026 A 
HETATM   16  C9  UNL     1      30.036  -4.450  15.075  1.00  0.00     0.075 A 
HETATM   17  C10 UNL     1      30.143  -3.399  15.992  1.00  0.00     0.191 A 
HETATM   18  F1  UNL     1      29.914  -3.524  17.317  1.00  0.00    -0.186 F 
HETATM   19  N1  UNL     1      30.505  -2.311  15.284  1.00  0.00    -0.309 N 
HETATM   20  C11 UNL     1      30.622  -2.648  13.980  1.00  0.00     0.199 A 
ATOM     21  H1  UNL     1      30.664  -1.380  15.671  1.00  0.00     0.170 HD
HETATM   22  F2  UNL     1      30.971  -1.775  13.021  1.00  0.00    -0.185 F 
ENDBRANCH  14  15
ENDBRANCH  13  14
ENDBRANCH  10  13
TORSDOF 3
ENDMDL
MODEL 3
REMARK VINA RESULT: -8.322976556      1.724      2.349
REMARK  3 active torsions:
REMARK  status: ('A' for Active; 'I' for Inactive)
REMARK    1  A    between atoms: C6_10  and  O3_11 
REMARK    2  A    between atoms: O3_11  and  C7_12 
REMARK    3  A    between atoms: C7_12  and  C8_13 
ROOT
HETATM    1  O1  UNL     1      34.909  -7.564  15.779  1.00  0.00    -0.251 OA
HETATM    2  C1  UNL     1      33.988  -7.176  14.974  1.00  0.00     0.332 A 
HETATM    3  O2  UNL     1      33.908  -7.463  13.727  1.00  0.00    -0.268 OA
HETATM    4  C2  UNL     1      32.960  -7.031  13.013  1.00  0.00     0.101 A 
HETATM    5  C3  UNL     1      32.766  -7.278  11.635  1.00  0.00     0.064 A 
HETATM    6  C4  UNL     1      31.696  -6.756  10.956  1.00  0.00     0.061 A 
HETATM    7 CL1  UNL     1      31.508  -7.097   9.243  1.00  0.00    -0.082 Cl
HETATM    8  C5  UNL     1      30.760  -5.967  11.591  1.00  0.00     0.090 A 
HETATM    9 CL2  UNL     1      29.377  -5.281  10.765  1.00  0.00    -0.079 Cl
HETATM   10  C6  UNL     1      30.910  -5.702  12.936  1.00  0.00     0.112 A 
HETATM   11  C12 UNL     1      32.013  -6.245  13.611  1.00  0.00     0.079 A 
HETATM   12  S1  UNL     1      32.608  -6.201  15.218  1.00  0.00    -0.016 SA
ENDROOT
BRANCH  10  13
HETATM   13  O3  UNL     1      30.054  -4.938  13.676  1.00  0.00    -0.343 OA
BRANCH  13  14
HETATM   14  C7  UNL     1      30.189  -3.557  13.900  1.00  0.00     0.219 C 
BRANCH  14  15
HETATM   15  C8  UNL     1      29.682  -3.196  15.245  1.00  0.00     0.026 A 
HETATM   16  C9  UNL     1      29.372  -4.089  16.244  1.00  0.00     0.075 A 
HETATM   17  C10 UNL     1      28.926  -3.386  17.368  1.00  0.00     0.191 A 
HETATM   18  F1  UNL     1      28.542  -3.971  18.524  1.00  0.00    -0.186 F 
HETATM   19  N1  UNL     1      28.968  -2.079  17.042  1.00  0.00    -0.309 N 
HETATM   20  C11 UNL     1      29.419  -1.952  15.774  1.00  0.00     0.199 A 
ATOM     21  H1  UNL     1      28.701  -1.308  17.655  1.00  0.00     0.170 HD
HETATM   22  F2  UNL     1      29.572  -0.767  15.160  1.00  0.00    -0.185 F 
ENDBRANCH  14  15
ENDBRANCH  13  14
ENDBRANCH  10  13
TORSDOF 3
ENDMDL
MODEL 4
REMARK VINA RESULT: -8.165043536      0.889      1.683
REMARK  3 active torsions:
REMARK  status: ('A' for Active; 'I' for Inactive)
REMARK    1  A    between atoms: C6_10  and  O3_11 
REMARK    2  A    between atoms: O3_11  and  C7_12 
REMARK    3  A    between atoms: C7_12  and  C8_13 
ROOT
HETATM    1  O1  UNL     1      35.079  -6.947  16.328  1.00  0.00    -0.251 OA
HETATM    2  C1  UNL     1      34.429  -6.982  15.222  1.00  0.00     0.332 A 
HETATM    3  O2  UNL     1      34.899  -7.345  14.085  1.00  0.00    -0.268 OA
HETATM    4  C2  UNL     1      34.179  -7.345  13.048  1.00  0.00     0.101 A 
HETATM    5  C3  UNL     1      34.580  -7.721  11.746  1.00  0.00     0.064 A 
HETATM    6  C4  UNL     1      33.711  -7.683  10.687  1.00  0.00     0.061 A 
HETATM    7 CL1  UNL     1      34.269  -8.163   9.092  1.00  0.00    -0.082 Cl
HETATM    8  C5  UNL     1      32.404  -7.275  10.847  1.00  0.00     0.090 A 
HETATM    9 CL2  UNL     1      31.258  -7.211   9.525  1.00  0.00    -0.079 Cl
HETATM   10  C6  UNL     1      31.969  -6.900  12.101  1.00  0.00     0.112 A 
HETATM   11  C12 UNL     1      32.875  -6.946  13.170  1.00  0.00     0.079 A 
HETATM   12  S1  UNL     1      32.810  -6.592  14.847  1.00  0.00    -0.016 SA
ENDROOT
BRANCH  10  13
HETATM   13  O3  UNL     1      30.703  -6.478  12.389  1.00  0.00    -0.343 OA
BRANCH  13  14
HETATM   14  C7  UNL     1      30.281  -5.139  12.414  1.00  0.00     0.219 C 
BRANCH  14  15
HETATM   15  C8  UNL     1      29.423  -4.885  13.595  1.00  0.00     0.026 A 
HETATM   16  C9  UNL     1      28.116  -5.291  13.731  1.00  0.00     0.075 A 
HETATM   17  C10 UNL     1      27.630  -4.872  14.974  1.00  0.00     0.191 A 
HETATM   18  F1  UNL     1      26.377  -5.113  15.417  1.00  0.00    -0.186 F 
HETATM   19  N1  UNL     1      28.642  -4.218  15.578  1.00  0.00    -0.309 N 
HETATM   20  C11 UNL     1      29.720  -4.219  14.763  1.00  0.00     0.199 A 
ATOM     21  H1  UNL     1      28.600  -3.790  16.504  1.00  0.00     0.170 HD
HETATM   22  F2  UNL     1      30.890  -3.642  15.086  1.00  0.00    -0.185 F 
ENDBRANCH  14  15
ENDBRANCH  13  14
ENDBRANCH  10  13
TORSDOF 3
ENDMDL
MODEL 5
REMARK VINA RESULT: -8.073051556      3.489      4.448
REMARK  3 active torsions:
REMARK  status: ('A' for Active; 'I' for Inactive)
REMARK    1  A    between atoms: C6_10  and  O3_11 
REMARK    2  A    between atoms: O3_11  and  C7_12 
REMARK    3  A    between atoms: C7_12  and  C8_13 
ROOT
HETATM    1  O1  UNL     1      31.119  -7.088   7.972  1.00  0.00    -0.251 OA
HETATM    2  C1  UNL     1      31.087  -6.733   9.204  1.00  0.00     0.332 A 
HETATM    3  O2  UNL     1      31.852  -7.176  10.135  1.00  0.00    -0.268 OA
HETATM    4  C2  UNL     1      31.744  -6.764  11.323  1.00  0.00     0.101 A 
HETATM    5  C3  UNL     1      32.523  -7.175  12.429  1.00  0.00     0.064 A 
HETATM    6  C4  UNL     1      32.319  -6.660  13.683  1.00  0.00     0.061 A 
HETATM    7 CL1  UNL     1      33.320  -7.210  15.017  1.00  0.00    -0.082 Cl
HETATM    8  C5  UNL     1      31.342  -5.716  13.919  1.00  0.00     0.090 A 
HETATM    9 CL2  UNL     1      31.047  -5.029  15.503  1.00  0.00    -0.079 Cl
HETATM   10  C6  UNL     1      30.559  -5.286  12.868  1.00  0.00     0.112 A 
HETATM   11  C12 UNL     1      30.784  -5.827  11.595  1.00  0.00     0.079 A 
HETATM   12  S1  UNL     1      30.098  -5.619  10.037  1.00  0.00    -0.016 SA
ENDROOT
BRANCH  10  13
HETATM   13  O3  UNL     1      29.562  -4.359  12.974  1.00  0.00    -0.343 OA
BRANCH  13  14
HETATM   14  C7  UNL     1      29.596  -3.067  12.422  1.00  0.00     0.219 C 
BRANCH  14  15
HETATM   15  C8  UNL     1      30.099  -2.089  13.415  1.00  0.00     0.026 A 
HETATM   16  C9  UNL     1      31.139  -1.213  13.212  1.00  0.00     0.075 A 
HETATM   17  C10 UNL     1      31.330  -0.447  14.367  1.00  0.00     0.191 A 
HETATM   18  F1  UNL     1      32.275   0.508  14.495  1.00  0.00    -0.186 F 
HETATM   19  N1  UNL     1      30.407  -0.864  15.257  1.00  0.00    -0.309 N 
HETATM   20  C11 UNL     1      29.664  -1.847  14.699  1.00  0.00     0.199 A 
ATOM     21  H1  UNL     1      30.289  -0.498  16.201  1.00  0.00     0.170 HD
HETATM   22  F2  UNL     1      28.660  -2.467  15.340  1.00  0.00    -0.185 F 
ENDBRANCH  14  15
ENDBRANCH  13  14
ENDBRANCH  10  13
TORSDOF 3
ENDMDL
