MODEL 1
REMARK VINA RESULT: -4.333934105      0.000      0.000
REMARK  1 active torsions:
REMARK  status: ('A' for Active; 'I' for Inactive)
REMARK    1  A    between atoms: C1_2  and  C2_4 
ROOT
HETATM    1  C2  UNL     1      25.214  -2.892  15.657  1.00  0.00     0.133 A 
HETATM    2  N2  UNL     1      25.404  -1.609  15.417  1.00  0.00    -0.315 N 
ATOM      3  H2  UNL     1      25.630  -0.977  16.184  1.00  0.00     0.175 HD
HETATM    4  S1  UNL     1      25.274  -1.021  13.877  1.00  0.00     0.026 SA
HETATM    5  S2  UNL     1      24.833  -2.868  13.102  1.00  0.00    -0.021 SA
HETATM    6  C3  UNL     1      24.911  -3.707  14.597  1.00  0.00     0.112 A 
HETATM    7  S3  UNL     1      24.646  -5.352  14.753  1.00  0.00    -0.069 SA
ENDROOT
BRANCH   1   8
HETATM    8  C1  UNL     1      25.337  -3.401  17.057  1.00  0.00     0.284 C 
HETATM    9  N1  UNL     1      24.284  -3.258  17.965  1.00  0.00    -0.056 NA
HETATM   10  O1  UNL     1      26.387  -3.962  17.434  1.00  0.00    -0.269 OA
ENDBRANCH   1   8
TORSDOF 1
ENDMDL
MODEL 2
REMARK VINA RESULT: -4.285748267      1.626      1.626
REMARK  1 active torsions:
REMARK  status: ('A' for Active; 'I' for Inactive)
REMARK    1  A    between atoms: C1_2  and  C2_4 
ROOT
HETATM    1  C2  UNL     1      25.381  -2.732  15.341  1.00  0.00     0.133 A 
HETATM    2  N2  UNL     1      24.258  -2.044  15.273  1.00  0.00    -0.315 N 
ATOM      3  H2  UNL     1      23.843  -1.663  16.124  1.00  0.00     0.175 HD
HETATM    4  S1  UNL     1      23.519  -1.796  13.816  1.00  0.00     0.026 SA
HETATM    5  S2  UNL     1      24.959  -2.840  12.794  1.00  0.00    -0.021 SA
HETATM    6  C3  UNL     1      25.904  -3.227  14.174  1.00  0.00     0.112 A 
HETATM    7  S3  UNL     1      27.320  -4.116  14.109  1.00  0.00    -0.069 SA
ENDROOT
BRANCH   1   8
HETATM    8  C1  UNL     1      26.031  -2.943  16.670  1.00  0.00     0.284 C 
HETATM    9  N1  UNL     1      25.768  -4.091  17.422  1.00  0.00    -0.056 NA
HETATM   10  O1  UNL     1      26.822  -2.091  17.127  1.00  0.00    -0.269 OA
ENDBRANCH   1   8
TORSDOF 1
ENDMDL
MODEL 3
REMARK VINA RESULT: -4.285267595      1.449      1.539
REMARK  1 active torsions:
REMARK  status: ('A' for Active; 'I' for Inactive)
REMARK    1  A    between atoms: C1_2  and  C2_4 
ROOT
HETATM    1  C2  UNL     1      25.613  -2.943  15.523  1.00  0.00     0.133 A 
HETATM    2  N2  UNL     1      24.804  -1.901  15.557  1.00  0.00    -0.315 N 
ATOM      3  H2  UNL     1      24.655  -1.402  16.434  1.00  0.00     0.175 HD
HETATM    4  S1  UNL     1      24.031  -1.401  14.184  1.00  0.00     0.026 SA
HETATM    5  S2  UNL     1      24.879  -2.883  13.047  1.00  0.00    -0.021 SA
HETATM    6  C3  UNL     1      25.785  -3.585  14.324  1.00  0.00     0.112 A 
HETATM    7  S3  UNL     1      26.778  -4.918  14.134  1.00  0.00    -0.069 SA
ENDROOT
BRANCH   1   8
HETATM    8  C1  UNL     1      26.301  -3.376  16.778  1.00  0.00     0.284 C 
HETATM    9  N1  UNL     1      27.538  -2.836  17.138  1.00  0.00    -0.056 NA
HETATM   10  O1  UNL     1      25.774  -4.229  17.522  1.00  0.00    -0.269 OA
ENDBRANCH   1   8
TORSDOF 1
ENDMDL
MODEL 4
REMARK VINA RESULT: -4.274119536      1.532      2.468
REMARK  1 active torsions:
REMARK  status: ('A' for Active; 'I' for Inactive)
REMARK    1  A    between atoms: C1_2  and  C2_4 
ROOT
HETATM    1  C2  UNL     1      25.652  -3.911  15.427  1.00  0.00     0.133 A 
HETATM    2  N2  UNL     1      25.442  -5.133  14.976  1.00  0.00    -0.315 N 
ATOM      3  H2  UNL     1      25.369  -5.911  15.632  1.00  0.00     0.175 HD
HETATM    4  S1  UNL     1      25.297  -5.409  13.353  1.00  0.00     0.026 SA
HETATM    5  S2  UNL     1      25.562  -3.428  12.891  1.00  0.00    -0.021 SA
HETATM    6  C3  UNL     1      25.745  -2.895  14.512  1.00  0.00     0.112 A 
HETATM    7  S3  UNL     1      26.009  -1.299  14.940  1.00  0.00    -0.069 SA
ENDROOT
BRANCH   1   8
HETATM    8  C1  UNL     1      25.780  -3.687  16.900  1.00  0.00     0.284 C 
HETATM    9  N1  UNL     1      24.665  -3.352  17.672  1.00  0.00    -0.056 NA
HETATM   10  O1  UNL     1      26.891  -3.798  17.460  1.00  0.00    -0.269 OA
ENDBRANCH   1   8
TORSDOF 1
ENDMDL
MODEL 5
REMARK VINA RESULT: -4.212259373      1.885      2.689
REMARK  1 active torsions:
REMARK  status: ('A' for Active; 'I' for Inactive)
REMARK    1  A    between atoms: C1_2  and  C2_4 
ROOT
HETATM    1  C2  UNL     1      25.744  -3.860  15.353  1.00  0.00     0.133 A 
HETATM    2  N2  UNL     1      25.611  -5.079  14.867  1.00  0.00    -0.315 N 
ATOM      3  H2  UNL     1      25.653  -5.883  15.493  1.00  0.00     0.175 HD
HETATM    4  S1  UNL     1      25.377  -5.309  13.246  1.00  0.00     0.026 SA
HETATM    5  S2  UNL     1      25.433  -3.298  12.851  1.00  0.00    -0.021 SA
HETATM    6  C3  UNL     1      25.682  -2.808  14.476  1.00  0.00     0.112 A 
HETATM    7  S3  UNL     1      25.834  -1.211  14.952  1.00  0.00    -0.069 SA
ENDROOT
BRANCH   1   8
HETATM    8  C1  UNL     1      25.954  -3.677  16.822  1.00  0.00     0.284 C 
HETATM    9  N1  UNL     1      27.243  -3.631  17.360  1.00  0.00    -0.056 NA
HETATM   10  O1  UNL     1      24.975  -3.562  17.589  1.00  0.00    -0.269 OA
ENDBRANCH   1   8
TORSDOF 1
ENDMDL
