MODEL 1
REMARK VINA RESULT: -4.843487882      0.000      0.000
REMARK  2 active torsions:
REMARK  status: ('A' for Active; 'I' for Inactive)
REMARK    1  A    between atoms: C1_2  and  O2_4 
REMARK    2  A    between atoms: O2_4  and  N2_5 
ROOT
HETATM    1  N2  UNL     1      26.774  -3.388  16.679  1.00  0.00    -0.253 N 
ATOM      2  H2  UNL     1      27.316  -2.638  17.107  1.00  0.00     0.195 HD
HETATM    3  C2  UNL     1      27.035  -3.745  15.491  1.00  0.00     0.087 C 
HETATM    4  S1  UNL     1      28.321  -3.043  14.426  1.00  0.00    -0.113 SA
HETATM    5  C3  UNL     1      28.243  -4.308  13.089  1.00  0.00     0.082 C 
HETATM    6  C4  UNL     1      27.564  -5.437  13.858  1.00  0.00     0.037 C 
HETATM    7  C5  UNL     1      26.428  -4.789  14.611  1.00  0.00     0.141 C 
HETATM    8 CL1  UNL     1      25.286  -4.101  13.453  1.00  0.00    -0.118 Cl
ENDROOT
BRANCH   1   9
HETATM    9  O2  UNL     1      25.777  -3.990  17.397  1.00  0.00    -0.183 OA
BRANCH   9  10
HETATM   10  C1  UNL     1      24.521  -3.458  17.569  1.00  0.00     0.394 C 
HETATM   11  N1  UNL     1      23.520  -3.523  16.559  1.00  0.00    -0.031 NA
HETATM   12  O1  UNL     1      24.246  -2.898  18.641  1.00  0.00    -0.240 OA
ENDBRANCH   9  10
ENDBRANCH   1   9
TORSDOF 2
ENDMDL
MODEL 2
REMARK VINA RESULT: -4.793729374      3.158      3.826
REMARK  2 active torsions:
REMARK  status: ('A' for Active; 'I' for Inactive)
REMARK    1  A    between atoms: C1_2  and  O2_4 
REMARK    2  A    between atoms: O2_4  and  N2_5 
ROOT
HETATM    1  N2  UNL     1      27.025  -1.670  16.558  1.00  0.00    -0.253 N 
ATOM      2  H2  UNL     1      27.344  -0.833  16.070  1.00  0.00     0.195 HD
HETATM    3  C2  UNL     1      25.988  -2.273  16.147  1.00  0.00     0.087 C 
HETATM    4  S1  UNL     1      24.969  -1.793  14.727  1.00  0.00    -0.113 SA
HETATM    5  C3  UNL     1      23.944  -3.321  14.640  1.00  0.00     0.082 C 
HETATM    6  C4  UNL     1      24.848  -4.269  15.423  1.00  0.00     0.037 C 
HETATM    7  C5  UNL     1      25.287  -3.496  16.641  1.00  0.00     0.141 C 
HETATM    8 CL1  UNL     1      23.870  -3.102  17.617  1.00  0.00    -0.118 Cl
ENDROOT
BRANCH   1   9
HETATM    9  O2  UNL     1      27.722  -2.121  17.645  1.00  0.00    -0.183 OA
BRANCH   9  10
HETATM   10  C1  UNL     1      28.634  -3.149  17.604  1.00  0.00     0.394 C 
HETATM   11  N1  UNL     1      29.466  -3.386  16.473  1.00  0.00    -0.031 NA
HETATM   12  O1  UNL     1      28.738  -3.901  18.585  1.00  0.00    -0.240 OA
ENDBRANCH   9  10
ENDBRANCH   1   9
TORSDOF 2
ENDMDL
MODEL 3
REMARK VINA RESULT: -4.750021734      2.946      3.708
REMARK  2 active torsions:
REMARK  status: ('A' for Active; 'I' for Inactive)
REMARK    1  A    between atoms: C1_2  and  O2_4 
REMARK    2  A    between atoms: O2_4  and  N2_5 
ROOT
HETATM    1  N2  UNL     1      26.700  -1.475  16.337  1.00  0.00    -0.253 N 
ATOM      2  H2  UNL     1      27.031  -0.539  16.101  1.00  0.00     0.195 HD
HETATM    3  C2  UNL     1      25.792  -2.011  15.632  1.00  0.00     0.087 C 
HETATM    4  S1  UNL     1      24.986  -1.268  14.190  1.00  0.00    -0.113 SA
HETATM    5  C3  UNL     1      24.106  -2.777  13.604  1.00  0.00     0.082 C 
HETATM    6  C4  UNL     1      24.939  -3.840  14.315  1.00  0.00     0.037 C 
HETATM    7  C5  UNL     1      25.114  -3.339  15.727  1.00  0.00     0.141 C 
HETATM    8 CL1  UNL     1      23.531  -3.224  16.500  1.00  0.00    -0.118 Cl
ENDROOT
BRANCH   1   9
HETATM    9  O2  UNL     1      27.242  -2.128  17.409  1.00  0.00    -0.183 OA
BRANCH   9  10
HETATM   10  C1  UNL     1      28.394  -2.878  17.354  1.00  0.00     0.394 C 
HETATM   11  N1  UNL     1      28.754  -3.799  18.377  1.00  0.00    -0.031 NA
HETATM   12  O1  UNL     1      29.149  -2.749  16.379  1.00  0.00    -0.240 OA
ENDBRANCH   9  10
ENDBRANCH   1   9
TORSDOF 2
ENDMDL
MODEL 4
REMARK VINA RESULT: -4.746057302      6.268      7.662
REMARK  2 active torsions:
REMARK  status: ('A' for Active; 'I' for Inactive)
REMARK    1  A    between atoms: C1_2  and  O2_4 
REMARK    2  A    between atoms: O2_4  and  N2_5 
ROOT
HETATM    1  N2  UNL     1      32.613  -5.747  15.736  1.00  0.00    -0.253 N 
ATOM      2  H2  UNL     1      32.925  -6.151  16.619  1.00  0.00     0.195 HD
HETATM    3  C2  UNL     1      31.591  -4.997  15.722  1.00  0.00     0.087 C 
HETATM    4  S1  UNL     1      30.582  -4.543  17.157  1.00  0.00    -0.113 SA
HETATM    5  C3  UNL     1      29.582  -3.229  16.342  1.00  0.00     0.082 C 
HETATM    6  C4  UNL     1      30.491  -2.928  15.154  1.00  0.00     0.037 C 
HETATM    7  C5  UNL     1      30.904  -4.274  14.610  1.00  0.00     0.141 C 
HETATM    8 CL1  UNL     1      29.468  -5.133  14.045  1.00  0.00    -0.118 Cl
ENDROOT
BRANCH   1   9
HETATM    9  O2  UNL     1      33.304  -6.024  14.589  1.00  0.00    -0.183 OA
BRANCH   9  10
HETATM   10  C1  UNL     1      34.555  -6.593  14.560  1.00  0.00     0.394 C 
HETATM   11  N1  UNL     1      35.392  -6.655  15.710  1.00  0.00    -0.031 NA
HETATM   12  O1  UNL     1      34.974  -7.071  13.495  1.00  0.00    -0.240 OA
ENDBRANCH   9  10
ENDBRANCH   1   9
TORSDOF 2
ENDMDL
MODEL 5
REMARK VINA RESULT: -4.741612915      2.437      3.297
REMARK  2 active torsions:
REMARK  status: ('A' for Active; 'I' for Inactive)
REMARK    1  A    between atoms: C1_2  and  O2_4 
REMARK    2  A    between atoms: O2_4  and  N2_5 
ROOT
HETATM    1  N2  UNL     1      26.190  -3.725  16.619  1.00  0.00    -0.253 N 
ATOM      2  H2  UNL     1      25.474  -3.964  17.306  1.00  0.00     0.195 HD
HETATM    3  C2  UNL     1      26.129  -4.226  15.456  1.00  0.00     0.087 C 
HETATM    4  S1  UNL     1      24.857  -5.367  14.853  1.00  0.00    -0.113 SA
HETATM    5  C3  UNL     1      25.313  -5.313  13.068  1.00  0.00     0.082 C 
HETATM    6  C4  UNL     1      26.104  -4.008  13.056  1.00  0.00     0.037 C 
HETATM    7  C5  UNL     1      27.011  -4.072  14.260  1.00  0.00     0.141 C 
HETATM    8 CL1  UNL     1      28.123  -5.431  14.073  1.00  0.00    -0.118 Cl
ENDROOT
BRANCH   1   9
HETATM    9  O2  UNL     1      27.198  -2.870  16.970  1.00  0.00    -0.183 OA
BRANCH   9  10
HETATM   10  C1  UNL     1      28.431  -3.276  17.422  1.00  0.00     0.394 C 
HETATM   11  N1  UNL     1      29.598  -3.215  16.610  1.00  0.00    -0.031 NA
HETATM   12  O1  UNL     1      28.535  -3.712  18.578  1.00  0.00    -0.240 OA
ENDBRANCH   9  10
ENDBRANCH   1   9
TORSDOF 2
ENDMDL
