MODEL 1
REMARK VINA RESULT: -6.177938437      0.000      0.000
REMARK  13 active torsions:
REMARK  status: ('A' for Active; 'I' for Inactive)
REMARK    1  A    between atoms: O1_2  and  N1_3 
REMARK       I    between atoms: N1_3  and  C2_5 
REMARK    2  A    between atoms: C2_5  and  C3_7 
REMARK    3  A    between atoms: C3_7  and  O3_8 
REMARK    4  A    between atoms: O3_8  and  C4_9 
REMARK    5  A    between atoms: C4_9  and  N2_10 
REMARK    6  A    between atoms: C4_9  and  C5_14 
REMARK    7  A    between atoms: C5_14  and  C6_15 
REMARK    8  A    between atoms: C6_15  and  C7_16 
REMARK    9  A    between atoms: C7_16  and  N3_17 
REMARK   10  A    between atoms: C7_16  and  C17_31 
REMARK       I    between atoms: N3_17  and  C8_19 
REMARK   11  A    between atoms: C8_19  and  C9_21 
REMARK   12  A    between atoms: C12_24  and  O5_25 
REMARK   13  A    between atoms: C15_28  and  O6_29 
ROOT
HETATM    1  C7  UNL     1     -26.955  13.402 -16.139  1.00  0.00     0.129 C 
ENDROOT
BRANCH   1   2
HETATM    2  C6  UNL     1     -27.103  13.381 -17.645  1.00  0.00     0.035 C 
BRANCH   2   3
HETATM    3  C5  UNL     1     -28.508  13.214 -18.108  1.00  0.00     0.063 C 
BRANCH   3   4
HETATM    4  C4  UNL     1     -29.196  14.519 -18.493  1.00  0.00     0.318 C 
BRANCH   4   5
HETATM    5  O3  UNL     1     -28.156  15.454 -18.614  1.00  0.00    -0.350 OA
BRANCH   5   6
HETATM    6  C3  UNL     1     -28.276  16.176 -19.776  1.00  0.00     0.275 C 
BRANCH   6   7
HETATM    7  C2  UNL     1     -27.485  15.605 -20.870  1.00  0.00     0.264 C 
HETATM    8  N1  UNL     1     -26.144  15.178 -20.694  1.00  0.00    -0.234 N 
ATOM      9  H1  UNL     1     -25.720  15.275 -19.771  1.00  0.00     0.197 HD
HETATM   10  O2  UNL     1     -27.989  15.477 -22.013  1.00  0.00    -0.269 OA
BRANCH   8  11
HETATM   11  O1  UNL     1     -25.409  14.655 -21.681  1.00  0.00    -0.283 OA
HETATM   12  C1  UNL     1     -25.401  13.259 -21.600  1.00  0.00     0.237 C 
ENDBRANCH   8  11
ENDBRANCH   6   7
ENDBRANCH   5   6
ENDBRANCH   4   5
BRANCH   4  13
HETATM   13  N2  UNL     1     -30.031  14.916 -17.397  1.00  0.00    -0.053 N 
ATOM     14  H23 UNL     1     -29.542  14.895 -16.502  1.00  0.00     0.277 HD
ATOM     15  H22 UNL     1     -30.251  15.912 -17.411  1.00  0.00     0.277 HD
ATOM     16  H21 UNL     1     -30.866  14.329 -17.401  1.00  0.00     0.277 HD
ENDBRANCH   4  13
ENDBRANCH   3   4
ENDBRANCH   2   3
ENDBRANCH   1   2
BRANCH   1  17
HETATM   17  N3  UNL     1     -26.472  12.185 -15.542  1.00  0.00    -0.347 N 
HETATM   18  C8  UNL     1     -27.037  11.434 -14.527  1.00  0.00     0.255 C 
HETATM   19  O4  UNL     1     -28.150  11.851 -14.057  1.00  0.00    -0.268 OA
ATOM     20  H3  UNL     1     -25.593  11.828 -15.919  1.00  0.00     0.163 HD
BRANCH  18  21
HETATM   21  C9  UNL     1     -26.519  10.230 -13.932  1.00  0.00     0.065 A 
HETATM   22  C10 UNL     1     -27.449   9.280 -13.434  1.00  0.00     0.022 A 
HETATM   23  C11 UNL     1     -27.075   8.102 -12.853  1.00  0.00     0.038 A 
HETATM   24  C12 UNL     1     -25.763   7.773 -12.720  1.00  0.00     0.070 A 
HETATM   25  C14 UNL     1     -24.834   8.665 -13.189  1.00  0.00     0.074 A 
HETATM   26  C15 UNL     1     -25.203   9.871 -13.784  1.00  0.00     0.086 A 
BRANCH  24  27
HETATM   27  O5  UNL     1     -25.348   6.590 -12.137  1.00  0.00    -0.356 OA
HETATM   28  C13 UNL     1     -24.792   6.511 -10.846  1.00  0.00     0.210 C 
ENDBRANCH  24  27
BRANCH  26  29
HETATM   29  O6  UNL     1     -24.220  10.733 -14.239  1.00  0.00    -0.355 OA
HETATM   30  C16 UNL     1     -23.488  11.489 -13.314  1.00  0.00     0.210 C 
ENDBRANCH  26  29
ENDBRANCH  18  21
ENDBRANCH   1  17
BRANCH   1  31
HETATM   31  C17 UNL     1     -26.334  14.632 -15.626  1.00  0.00    -0.001 C 
HETATM   32  C18 UNL     1     -25.108  14.583 -14.768  1.00  0.00     0.065 C 
HETATM   33  N4  UNL     1     -26.793  15.802 -15.878  1.00  0.00    -0.404 N 
ATOM     34  H42 UNL     1     -27.628  15.835 -16.463  1.00  0.00     0.155 HD
ATOM     35  H41 UNL     1     -26.362  16.655 -15.522  1.00  0.00     0.155 HD
ENDBRANCH   1  31
TORSDOF 13
ENDMDL
MODEL 2
REMARK VINA RESULT: -5.920346226      1.797      2.998
REMARK  13 active torsions:
REMARK  status: ('A' for Active; 'I' for Inactive)
REMARK    1  A    between atoms: O1_2  and  N1_3 
REMARK       I    between atoms: N1_3  and  C2_5 
REMARK    2  A    between atoms: C2_5  and  C3_7 
REMARK    3  A    between atoms: C3_7  and  O3_8 
REMARK    4  A    between atoms: O3_8  and  C4_9 
REMARK    5  A    between atoms: C4_9  and  N2_10 
REMARK    6  A    between atoms: C4_9  and  C5_14 
REMARK    7  A    between atoms: C5_14  and  C6_15 
REMARK    8  A    between atoms: C6_15  and  C7_16 
REMARK    9  A    between atoms: C7_16  and  N3_17 
REMARK   10  A    between atoms: C7_16  and  C17_31 
REMARK       I    between atoms: N3_17  and  C8_19 
REMARK   11  A    between atoms: C8_19  and  C9_21 
REMARK   12  A    between atoms: C12_24  and  O5_25 
REMARK   13  A    between atoms: C15_28  and  O6_29 
ROOT
HETATM    1  C7  UNL     1     -27.220  13.202 -17.552  1.00  0.00     0.129 C 
ENDROOT
BRANCH   1   2
HETATM    2  C6  UNL     1     -28.506  13.873 -17.122  1.00  0.00     0.035 C 
BRANCH   2   3
HETATM    3  C5  UNL     1     -28.507  15.349 -17.316  1.00  0.00     0.063 C 
BRANCH   3   4
HETATM    4  C4  UNL     1     -29.569  15.849 -18.289  1.00  0.00     0.318 C 
BRANCH   4   5
HETATM    5  O3  UNL     1     -29.116  15.448 -19.555  1.00  0.00    -0.350 OA
BRANCH   5   6
HETATM    6  C3  UNL     1     -28.059  16.222 -19.969  1.00  0.00     0.275 C 
BRANCH   6   7
HETATM    7  C2  UNL     1     -27.346  15.628 -21.102  1.00  0.00     0.264 C 
HETATM    8  N1  UNL     1     -26.012  15.155 -20.996  1.00  0.00    -0.234 N 
ATOM      9  H1  UNL     1     -25.539  15.234 -20.096  1.00  0.00     0.197 HD
HETATM   10  O2  UNL     1     -27.911  15.521 -22.218  1.00  0.00    -0.269 OA
BRANCH   8  11
HETATM   11  O1  UNL     1     -25.347  14.610 -22.020  1.00  0.00    -0.283 OA
HETATM   12  C1  UNL     1     -25.367  13.215 -21.932  1.00  0.00     0.237 C 
ENDBRANCH   8  11
ENDBRANCH   6   7
ENDBRANCH   5   6
ENDBRANCH   4   5
BRANCH   4  13
HETATM   13  N2  UNL     1     -29.568  17.282 -18.243  1.00  0.00    -0.053 N 
ATOM     14  H23 UNL     1     -30.181  17.698 -18.945  1.00  0.00     0.277 HD
ATOM     15  H22 UNL     1     -30.038  17.650 -17.415  1.00  0.00     0.277 HD
ATOM     16  H21 UNL     1     -28.604  17.605 -18.323  1.00  0.00     0.277 HD
ENDBRANCH   4  13
ENDBRANCH   3   4
ENDBRANCH   2   3
ENDBRANCH   1   2
BRANCH   1  17
HETATM   17  N3  UNL     1     -26.528  12.464 -16.529  1.00  0.00    -0.347 N 
HETATM   18  C8  UNL     1     -25.713  12.941 -15.517  1.00  0.00     0.255 C 
HETATM   19  O4  UNL     1     -25.558  14.208 -15.456  1.00  0.00    -0.268 OA
ATOM     20  H3  UNL     1     -26.656  11.453 -16.552  1.00  0.00     0.163 HD
BRANCH  18  21
HETATM   21  C9  UNL     1     -25.014  12.177 -14.518  1.00  0.00     0.065 A 
HETATM   22  C10 UNL     1     -23.671  12.533 -14.227  1.00  0.00     0.022 A 
HETATM   23  C11 UNL     1     -22.911  11.882 -13.297  1.00  0.00     0.038 A 
HETATM   24  C12 UNL     1     -23.414  10.839 -12.588  1.00  0.00     0.070 A 
HETATM   25  C14 UNL     1     -24.708  10.464 -12.841  1.00  0.00     0.074 A 
HETATM   26  C15 UNL     1     -25.494  11.120 -13.787  1.00  0.00     0.086 A 
BRANCH  24  27
HETATM   27  O5  UNL     1     -22.674  10.157 -11.639  1.00  0.00    -0.356 OA
HETATM   28  C13 UNL     1     -22.921   8.821 -11.270  1.00  0.00     0.210 C 
ENDBRANCH  24  27
BRANCH  26  29
HETATM   29  O6  UNL     1     -26.795  10.697 -14.000  1.00  0.00    -0.355 OA
HETATM   30  C16 UNL     1     -27.169   9.404 -13.610  1.00  0.00     0.210 C 
ENDBRANCH  26  29
ENDBRANCH  18  21
ENDBRANCH   1  17
BRANCH   1  31
HETATM   31  C17 UNL     1     -27.318  12.517 -18.849  1.00  0.00    -0.001 C 
HETATM   32  C18 UNL     1     -26.182  11.701 -19.385  1.00  0.00     0.065 C 
HETATM   33  N4  UNL     1     -28.364  12.571 -19.588  1.00  0.00    -0.404 N 
ATOM     34  H42 UNL     1     -29.138  13.126 -19.223  1.00  0.00     0.155 HD
ATOM     35  H41 UNL     1     -28.432  12.095 -20.488  1.00  0.00     0.155 HD
ENDBRANCH   1  31
TORSDOF 13
ENDMDL
MODEL 3
REMARK VINA RESULT: -5.820899032      3.005      8.570
REMARK  13 active torsions:
REMARK  status: ('A' for Active; 'I' for Inactive)
REMARK    1  A    between atoms: O1_2  and  N1_3 
REMARK       I    between atoms: N1_3  and  C2_5 
REMARK    2  A    between atoms: C2_5  and  C3_7 
REMARK    3  A    between atoms: C3_7  and  O3_8 
REMARK    4  A    between atoms: O3_8  and  C4_9 
REMARK    5  A    between atoms: C4_9  and  N2_10 
REMARK    6  A    between atoms: C4_9  and  C5_14 
REMARK    7  A    between atoms: C5_14  and  C6_15 
REMARK    8  A    between atoms: C6_15  and  C7_16 
REMARK    9  A    between atoms: C7_16  and  N3_17 
REMARK   10  A    between atoms: C7_16  and  C17_31 
REMARK       I    between atoms: N3_17  and  C8_19 
REMARK   11  A    between atoms: C8_19  and  C9_21 
REMARK   12  A    between atoms: C12_24  and  O5_25 
REMARK   13  A    between atoms: C15_28  and  O6_29 
ROOT
HETATM    1  C7  UNL     1     -27.541  14.115 -19.518  1.00  0.00     0.129 C 
ENDROOT
BRANCH   1   2
HETATM    2  C6  UNL     1     -27.171  13.027 -18.533  1.00  0.00     0.035 C 
BRANCH   2   3
HETATM    3  C5  UNL     1     -26.786  13.539 -17.190  1.00  0.00     0.063 C 
BRANCH   3   4
HETATM    4  C4  UNL     1     -27.813  13.261 -16.099  1.00  0.00     0.318 C 
BRANCH   4   5
HETATM    5  O3  UNL     1     -27.140  12.457 -15.166  1.00  0.00    -0.350 OA
BRANCH   5   6
HETATM    6  C3  UNL     1     -25.789  12.704 -15.185  1.00  0.00     0.275 C 
BRANCH   6   7
HETATM    7  C2  UNL     1     -25.000  11.507 -14.883  1.00  0.00     0.264 C 
HETATM    8  N1  UNL     1     -25.597  10.235 -14.684  1.00  0.00    -0.234 N 
ATOM      9  H1  UNL     1     -26.612  10.158 -14.754  1.00  0.00     0.197 HD
HETATM   10  O2  UNL     1     -23.750  11.581 -14.794  1.00  0.00    -0.269 OA
BRANCH   8  11
HETATM   11  O1  UNL     1     -24.892   9.133 -14.409  1.00  0.00    -0.283 OA
HETATM   12  C1  UNL     1     -25.441   8.460 -13.313  1.00  0.00     0.237 C 
ENDBRANCH   8  11
ENDBRANCH   6   7
ENDBRANCH   5   6
ENDBRANCH   4   5
BRANCH   4  13
HETATM   13  N2  UNL     1     -28.872  12.487 -16.678  1.00  0.00    -0.053 N 
ATOM     14  H23 UNL     1     -28.541  11.850 -17.404  1.00  0.00     0.277 HD
ATOM     15  H22 UNL     1     -29.242  11.785 -16.037  1.00  0.00     0.277 HD
ATOM     16  H21 UNL     1     -29.590  13.128 -17.016  1.00  0.00     0.277 HD
ENDBRANCH   4  13
ENDBRANCH   3   4
ENDBRANCH   2   3
ENDBRANCH   1   2
BRANCH   1  17
HETATM   17  N3  UNL     1     -28.197  15.267 -18.959  1.00  0.00    -0.347 N 
HETATM   18  C8  UNL     1     -29.530  15.428 -18.624  1.00  0.00     0.255 C 
HETATM   19  O4  UNL     1     -30.294  14.420 -18.813  1.00  0.00    -0.268 OA
ATOM     20  H3  UNL     1     -27.598  16.074 -18.785  1.00  0.00     0.163 HD
BRANCH  18  21
HETATM   21  C9  UNL     1     -30.165  16.602 -18.086  1.00  0.00     0.065 A 
HETATM   22  C10 UNL     1     -31.380  17.034 -18.681  1.00  0.00     0.022 A 
HETATM   23  C11 UNL     1     -32.073  18.130 -18.253  1.00  0.00     0.038 A 
HETATM   24  C12 UNL     1     -31.624  18.879 -17.212  1.00  0.00     0.070 A 
HETATM   25  C14 UNL     1     -30.453  18.495 -16.611  1.00  0.00     0.074 A 
HETATM   26  C15 UNL     1     -29.737  17.377 -17.038  1.00  0.00     0.086 A 
BRANCH  24  27
HETATM   27  O5  UNL     1     -32.298  19.996 -16.753  1.00  0.00    -0.356 OA
HETATM   28  C13 UNL     1     -31.751  20.915 -15.838  1.00  0.00     0.210 C 
ENDBRANCH  24  27
BRANCH  26  29
HETATM   29  O6  UNL     1     -28.561  17.037 -16.392  1.00  0.00    -0.355 OA
HETATM   30  C16 UNL     1     -28.180  17.743 -15.244  1.00  0.00     0.210 C 
ENDBRANCH  26  29
ENDBRANCH  18  21
ENDBRANCH   1  17
BRANCH   1  31
HETATM   31  C17 UNL     1     -26.478  14.418 -20.487  1.00  0.00    -0.001 C 
HETATM   32  C18 UNL     1     -25.748  13.327 -21.207  1.00  0.00     0.065 C 
HETATM   33  N4  UNL     1     -26.116  15.614 -20.772  1.00  0.00    -0.404 N 
ATOM     34  H42 UNL     1     -26.614  16.358 -20.282  1.00  0.00     0.155 HD
ATOM     35  H41 UNL     1     -25.379  15.825 -21.444  1.00  0.00     0.155 HD
ENDBRANCH   1  31
TORSDOF 13
ENDMDL
MODEL 4
REMARK VINA RESULT: -5.783994855      2.216      3.680
REMARK  13 active torsions:
REMARK  status: ('A' for Active; 'I' for Inactive)
REMARK    1  A    between atoms: O1_2  and  N1_3 
REMARK       I    between atoms: N1_3  and  C2_5 
REMARK    2  A    between atoms: C2_5  and  C3_7 
REMARK    3  A    between atoms: C3_7  and  O3_8 
REMARK    4  A    between atoms: O3_8  and  C4_9 
REMARK    5  A    between atoms: C4_9  and  N2_10 
REMARK    6  A    between atoms: C4_9  and  C5_14 
REMARK    7  A    between atoms: C5_14  and  C6_15 
REMARK    8  A    between atoms: C6_15  and  C7_16 
REMARK    9  A    between atoms: C7_16  and  N3_17 
REMARK   10  A    between atoms: C7_16  and  C17_31 
REMARK       I    between atoms: N3_17  and  C8_19 
REMARK   11  A    between atoms: C8_19  and  C9_21 
REMARK   12  A    between atoms: C12_24  and  O5_25 
REMARK   13  A    between atoms: C15_28  and  O6_29 
ROOT
HETATM    1  C7  UNL     1     -27.751  13.175 -17.917  1.00  0.00     0.129 C 
ENDROOT
BRANCH   1   2
HETATM    2  C6  UNL     1     -29.220  13.324 -17.585  1.00  0.00     0.035 C 
BRANCH   2   3
HETATM    3  C5  UNL     1     -29.479  14.103 -16.343  1.00  0.00     0.063 C 
BRANCH   3   4
HETATM    4  C4  UNL     1     -30.099  15.474 -16.585  1.00  0.00     0.318 C 
BRANCH   4   5
HETATM    5  O3  UNL     1     -29.010  16.324 -16.835  1.00  0.00    -0.350 OA
BRANCH   5   6
HETATM    6  C3  UNL     1     -29.335  17.283 -17.762  1.00  0.00     0.275 C 
BRANCH   6   7
HETATM    7  C2  UNL     1     -29.370  16.748 -19.126  1.00  0.00     0.264 C 
HETATM    8  N1  UNL     1     -28.225  16.195 -19.753  1.00  0.00    -0.234 N 
ATOM      9  H1  UNL     1     -27.348  16.171 -19.232  1.00  0.00     0.197 HD
HETATM   10  O2  UNL     1     -30.439  16.768 -19.784  1.00  0.00    -0.269 OA
BRANCH   8  11
HETATM   11  O1  UNL     1     -28.239  15.702 -20.997  1.00  0.00    -0.283 OA
HETATM   12  C1  UNL     1     -26.936  15.515 -21.466  1.00  0.00     0.237 C 
ENDBRANCH   8  11
ENDBRANCH   6   7
ENDBRANCH   5   6
ENDBRANCH   4   5
BRANCH   4  13
HETATM   13  N2  UNL     1     -30.727  15.895 -15.366  1.00  0.00    -0.053 N 
ATOM     14  H23 UNL     1     -31.541  16.488 -15.529  1.00  0.00     0.277 HD
ATOM     15  H22 UNL     1     -31.205  15.132 -14.887  1.00  0.00     0.277 HD
ATOM     16  H21 UNL     1     -30.023  16.346 -14.782  1.00  0.00     0.277 HD
ENDBRANCH   4  13
ENDBRANCH   3   4
ENDBRANCH   2   3
ENDBRANCH   1   2
BRANCH   1  17
HETATM   17  N3  UNL     1     -26.932  12.604 -16.881  1.00  0.00    -0.347 N 
HETATM   18  C8  UNL     1     -26.115  13.248 -15.968  1.00  0.00     0.255 C 
HETATM   19  O4  UNL     1     -26.087  14.524 -16.025  1.00  0.00    -0.268 OA
ATOM     20  H3  UNL     1     -26.957  11.587 -16.810  1.00  0.00     0.163 HD
BRANCH  18  21
HETATM   21  C9  UNL     1     -25.287  12.649 -14.955  1.00  0.00     0.065 A 
HETATM   22  C10 UNL     1     -24.021  13.237 -14.696  1.00  0.00     0.022 A 
HETATM   23  C11 UNL     1     -23.152  12.758 -13.757  1.00  0.00     0.038 A 
HETATM   24  C12 UNL     1     -23.465  11.670 -13.006  1.00  0.00     0.070 A 
HETATM   25  C14 UNL     1     -24.679  11.073 -13.226  1.00  0.00     0.074 A 
HETATM   26  C15 UNL     1     -25.574  11.552 -14.182  1.00  0.00     0.086 A 
BRANCH  24  27
HETATM   27  O5  UNL     1     -22.611  11.157 -12.047  1.00  0.00    -0.356 OA
HETATM   28  C13 UNL     1     -21.422  11.792 -11.642  1.00  0.00     0.210 C 
ENDBRANCH  24  27
BRANCH  26  29
HETATM   29  O6  UNL     1     -26.786  10.908 -14.360  1.00  0.00    -0.355 OA
HETATM   30  C16 UNL     1     -27.061   9.747 -13.625  1.00  0.00     0.210 C 
ENDBRANCH  26  29
ENDBRANCH  18  21
ENDBRANCH   1  17
BRANCH   1  31
HETATM   31  C17 UNL     1     -27.504  12.643 -19.265  1.00  0.00    -0.001 C 
HETATM   32  C18 UNL     1     -26.151  12.141 -19.665  1.00  0.00     0.065 C 
HETATM   33  N4  UNL     1     -28.413  12.576 -20.165  1.00  0.00    -0.404 N 
ATOM     34  H42 UNL     1     -29.335  12.918 -19.892  1.00  0.00     0.155 HD
ATOM     35  H41 UNL     1     -28.241  12.207 -21.100  1.00  0.00     0.155 HD
ENDBRANCH   1  31
TORSDOF 13
ENDMDL
MODEL 5
REMARK VINA RESULT: -5.782409375      2.265      4.004
REMARK  13 active torsions:
REMARK  status: ('A' for Active; 'I' for Inactive)
REMARK    1  A    between atoms: O1_2  and  N1_3 
REMARK       I    between atoms: N1_3  and  C2_5 
REMARK    2  A    between atoms: C2_5  and  C3_7 
REMARK    3  A    between atoms: C3_7  and  O3_8 
REMARK    4  A    between atoms: O3_8  and  C4_9 
REMARK    5  A    between atoms: C4_9  and  N2_10 
REMARK    6  A    between atoms: C4_9  and  C5_14 
REMARK    7  A    between atoms: C5_14  and  C6_15 
REMARK    8  A    between atoms: C6_15  and  C7_16 
REMARK    9  A    between atoms: C7_16  and  N3_17 
REMARK   10  A    between atoms: C7_16  and  C17_31 
REMARK       I    between atoms: N3_17  and  C8_19 
REMARK   11  A    between atoms: C8_19  and  C9_21 
REMARK   12  A    between atoms: C12_24  and  O5_25 
REMARK   13  A    between atoms: C15_28  and  O6_29 
ROOT
HETATM    1  C7  UNL     1     -28.976  12.741 -16.229  1.00  0.00     0.129 C 
ENDROOT
BRANCH   1   2
HETATM    2  C6  UNL     1     -29.713  14.063 -16.214  1.00  0.00     0.035 C 
BRANCH   2   3
HETATM    3  C5  UNL     1     -30.177  14.507 -17.557  1.00  0.00     0.063 C 
BRANCH   3   4
HETATM    4  C4  UNL     1     -29.544  15.808 -18.036  1.00  0.00     0.318 C 
BRANCH   4   5
HETATM    5  O3  UNL     1     -29.308  15.612 -19.406  1.00  0.00    -0.350 OA
BRANCH   5   6
HETATM    6  C3  UNL     1     -27.980  15.359 -19.646  1.00  0.00     0.275 C 
BRANCH   6   7
HETATM    7  C2  UNL     1     -27.770  14.065 -20.299  1.00  0.00     0.264 C 
HETATM    8  N1  UNL     1     -27.750  12.844 -19.577  1.00  0.00    -0.234 N 
ATOM      9  H1  UNL     1     -27.888  12.875 -18.566  1.00  0.00     0.197 HD
HETATM   10  O2  UNL     1     -27.600  14.005 -21.542  1.00  0.00    -0.269 OA
BRANCH   8  11
HETATM   11  O1  UNL     1     -27.561  11.654 -20.158  1.00  0.00    -0.283 OA
HETATM   12  C1  UNL     1     -26.222  11.266 -20.055  1.00  0.00     0.237 C 
ENDBRANCH   8  11
ENDBRANCH   6   7
ENDBRANCH   5   6
ENDBRANCH   4   5
BRANCH   4  13
HETATM   13  N2  UNL     1     -28.279  15.951 -17.377  1.00  0.00    -0.053 N 
ATOM     14  H23 UNL     1     -27.532  15.438 -17.846  1.00  0.00     0.277 HD
ATOM     15  H22 UNL     1     -27.887  16.888 -17.477  1.00  0.00     0.277 HD
ATOM     16  H21 UNL     1     -28.392  15.676 -16.402  1.00  0.00     0.277 HD
ENDBRANCH   4  13
ENDBRANCH   3   4
ENDBRANCH   2   3
ENDBRANCH   1   2
BRANCH   1  17
HETATM   17  N3  UNL     1     -27.756  12.698 -15.466  1.00  0.00    -0.347 N 
HETATM   18  C8  UNL     1     -26.486  13.101 -15.839  1.00  0.00     0.255 C 
HETATM   19  O4  UNL     1     -26.364  13.599 -17.009  1.00  0.00    -0.268 OA
ATOM     20  H3  UNL     1     -27.839  12.319 -14.522  1.00  0.00     0.163 HD
BRANCH  18  21
HETATM   21  C9  UNL     1     -25.277  13.025 -15.062  1.00  0.00     0.065 A 
HETATM   22  C10 UNL     1     -24.711  14.238 -14.590  1.00  0.00     0.022 A 
HETATM   23  C11 UNL     1     -23.569  14.289 -13.842  1.00  0.00     0.038 A 
HETATM   24  C12 UNL     1     -22.903  13.154 -13.504  1.00  0.00     0.070 A 
HETATM   25  C14 UNL     1     -23.418  11.961 -13.942  1.00  0.00     0.074 A 
HETATM   26  C15 UNL     1     -24.582  11.896 -14.706  1.00  0.00     0.086 A 
BRANCH  24  27
HETATM   27  O5  UNL     1     -21.745  13.167 -12.749  1.00  0.00    -0.356 OA
HETATM   28  C13 UNL     1     -21.292  12.067 -11.997  1.00  0.00     0.210 C 
ENDBRANCH  24  27
BRANCH  26  29
HETATM   29  O6  UNL     1     -25.055  10.663 -15.120  1.00  0.00    -0.355 OA
HETATM   30  C16 UNL     1     -25.521   9.750 -14.164  1.00  0.00     0.210 C 
ENDBRANCH  26  29
ENDBRANCH  18  21
ENDBRANCH   1  17
BRANCH   1  31
HETATM   31  C17 UNL     1     -29.854  11.575 -16.057  1.00  0.00    -0.001 C 
HETATM   32  C18 UNL     1     -30.485  11.266 -14.734  1.00  0.00     0.065 C 
HETATM   33  N4  UNL     1     -30.131  10.765 -17.010  1.00  0.00    -0.404 N 
ATOM     34  H42 UNL     1     -29.701  10.976 -17.911  1.00  0.00     0.155 HD
ATOM     35  H41 UNL     1     -30.741   9.956 -16.891  1.00  0.00     0.155 HD
ENDBRANCH   1  31
TORSDOF 13
ENDMDL
