MODEL 1
REMARK VINA RESULT: -6.247556032      0.000      0.000
REMARK  15 active torsions:
REMARK  status: ('A' for Active; 'I' for Inactive)
REMARK    1  A    between atoms: C2_2  and  C3_3 
REMARK    2  A    between atoms: C3_3  and  O1_4 
REMARK    3  A    between atoms: C3_3  and  C4_6 
REMARK    4  A    between atoms: C4_6  and  N1_7 
REMARK    5  A    between atoms: C4_6  and  C6_11 
REMARK    6  A    between atoms: N1_7  and  C5_9 
REMARK    7  A    between atoms: C6_11  and  C7_13 
REMARK    8  A    between atoms: C7_13  and  O4_14 
REMARK    9  A    between atoms: O4_14  and  C8_15 
REMARK   10  A    between atoms: C10_19  and  C11_20 
REMARK   11  A    between atoms: C11_20  and  N3_22 
REMARK       I    between atoms: N3_22  and  C13_24 
REMARK   12  A    between atoms: C13_24  and  C14_26 
REMARK   13  A    between atoms: C14_26  and  N4_27 
REMARK   14  A    between atoms: C14_26  and  C15_31 
REMARK   15  A    between atoms: C15_31  and  S1_32 
ROOT
HETATM    1  C8  UNL     1     -26.674  12.827 -15.832  1.00  0.00     0.270 A 
HETATM    2  N2  UNL     1     -27.559  12.250 -14.985  1.00  0.00    -0.324 N 
ATOM      3  H2  UNL     1     -28.567  12.407 -14.977  1.00  0.00     0.169 HD
HETATM    4  C9  UNL     1     -26.885  11.434 -14.158  1.00  0.00     0.127 A 
HETATM    5  C10 UNL     1     -25.552  11.512 -14.506  1.00  0.00     0.095 A 
HETATM    6  O6  UNL     1     -25.500  12.351 -15.500  1.00  0.00    -0.275 OA
ENDROOT
BRANCH   1   7
HETATM    7  O4  UNL     1     -26.985  13.740 -16.843  1.00  0.00    -0.309 OA
BRANCH   7   8
HETATM    8  C7  UNL     1     -28.306  13.847 -17.243  1.00  0.00     0.260 C 
BRANCH   8   9
HETATM    9  C6  UNL     1     -28.676  13.159 -18.495  1.00  0.00     0.175 C 
HETATM   10  O3  UNL     1     -29.569  12.297 -18.313  1.00  0.00    -0.293 OA
BRANCH   9  11
HETATM   11  C4  UNL     1     -28.113  13.393 -19.831  1.00  0.00     0.184 C 
BRANCH  11  12
HETATM   12  C3  UNL     1     -27.215  12.309 -20.363  1.00  0.00     0.148 C 
BRANCH  12  13
HETATM   13  C2  UNL     1     -25.770  12.673 -20.458  1.00  0.00     0.029 C 
HETATM   14  C1  UNL     1     -25.171  12.582 -21.827  1.00  0.00     0.007 C 
ENDBRANCH  12  13
BRANCH  12  15
HETATM   15  O1  UNL     1     -27.335  11.079 -19.784  1.00  0.00    -0.393 OA
ATOM     16  H1  UNL     1     -27.596  10.445 -20.442  1.00  0.00     0.210 HD
ENDBRANCH  12  15
ENDBRANCH  11  12
BRANCH  11  17
HETATM   17  N1  UNL     1     -27.285  14.614 -19.833  1.00  0.00    -0.354 N 
ATOM     18  H1  UNL     1     -26.455  14.638 -19.240  1.00  0.00     0.162 HD
BRANCH  17  19
HETATM   19  C5  UNL     1     -27.586  15.749 -20.613  1.00  0.00     0.349 C 
HETATM   20  O2  UNL     1     -27.630  15.608 -21.871  1.00  0.00    -0.284 OA
ENDBRANCH  17  19
ENDBRANCH  11  17
ENDBRANCH   9  11
ENDBRANCH   8   9
ENDBRANCH   7   8
ENDBRANCH   1   7
BRANCH   5  21
HETATM   21  C11 UNL     1     -24.409  10.785 -13.873  1.00  0.00     0.139 C 
HETATM   22  C12 UNL     1     -23.471  11.756 -13.200  1.00  0.00     0.039 C 
BRANCH  21  23
HETATM   23  N3  UNL     1     -24.863   9.821 -12.909  1.00  0.00    -0.349 N 
HETATM   24  C13 UNL     1     -24.912   8.442 -13.199  1.00  0.00     0.249 C 
HETATM   25  O5  UNL     1     -24.534   8.070 -14.356  1.00  0.00    -0.271 OA
ATOM     26  H3  UNL     1     -25.157  10.144 -11.987  1.00  0.00     0.163 HD
BRANCH  24  27
HETATM   27  C14 UNL     1     -25.358   7.369 -12.296  1.00  0.00     0.283 C 
BRANCH  27  28
HETATM   28  N4  UNL     1     -24.284   6.543 -11.862  1.00  0.00    -0.066 N 
ATOM     29  H43 UNL     1     -24.375   5.597 -12.233  1.00  0.00     0.275 HD
ATOM     30  H42 UNL     1     -23.409   6.812 -12.311  1.00  0.00     0.275 HD
ATOM     31  H41 UNL     1     -24.187   6.532 -10.846  1.00  0.00     0.275 HD
ENDBRANCH  27  28
BRANCH  27  32
HETATM   32  C15 UNL     1     -26.184   7.897 -11.149  1.00  0.00     0.116 C 
BRANCH  32  33
HETATM   33  S1  UNL     1     -27.937   7.676 -11.504  1.00  0.00    -0.171 SA
HETATM   34  C16 UNL     1     -28.244   7.621 -13.276  1.00  0.00     0.089 C 
ENDBRANCH  32  33
ENDBRANCH  27  32
ENDBRANCH  24  27
ENDBRANCH  21  23
ENDBRANCH   5  21
TORSDOF 15
ENDMDL
MODEL 2
REMARK VINA RESULT: -6.202926523      1.166      1.565
REMARK  15 active torsions:
REMARK  status: ('A' for Active; 'I' for Inactive)
REMARK    1  A    between atoms: C2_2  and  C3_3 
REMARK    2  A    between atoms: C3_3  and  O1_4 
REMARK    3  A    between atoms: C3_3  and  C4_6 
REMARK    4  A    between atoms: C4_6  and  N1_7 
REMARK    5  A    between atoms: C4_6  and  C6_11 
REMARK    6  A    between atoms: N1_7  and  C5_9 
REMARK    7  A    between atoms: C6_11  and  C7_13 
REMARK    8  A    between atoms: C7_13  and  O4_14 
REMARK    9  A    between atoms: O4_14  and  C8_15 
REMARK   10  A    between atoms: C10_19  and  C11_20 
REMARK   11  A    between atoms: C11_20  and  N3_22 
REMARK       I    between atoms: N3_22  and  C13_24 
REMARK   12  A    between atoms: C13_24  and  C14_26 
REMARK   13  A    between atoms: C14_26  and  N4_27 
REMARK   14  A    between atoms: C14_26  and  C15_31 
REMARK   15  A    between atoms: C15_31  and  S1_32 
ROOT
HETATM    1  C8  UNL     1     -26.896  13.015 -15.846  1.00  0.00     0.270 A 
HETATM    2  N2  UNL     1     -27.753  12.343 -15.040  1.00  0.00    -0.324 N 
ATOM      3  H2  UNL     1     -28.763  12.480 -14.997  1.00  0.00     0.169 HD
HETATM    4  C9  UNL     1     -27.046  11.466 -14.309  1.00  0.00     0.127 A 
HETATM    5  C10 UNL     1     -25.723  11.602 -14.674  1.00  0.00     0.095 A 
HETATM    6  O6  UNL     1     -25.708  12.533 -15.585  1.00  0.00    -0.275 OA
ENDROOT
BRANCH   1   7
HETATM    7  O4  UNL     1     -27.246  14.013 -16.759  1.00  0.00    -0.309 OA
BRANCH   7   8
HETATM    8  C7  UNL     1     -28.522  13.993 -17.294  1.00  0.00     0.260 C 
BRANCH   8   9
HETATM    9  C6  UNL     1     -28.716  13.183 -18.513  1.00  0.00     0.175 C 
HETATM   10  O3  UNL     1     -29.500  12.223 -18.321  1.00  0.00    -0.293 OA
BRANCH   9  11
HETATM   11  C4  UNL     1     -28.101  13.405 -19.828  1.00  0.00     0.184 C 
BRANCH  11  12
HETATM   12  C3  UNL     1     -27.209  12.301 -20.328  1.00  0.00     0.148 C 
BRANCH  12  13
HETATM   13  C2  UNL     1     -25.760  12.648 -20.420  1.00  0.00     0.029 C 
HETATM   14  C1  UNL     1     -25.205  12.742 -21.807  1.00  0.00     0.007 C 
ENDBRANCH  12  13
BRANCH  12  15
HETATM   15  O1  UNL     1     -27.346  11.085 -19.725  1.00  0.00    -0.393 OA
ATOM     16  H1  UNL     1     -28.178  11.051 -19.269  1.00  0.00     0.210 HD
ENDBRANCH  12  15
ENDBRANCH  11  12
BRANCH  11  17
HETATM   17  N1  UNL     1     -27.245  14.606 -19.798  1.00  0.00    -0.354 N 
ATOM     18  H1  UNL     1     -26.457  14.625 -19.151  1.00  0.00     0.162 HD
BRANCH  17  19
HETATM   19  C5  UNL     1     -27.465  15.730 -20.620  1.00  0.00     0.349 C 
HETATM   20  O2  UNL     1     -27.755  15.528 -21.835  1.00  0.00    -0.284 OA
ENDBRANCH  17  19
ENDBRANCH  11  17
ENDBRANCH   9  11
ENDBRANCH   8   9
ENDBRANCH   7   8
ENDBRANCH   1   7
BRANCH   5  21
HETATM   21  C11 UNL     1     -24.554  10.841 -14.137  1.00  0.00     0.139 C 
HETATM   22  C12 UNL     1     -23.509  11.786 -13.598  1.00  0.00     0.039 C 
BRANCH  21  23
HETATM   23  N3  UNL     1     -24.947   9.930 -13.098  1.00  0.00    -0.349 N 
HETATM   24  C13 UNL     1     -24.936   8.533 -13.287  1.00  0.00     0.249 C 
HETATM   25  O5  UNL     1     -24.558   8.095 -14.421  1.00  0.00    -0.271 OA
ATOM     26  H3  UNL     1     -25.243  10.305 -12.197  1.00  0.00     0.163 HD
BRANCH  24  27
HETATM   27  C14 UNL     1     -25.317   7.509 -12.302  1.00  0.00     0.283 C 
BRANCH  27  28
HETATM   28  N4  UNL     1     -24.607   6.289 -12.482  1.00  0.00    -0.066 N 
ATOM     29  H43 UNL     1     -25.088   5.513 -12.028  1.00  0.00     0.275 HD
ATOM     30  H42 UNL     1     -24.662   5.972 -13.449  1.00  0.00     0.275 HD
ATOM     31  H41 UNL     1     -23.637   6.353 -12.171  1.00  0.00     0.275 HD
ENDBRANCH  27  28
BRANCH  27  32
HETATM   32  C15 UNL     1     -25.234   8.023 -10.885  1.00  0.00     0.116 C 
BRANCH  32  33
HETATM   33  S1  UNL     1     -23.590   7.709 -10.215  1.00  0.00    -0.171 SA
HETATM   34  C16 UNL     1     -22.493   9.107 -10.492  1.00  0.00     0.089 C 
ENDBRANCH  32  33
ENDBRANCH  27  32
ENDBRANCH  24  27
ENDBRANCH  21  23
ENDBRANCH   5  21
TORSDOF 15
ENDMDL
MODEL 3
REMARK VINA RESULT: -6.153736547      1.636      2.121
REMARK  15 active torsions:
REMARK  status: ('A' for Active; 'I' for Inactive)
REMARK    1  A    between atoms: C2_2  and  C3_3 
REMARK    2  A    between atoms: C3_3  and  O1_4 
REMARK    3  A    between atoms: C3_3  and  C4_6 
REMARK    4  A    between atoms: C4_6  and  N1_7 
REMARK    5  A    between atoms: C4_6  and  C6_11 
REMARK    6  A    between atoms: N1_7  and  C5_9 
REMARK    7  A    between atoms: C6_11  and  C7_13 
REMARK    8  A    between atoms: C7_13  and  O4_14 
REMARK    9  A    between atoms: O4_14  and  C8_15 
REMARK   10  A    between atoms: C10_19  and  C11_20 
REMARK   11  A    between atoms: C11_20  and  N3_22 
REMARK       I    between atoms: N3_22  and  C13_24 
REMARK   12  A    between atoms: C13_24  and  C14_26 
REMARK   13  A    between atoms: C14_26  and  N4_27 
REMARK   14  A    between atoms: C14_26  and  C15_31 
REMARK   15  A    between atoms: C15_31  and  S1_32 
ROOT
HETATM    1  C8  UNL     1     -27.066  12.717 -15.812  1.00  0.00     0.270 A 
HETATM    2  N2  UNL     1     -27.841  12.213 -14.822  1.00  0.00    -0.324 N 
ATOM      3  H2  UNL     1     -28.840  12.381 -14.702  1.00  0.00     0.169 HD
HETATM    4  C9  UNL     1     -27.070  11.454 -14.026  1.00  0.00     0.127 A 
HETATM    5  C10 UNL     1     -25.791  11.492 -14.540  1.00  0.00     0.095 A 
HETATM    6  O6  UNL     1     -25.861  12.255 -15.593  1.00  0.00    -0.275 OA
ENDROOT
BRANCH   1   7
HETATM    7  O4  UNL     1     -27.499  13.555 -16.842  1.00  0.00    -0.309 OA
BRANCH   7   8
HETATM    8  C7  UNL     1     -28.696  13.256 -17.471  1.00  0.00     0.260 C 
BRANCH   8   9
HETATM    9  C6  UNL     1     -28.769  13.532 -18.919  1.00  0.00     0.175 C 
HETATM   10  O3  UNL     1     -29.477  12.691 -19.523  1.00  0.00    -0.293 OA
BRANCH   9  11
HETATM   11  C4  UNL     1     -28.121  14.633 -19.643  1.00  0.00     0.184 C 
BRANCH  11  12
HETATM   12  C3  UNL     1     -26.640  14.487 -19.866  1.00  0.00     0.148 C 
BRANCH  12  13
HETATM   13  C2  UNL     1     -26.200  13.142 -20.340  1.00  0.00     0.029 C 
HETATM   14  C1  UNL     1     -25.381  13.136 -21.594  1.00  0.00     0.007 C 
ENDBRANCH  12  13
BRANCH  12  15
HETATM   15  O1  UNL     1     -26.038  15.452 -20.621  1.00  0.00    -0.393 OA
ATOM     16  H1  UNL     1     -25.473  15.977 -20.067  1.00  0.00     0.210 HD
ENDBRANCH  12  15
ENDBRANCH  11  12
BRANCH  11  17
HETATM   17  N1  UNL     1     -28.275  15.897 -18.899  1.00  0.00    -0.354 N 
ATOM     18  H1  UNL     1     -27.710  16.039 -18.062  1.00  0.00     0.162 HD
BRANCH  17  19
HETATM   19  C5  UNL     1     -29.166  16.917 -19.289  1.00  0.00     0.349 C 
HETATM   20  O2  UNL     1     -30.287  16.575 -19.767  1.00  0.00    -0.284 OA
ENDBRANCH  17  19
ENDBRANCH  11  17
ENDBRANCH   9  11
ENDBRANCH   8   9
ENDBRANCH   7   8
ENDBRANCH   1   7
BRANCH   5  21
HETATM   21  C11 UNL     1     -24.578  10.803 -14.000  1.00  0.00     0.139 C 
HETATM   22  C12 UNL     1     -23.614  11.806 -13.418  1.00  0.00     0.039 C 
BRANCH  21  23
HETATM   23  N3  UNL     1     -24.923   9.838 -12.992  1.00  0.00    -0.349 N 
HETATM   24  C13 UNL     1     -24.896   8.451 -13.247  1.00  0.00     0.249 C 
HETATM   25  O5  UNL     1     -24.549   8.073 -14.412  1.00  0.00    -0.271 OA
ATOM     26  H3  UNL     1     -25.194  10.166 -12.066  1.00  0.00     0.163 HD
BRANCH  24  27
HETATM   27  C14 UNL     1     -25.228   7.377 -12.298  1.00  0.00     0.283 C 
BRANCH  27  28
HETATM   28  N4  UNL     1     -24.485   6.188 -12.541  1.00  0.00    -0.066 N 
ATOM     29  H43 UNL     1     -24.969   5.370 -12.172  1.00  0.00     0.275 HD
ATOM     30  H42 UNL     1     -24.490   5.948 -13.532  1.00  0.00     0.275 HD
ATOM     31  H41 UNL     1     -23.531   6.244 -12.182  1.00  0.00     0.275 HD
ENDBRANCH  27  28
BRANCH  27  32
HETATM   32  C15 UNL     1     -25.134   7.836 -10.863  1.00  0.00     0.116 C 
BRANCH  32  33
HETATM   33  S1  UNL     1     -23.460   7.581 -10.247  1.00  0.00    -0.171 SA
HETATM   34  C16 UNL     1     -22.477   9.082 -10.382  1.00  0.00     0.089 C 
ENDBRANCH  32  33
ENDBRANCH  27  32
ENDBRANCH  24  27
ENDBRANCH  21  23
ENDBRANCH   5  21
TORSDOF 15
ENDMDL
MODEL 4
REMARK VINA RESULT: -6.125049633      1.675      2.045
REMARK  15 active torsions:
REMARK  status: ('A' for Active; 'I' for Inactive)
REMARK    1  A    between atoms: C2_2  and  C3_3 
REMARK    2  A    between atoms: C3_3  and  O1_4 
REMARK    3  A    between atoms: C3_3  and  C4_6 
REMARK    4  A    between atoms: C4_6  and  N1_7 
REMARK    5  A    between atoms: C4_6  and  C6_11 
REMARK    6  A    between atoms: N1_7  and  C5_9 
REMARK    7  A    between atoms: C6_11  and  C7_13 
REMARK    8  A    between atoms: C7_13  and  O4_14 
REMARK    9  A    between atoms: O4_14  and  C8_15 
REMARK   10  A    between atoms: C10_19  and  C11_20 
REMARK   11  A    between atoms: C11_20  and  N3_22 
REMARK       I    between atoms: N3_22  and  C13_24 
REMARK   12  A    between atoms: C13_24  and  C14_26 
REMARK   13  A    between atoms: C14_26  and  N4_27 
REMARK   14  A    between atoms: C14_26  and  C15_31 
REMARK   15  A    between atoms: C15_31  and  S1_32 
ROOT
HETATM    1  C8  UNL     1     -26.998  13.844 -16.011  1.00  0.00     0.270 A 
HETATM    2  N2  UNL     1     -26.131  14.786 -15.569  1.00  0.00    -0.324 N 
ATOM      3  H2  UNL     1     -26.233  15.793 -15.686  1.00  0.00     0.169 HD
HETATM    4  C9  UNL     1     -25.113  14.165 -14.950  1.00  0.00     0.127 A 
HETATM    5  C10 UNL     1     -25.361  12.810 -15.014  1.00  0.00     0.095 A 
HETATM    6  O6  UNL     1     -26.490  12.693 -15.653  1.00  0.00    -0.275 OA
ENDROOT
BRANCH   1   7
HETATM    7  O4  UNL     1     -28.186  14.089 -16.706  1.00  0.00    -0.309 OA
BRANCH   7   8
HETATM    8  C7  UNL     1     -28.651  13.113 -17.570  1.00  0.00     0.260 C 
BRANCH   8   9
HETATM    9  C6  UNL     1     -28.817  13.506 -18.983  1.00  0.00     0.175 C 
HETATM   10  O3  UNL     1     -29.627  12.762 -19.587  1.00  0.00    -0.293 OA
BRANCH   9  11
HETATM   11  C4  UNL     1     -28.152  14.616 -19.676  1.00  0.00     0.184 C 
BRANCH  11  12
HETATM   12  C3  UNL     1     -26.668  14.468 -19.874  1.00  0.00     0.148 C 
BRANCH  12  13
HETATM   13  C2  UNL     1     -26.230  13.153 -20.427  1.00  0.00     0.029 C 
HETATM   14  C1  UNL     1     -25.384  13.221 -21.661  1.00  0.00     0.007 C 
ENDBRANCH  12  13
BRANCH  12  15
HETATM   15  O1  UNL     1     -26.038  15.475 -20.548  1.00  0.00    -0.393 OA
ATOM     16  H1  UNL     1     -26.684  15.998 -21.008  1.00  0.00     0.210 HD
ENDBRANCH  12  15
ENDBRANCH  11  12
BRANCH  11  17
HETATM   17  N1  UNL     1     -28.315  15.868 -18.914  1.00  0.00    -0.354 N 
ATOM     18  H1  UNL     1     -27.776  15.988 -18.056  1.00  0.00     0.162 HD
BRANCH  17  19
HETATM   19  C5  UNL     1     -29.182  16.906 -19.312  1.00  0.00     0.349 C 
HETATM   20  O2  UNL     1     -30.315  16.587 -19.778  1.00  0.00    -0.284 OA
ENDBRANCH  17  19
ENDBRANCH  11  17
ENDBRANCH   9  11
ENDBRANCH   8   9
ENDBRANCH   7   8
ENDBRANCH   1   7
BRANCH   5  21
HETATM   21  C11 UNL     1     -24.513  11.708 -14.464  1.00  0.00     0.139 C 
HETATM   22  C12 UNL     1     -23.151  12.231 -14.077  1.00  0.00     0.039 C 
BRANCH  21  23
HETATM   23  N3  UNL     1     -25.124  11.089 -13.320  1.00  0.00    -0.349 N 
HETATM   24  C13 UNL     1     -25.174   9.689 -13.167  1.00  0.00     0.249 C 
HETATM   25  O5  UNL     1     -24.651   8.977 -14.084  1.00  0.00    -0.271 OA
ATOM     26  H3  UNL     1     -25.533  11.681 -12.597  1.00  0.00     0.163 HD
BRANCH  24  27
HETATM   27  C14 UNL     1     -25.771   8.948 -12.046  1.00  0.00     0.283 C 
BRANCH  27  28
HETATM   28  N4  UNL     1     -26.623   9.762 -11.248  1.00  0.00    -0.066 N 
ATOM     29  H43 UNL     1     -26.080  10.388 -10.653  1.00  0.00     0.275 HD
ATOM     30  H42 UNL     1     -27.107  10.455 -11.818  1.00  0.00     0.275 HD
ATOM     31  H41 UNL     1     -27.284   9.213 -10.698  1.00  0.00     0.275 HD
ENDBRANCH  27  28
BRANCH  27  32
HETATM   32  C15 UNL     1     -26.444   7.674 -12.499  1.00  0.00     0.116 C 
BRANCH  32  33
HETATM   33  S1  UNL     1     -28.067   8.052 -13.185  1.00  0.00    -0.171 SA
HETATM   34  C16 UNL     1     -29.384   7.407 -12.143  1.00  0.00     0.089 C 
ENDBRANCH  32  33
ENDBRANCH  27  32
ENDBRANCH  24  27
ENDBRANCH  21  23
ENDBRANCH   5  21
TORSDOF 15
ENDMDL
MODEL 5
REMARK VINA RESULT: -5.989741258      1.375      1.699
REMARK  15 active torsions:
REMARK  status: ('A' for Active; 'I' for Inactive)
REMARK    1  A    between atoms: C2_2  and  C3_3 
REMARK    2  A    between atoms: C3_3  and  O1_4 
REMARK    3  A    between atoms: C3_3  and  C4_6 
REMARK    4  A    between atoms: C4_6  and  N1_7 
REMARK    5  A    between atoms: C4_6  and  C6_11 
REMARK    6  A    between atoms: N1_7  and  C5_9 
REMARK    7  A    between atoms: C6_11  and  C7_13 
REMARK    8  A    between atoms: C7_13  and  O4_14 
REMARK    9  A    between atoms: O4_14  and  C8_15 
REMARK   10  A    between atoms: C10_19  and  C11_20 
REMARK   11  A    between atoms: C11_20  and  N3_22 
REMARK       I    between atoms: N3_22  and  C13_24 
REMARK   12  A    between atoms: C13_24  and  C14_26 
REMARK   13  A    between atoms: C14_26  and  N4_27 
REMARK   14  A    between atoms: C14_26  and  C15_31 
REMARK   15  A    between atoms: C15_31  and  S1_32 
ROOT
HETATM    1  C8  UNL     1     -27.395  13.143 -15.777  1.00  0.00     0.270 A 
HETATM    2  N2  UNL     1     -28.003  12.578 -14.707  1.00  0.00    -0.324 N 
ATOM      3  H2  UNL     1     -28.981  12.700 -14.444  1.00  0.00     0.169 HD
HETATM    4  C9  UNL     1     -27.100  11.830 -14.052  1.00  0.00     0.127 A 
HETATM    5  C10 UNL     1     -25.907  11.938 -14.737  1.00  0.00     0.095 A 
HETATM    6  O6  UNL     1     -26.154  12.727 -15.743  1.00  0.00    -0.275 OA
ENDROOT
BRANCH   1   7
HETATM    7  O4  UNL     1     -27.999  13.992 -16.707  1.00  0.00    -0.309 OA
BRANCH   7   8
HETATM    8  C7  UNL     1     -28.864  13.437 -17.634  1.00  0.00     0.260 C 
BRANCH   8   9
HETATM    9  C6  UNL     1     -28.399  13.405 -19.035  1.00  0.00     0.175 C 
HETATM   10  O3  UNL     1     -28.367  12.238 -19.495  1.00  0.00    -0.293 OA
BRANCH   9  11
HETATM   11  C4  UNL     1     -28.002  14.552 -19.860  1.00  0.00     0.184 C 
BRANCH  11  12
HETATM   12  C3  UNL     1     -26.578  14.546 -20.349  1.00  0.00     0.148 C 
BRANCH  12  13
HETATM   13  C2  UNL     1     -26.357  13.843 -21.647  1.00  0.00     0.029 C 
HETATM   14  C1  UNL     1     -25.308  12.774 -21.632  1.00  0.00     0.007 C 
ENDBRANCH  12  13
BRANCH  12  15
HETATM   15  O1  UNL     1     -25.934  15.749 -20.370  1.00  0.00    -0.393 OA
ATOM     16  H1  UNL     1     -25.839  16.071 -19.481  1.00  0.00     0.210 HD
ENDBRANCH  12  15
ENDBRANCH  11  12
BRANCH  11  17
HETATM   17  N1  UNL     1     -28.140  15.806 -19.097  1.00  0.00    -0.354 N 
ATOM     18  H1  UNL     1     -27.494  15.980 -18.327  1.00  0.00     0.162 HD
BRANCH  17  19
HETATM   19  C5  UNL     1     -29.124  16.777 -19.379  1.00  0.00     0.349 C 
HETATM   20  O2  UNL     1     -30.269  16.373 -19.736  1.00  0.00    -0.284 OA
ENDBRANCH  17  19
ENDBRANCH  11  17
ENDBRANCH   9  11
ENDBRANCH   8   9
ENDBRANCH   7   8
ENDBRANCH   1   7
BRANCH   5  21
HETATM   21  C11 UNL     1     -24.606  11.286 -14.395  1.00  0.00     0.139 C 
HETATM   22  C12 UNL     1     -23.491  12.302 -14.381  1.00  0.00     0.039 C 
BRANCH  21  23
HETATM   23  N3  UNL     1     -24.662  10.629 -13.118  1.00  0.00    -0.349 N 
HETATM   24  C13 UNL     1     -24.674   9.224 -13.002  1.00  0.00     0.249 C 
HETATM   25  O5  UNL     1     -24.629   8.544 -14.077  1.00  0.00    -0.271 OA
ATOM     26  H3  UNL     1     -24.695  11.196 -12.271  1.00  0.00     0.163 HD
BRANCH  24  27
HETATM   27  C14 UNL     1     -24.731   8.446 -11.755  1.00  0.00     0.283 C 
BRANCH  27  28
HETATM   28  N4  UNL     1     -24.959   9.264 -10.613  1.00  0.00    -0.066 N 
ATOM     29  H43 UNL     1     -25.462  10.115 -10.866  1.00  0.00     0.275 HD
ATOM     30  H42 UNL     1     -25.650   8.843  -9.993  1.00  0.00     0.275 HD
ATOM     31  H41 UNL     1     -24.099   9.481 -10.110  1.00  0.00     0.275 HD
ENDBRANCH  27  28
BRANCH  27  32
HETATM   32  C15 UNL     1     -25.703   7.294 -11.846  1.00  0.00     0.116 C 
BRANCH  32  33
HETATM   33  S1  UNL     1     -27.394   7.916 -11.790  1.00  0.00    -0.171 SA
HETATM   34  C16 UNL     1     -28.168   7.854 -13.412  1.00  0.00     0.089 C 
ENDBRANCH  32  33
ENDBRANCH  27  32
ENDBRANCH  24  27
ENDBRANCH  21  23
ENDBRANCH   5  21
TORSDOF 15
ENDMDL
