MODEL 1
REMARK VINA RESULT: -6.574555826      0.000      0.000
REMARK  2 active torsions:
REMARK  status: ('A' for Active; 'I' for Inactive)
REMARK    1  A    between atoms: C3_9  and  N5_10 
REMARK    2  A    between atoms: C4_13  and  N6_14 
REMARK       I    between atoms: N6_14  and  C5_16 
REMARK       I    between atoms: C5_16  and  N7_17 
REMARK       I    between atoms: C5_16  and  N8_21 
ROOT
HETATM    1  C1  UNL     1     -21.350  49.568 -61.355  1.00  0.00     0.161 C 
HETATM    2  N1  UNL     1     -21.650  50.969 -61.145  1.00  0.00    -0.308 N 
HETATM    3  C2  UNL     1     -22.441  51.537 -62.091  1.00  0.00     0.210 A 
HETATM    4  N2  UNL     1     -22.923  50.765 -63.200  1.00  0.00    -0.062 NA
HETATM    5  N3  UNL     1     -22.752  52.836 -61.948  1.00  0.00    -0.272 N 
ATOM      6  H3  UNL     1     -23.344  53.292 -62.641  1.00  0.00     0.189 HD
HETATM    7  N4  UNL     1     -22.300  53.527 -60.922  1.00  0.00    -0.280 N 
ATOM      8  H4  UNL     1     -22.551  54.512 -60.838  1.00  0.00     0.188 HD
HETATM    9  C3  UNL     1     -21.522  52.974 -59.990  1.00  0.00     0.158 A 
HETATM   10  C4  UNL     1     -21.157  51.606 -60.082  1.00  0.00     0.154 A 
ENDROOT
BRANCH  10  11
HETATM   11  N6  UNL     1     -20.440  51.132 -59.201  1.00  0.00    -0.324 N 
HETATM   12  C5  UNL     1     -19.241  50.531 -58.917  1.00  0.00     0.481 C 
HETATM   13  N7  UNL     1     -18.279  51.539 -58.412  1.00  0.00    -0.033 N 
HETATM   14  N8  UNL     1     -19.396  49.585 -57.774  1.00  0.00    -0.033 N 
ATOM     15  H73 UNL     1     -18.171  52.322 -59.057  1.00  0.00     0.278 HD
ATOM     16  H72 UNL     1     -18.648  52.054 -57.613  1.00  0.00     0.278 HD
ATOM     17  H71 UNL     1     -17.387  51.092 -58.201  1.00  0.00     0.278 HD
ATOM     18  H83 UNL     1     -19.798  50.040 -56.954  1.00  0.00     0.278 HD
ATOM     19  H82 UNL     1     -20.134  48.901 -57.944  1.00  0.00     0.278 HD
ATOM     20  H81 UNL     1     -18.504  49.138 -57.563  1.00  0.00     0.278 HD
ATOM     21  H6  UNL     1     -20.945  51.224 -58.320  1.00  0.00     0.165 HD
ENDBRANCH  10  11
BRANCH   9  22
HETATM   22  N5  UNL     1     -21.100  53.676 -59.005  1.00  0.00    -0.381 N 
ATOM     23  H52 UNL     1     -21.256  53.348 -58.051  1.00  0.00     0.157 HD
ATOM     24  H51 UNL     1     -20.612  54.555 -59.173  1.00  0.00     0.157 HD
ENDBRANCH   9  22
TORSDOF 2
ENDMDL
MODEL 2
REMARK VINA RESULT: -6.403756767      1.661      3.466
REMARK  2 active torsions:
REMARK  status: ('A' for Active; 'I' for Inactive)
REMARK    1  A    between atoms: C3_9  and  N5_10 
REMARK    2  A    between atoms: C4_13  and  N6_14 
REMARK       I    between atoms: N6_14  and  C5_16 
REMARK       I    between atoms: C5_16  and  N7_17 
REMARK       I    between atoms: C5_16  and  N8_21 
ROOT
HETATM    1  C1  UNL     1     -22.822  51.372 -61.148  1.00  0.00     0.161 C 
HETATM    2  N1  UNL     1     -21.399  51.281 -60.896  1.00  0.00    -0.308 N 
HETATM    3  C2  UNL     1     -20.753  50.306 -61.586  1.00  0.00     0.210 A 
HETATM    4  N2  UNL     1     -21.470  49.453 -62.489  1.00  0.00    -0.062 NA
HETATM    5  N3  UNL     1     -19.431  50.174 -61.392  1.00  0.00    -0.272 N 
ATOM      6  H3  UNL     1     -18.917  49.451 -61.895  1.00  0.00     0.189 HD
HETATM    7  N4  UNL     1     -18.791  50.968 -60.559  1.00  0.00    -0.280 N 
ATOM      8  H4  UNL     1     -17.786  50.846 -60.430  1.00  0.00     0.188 HD
HETATM    9  C3  UNL     1     -19.420  51.927 -59.879  1.00  0.00     0.158 A 
HETATM   10  C4  UNL     1     -20.816  52.120 -60.039  1.00  0.00     0.154 A 
ENDROOT
BRANCH  10  11
HETATM   11  N6  UNL     1     -21.360  53.017 -59.394  1.00  0.00    -0.324 N 
HETATM   12  C5  UNL     1     -21.665  54.352 -59.344  1.00  0.00     0.481 C 
HETATM   13  N7  UNL     1     -23.057  54.569 -59.802  1.00  0.00    -0.033 N 
HETATM   14  N8  UNL     1     -21.678  54.826 -57.930  1.00  0.00    -0.033 N 
ATOM     15  H73 UNL     1     -23.222  54.173 -60.728  1.00  0.00     0.278 HD
ATOM     16  H72 UNL     1     -23.725  54.004 -59.278  1.00  0.00     0.278 HD
ATOM     17  H71 UNL     1     -23.284  55.562 -59.765  1.00  0.00     0.278 HD
ATOM     18  H83 UNL     1     -22.305  54.270 -57.348  1.00  0.00     0.278 HD
ATOM     19  H82 UNL     1     -20.802  54.617 -57.450  1.00  0.00     0.278 HD
ATOM     20  H81 UNL     1     -21.905  55.819 -57.893  1.00  0.00     0.278 HD
ATOM     21  H6  UNL     1     -21.741  52.591 -58.550  1.00  0.00     0.165 HD
ENDBRANCH  10  11
BRANCH   9  22
HETATM   22  N5  UNL     1     -18.766  52.682 -59.076  1.00  0.00    -0.381 N 
ATOM     23  H52 UNL     1     -18.021  53.277 -59.440  1.00  0.00     0.157 HD
ATOM     24  H51 UNL     1     -18.989  52.687 -58.081  1.00  0.00     0.157 HD
ENDBRANCH   9  22
TORSDOF 2
ENDMDL
MODEL 3
REMARK VINA RESULT: -6.247921762      1.703      3.149
REMARK  2 active torsions:
REMARK  status: ('A' for Active; 'I' for Inactive)
REMARK    1  A    between atoms: C3_9  and  N5_10 
REMARK    2  A    between atoms: C4_13  and  N6_14 
REMARK       I    between atoms: N6_14  and  C5_16 
REMARK       I    between atoms: C5_16  and  N7_17 
REMARK       I    between atoms: C5_16  and  N8_21 
ROOT
HETATM    1  C1  UNL     1     -22.894  51.935 -61.536  1.00  0.00     0.161 C 
HETATM    2  N1  UNL     1     -21.868  52.435 -60.646  1.00  0.00    -0.308 N 
HETATM    3  C2  UNL     1     -22.190  53.570 -59.973  1.00  0.00     0.210 A 
HETATM    4  N2  UNL     1     -23.468  54.193 -60.164  1.00  0.00    -0.062 NA
HETATM    5  N3  UNL     1     -21.276  54.080 -59.133  1.00  0.00    -0.272 N 
ATOM      6  H3  UNL     1     -21.487  54.932 -58.614  1.00  0.00     0.189 HD
HETATM    7  N4  UNL     1     -20.108  53.492 -58.972  1.00  0.00    -0.280 N 
ATOM      8  H4  UNL     1     -19.432  53.902 -58.327  1.00  0.00     0.188 HD
HETATM    9  C3  UNL     1     -19.786  52.378 -59.629  1.00  0.00     0.158 A 
HETATM   10  C4  UNL     1     -20.708  51.787 -60.531  1.00  0.00     0.154 A 
ENDROOT
BRANCH  10  11
HETATM   11  N6  UNL     1     -20.374  50.757 -61.117  1.00  0.00    -0.324 N 
HETATM   12  C5  UNL     1     -20.111  49.418 -60.996  1.00  0.00     0.481 C 
HETATM   13  N7  UNL     1     -21.296  48.631 -61.410  1.00  0.00    -0.033 N 
HETATM   14  N8  UNL     1     -19.055  49.008 -61.966  1.00  0.00    -0.033 N 
ATOM     15  H73 UNL     1     -22.135  48.905 -60.899  1.00  0.00     0.278 HD
ATOM     16  H72 UNL     1     -21.608  48.876 -62.350  1.00  0.00     0.278 HD
ATOM     17  H71 UNL     1     -21.101  47.635 -61.319  1.00  0.00     0.278 HD
ATOM     18  H83 UNL     1     -19.299  49.262 -62.924  1.00  0.00     0.278 HD
ATOM     19  H82 UNL     1     -18.210  49.572 -61.870  1.00  0.00     0.278 HD
ATOM     20  H81 UNL     1     -18.860  48.011 -61.875  1.00  0.00     0.278 HD
ATOM     21  H6  UNL     1     -20.235  51.001 -62.098  1.00  0.00     0.165 HD
ENDBRANCH  10  11
BRANCH   9  22
HETATM   22  N5  UNL     1     -18.641  51.832 -59.448  1.00  0.00    -0.381 N 
ATOM     23  H52 UNL     1     -18.588  50.893 -59.054  1.00  0.00     0.157 HD
ATOM     24  H51 UNL     1     -17.789  52.334 -59.696  1.00  0.00     0.157 HD
ENDBRANCH   9  22
TORSDOF 2
ENDMDL
MODEL 4
REMARK VINA RESULT: -6.120067591      1.845      3.485
REMARK  2 active torsions:
REMARK  status: ('A' for Active; 'I' for Inactive)
REMARK    1  A    between atoms: C3_9  and  N5_10 
REMARK    2  A    between atoms: C4_13  and  N6_14 
REMARK       I    between atoms: N6_14  and  C5_16 
REMARK       I    between atoms: C5_16  and  N7_17 
REMARK       I    between atoms: C5_16  and  N8_21 
ROOT
HETATM    1  C1  UNL     1     -19.851  52.421 -59.171  1.00  0.00     0.161 C 
HETATM    2  N1  UNL     1     -21.051  52.688 -59.935  1.00  0.00    -0.308 N 
HETATM    3  C2  UNL     1     -21.769  53.765 -59.524  1.00  0.00     0.210 A 
HETATM    4  N2  UNL     1     -21.329  54.553 -58.409  1.00  0.00    -0.062 NA
HETATM    5  N3  UNL     1     -22.893  54.061 -60.196  1.00  0.00    -0.272 N 
ATOM      6  H3  UNL     1     -23.455  54.863 -59.912  1.00  0.00     0.189 HD
HETATM    7  N4  UNL     1     -23.279  53.325 -61.218  1.00  0.00    -0.280 N 
ATOM      8  H4  UNL     1     -24.138  53.572 -61.711  1.00  0.00     0.188 HD
HETATM    9  C3  UNL     1     -22.579  52.266 -61.626  1.00  0.00     0.158 A 
HETATM   10  C4  UNL     1     -21.381  51.900 -60.960  1.00  0.00     0.154 A 
ENDROOT
BRANCH  10  11
HETATM   11  N6  UNL     1     -20.762  50.918 -61.367  1.00  0.00    -0.324 N 
HETATM   12  C5  UNL     1     -20.254  49.685 -61.049  1.00  0.00     0.481 C 
HETATM   13  N7  UNL     1     -21.180  48.624 -61.510  1.00  0.00    -0.033 N 
HETATM   14  N8  UNL     1     -19.004  49.426 -61.821  1.00  0.00    -0.033 N 
ATOM     15  H73 UNL     1     -22.124  48.755 -61.147  1.00  0.00     0.278 HD
ATOM     16  H72 UNL     1     -21.391  48.706 -62.505  1.00  0.00     0.278 HD
ATOM     17  H71 UNL     1     -20.803  47.707 -61.273  1.00  0.00     0.278 HD
ATOM     18  H83 UNL     1     -19.148  49.530 -62.825  1.00  0.00     0.278 HD
ATOM     19  H82 UNL     1     -18.315  50.167 -61.689  1.00  0.00     0.278 HD
ATOM     20  H81 UNL     1     -18.627  48.509 -61.584  1.00  0.00     0.278 HD
ATOM     21  H6  UNL     1     -20.531  51.093 -62.345  1.00  0.00     0.165 HD
ENDBRANCH  10  11
BRANCH   9  22
HETATM   22  N5  UNL     1     -22.983  51.572 -62.625  1.00  0.00    -0.381 N 
ATOM     23  H52 UNL     1     -22.421  51.540 -63.475  1.00  0.00     0.157 HD
ATOM     24  H51 UNL     1     -23.861  51.057 -62.568  1.00  0.00     0.157 HD
ENDBRANCH   9  22
TORSDOF 2
ENDMDL
MODEL 5
REMARK VINA RESULT: -6.098762711      1.578      4.931
REMARK  2 active torsions:
REMARK  status: ('A' for Active; 'I' for Inactive)
REMARK    1  A    between atoms: C3_9  and  N5_10 
REMARK    2  A    between atoms: C4_13  and  N6_14 
REMARK       I    between atoms: N6_14  and  C5_16 
REMARK       I    between atoms: C5_16  and  N7_17 
REMARK       I    between atoms: C5_16  and  N8_21 
ROOT
HETATM    1  C1  UNL     1     -22.661  54.095 -60.731  1.00  0.00     0.161 C 
HETATM    2  N1  UNL     1     -21.916  52.872 -60.520  1.00  0.00    -0.308 N 
HETATM    3  C2  UNL     1     -21.141  52.854 -59.405  1.00  0.00     0.210 A 
HETATM    4  N2  UNL     1     -21.097  53.988 -58.528  1.00  0.00    -0.062 NA
HETATM    5  N3  UNL     1     -20.426  51.744 -59.158  1.00  0.00    -0.272 N 
ATOM      6  H3  UNL     1     -19.834  51.700 -58.329  1.00  0.00     0.189 HD
HETATM    7  N4  UNL     1     -20.481  50.713 -59.976  1.00  0.00    -0.280 N 
ATOM      8  H4  UNL     1     -19.927  49.883 -59.764  1.00  0.00     0.188 HD
HETATM    9  C3  UNL     1     -21.239  50.726 -61.072  1.00  0.00     0.158 A 
HETATM   10  C4  UNL     1     -22.019  51.867 -61.390  1.00  0.00     0.154 A 
ENDROOT
BRANCH  10  11
HETATM   11  N6  UNL     1     -22.708  51.839 -62.410  1.00  0.00    -0.324 N 
HETATM   12  C5  UNL     1     -23.754  52.407 -63.088  1.00  0.00     0.481 C 
HETATM   13  N7  UNL     1     -23.242  53.356 -64.104  1.00  0.00    -0.033 N 
HETATM   14  N8  UNL     1     -24.470  51.376 -63.893  1.00  0.00    -0.033 N 
ATOM     15  H73 UNL     1     -22.624  54.057 -63.697  1.00  0.00     0.278 HD
ATOM     16  H72 UNL     1     -22.572  52.915 -64.735  1.00  0.00     0.278 HD
ATOM     17  H71 UNL     1     -24.021  53.779 -64.608  1.00  0.00     0.278 HD
ATOM     18  H83 UNL     1     -23.839  50.876 -64.520  1.00  0.00     0.278 HD
ATOM     19  H82 UNL     1     -24.771  50.587 -63.320  1.00  0.00     0.278 HD
ATOM     20  H81 UNL     1     -25.249  51.799 -64.397  1.00  0.00     0.278 HD
ATOM     21  H6  UNL     1     -22.353  51.079 -62.991  1.00  0.00     0.165 HD
ENDBRANCH  10  11
BRANCH   9  22
HETATM   22  N5  UNL     1     -21.269  49.704 -61.846  1.00  0.00    -0.381 N 
ATOM     23  H52 UNL     1     -22.120  49.492 -62.365  1.00  0.00     0.157 HD
ATOM     24  H51 UNL     1     -20.446  49.109 -61.941  1.00  0.00     0.157 HD
ENDBRANCH   9  22
TORSDOF 2
ENDMDL
