MODEL 1
REMARK VINA RESULT: -6.736324642      0.000      0.000
REMARK  1 active torsions:
REMARK  status: ('A' for Active; 'I' for Inactive)
REMARK    1  A    between atoms: N1_1  and  C1_4 
ROOT
HETATM    1  C1  UNL     1     -22.606  51.851 -61.427  1.00  0.00     0.692 A 
HETATM    2  N2  UNL     1     -22.286  51.611 -60.144  1.00  0.00    -0.168 N 
ATOM      3  H2  UNL     1     -22.935  51.264 -59.438  1.00  0.00     0.186 HD
HETATM    4  C2  UNL     1     -20.990  51.894 -59.919  1.00  0.00     0.217 A 
HETATM    5  C3  UNL     1     -20.152  51.838 -58.825  1.00  0.00     0.306 A 
HETATM    6  O1  UNL     1     -20.584  51.445 -57.715  1.00  0.00    -0.262 OA
HETATM    7  N3  UNL     1     -18.847  52.195 -58.891  1.00  0.00    -0.259 N 
ATOM      8  H3  UNL     1     -18.237  52.149 -58.074  1.00  0.00     0.190 HD
HETATM    9  N4  UNL     1     -18.403  52.608 -60.064  1.00  0.00    -0.247 N 
ATOM     10  H4  UNL     1     -17.426  52.886 -60.152  1.00  0.00     0.192 HD
HETATM   11  C4  UNL     1     -19.204  52.674 -61.158  1.00  0.00     0.362 A 
HETATM   12  O2  UNL     1     -18.750  53.069 -62.258  1.00  0.00    -0.243 OA
HETATM   13  N5  UNL     1     -20.504  52.318 -61.098  1.00  0.00    -0.167 N 
HETATM   14  N6  UNL     1     -21.488  52.289 -62.006  1.00  0.00    -0.120 N 
ATOM     15  H6  UNL     1     -21.397  52.561 -62.986  1.00  0.00     0.206 HD
ENDROOT
BRANCH   1  16
HETATM   16  N1  UNL     1     -23.749  51.701 -62.021  1.00  0.00    -0.233 N 
ATOM     17  H12 UNL     1     -24.579  52.270 -61.855  1.00  0.00     0.174 HD
ATOM     18  H11 UNL     1     -24.017  51.017 -62.729  1.00  0.00     0.174 HD
ENDBRANCH   1  16
TORSDOF 1
ENDMDL
MODEL 2
REMARK VINA RESULT: -6.604110107      0.556      2.643
REMARK  1 active torsions:
REMARK  status: ('A' for Active; 'I' for Inactive)
REMARK    1  A    between atoms: N1_1  and  C1_4 
ROOT
HETATM    1  C1  UNL     1     -22.655  51.866 -61.558  1.00  0.00     0.692 A 
HETATM    2  N2  UNL     1     -21.519  52.300 -62.132  1.00  0.00    -0.168 N 
ATOM      3  H2  UNL     1     -21.420  52.536 -63.119  1.00  0.00     0.186 HD
HETATM    4  C2  UNL     1     -20.530  52.381 -61.222  1.00  0.00     0.217 A 
HETATM    5  C3  UNL     1     -19.203  52.754 -61.251  1.00  0.00     0.306 A 
HETATM    6  O1  UNL     1     -18.673  53.127 -62.325  1.00  0.00    -0.262 OA
HETATM    7  N3  UNL     1     -18.420  52.737 -60.146  1.00  0.00    -0.259 N 
ATOM      8  H3  UNL     1     -17.439  53.015 -60.181  1.00  0.00     0.190 HD
HETATM    9  N4  UNL     1     -18.989  52.342 -59.022  1.00  0.00    -0.247 N 
ATOM     10  H4  UNL     1     -18.430  52.316 -58.169  1.00  0.00     0.192 HD
HETATM   11  C4  UNL     1     -20.293  51.969 -58.963  1.00  0.00     0.362 A 
HETATM   12  O2  UNL     1     -20.802  51.600 -57.878  1.00  0.00    -0.243 OA
HETATM   13  N5  UNL     1     -21.077  51.985 -60.060  1.00  0.00    -0.167 N 
HETATM   14  N6  UNL     1     -22.363  51.674 -60.271  1.00  0.00    -0.120 N 
ATOM     15  H6  UNL     1     -23.015  51.343 -59.560  1.00  0.00     0.206 HD
ENDROOT
BRANCH   1  16
HETATM   16  N1  UNL     1     -23.813  51.661 -62.103  1.00  0.00    -0.233 N 
ATOM     17  H12 UNL     1     -23.968  51.233 -63.016  1.00  0.00     0.174 HD
ATOM     18  H11 UNL     1     -24.739  51.881 -61.737  1.00  0.00     0.174 HD
ENDBRANCH   1  16
TORSDOF 1
ENDMDL
MODEL 3
REMARK VINA RESULT: -6.546453786      1.937      2.064
REMARK  1 active torsions:
REMARK  status: ('A' for Active; 'I' for Inactive)
REMARK    1  A    between atoms: N1_1  and  C1_4 
ROOT
HETATM    1  C1  UNL     1     -20.789  49.332 -61.016  1.00  0.00     0.692 A 
HETATM    2  N2  UNL     1     -20.294  49.465 -59.773  1.00  0.00    -0.168 N 
ATOM      3  H2  UNL     1     -20.383  48.766 -59.035  1.00  0.00     0.186 HD
HETATM    4  C2  UNL     1     -19.664  50.646 -59.639  1.00  0.00     0.217 A 
HETATM    5  C3  UNL     1     -18.995  51.287 -58.618  1.00  0.00     0.306 A 
HETATM    6  O1  UNL     1     -18.877  50.738 -57.495  1.00  0.00    -0.262 OA
HETATM    7  N3  UNL     1     -18.442  52.514 -58.769  1.00  0.00    -0.259 N 
ATOM      8  H3  UNL     1     -17.948  52.977 -58.006  1.00  0.00     0.190 HD
HETATM    9  N4  UNL     1     -18.572  53.081 -59.955  1.00  0.00    -0.247 N 
ATOM     10  H4  UNL     1     -18.169  54.005 -60.106  1.00  0.00     0.192 HD
HETATM   11  C4  UNL     1     -19.226  52.474 -60.979  1.00  0.00     0.362 A 
HETATM   12  O2  UNL     1     -19.331  53.041 -62.093  1.00  0.00    -0.243 OA
HETATM   13  N5  UNL     1     -19.778  51.252 -60.833  1.00  0.00    -0.167 N 
HETATM   14  N6  UNL     1     -20.460  50.451 -61.661  1.00  0.00    -0.120 N 
ATOM     15  H6  UNL     1     -20.692  50.664 -62.632  1.00  0.00     0.206 HD
ENDROOT
BRANCH   1  16
HETATM   16  N1  UNL     1     -21.454  48.341 -61.524  1.00  0.00    -0.233 N 
ATOM     17  H12 UNL     1     -21.936  47.619 -60.990  1.00  0.00     0.174 HD
ATOM     18  H11 UNL     1     -21.609  48.112 -62.506  1.00  0.00     0.174 HD
ENDBRANCH   1  16
TORSDOF 1
ENDMDL
MODEL 4
REMARK VINA RESULT: -6.526842405      2.222      3.958
REMARK  1 active torsions:
REMARK  status: ('A' for Active; 'I' for Inactive)
REMARK    1  A    between atoms: N1_1  and  C1_4 
ROOT
HETATM    1  C1  UNL     1     -19.125  51.693 -59.211  1.00  0.00     0.692 A 
HETATM    2  N2  UNL     1     -19.641  52.928 -59.080  1.00  0.00    -0.168 N 
ATOM      3  H2  UNL     1     -19.161  53.714 -58.642  1.00  0.00     0.186 HD
HETATM    4  C2  UNL     1     -20.878  52.982 -59.605  1.00  0.00     0.217 A 
HETATM    5  C3  UNL     1     -21.840  53.960 -59.743  1.00  0.00     0.306 A 
HETATM    6  O1  UNL     1     -21.630  55.121 -59.315  1.00  0.00    -0.262 OA
HETATM    7  N3  UNL     1     -23.036  53.724 -60.334  1.00  0.00    -0.259 N 
ATOM      8  H3  UNL     1     -23.740  54.457 -60.430  1.00  0.00     0.190 HD
HETATM    9  N4  UNL     1     -23.246  52.499 -60.780  1.00  0.00    -0.247 N 
ATOM     10  H4  UNL     1     -24.135  52.284 -61.231  1.00  0.00     0.192 HD
HETATM   11  C4  UNL     1     -22.318  51.516 -60.659  1.00  0.00     0.362 A 
HETATM   12  O2  UNL     1     -22.550  50.363 -61.095  1.00  0.00    -0.243 OA
HETATM   13  N5  UNL     1     -21.126  51.746 -60.071  1.00  0.00    -0.167 N 
HETATM   14  N6  UNL     1     -20.060  50.971 -59.829  1.00  0.00    -0.120 N 
ATOM     15  H6  UNL     1     -19.978  49.985 -60.077  1.00  0.00     0.206 HD
ENDROOT
BRANCH   1  16
HETATM   16  N1  UNL     1     -17.966  51.253 -58.832  1.00  0.00    -0.233 N 
ATOM     17  H12 UNL     1     -17.203  50.988 -59.454  1.00  0.00     0.174 HD
ATOM     18  H11 UNL     1     -17.620  51.097 -57.885  1.00  0.00     0.174 HD
ENDBRANCH   1  16
TORSDOF 1
ENDMDL
MODEL 5
REMARK VINA RESULT: -6.410593519      2.222      3.922
REMARK  1 active torsions:
REMARK  status: ('A' for Active; 'I' for Inactive)
REMARK    1  A    between atoms: N1_1  and  C1_4 
ROOT
HETATM    1  C1  UNL     1     -19.126  51.654 -59.207  1.00  0.00     0.692 A 
HETATM    2  N2  UNL     1     -20.070  50.938 -59.841  1.00  0.00    -0.168 N 
ATOM      3  H2  UNL     1     -19.978  49.956 -60.100  1.00  0.00     0.186 HD
HETATM    4  C2  UNL     1     -21.154  51.696 -60.086  1.00  0.00     0.217 A 
HETATM    5  C3  UNL     1     -22.378  51.488 -60.688  1.00  0.00     0.306 A 
HETATM    6  O1  UNL     1     -22.669  50.363 -61.159  1.00  0.00    -0.262 OA
HETATM    7  N3  UNL     1     -23.308  52.467 -60.798  1.00  0.00    -0.259 N 
ATOM      8  H3  UNL     1     -24.210  52.300 -61.246  1.00  0.00     0.190 HD
HETATM    9  N4  UNL     1     -22.990  53.647 -60.299  1.00  0.00    -0.247 N 
ATOM     10  H4  UNL     1     -23.665  54.408 -60.364  1.00  0.00     0.192 HD
HETATM   11  C4  UNL     1     -21.794  53.881 -59.701  1.00  0.00     0.362 A 
HETATM   12  O2  UNL     1     -21.524  55.015 -59.237  1.00  0.00    -0.243 OA
HETATM   13  N5  UNL     1     -20.864  52.911 -59.588  1.00  0.00    -0.167 N 
HETATM   14  N6  UNL     1     -19.635  52.878 -59.058  1.00  0.00    -0.120 N 
ATOM     15  H6  UNL     1     -19.162  53.664 -58.611  1.00  0.00     0.206 HD
ENDROOT
BRANCH   1  16
HETATM   16  N1  UNL     1     -17.952  51.276 -58.806  1.00  0.00    -0.233 N 
ATOM     17  H12 UNL     1     -17.255  50.807 -59.383  1.00  0.00     0.174 HD
ATOM     18  H11 UNL     1     -17.530  51.374 -57.882  1.00  0.00     0.174 HD
ENDBRANCH   1  16
TORSDOF 1
ENDMDL
