MODEL 1
REMARK VINA RESULT: -8.126252945      0.000      0.000
REMARK  25 active torsions:
REMARK  status: ('A' for Active; 'I' for Inactive)
REMARK    1  A    between atoms: C2_2  and  O1_3 
REMARK    2  A    between atoms: C2_2  and  C3_5 
REMARK    3  A    between atoms: C3_5  and  O2_6 
REMARK    4  A    between atoms: C3_5  and  C4_8 
REMARK    5  A    between atoms: C4_8  and  O3_9 
REMARK    6  A    between atoms: C4_8  and  C5_11 
REMARK    7  A    between atoms: C5_11  and  C6_12 
REMARK    8  A    between atoms: C6_12  and  C7_13 
REMARK    9  A    between atoms: C7_13  and  O4_14 
REMARK   10  A    between atoms: C7_13  and  O5_16 
REMARK   11  A    between atoms: O5_16  and  C8_17 
REMARK   12  A    between atoms: C9_19  and  O7_20 
REMARK   13  A    between atoms: C9_19  and  C10_22 
REMARK   14  A    between atoms: C10_22  and  O8_23 
REMARK   15  A    between atoms: O8_23  and  C11_24 
REMARK   16  A    between atoms: C11_24  and  C12_26 
REMARK   17  A    between atoms: C14_28  and  O10_29 
REMARK   18  A    between atoms: C15_31  and  O11_32 
REMARK   19  A    between atoms: C16_34  and  O12_35 
REMARK   20  A    between atoms: C19_39  and  C20_40 
REMARK   21  A    between atoms: C20_40  and  O14_42 
REMARK   22  A    between atoms: O14_42  and  C21_43 
REMARK   23  A    between atoms: C25_50  and  O16_51 
REMARK   24  A    between atoms: C26_53  and  O17_54 
REMARK   25  A    between atoms: O17_54  and  C27_55 
ROOT
HETATM    1  C8  UNL     1     -17.935  22.448  39.558  1.00  0.00     0.297 C 
HETATM    2  O6  UNL     1     -16.736  22.354  38.485  1.00  0.00    -0.320 OA
HETATM    3  C9  UNL     1     -16.408  21.027  38.443  1.00  0.00     0.187 C 
HETATM    4  C18 UNL     1     -17.631  20.154  38.295  1.00  0.00     0.088 C 
HETATM    5  C19 UNL     1     -18.827  20.923  37.798  1.00  0.00     0.125 C 
HETATM    6  C26 UNL     1     -19.055  22.255  38.359  1.00  0.00     0.204 C 
ENDROOT
BRANCH   3   7
HETATM    7  O7  UNL     1     -15.582  20.911  37.311  1.00  0.00    -0.363 OA
ATOM      8  H7  UNL     1     -15.918  20.148  36.854  1.00  0.00     0.213 HD
ENDBRANCH   3   7
BRANCH   3   9
HETATM    9  C10 UNL     1     -15.588  20.675  39.647  1.00  0.00     0.247 C 
BRANCH   9  10
HETATM   10  O8  UNL     1     -14.413  21.349  39.874  1.00  0.00    -0.312 OA
BRANCH  10  11
HETATM   11  C11 UNL     1     -13.414  21.770  39.064  1.00  0.00     0.293 C 
HETATM   12  O9  UNL     1     -12.666  20.910  38.536  1.00  0.00    -0.259 OA
BRANCH  11  13
HETATM   13  C12 UNL     1     -13.130  23.166  38.750  1.00  0.00     0.045 A 
HETATM   14  C13 UNL     1     -14.058  23.907  38.074  1.00  0.00     0.057 A 
HETATM   15  C14 UNL     1     -13.886  25.223  37.711  1.00  0.00     0.102 A 
HETATM   16  C15 UNL     1     -12.700  25.861  38.045  1.00  0.00     0.132 A 
HETATM   17  C16 UNL     1     -11.743  25.121  38.734  1.00  0.00     0.102 A 
HETATM   18  C17 UNL     1     -11.951  23.810  39.079  1.00  0.00     0.057 A 
BRANCH  15  19
HETATM   19  O10 UNL     1     -14.871  25.904  37.025  1.00  0.00    -0.358 OA
ATOM     20  H10 UNL     1     -14.822  26.846  36.909  1.00  0.00     0.217 HD
ENDBRANCH  15  19
BRANCH  16  21
HETATM   21  O11 UNL     1     -12.441  27.198  37.715  1.00  0.00    -0.356 OA
ATOM     22  H11 UNL     1     -11.621  27.629  37.927  1.00  0.00     0.218 HD
ENDBRANCH  16  21
BRANCH  17  23
HETATM   23  O12 UNL     1     -10.556  25.791  39.056  1.00  0.00    -0.358 OA
ATOM     24  H12 UNL     1     -10.651  26.616  39.517  1.00  0.00     0.217 HD
ENDBRANCH  17  23
ENDBRANCH  11  13
ENDBRANCH  10  11
ENDBRANCH   9  10
ENDBRANCH   3   9
BRANCH   1  25
HETATM   25  O5  UNL     1     -17.836  23.883  39.416  1.00  0.00    -0.326 OA
BRANCH  25  26
HETATM   26  C7  UNL     1     -18.046  24.436  40.683  1.00  0.00     0.284 C 
BRANCH  26  27
HETATM   27  C6  UNL     1     -18.606  25.784  40.579  1.00  0.00     0.031 C 
BRANCH  27  28
HETATM   28  C5  UNL     1     -19.700  25.950  39.894  1.00  0.00     0.008 C 
BRANCH  28  29
HETATM   29  C4  UNL     1     -19.707  26.582  38.549  1.00  0.00     0.172 C 
BRANCH  29  30
HETATM   30  C3  UNL     1     -21.120  27.127  38.340  1.00  0.00     0.178 C 
BRANCH  30  31
HETATM   31  C2  UNL     1     -21.445  27.379  36.903  1.00  0.00     0.145 C 
HETATM   32  C1  UNL     1     -22.381  28.532  36.714  1.00  0.00     0.042 C 
BRANCH  31  33
HETATM   33  O1  UNL     1     -20.359  27.497  36.065  1.00  0.00    -0.393 OA
ATOM     34  H1  UNL     1     -19.552  27.352  36.544  1.00  0.00     0.210 HD
ENDBRANCH  31  33
ENDBRANCH  30  31
BRANCH  30  35
HETATM   35  O2  UNL     1     -21.980  26.144  38.880  1.00  0.00    -0.390 OA
ATOM     36  H2  UNL     1     -21.523  25.619  39.527  1.00  0.00     0.210 HD
ENDBRANCH  30  35
ENDBRANCH  29  30
BRANCH  29  37
HETATM   37  O3  UNL     1     -19.514  25.488  37.656  1.00  0.00    -0.389 OA
ATOM     38  H3  UNL     1     -19.182  24.751  38.155  1.00  0.00     0.210 HD
ENDBRANCH  29  37
ENDBRANCH  28  29
ENDBRANCH  27  28
ENDBRANCH  26  27
BRANCH  26  39
HETATM   39  O4  UNL     1     -18.964  23.626  41.388  1.00  0.00    -0.368 OA
ATOM     40  H4  UNL     1     -18.673  22.723  41.330  1.00  0.00     0.213 HD
ENDBRANCH  26  39
ENDBRANCH  25  26
ENDBRANCH   1  25
BRANCH   5  41
HETATM   41  C20 UNL     1     -18.885  21.033  36.321  1.00  0.00     0.272 C 
HETATM   42  O13 UNL     1     -19.900  20.564  35.710  1.00  0.00    -0.264 OA
BRANCH  41  43
HETATM   43  O14 UNL     1     -17.934  21.603  35.487  1.00  0.00    -0.258 OA
BRANCH  43  44
HETATM   44  C21 UNL     1     -18.281  22.728  34.711  1.00  0.00     0.188 A 
HETATM   45  N1  UNL     1     -18.959  22.646  33.554  1.00  0.00    -0.344 N 
HETATM   46  C22 UNL     1     -19.279  23.760  32.836  1.00  0.00     0.094 A 
ATOM     47  H1  UNL     1     -19.239  21.729  33.205  1.00  0.00     0.167 HD
HETATM   48  C23 UNL     1     -18.907  25.029  33.286  1.00  0.00     0.075 A 
HETATM   49  C24 UNL     1     -18.214  25.117  34.466  1.00  0.00     0.210 A 
HETATM   50  O15 UNL     1     -17.844  26.225  34.940  1.00  0.00    -0.285 OA
HETATM   51  C25 UNL     1     -17.915  23.966  35.153  1.00  0.00     0.168 A 
BRANCH  51  52
HETATM   52  O16 UNL     1     -17.205  24.032  36.360  1.00  0.00    -0.354 OA
ATOM     53  H16 UNL     1     -17.284  24.831  36.868  1.00  0.00     0.218 HD
ENDBRANCH  51  52
ENDBRANCH  43  44
ENDBRANCH  41  43
ENDBRANCH   5  41
BRANCH   6  54
HETATM   54  O17 UNL     1     -20.298  22.549  38.899  1.00  0.00    -0.285 OA
BRANCH  54  55
HETATM   55  C27 UNL     1     -21.459  22.596  38.156  1.00  0.00     0.333 C 
HETATM   56  O18 UNL     1     -21.622  23.666  37.455  1.00  0.00    -0.624 OA
HETATM   57  O19 UNL     1     -22.426  21.609  38.114  1.00  0.00    -0.624 OA
ENDBRANCH  54  55
ENDBRANCH   6  54
TORSDOF 25
ENDMDL
MODEL 2
REMARK VINA RESULT: -7.989814296      1.907      4.816
REMARK  25 active torsions:
REMARK  status: ('A' for Active; 'I' for Inactive)
REMARK    1  A    between atoms: C2_2  and  O1_3 
REMARK    2  A    between atoms: C2_2  and  C3_5 
REMARK    3  A    between atoms: C3_5  and  O2_6 
REMARK    4  A    between atoms: C3_5  and  C4_8 
REMARK    5  A    between atoms: C4_8  and  O3_9 
REMARK    6  A    between atoms: C4_8  and  C5_11 
REMARK    7  A    between atoms: C5_11  and  C6_12 
REMARK    8  A    between atoms: C6_12  and  C7_13 
REMARK    9  A    between atoms: C7_13  and  O4_14 
REMARK   10  A    between atoms: C7_13  and  O5_16 
REMARK   11  A    between atoms: O5_16  and  C8_17 
REMARK   12  A    between atoms: C9_19  and  O7_20 
REMARK   13  A    between atoms: C9_19  and  C10_22 
REMARK   14  A    between atoms: C10_22  and  O8_23 
REMARK   15  A    between atoms: O8_23  and  C11_24 
REMARK   16  A    between atoms: C11_24  and  C12_26 
REMARK   17  A    between atoms: C14_28  and  O10_29 
REMARK   18  A    between atoms: C15_31  and  O11_32 
REMARK   19  A    between atoms: C16_34  and  O12_35 
REMARK   20  A    between atoms: C19_39  and  C20_40 
REMARK   21  A    between atoms: C20_40  and  O14_42 
REMARK   22  A    between atoms: O14_42  and  C21_43 
REMARK   23  A    between atoms: C25_50  and  O16_51 
REMARK   24  A    between atoms: C26_53  and  O17_54 
REMARK   25  A    between atoms: O17_54  and  C27_55 
ROOT
HETATM    1  C8  UNL     1     -17.517  24.269  37.215  1.00  0.00     0.297 C 
HETATM    2  O6  UNL     1     -18.144  22.784  37.196  1.00  0.00    -0.320 OA
HETATM    3  C9  UNL     1     -17.520  22.128  38.222  1.00  0.00     0.187 C 
HETATM    4  C18 UNL     1     -17.532  22.943  39.494  1.00  0.00     0.088 C 
HETATM    5  C19 UNL     1     -18.567  24.036  39.465  1.00  0.00     0.125 C 
HETATM    6  C26 UNL     1     -18.720  24.790  38.220  1.00  0.00     0.204 C 
ENDROOT
BRANCH   3   7
HETATM    7  O7  UNL     1     -18.271  20.952  38.387  1.00  0.00    -0.363 OA
ATOM      8  H7  UNL     1     -17.721  20.397  38.928  1.00  0.00     0.213 HD
ENDBRANCH   3   7
BRANCH   3   9
HETATM    9  C10 UNL     1     -16.137  21.736  37.799  1.00  0.00     0.247 C 
BRANCH   9  10
HETATM   10  O8  UNL     1     -15.117  21.796  38.716  1.00  0.00    -0.312 OA
BRANCH  10  11
HETATM   11  C11 UNL     1     -13.785  22.016  38.610  1.00  0.00     0.293 C 
HETATM   12  O9  UNL     1     -13.026  21.032  38.436  1.00  0.00    -0.259 OA
BRANCH  11  13
HETATM   13  C12 UNL     1     -13.152  23.328  38.684  1.00  0.00     0.045 A 
HETATM   14  C13 UNL     1     -11.952  23.462  39.325  1.00  0.00     0.057 A 
HETATM   15  C14 UNL     1     -11.279  24.654  39.469  1.00  0.00     0.102 A 
HETATM   16  C15 UNL     1     -11.834  25.808  38.936  1.00  0.00     0.132 A 
HETATM   17  C16 UNL     1     -13.056  25.689  38.280  1.00  0.00     0.102 A 
HETATM   18  C17 UNL     1     -13.698  24.483  38.156  1.00  0.00     0.057 A 
BRANCH  15  19
HETATM   19  O10 UNL     1     -10.070  24.708  40.134  1.00  0.00    -0.358 OA
ATOM     20  H10 UNL     1      -9.860  25.438  40.705  1.00  0.00     0.217 HD
ENDBRANCH  15  19
BRANCH  16  21
HETATM   21  O11 UNL     1     -11.217  27.061  39.037  1.00  0.00    -0.356 OA
ATOM     22  H11 UNL     1     -11.700  27.878  38.980  1.00  0.00     0.218 HD
ENDBRANCH  16  21
BRANCH  17  23
HETATM   23  O12 UNL     1     -13.593  26.871  37.754  1.00  0.00    -0.358 OA
ATOM     24  H12 UNL     1     -14.277  27.286  38.265  1.00  0.00     0.217 HD
ENDBRANCH  17  23
ENDBRANCH  11  13
ENDBRANCH  10  11
ENDBRANCH   9  10
ENDBRANCH   3   9
BRANCH   1  25
HETATM   25  O5  UNL     1     -18.253  24.504  35.994  1.00  0.00    -0.326 OA
BRANCH  25  26
HETATM   26  C7  UNL     1     -17.421  25.244  35.149  1.00  0.00     0.284 C 
BRANCH  26  27
HETATM   27  C6  UNL     1     -17.886  25.171  33.763  1.00  0.00     0.031 C 
BRANCH  27  28
HETATM   28  C5  UNL     1     -19.167  25.139  33.540  1.00  0.00     0.008 C 
BRANCH  28  29
HETATM   29  C4  UNL     1     -19.887  23.879  33.219  1.00  0.00     0.172 C 
BRANCH  29  30
HETATM   30  C3  UNL     1     -18.839  22.917  32.662  1.00  0.00     0.178 C 
BRANCH  30  31
HETATM   31  C2  UNL     1     -18.692  21.672  33.478  1.00  0.00     0.145 C 
HETATM   32  C1  UNL     1     -17.320  21.078  33.388  1.00  0.00     0.042 C 
BRANCH  31  33
HETATM   33  O1  UNL     1     -19.087  21.779  34.792  1.00  0.00    -0.393 OA
ATOM     34  H1  UNL     1     -19.035  20.934  35.225  1.00  0.00     0.210 HD
ENDBRANCH  31  33
ENDBRANCH  30  31
BRANCH  30  35
HETATM   35  O2  UNL     1     -19.277  22.606  31.355  1.00  0.00    -0.390 OA
ATOM     36  H2  UNL     1     -18.808  23.127  30.714  1.00  0.00     0.210 HD
ENDBRANCH  30  35
ENDBRANCH  29  30
BRANCH  29  37
HETATM   37  O3  UNL     1     -20.764  24.246  32.157  1.00  0.00    -0.389 OA
ATOM     38  H3  UNL     1     -20.856  25.192  32.161  1.00  0.00     0.210 HD
ENDBRANCH  29  37
ENDBRANCH  28  29
ENDBRANCH  27  28
ENDBRANCH  26  27
BRANCH  26  39
HETATM   39  O4  UNL     1     -17.444  26.597  35.555  1.00  0.00    -0.368 OA
ATOM     40  H4  UNL     1     -17.684  26.629  36.474  1.00  0.00     0.213 HD
ENDBRANCH  26  39
ENDBRANCH  25  26
ENDBRANCH   1  25
BRANCH   5  41
HETATM   41  C20 UNL     1     -19.912  23.585  39.893  1.00  0.00     0.272 C 
HETATM   42  O13 UNL     1     -20.417  24.081  40.954  1.00  0.00    -0.264 OA
BRANCH  41  43
HETATM   43  O14 UNL     1     -20.723  22.652  39.262  1.00  0.00    -0.258 OA
BRANCH  43  44
HETATM   44  C21 UNL     1     -21.543  23.062  38.191  1.00  0.00     0.188 A 
HETATM   45  N1  UNL     1     -22.321  24.157  38.234  1.00  0.00    -0.344 N 
HETATM   46  C22 UNL     1     -23.096  24.521  37.173  1.00  0.00     0.094 A 
ATOM     47  H1  UNL     1     -22.331  24.728  39.079  1.00  0.00     0.167 HD
HETATM   48  C23 UNL     1     -23.105  23.759  36.002  1.00  0.00     0.075 A 
HETATM   49  C24 UNL     1     -22.314  22.640  35.955  1.00  0.00     0.210 A 
HETATM   50  O15 UNL     1     -22.267  21.901  34.935  1.00  0.00    -0.285 OA
HETATM   51  C25 UNL     1     -21.551  22.314  37.049  1.00  0.00     0.168 A 
BRANCH  51  52
HETATM   52  O16 UNL     1     -20.737  21.173  37.024  1.00  0.00    -0.354 OA
ATOM     53  H16 UNL     1     -20.982  20.478  36.425  1.00  0.00     0.218 HD
ENDBRANCH  51  52
ENDBRANCH  43  44
ENDBRANCH  41  43
ENDBRANCH   5  41
BRANCH   6  54
HETATM   54  O17 UNL     1     -18.654  26.175  38.265  1.00  0.00    -0.285 OA
BRANCH  54  55
HETATM   55  C27 UNL     1     -19.740  26.996  38.043  1.00  0.00     0.333 C 
HETATM   56  O18 UNL     1     -19.585  27.874  37.112  1.00  0.00    -0.624 OA
HETATM   57  O19 UNL     1     -20.940  26.943  38.727  1.00  0.00    -0.624 OA
ENDBRANCH  54  55
ENDBRANCH   6  54
TORSDOF 25
ENDMDL
MODEL 3
REMARK VINA RESULT: -7.989310414      1.979      5.369
REMARK  25 active torsions:
REMARK  status: ('A' for Active; 'I' for Inactive)
REMARK    1  A    between atoms: C2_2  and  O1_3 
REMARK    2  A    between atoms: C2_2  and  C3_5 
REMARK    3  A    between atoms: C3_5  and  O2_6 
REMARK    4  A    between atoms: C3_5  and  C4_8 
REMARK    5  A    between atoms: C4_8  and  O3_9 
REMARK    6  A    between atoms: C4_8  and  C5_11 
REMARK    7  A    between atoms: C5_11  and  C6_12 
REMARK    8  A    between atoms: C6_12  and  C7_13 
REMARK    9  A    between atoms: C7_13  and  O4_14 
REMARK   10  A    between atoms: C7_13  and  O5_16 
REMARK   11  A    between atoms: O5_16  and  C8_17 
REMARK   12  A    between atoms: C9_19  and  O7_20 
REMARK   13  A    between atoms: C9_19  and  C10_22 
REMARK   14  A    between atoms: C10_22  and  O8_23 
REMARK   15  A    between atoms: O8_23  and  C11_24 
REMARK   16  A    between atoms: C11_24  and  C12_26 
REMARK   17  A    between atoms: C14_28  and  O10_29 
REMARK   18  A    between atoms: C15_31  and  O11_32 
REMARK   19  A    between atoms: C16_34  and  O12_35 
REMARK   20  A    between atoms: C19_39  and  C20_40 
REMARK   21  A    between atoms: C20_40  and  O14_42 
REMARK   22  A    between atoms: O14_42  and  C21_43 
REMARK   23  A    between atoms: C25_50  and  O16_51 
REMARK   24  A    between atoms: C26_53  and  O17_54 
REMARK   25  A    between atoms: O17_54  and  C27_55 
ROOT
HETATM    1  C8  UNL     1     -18.463  23.940  37.666  1.00  0.00     0.297 C 
HETATM    2  O6  UNL     1     -18.179  25.527  37.651  1.00  0.00    -0.320 OA
HETATM    3  C9  UNL     1     -17.629  25.772  36.423  1.00  0.00     0.187 C 
HETATM    4  C18 UNL     1     -18.430  25.131  35.314  1.00  0.00     0.088 C 
HETATM    5  C19 UNL     1     -19.826  24.772  35.750  1.00  0.00     0.125 C 
HETATM    6  C26 UNL     1     -19.989  24.183  37.080  1.00  0.00     0.204 C 
ENDROOT
BRANCH   3   7
HETATM    7  O7  UNL     1     -17.658  27.172  36.304  1.00  0.00    -0.363 OA
ATOM      8  H7  UNL     1     -17.322  27.339  35.431  1.00  0.00     0.213 HD
ENDBRANCH   3   7
BRANCH   3   9
HETATM    9  C10 UNL     1     -16.193  25.340  36.423  1.00  0.00     0.247 C 
BRANCH   9  10
HETATM   10  O8  UNL     1     -15.448  25.503  37.566  1.00  0.00    -0.312 OA
BRANCH  10  11
HETATM   11  C11 UNL     1     -14.125  25.677  37.794  1.00  0.00     0.293 C 
HETATM   12  O9  UNL     1     -13.607  26.784  37.505  1.00  0.00    -0.259 OA
BRANCH  11  13
HETATM   13  C12 UNL     1     -13.239  24.665  38.356  1.00  0.00     0.045 A 
HETATM   14  C13 UNL     1     -13.582  23.345  38.271  1.00  0.00     0.057 A 
HETATM   15  C14 UNL     1     -12.829  22.313  38.783  1.00  0.00     0.102 A 
HETATM   16  C15 UNL     1     -11.640  22.608  39.434  1.00  0.00     0.132 A 
HETATM   17  C16 UNL     1     -11.276  23.948  39.531  1.00  0.00     0.102 A 
HETATM   18  C17 UNL     1     -12.052  24.950  39.007  1.00  0.00     0.057 A 
BRANCH  15  19
HETATM   19  O10 UNL     1     -13.245  21.002  38.658  1.00  0.00    -0.358 OA
ATOM     20  H10 UNL     1     -13.507  20.653  37.815  1.00  0.00     0.217 HD
ENDBRANCH  15  19
BRANCH  16  21
HETATM   21  O11 UNL     1     -10.814  21.621  39.985  1.00  0.00    -0.356 OA
ATOM     22  H11 UNL     1     -10.980  21.226  40.834  1.00  0.00     0.218 HD
ENDBRANCH  16  21
BRANCH  17  23
HETATM   23  O12 UNL     1     -10.071  24.216  40.194  1.00  0.00    -0.358 OA
ATOM     24  H12 UNL     1      -9.416  24.693  39.699  1.00  0.00     0.217 HD
ENDBRANCH  17  23
ENDBRANCH  11  13
ENDBRANCH  10  11
ENDBRANCH   9  10
ENDBRANCH   3   9
BRANCH   1  25
HETATM   25  O5  UNL     1     -18.828  24.104  39.055  1.00  0.00    -0.326 OA
BRANCH  25  26
HETATM   26  C7  UNL     1     -17.755  23.635  39.819  1.00  0.00     0.284 C 
BRANCH  26  27
HETATM   27  C6  UNL     1     -16.932  22.703  39.047  1.00  0.00     0.031 C 
BRANCH  27  28
HETATM   28  C5  UNL     1     -16.767  21.496  39.504  1.00  0.00     0.008 C 
BRANCH  28  29
HETATM   29  C4  UNL     1     -16.683  20.312  38.609  1.00  0.00     0.172 C 
BRANCH  29  30
HETATM   30  C3  UNL     1     -18.081  20.120  38.022  1.00  0.00     0.178 C 
BRANCH  30  31
HETATM   31  C2  UNL     1     -18.098  20.146  36.527  1.00  0.00     0.145 C 
HETATM   32  C1  UNL     1     -18.058  18.776  35.923  1.00  0.00     0.042 C 
BRANCH  31  33
HETATM   33  O1  UNL     1     -19.108  20.892  35.962  1.00  0.00    -0.393 OA
ATOM     34  H1  UNL     1     -18.765  21.448  35.272  1.00  0.00     0.210 HD
ENDBRANCH  31  33
ENDBRANCH  30  31
BRANCH  30  35
HETATM   35  O2  UNL     1     -18.516  18.864  38.503  1.00  0.00    -0.390 OA
ATOM     36  H2  UNL     1     -18.551  18.865  39.452  1.00  0.00     0.210 HD
ENDBRANCH  30  35
ENDBRANCH  29  30
BRANCH  29  37
HETATM   37  O3  UNL     1     -16.420  19.230  39.498  1.00  0.00    -0.389 OA
ATOM     38  H3  UNL     1     -15.516  18.963  39.384  1.00  0.00     0.210 HD
ENDBRANCH  29  37
ENDBRANCH  28  29
ENDBRANCH  27  28
ENDBRANCH  26  27
BRANCH  26  39
HETATM   39  O4  UNL     1     -16.949  24.733  40.196  1.00  0.00    -0.368 OA
ATOM     40  H4  UNL     1     -17.254  25.502  39.729  1.00  0.00     0.213 HD
ENDBRANCH  26  39
ENDBRANCH  25  26
ENDBRANCH   1  25
BRANCH   5  41
HETATM   41  C20 UNL     1     -20.789  25.891  35.626  1.00  0.00     0.272 C 
HETATM   42  O13 UNL     1     -21.975  25.639  35.233  1.00  0.00    -0.264 OA
BRANCH  41  43
HETATM   43  O14 UNL     1     -20.552  27.233  35.891  1.00  0.00    -0.258 OA
BRANCH  43  44
HETATM   44  C21 UNL     1     -21.453  27.945  36.708  1.00  0.00     0.188 A 
HETATM   45  N1  UNL     1     -22.717  28.221  36.346  1.00  0.00    -0.344 N 
HETATM   46  C22 UNL     1     -23.559  28.909  37.169  1.00  0.00     0.094 A 
ATOM     47  H1  UNL     1     -23.055  27.909  35.436  1.00  0.00     0.167 HD
HETATM   48  C23 UNL     1     -23.127  29.351  38.423  1.00  0.00     0.075 A 
HETATM   49  C24 UNL     1     -21.837  29.073  38.794  1.00  0.00     0.210 A 
HETATM   50  O15 UNL     1     -21.372  29.437  39.908  1.00  0.00    -0.285 OA
HETATM   51  C25 UNL     1     -21.028  28.377  37.931  1.00  0.00     0.168 A 
BRANCH  51  52
HETATM   52  O16 UNL     1     -19.704  28.084  38.290  1.00  0.00    -0.354 OA
ATOM     53  H16 UNL     1     -19.170  27.632  37.648  1.00  0.00     0.218 HD
ENDBRANCH  51  52
ENDBRANCH  43  44
ENDBRANCH  41  43
ENDBRANCH   5  41
BRANCH   6  54
HETATM   54  O17 UNL     1     -20.677  22.985  37.201  1.00  0.00    -0.285 OA
BRANCH  54  55
HETATM   55  C27 UNL     1     -21.917  22.876  37.795  1.00  0.00     0.333 C 
HETATM   56  O18 UNL     1     -22.255  21.683  38.150  1.00  0.00    -0.624 OA
HETATM   57  O19 UNL     1     -22.790  23.922  38.027  1.00  0.00    -0.624 OA
ENDBRANCH  54  55
ENDBRANCH   6  54
TORSDOF 25
ENDMDL
MODEL 4
REMARK VINA RESULT: -7.928630228      1.917      4.379
REMARK  25 active torsions:
REMARK  status: ('A' for Active; 'I' for Inactive)
REMARK    1  A    between atoms: C2_2  and  O1_3 
REMARK    2  A    between atoms: C2_2  and  C3_5 
REMARK    3  A    between atoms: C3_5  and  O2_6 
REMARK    4  A    between atoms: C3_5  and  C4_8 
REMARK    5  A    between atoms: C4_8  and  O3_9 
REMARK    6  A    between atoms: C4_8  and  C5_11 
REMARK    7  A    between atoms: C5_11  and  C6_12 
REMARK    8  A    between atoms: C6_12  and  C7_13 
REMARK    9  A    between atoms: C7_13  and  O4_14 
REMARK   10  A    between atoms: C7_13  and  O5_16 
REMARK   11  A    between atoms: O5_16  and  C8_17 
REMARK   12  A    between atoms: C9_19  and  O7_20 
REMARK   13  A    between atoms: C9_19  and  C10_22 
REMARK   14  A    between atoms: C10_22  and  O8_23 
REMARK   15  A    between atoms: O8_23  and  C11_24 
REMARK   16  A    between atoms: C11_24  and  C12_26 
REMARK   17  A    between atoms: C14_28  and  O10_29 
REMARK   18  A    between atoms: C15_31  and  O11_32 
REMARK   19  A    between atoms: C16_34  and  O12_35 
REMARK   20  A    between atoms: C19_39  and  C20_40 
REMARK   21  A    between atoms: C20_40  and  O14_42 
REMARK   22  A    between atoms: O14_42  and  C21_43 
REMARK   23  A    between atoms: C25_50  and  O16_51 
REMARK   24  A    between atoms: C26_53  and  O17_54 
REMARK   25  A    between atoms: O17_54  and  C27_55 
ROOT
HETATM    1  C8  UNL     1     -18.166  23.315  37.181  1.00  0.00     0.297 C 
HETATM    2  O6  UNL     1     -18.059  24.919  37.297  1.00  0.00    -0.320 OA
HETATM    3  C9  UNL     1     -17.286  25.295  36.233  1.00  0.00     0.187 C 
HETATM    4  C18 UNL     1     -17.756  24.654  34.948  1.00  0.00     0.088 C 
HETATM    5  C19 UNL     1     -19.165  24.135  35.049  1.00  0.00     0.125 C 
HETATM    6  C26 UNL     1     -19.547  23.448  36.283  1.00  0.00     0.204 C 
ENDROOT
BRANCH   3   7
HETATM    7  O7  UNL     1     -17.441  26.691  36.170  1.00  0.00    -0.363 OA
ATOM      8  H7  UNL     1     -17.224  26.909  35.271  1.00  0.00     0.213 HD
ENDBRANCH   3   7
BRANCH   3   9
HETATM    9  C10 UNL     1     -15.847  25.005  36.532  1.00  0.00     0.247 C 
BRANCH   9  10
HETATM   10  O8  UNL     1     -15.191  25.772  37.465  1.00  0.00    -0.312 OA
BRANCH  10  11
HETATM   11  C11 UNL     1     -13.904  25.830  37.879  1.00  0.00     0.293 C 
HETATM   12  O9  UNL     1     -13.299  26.928  37.808  1.00  0.00    -0.259 OA
BRANCH  11  13
HETATM   13  C12 UNL     1     -13.150  24.700  38.410  1.00  0.00     0.045 A 
HETATM   14  C13 UNL     1     -11.960  24.921  39.043  1.00  0.00     0.057 A 
HETATM   15  C14 UNL     1     -11.161  23.929  39.563  1.00  0.00     0.102 A 
HETATM   16  C15 UNL     1     -11.572  22.608  39.450  1.00  0.00     0.132 A 
HETATM   17  C16 UNL     1     -12.782  22.365  38.807  1.00  0.00     0.102 A 
HETATM   18  C17 UNL     1     -13.552  23.381  38.301  1.00  0.00     0.057 A 
BRANCH  15  19
HETATM   19  O10 UNL     1      -9.968  24.233  40.188  1.00  0.00    -0.358 OA
ATOM     20  H10 UNL     1      -9.579  25.096  40.103  1.00  0.00     0.217 HD
ENDBRANCH  15  19
BRANCH  16  21
HETATM   21  O11 UNL     1     -10.821  21.536  39.950  1.00  0.00    -0.356 OA
ATOM     22  H11 UNL     1     -10.558  20.798  39.412  1.00  0.00     0.218 HD
ENDBRANCH  16  21
BRANCH  17  23
HETATM   23  O12 UNL     1     -13.170  21.022  38.706  1.00  0.00    -0.358 OA
ATOM     24  H12 UNL     1     -13.431  20.599  39.515  1.00  0.00     0.217 HD
ENDBRANCH  17  23
ENDBRANCH  11  13
ENDBRANCH  10  11
ENDBRANCH   9  10
ENDBRANCH   3   9
BRANCH   1  25
HETATM   25  O5  UNL     1     -18.837  23.352  38.461  1.00  0.00    -0.326 OA
BRANCH  25  26
HETATM   26  C7  UNL     1     -17.847  23.464  39.441  1.00  0.00     0.284 C 
BRANCH  26  27
HETATM   27  C6  UNL     1     -18.411  23.948  40.701  1.00  0.00     0.031 C 
BRANCH  27  28
HETATM   28  C5  UNL     1     -19.704  23.940  40.846  1.00  0.00     0.008 C 
BRANCH  28  29
HETATM   29  C4  UNL     1     -20.496  25.189  40.990  1.00  0.00     0.172 C 
BRANCH  29  30
HETATM   30  C3  UNL     1     -19.590  26.326  40.520  1.00  0.00     0.178 C 
BRANCH  30  31
HETATM   31  C2  UNL     1     -20.156  27.088  39.364  1.00  0.00     0.145 C 
HETATM   32  C1  UNL     1     -20.632  28.455  39.748  1.00  0.00     0.042 C 
BRANCH  31  33
HETATM   33  O1  UNL     1     -19.349  27.153  38.250  1.00  0.00    -0.393 OA
ATOM     34  H1  UNL     1     -18.995  28.028  38.147  1.00  0.00     0.210 HD
ENDBRANCH  31  33
ENDBRANCH  30  31
BRANCH  30  35
HETATM   35  O2  UNL     1     -19.439  27.170  41.644  1.00  0.00    -0.390 OA
ATOM     36  H2  UNL     1     -18.614  26.996  42.083  1.00  0.00     0.210 HD
ENDBRANCH  30  35
ENDBRANCH  29  30
BRANCH  29  37
HETATM   37  O3  UNL     1     -20.678  25.318  42.398  1.00  0.00    -0.389 OA
ATOM     38  H3  UNL     1     -21.355  24.708  42.667  1.00  0.00     0.210 HD
ENDBRANCH  29  37
ENDBRANCH  28  29
ENDBRANCH  27  28
ENDBRANCH  26  27
BRANCH  26  39
HETATM   39  O4  UNL     1     -17.282  22.189  39.667  1.00  0.00    -0.368 OA
ATOM     40  H4  UNL     1     -16.338  22.262  39.593  1.00  0.00     0.213 HD
ENDBRANCH  26  39
ENDBRANCH  25  26
ENDBRANCH   1  25
BRANCH   5  41
HETATM   41  C20 UNL     1     -20.194  25.162  34.762  1.00  0.00     0.272 C 
HETATM   42  O13 UNL     1     -20.911  25.038  33.715  1.00  0.00    -0.264 OA
BRANCH  41  43
HETATM   43  O14 UNL     1     -20.486  26.289  35.519  1.00  0.00    -0.258 OA
BRANCH  43  44
HETATM   44  C21 UNL     1     -21.780  26.447  36.052  1.00  0.00     0.188 A 
HETATM   45  N1  UNL     1     -22.642  25.428  36.213  1.00  0.00    -0.344 N 
HETATM   46  C22 UNL     1     -23.885  25.623  36.738  1.00  0.00     0.094 A 
ATOM     47  H1  UNL     1     -22.359  24.488  35.936  1.00  0.00     0.167 HD
HETATM   48  C23 UNL     1     -24.303  26.900  37.126  1.00  0.00     0.075 A 
HETATM   49  C24 UNL     1     -23.427  27.942  36.961  1.00  0.00     0.210 A 
HETATM   50  O15 UNL     1     -23.728  29.121  37.287  1.00  0.00    -0.285 OA
HETATM   51  C25 UNL     1     -22.186  27.695  36.428  1.00  0.00     0.168 A 
BRANCH  51  52
HETATM   52  O16 UNL     1     -21.276  28.746  36.249  1.00  0.00    -0.354 OA
ATOM     53  H16 UNL     1     -21.256  29.422  36.916  1.00  0.00     0.218 HD
ENDBRANCH  51  52
ENDBRANCH  43  44
ENDBRANCH  41  43
ENDBRANCH   5  41
BRANCH   6  54
HETATM   54  O17 UNL     1     -20.111  22.184  36.198  1.00  0.00    -0.285 OA
BRANCH  54  55
HETATM   55  C27 UNL     1     -21.375  21.881  36.659  1.00  0.00     0.333 C 
HETATM   56  O18 UNL     1     -21.415  21.115  37.695  1.00  0.00    -0.624 OA
HETATM   57  O19 UNL     1     -22.560  22.331  36.106  1.00  0.00    -0.624 OA
ENDBRANCH  54  55
ENDBRANCH   6  54
TORSDOF 25
ENDMDL
MODEL 5
REMARK VINA RESULT: -7.901299068      2.480      5.972
REMARK  25 active torsions:
REMARK  status: ('A' for Active; 'I' for Inactive)
REMARK    1  A    between atoms: C2_2  and  O1_3 
REMARK    2  A    between atoms: C2_2  and  C3_5 
REMARK    3  A    between atoms: C3_5  and  O2_6 
REMARK    4  A    between atoms: C3_5  and  C4_8 
REMARK    5  A    between atoms: C4_8  and  O3_9 
REMARK    6  A    between atoms: C4_8  and  C5_11 
REMARK    7  A    between atoms: C5_11  and  C6_12 
REMARK    8  A    between atoms: C6_12  and  C7_13 
REMARK    9  A    between atoms: C7_13  and  O4_14 
REMARK   10  A    between atoms: C7_13  and  O5_16 
REMARK   11  A    between atoms: O5_16  and  C8_17 
REMARK   12  A    between atoms: C9_19  and  O7_20 
REMARK   13  A    between atoms: C9_19  and  C10_22 
REMARK   14  A    between atoms: C10_22  and  O8_23 
REMARK   15  A    between atoms: O8_23  and  C11_24 
REMARK   16  A    between atoms: C11_24  and  C12_26 
REMARK   17  A    between atoms: C14_28  and  O10_29 
REMARK   18  A    between atoms: C15_31  and  O11_32 
REMARK   19  A    between atoms: C16_34  and  O12_35 
REMARK   20  A    between atoms: C19_39  and  C20_40 
REMARK   21  A    between atoms: C20_40  and  O14_42 
REMARK   22  A    between atoms: O14_42  and  C21_43 
REMARK   23  A    between atoms: C25_50  and  O16_51 
REMARK   24  A    between atoms: C26_53  and  O17_54 
REMARK   25  A    between atoms: O17_54  and  C27_55 
ROOT
HETATM    1  C8  UNL     1     -18.430  25.436  37.803  1.00  0.00     0.297 C 
HETATM    2  O6  UNL     1     -19.121  24.015  38.122  1.00  0.00    -0.320 OA
HETATM    3  C9  UNL     1     -19.019  23.873  39.478  1.00  0.00     0.187 C 
HETATM    4  C18 UNL     1     -19.470  25.118  40.205  1.00  0.00     0.088 C 
HETATM    5  C19 UNL     1     -20.310  26.016  39.337  1.00  0.00     0.125 C 
HETATM    6  C26 UNL     1     -19.886  26.203  37.948  1.00  0.00     0.204 C 
ENDROOT
BRANCH   3   7
HETATM    7  O7  UNL     1     -19.870  22.795  39.777  1.00  0.00    -0.363 OA
ATOM      8  H7  UNL     1     -20.159  22.965  40.666  1.00  0.00     0.213 HD
ENDBRANCH   3   7
BRANCH   3   9
HETATM    9  C10 UNL     1     -17.621  23.468  39.836  1.00  0.00     0.247 C 
BRANCH   9  10
HETATM   10  O8  UNL     1     -16.929  22.638  38.987  1.00  0.00    -0.312 OA
BRANCH  10  11
HETATM   11  C11 UNL     1     -16.052  22.863  37.981  1.00  0.00     0.293 C 
HETATM   12  O9  UNL     1     -16.331  22.435  36.834  1.00  0.00    -0.259 OA
BRANCH  11  13
HETATM   13  C12 UNL     1     -14.787  23.574  38.125  1.00  0.00     0.045 A 
HETATM   14  C13 UNL     1     -14.715  24.898  37.793  1.00  0.00     0.057 A 
HETATM   15  C14 UNL     1     -13.570  25.657  37.872  1.00  0.00     0.102 A 
HETATM   16  C15 UNL     1     -12.399  25.061  38.318  1.00  0.00     0.132 A 
HETATM   17  C16 UNL     1     -12.454  23.713  38.660  1.00  0.00     0.102 A 
HETATM   18  C17 UNL     1     -13.615  22.988  38.568  1.00  0.00     0.057 A 
BRANCH  15  19
HETATM   19  O10 UNL     1     -13.578  26.990  37.515  1.00  0.00    -0.358 OA
ATOM     20  H10 UNL     1     -12.925  27.590  37.856  1.00  0.00     0.217 HD
ENDBRANCH  15  19
BRANCH  16  21
HETATM   21  O11 UNL     1     -11.190  25.759  38.429  1.00  0.00    -0.356 OA
ATOM     22  H11 UNL     1     -10.352  25.322  38.535  1.00  0.00     0.218 HD
ENDBRANCH  16  21
BRANCH  17  23
HETATM   23  O12 UNL     1     -11.257  23.138  39.105  1.00  0.00    -0.358 OA
ATOM     24  H12 UNL     1     -11.340  22.396  39.692  1.00  0.00     0.217 HD
ENDBRANCH  17  23
ENDBRANCH  11  13
ENDBRANCH  10  11
ENDBRANCH   9  10
ENDBRANCH   3   9
BRANCH   1  25
HETATM   25  O5  UNL     1     -18.593  25.107  36.406  1.00  0.00    -0.326 OA
BRANCH  25  26
HETATM   26  C7  UNL     1     -17.476  25.612  35.733  1.00  0.00     0.284 C 
BRANCH  26  27
HETATM   27  C6  UNL     1     -17.626  25.459  34.285  1.00  0.00     0.031 C 
BRANCH  27  28
HETATM   28  C5  UNL     1     -17.686  24.257  33.791  1.00  0.00     0.008 C 
BRANCH  28  29
HETATM   29  C4  UNL     1     -18.974  23.612  33.423  1.00  0.00     0.172 C 
BRANCH  29  30
HETATM   30  C3  UNL     1     -18.939  22.210  34.030  1.00  0.00     0.178 C 
BRANCH  30  31
HETATM   31  C2  UNL     1     -17.753  21.410  33.592  1.00  0.00     0.145 C 
HETATM   32  C1  UNL     1     -17.449  20.272  34.518  1.00  0.00     0.042 C 
BRANCH  31  33
HETATM   33  O1  UNL     1     -17.786  20.975  32.287  1.00  0.00    -0.393 OA
ATOM     34  H1  UNL     1     -17.001  21.246  31.826  1.00  0.00     0.210 HD
ENDBRANCH  31  33
ENDBRANCH  30  31
BRANCH  30  35
HETATM   35  O2  UNL     1     -18.913  22.412  35.429  1.00  0.00    -0.390 OA
ATOM     36  H2  UNL     1     -18.640  23.299  35.632  1.00  0.00     0.210 HD
ENDBRANCH  30  35
ENDBRANCH  29  30
BRANCH  29  37
HETATM   37  O3  UNL     1     -18.900  23.486  32.005  1.00  0.00    -0.389 OA
ATOM     38  H3  UNL     1     -18.244  24.094  31.686  1.00  0.00     0.210 HD
ENDBRANCH  29  37
ENDBRANCH  28  29
ENDBRANCH  27  28
ENDBRANCH  26  27
BRANCH  26  39
HETATM   39  O4  UNL     1     -17.352  26.989  36.024  1.00  0.00    -0.368 OA
ATOM     40  H4  UNL     1     -16.787  27.383  35.370  1.00  0.00     0.213 HD
ENDBRANCH  26  39
ENDBRANCH  25  26
ENDBRANCH   1  25
BRANCH   5  41
HETATM   41  C20 UNL     1     -21.747  25.654  39.330  1.00  0.00     0.272 C 
HETATM   42  O13 UNL     1     -22.155  24.778  38.498  1.00  0.00    -0.264 OA
BRANCH  41  43
HETATM   43  O14 UNL     1     -22.744  26.172  40.145  1.00  0.00    -0.258 OA
BRANCH  43  44
HETATM   44  C21 UNL     1     -23.943  26.629  39.562  1.00  0.00     0.188 A 
HETATM   45  N1  UNL     1     -24.850  25.812  39.001  1.00  0.00    -0.344 N 
HETATM   46  C22 UNL     1     -26.001  26.295  38.453  1.00  0.00     0.094 A 
ATOM     47  H1  UNL     1     -24.674  24.807  38.986  1.00  0.00     0.167 HD
HETATM   48  C23 UNL     1     -26.272  27.666  38.457  1.00  0.00     0.075 A 
HETATM   49  C24 UNL     1     -25.348  28.503  39.027  1.00  0.00     0.210 A 
HETATM   50  O15 UNL     1     -25.519  29.751  39.071  1.00  0.00    -0.285 OA
HETATM   51  C25 UNL     1     -24.204  27.969  39.566  1.00  0.00     0.168 A 
BRANCH  51  52
HETATM   52  O16 UNL     1     -23.245  28.807  40.152  1.00  0.00    -0.354 OA
ATOM     53  H16 UNL     1     -23.038  29.615  39.698  1.00  0.00     0.218 HD
ENDBRANCH  51  52
ENDBRANCH  43  44
ENDBRANCH  41  43
ENDBRANCH   5  41
BRANCH   6  54
HETATM   54  O17 UNL     1     -19.726  27.494  37.467  1.00  0.00    -0.285 OA
BRANCH  54  55
HETATM   55  C27 UNL     1     -20.772  28.377  37.294  1.00  0.00     0.333 C 
HETATM   56  O18 UNL     1     -21.324  28.356  36.129  1.00  0.00    -0.624 OA
HETATM   57  O19 UNL     1     -21.250  29.251  38.252  1.00  0.00    -0.624 OA
ENDBRANCH  54  55
ENDBRANCH   6  54
TORSDOF 25
ENDMDL
