MODEL 1
REMARK VINA RESULT: -9.505052689      0.000      0.000
REMARK  20 active torsions:
REMARK  status: ('A' for Active; 'I' for Inactive)
REMARK    1  A    between atoms: C2_2  and  C4_4 
REMARK    2  A    between atoms: C4_4  and  N1_5 
REMARK    3  A    between atoms: C4_4  and  C6_13 
REMARK    4  A    between atoms: N1_5  and  C5_8 
REMARK    5  A    between atoms: C5_8  and  O1_9 
REMARK    6  A    between atoms: C5_8  and  O2_11 
REMARK    7  A    between atoms: C6_13  and  O4_15 
REMARK    8  A    between atoms: O4_15  and  C7_16 
REMARK    9  A    between atoms: C7_16  and  C8_17 
REMARK   10  A    between atoms: C7_16  and  C9_20 
REMARK   11  A    between atoms: C8_17  and  O5_18 
REMARK   12  A    between atoms: C9_20  and  C10_22 
REMARK   13  A    between atoms: N2_24  and  C12_25 
REMARK   14  A    between atoms: C15_30  and  O7_31 
REMARK   15  A    between atoms: C16_33  and  C17_34 
REMARK   16  A    between atoms: C17_34  and  O8_35 
REMARK   17  A    between atoms: C25_47  and  O11_48 
REMARK   18  A    between atoms: C26_50  and  O12_51 
REMARK   19  A    between atoms: C27_53  and  C28_54 
REMARK   20  A    between atoms: C28_54  and  O13_55 
ROOT
HETATM    1  C12 UNL     1     -20.510  25.913  38.877  1.00  0.00     0.140 A 
HETATM    2  N3  UNL     1     -21.474  26.315  38.061  1.00  0.00    -0.338 N 
ATOM      3  H3  UNL     1     -21.804  25.680  37.335  1.00  0.00     0.167 HD
HETATM    4  C13 UNL     1     -22.036  27.546  38.161  1.00  0.00     0.080 A 
HETATM    5  C14 UNL     1     -21.614  28.415  39.126  1.00  0.00     0.095 A 
HETATM    6  C15 UNL     1     -20.620  28.049  40.001  1.00  0.00     0.096 A 
HETATM    7  C16 UNL     1     -20.066  26.768  39.861  1.00  0.00     0.045 A 
HETATM    8  C18 UNL     1     -22.415  29.627  38.943  1.00  0.00     0.270 A 
HETATM    9  O9  UNL     1     -22.284  30.661  39.682  1.00  0.00    -0.266 OA
HETATM   10  N4  UNL     1     -23.313  29.461  37.858  1.00  0.00    -0.241 N 
HETATM   11  C19 UNL     1     -23.098  28.205  37.370  1.00  0.00     0.076 A 
HETATM   12  C20 UNL     1     -23.824  27.750  36.305  1.00  0.00     0.062 A 
HETATM   13  C21 UNL     1     -24.764  28.597  35.755  1.00  0.00     0.042 A 
HETATM   14  C22 UNL     1     -24.977  29.875  36.251  1.00  0.00     0.039 A 
HETATM   15  C23 UNL     1     -24.225  30.286  37.320  1.00  0.00     0.263 A 
HETATM   16  O10 UNL     1     -24.386  31.428  37.801  1.00  0.00    -0.267 OA
HETATM   17  C24 UNL     1     -25.949  30.914  35.743  1.00  0.00     0.081 C 
HETATM   18  C25 UNL     1     -25.965  30.733  34.240  1.00  0.00     0.153 C 
HETATM   19  C26 UNL     1     -26.975  29.760  33.747  1.00  0.00     0.171 C 
HETATM   20  C27 UNL     1     -26.790  28.348  34.207  1.00  0.00     0.136 C 
HETATM   21  N5  UNL     1     -25.484  28.015  34.677  1.00  0.00    -0.380 N 
ATOM     22  H5  UNL     1     -25.008  27.265  34.175  1.00  0.00     0.160 HD
ENDROOT
BRANCH   1  23
HETATM   23  N2  UNL     1     -19.913  24.624  38.767  1.00  0.00    -0.234 N 
HETATM   24  C11 UNL     1     -18.703  24.336  38.251  1.00  0.00     0.154 A 
HETATM   25  C10 UNL     1     -18.477  22.977  38.389  1.00  0.00     0.115 A 
HETATM   26  N7  UNL     1     -19.573  22.486  38.984  1.00  0.00    -0.281 N 
HETATM   27  N6  UNL     1     -20.395  23.470  39.193  1.00  0.00    -0.234 N 
ATOM     28  H7  UNL     1     -19.734  21.509  39.231  1.00  0.00     0.188 HD
ATOM     29  H6  UNL     1     -21.309  23.364  39.635  1.00  0.00     0.209 HD
BRANCH  25  30
HETATM   30  C9  UNL     1     -17.240  22.270  38.027  1.00  0.00     0.210 C 
HETATM   31  O6  UNL     1     -17.188  21.728  36.881  1.00  0.00    -0.288 OA
BRANCH  30  32
HETATM   32  C7  UNL     1     -16.050  22.155  38.891  1.00  0.00     0.231 C 
BRANCH  32  33
HETATM   33  O4  UNL     1     -14.877  22.382  38.084  1.00  0.00    -0.304 OA
BRANCH  33  34
HETATM   34  C6  UNL     1     -14.297  23.635  38.053  1.00  0.00     0.291 C 
HETATM   35  O3  UNL     1     -14.863  24.480  37.298  1.00  0.00    -0.263 OA
BRANCH  34  36
HETATM   36  C4  UNL     1     -13.092  24.030  38.819  1.00  0.00     0.293 C 
BRANCH  36  37
HETATM   37  C2  UNL     1     -12.118  22.869  38.746  1.00  0.00     0.018 C 
HETATM   38  C1  UNL     1     -12.201  21.916  39.888  1.00  0.00     0.012 C 
HETATM   39  C3  UNL     1     -10.708  23.355  38.565  1.00  0.00     0.012 C 
ENDBRANCH  36  37
BRANCH  36  40
HETATM   40  N1  UNL     1     -12.467  25.099  38.027  1.00  0.00    -0.011 N 
ATOM     41  H12 UNL     1     -11.453  24.997  37.984  1.00  0.00     0.284 HD
ATOM     42  H11 UNL     1     -12.670  25.004  37.032  1.00  0.00     0.284 HD
BRANCH  40  43
HETATM   43  C5  UNL     1     -12.858  26.400  38.538  1.00  0.00     0.465 C 
BRANCH  43  44
HETATM   44  O1  UNL     1     -11.726  27.083  38.995  1.00  0.00    -0.350 OA
ATOM     45  H1  UNL     1     -11.959  27.619  39.743  1.00  0.00     0.214 HD
ENDBRANCH  43  44
BRANCH  43  46
HETATM   46  O2  UNL     1     -13.487  27.143  37.527  1.00  0.00    -0.350 OA
ATOM     47  H2  UNL     1     -14.337  27.444  37.826  1.00  0.00     0.214 HD
ENDBRANCH  43  46
ENDBRANCH  40  43
ENDBRANCH  36  40
ENDBRANCH  34  36
ENDBRANCH  33  34
ENDBRANCH  32  33
BRANCH  32  48
HETATM   48  C8  UNL     1     -15.900  20.843  39.590  1.00  0.00     0.205 C 
BRANCH  48  49
HETATM   49  O5  UNL     1     -16.611  19.793  39.087  1.00  0.00    -0.398 OA
ATOM     50  H5  UNL     1     -16.799  19.078  39.684  1.00  0.00     0.209 HD
ENDBRANCH  48  49
ENDBRANCH  32  48
ENDBRANCH  30  32
ENDBRANCH  25  30
ENDBRANCH   1  23
BRANCH   7  51
HETATM   51  C17 UNL     1     -18.996  26.277  40.749  1.00  0.00     0.209 C 
BRANCH  51  52
HETATM   52  O8  UNL     1     -19.492  26.213  42.049  1.00  0.00    -0.396 OA
ATOM     53  H8  UNL     1     -19.404  25.321  42.364  1.00  0.00     0.209 HD
ENDBRANCH  51  52
ENDBRANCH   7  51
BRANCH   6  54
HETATM   54  O7  UNL     1     -20.152  28.876  41.000  1.00  0.00    -0.359 OA
ATOM     55  H7  UNL     1     -19.513  28.601  41.648  1.00  0.00     0.217 HD
ENDBRANCH   6  54
BRANCH  20  56
HETATM   56  C28 UNL     1     -27.214  27.347  33.140  1.00  0.00     0.191 C 
BRANCH  56  57
HETATM   57  O13 UNL     1     -26.319  27.503  32.059  1.00  0.00    -0.399 OA
ATOM     58  H13 UNL     1     -25.932  26.650  31.899  1.00  0.00     0.209 HD
ENDBRANCH  56  57
ENDBRANCH  20  56
BRANCH  18  59
HETATM   59  O11 UNL     1     -26.206  31.966  33.596  1.00  0.00    -0.393 OA
ATOM     60  H11 UNL     1     -27.041  31.948  33.144  1.00  0.00     0.210 HD
ENDBRANCH  18  59
BRANCH  19  61
HETATM   61  O12 UNL     1     -28.285  30.229  33.971  1.00  0.00    -0.391 OA
ATOM     62  H12 UNL     1     -28.926  29.676  33.539  1.00  0.00     0.210 HD
ENDBRANCH  19  61
TORSDOF 20
ENDMDL
MODEL 2
REMARK VINA RESULT: -9.321664969      1.160      1.952
REMARK  20 active torsions:
REMARK  status: ('A' for Active; 'I' for Inactive)
REMARK    1  A    between atoms: C2_2  and  C4_4 
REMARK    2  A    between atoms: C4_4  and  N1_5 
REMARK    3  A    between atoms: C4_4  and  C6_13 
REMARK    4  A    between atoms: N1_5  and  C5_8 
REMARK    5  A    between atoms: C5_8  and  O1_9 
REMARK    6  A    between atoms: C5_8  and  O2_11 
REMARK    7  A    between atoms: C6_13  and  O4_15 
REMARK    8  A    between atoms: O4_15  and  C7_16 
REMARK    9  A    between atoms: C7_16  and  C8_17 
REMARK   10  A    between atoms: C7_16  and  C9_20 
REMARK   11  A    between atoms: C8_17  and  O5_18 
REMARK   12  A    between atoms: C9_20  and  C10_22 
REMARK   13  A    between atoms: N2_24  and  C12_25 
REMARK   14  A    between atoms: C15_30  and  O7_31 
REMARK   15  A    between atoms: C16_33  and  C17_34 
REMARK   16  A    between atoms: C17_34  and  O8_35 
REMARK   17  A    between atoms: C25_47  and  O11_48 
REMARK   18  A    between atoms: C26_50  and  O12_51 
REMARK   19  A    between atoms: C27_53  and  C28_54 
REMARK   20  A    between atoms: C28_54  and  O13_55 
ROOT
HETATM    1  C12 UNL     1     -20.437  26.025  38.870  1.00  0.00     0.140 A 
HETATM    2  N3  UNL     1     -21.405  26.413  38.052  1.00  0.00    -0.338 N 
ATOM      3  H3  UNL     1     -21.712  25.779  37.314  1.00  0.00     0.167 HD
HETATM    4  C13 UNL     1     -22.001  27.627  38.164  1.00  0.00     0.080 A 
HETATM    5  C14 UNL     1     -21.610  28.493  39.144  1.00  0.00     0.095 A 
HETATM    6  C15 UNL     1     -20.614  28.142  40.022  1.00  0.00     0.096 A 
HETATM    7  C16 UNL     1     -20.024  26.878  39.869  1.00  0.00     0.045 A 
HETATM    8  C18 UNL     1     -22.441  29.687  38.971  1.00  0.00     0.270 A 
HETATM    9  O9  UNL     1     -22.344  30.713  39.725  1.00  0.00    -0.266 OA
HETATM   10  N4  UNL     1     -23.325  29.512  37.876  1.00  0.00    -0.241 N 
HETATM   11  C19 UNL     1     -23.074  28.268  37.373  1.00  0.00     0.076 A 
HETATM   12  C20 UNL     1     -23.779  27.809  36.296  1.00  0.00     0.062 A 
HETATM   13  C21 UNL     1     -24.736  28.639  35.749  1.00  0.00     0.042 A 
HETATM   14  C22 UNL     1     -24.987  29.904  36.261  1.00  0.00     0.039 A 
HETATM   15  C23 UNL     1     -24.255  30.319  37.342  1.00  0.00     0.263 A 
HETATM   16  O10 UNL     1     -24.449  31.450  37.837  1.00  0.00    -0.267 OA
HETATM   17  C24 UNL     1     -25.982  30.923  35.759  1.00  0.00     0.081 C 
HETATM   18  C25 UNL     1     -25.982  30.763  34.254  1.00  0.00     0.153 C 
HETATM   19  C26 UNL     1     -26.961  29.770  33.739  1.00  0.00     0.171 C 
HETATM   20  C27 UNL     1     -26.743  28.357  34.182  1.00  0.00     0.136 C 
HETATM   21  N5  UNL     1     -25.432  28.053  34.657  1.00  0.00    -0.380 N 
ATOM     22  H5  UNL     1     -24.933  27.323  34.150  1.00  0.00     0.160 HD
ENDROOT
BRANCH   1  23
HETATM   23  N2  UNL     1     -19.805  24.754  38.747  1.00  0.00    -0.234 N 
HETATM   24  C11 UNL     1     -18.599  24.502  38.205  1.00  0.00     0.154 A 
HETATM   25  C10 UNL     1     -18.330  23.150  38.339  1.00  0.00     0.115 A 
HETATM   26  N7  UNL     1     -19.399  22.627  38.957  1.00  0.00    -0.281 N 
HETATM   27  N6  UNL     1     -20.245  23.587  39.183  1.00  0.00    -0.234 N 
ATOM     28  H7  UNL     1     -19.526  21.646  39.207  1.00  0.00     0.188 HD
ATOM     29  H6  UNL     1     -21.145  23.455  39.644  1.00  0.00     0.209 HD
BRANCH  25  30
HETATM   30  C9  UNL     1     -17.082  22.478  37.951  1.00  0.00     0.210 C 
HETATM   31  O6  UNL     1     -16.945  22.149  36.733  1.00  0.00    -0.288 OA
BRANCH  30  32
HETATM   32  C7  UNL     1     -15.968  22.172  38.869  1.00  0.00     0.231 C 
BRANCH  32  33
HETATM   33  O4  UNL     1     -14.736  22.210  38.121  1.00  0.00    -0.304 OA
BRANCH  33  34
HETATM   34  C6  UNL     1     -13.754  23.120  38.463  1.00  0.00     0.291 C 
HETATM   35  O3  UNL     1     -14.150  24.311  38.635  1.00  0.00    -0.263 OA
BRANCH  34  36
HETATM   36  C4  UNL     1     -12.318  22.795  38.625  1.00  0.00     0.293 C 
BRANCH  36  37
HETATM   37  C2  UNL     1     -11.644  24.028  39.198  1.00  0.00     0.018 C 
HETATM   38  C1  UNL     1     -10.758  24.750  38.244  1.00  0.00     0.012 C 
HETATM   39  C3  UNL     1     -10.905  23.702  40.465  1.00  0.00     0.012 C 
ENDBRANCH  36  37
BRANCH  36  40
HETATM   40  N1  UNL     1     -12.270  21.800  39.707  1.00  0.00    -0.011 N 
ATOM     41  H12 UNL     1     -11.715  22.125  40.498  1.00  0.00     0.284 HD
ATOM     42  H11 UNL     1     -13.169  21.710  40.181  1.00  0.00     0.284 HD
BRANCH  40  43
HETATM   43  C5  UNL     1     -11.795  20.526  39.200  1.00  0.00     0.465 C 
BRANCH  43  44
HETATM   44  O1  UNL     1     -12.822  19.895  38.488  1.00  0.00    -0.350 OA
ATOM     45  H1  UNL     1     -12.916  20.305  37.636  1.00  0.00     0.214 HD
ENDBRANCH  43  44
BRANCH  43  46
HETATM   46  O2  UNL     1     -10.688  20.726  38.361  1.00  0.00    -0.350 OA
ATOM     47  H2  UNL     1     -10.694  20.088  37.657  1.00  0.00     0.214 HD
ENDBRANCH  43  46
ENDBRANCH  40  43
ENDBRANCH  36  40
ENDBRANCH  34  36
ENDBRANCH  33  34
ENDBRANCH  32  33
BRANCH  32  48
HETATM   48  C8  UNL     1     -16.063  20.850  39.560  1.00  0.00     0.205 C 
BRANCH  48  49
HETATM   49  O5  UNL     1     -14.993  20.474  40.317  1.00  0.00    -0.398 OA
ATOM     50  H5  UNL     1     -14.953  20.818  41.202  1.00  0.00     0.209 HD
ENDBRANCH  48  49
ENDBRANCH  32  48
ENDBRANCH  30  32
ENDBRANCH  25  30
ENDBRANCH   1  23
BRANCH   7  51
HETATM   51  C17 UNL     1     -18.949  26.403  40.759  1.00  0.00     0.209 C 
BRANCH  51  52
HETATM   52  O8  UNL     1     -19.476  26.222  42.036  1.00  0.00    -0.396 OA
ATOM     53  H8  UNL     1     -19.073  26.851  42.623  1.00  0.00     0.209 HD
ENDBRANCH  51  52
ENDBRANCH   7  51
BRANCH   6  54
HETATM   54  O7  UNL     1     -20.175  28.967  41.036  1.00  0.00    -0.359 OA
ATOM     55  H7  UNL     1     -19.466  29.591  40.931  1.00  0.00     0.217 HD
ENDBRANCH   6  54
BRANCH  20  56
HETATM   56  C28 UNL     1     -27.131  27.360  33.098  1.00  0.00     0.191 C 
BRANCH  56  57
HETATM   57  O13 UNL     1     -27.291  28.099  31.905  1.00  0.00    -0.399 OA
ATOM     58  H13 UNL     1     -27.894  27.608  31.358  1.00  0.00     0.209 HD
ENDBRANCH  56  57
ENDBRANCH  20  56
BRANCH  18  59
HETATM   59  O11 UNL     1     -26.250  31.998  33.625  1.00  0.00    -0.393 OA
ATOM     60  H11 UNL     1     -25.565  32.210  33.002  1.00  0.00     0.210 HD
ENDBRANCH  18  59
BRANCH  19  61
HETATM   61  O12 UNL     1     -28.286  30.201  33.959  1.00  0.00    -0.391 OA
ATOM     62  H12 UNL     1     -28.858  29.467  34.149  1.00  0.00     0.210 HD
ENDBRANCH  19  61
TORSDOF 20
ENDMDL
MODEL 3
REMARK VINA RESULT: -9.250388977      3.234      5.655
REMARK  20 active torsions:
REMARK  status: ('A' for Active; 'I' for Inactive)
REMARK    1  A    between atoms: C2_2  and  C4_4 
REMARK    2  A    between atoms: C4_4  and  N1_5 
REMARK    3  A    between atoms: C4_4  and  C6_13 
REMARK    4  A    between atoms: N1_5  and  C5_8 
REMARK    5  A    between atoms: C5_8  and  O1_9 
REMARK    6  A    between atoms: C5_8  and  O2_11 
REMARK    7  A    between atoms: C6_13  and  O4_15 
REMARK    8  A    between atoms: O4_15  and  C7_16 
REMARK    9  A    between atoms: C7_16  and  C8_17 
REMARK   10  A    between atoms: C7_16  and  C9_20 
REMARK   11  A    between atoms: C8_17  and  O5_18 
REMARK   12  A    between atoms: C9_20  and  C10_22 
REMARK   13  A    between atoms: N2_24  and  C12_25 
REMARK   14  A    between atoms: C15_30  and  O7_31 
REMARK   15  A    between atoms: C16_33  and  C17_34 
REMARK   16  A    between atoms: C17_34  and  O8_35 
REMARK   17  A    between atoms: C25_47  and  O11_48 
REMARK   18  A    between atoms: C26_50  and  O12_51 
REMARK   19  A    between atoms: C27_53  and  C28_54 
REMARK   20  A    between atoms: C28_54  and  O13_55 
ROOT
HETATM    1  C12 UNL     1     -19.310  21.352  37.732  1.00  0.00     0.140 A 
HETATM    2  N3  UNL     1     -19.886  22.518  37.990  1.00  0.00    -0.338 N 
ATOM      3  H3  UNL     1     -19.303  23.305  38.273  1.00  0.00     0.167 HD
HETATM    4  C13 UNL     1     -21.227  22.697  37.890  1.00  0.00     0.080 A 
HETATM    5  C14 UNL     1     -22.030  21.660  37.510  1.00  0.00     0.095 A 
HETATM    6  C15 UNL     1     -21.487  20.430  37.228  1.00  0.00     0.096 A 
HETATM    7  C16 UNL     1     -20.096  20.289  37.346  1.00  0.00     0.045 A 
HETATM    8  C18 UNL     1     -23.394  22.194  37.515  1.00  0.00     0.270 A 
HETATM    9  O9  UNL     1     -24.413  21.490  37.206  1.00  0.00    -0.266 OA
HETATM   10  N4  UNL     1     -23.383  23.558  37.901  1.00  0.00    -0.241 N 
HETATM   11  C19 UNL     1     -22.078  23.882  38.133  1.00  0.00     0.076 A 
HETATM   12  C20 UNL     1     -21.745  25.148  38.528  1.00  0.00     0.062 A 
HETATM   13  C21 UNL     1     -22.764  26.066  38.681  1.00  0.00     0.042 A 
HETATM   14  C22 UNL     1     -24.091  25.732  38.447  1.00  0.00     0.039 A 
HETATM   15  C23 UNL     1     -24.374  24.452  38.052  1.00  0.00     0.263 A 
HETATM   16  O10 UNL     1     -25.554  24.108  37.829  1.00  0.00    -0.267 OA
HETATM   17  C24 UNL     1     -25.305  26.618  38.590  1.00  0.00     0.081 C 
HETATM   18  C25 UNL     1     -25.004  27.507  39.778  1.00  0.00     0.153 C 
HETATM   19  C26 UNL     1     -24.303  28.773  39.438  1.00  0.00     0.171 C 
HETATM   20  C27 UNL     1     -22.940  28.617  38.839  1.00  0.00     0.136 C 
HETATM   21  N5  UNL     1     -22.307  27.357  39.061  1.00  0.00    -0.380 N 
ATOM     22  H5  UNL     1     -21.415  27.387  39.554  1.00  0.00     0.160 HD
ENDROOT
BRANCH   1  23
HETATM   23  N2  UNL     1     -17.903  21.160  37.846  1.00  0.00    -0.234 N 
HETATM   24  C11 UNL     1     -17.189  21.079  38.984  1.00  0.00     0.154 A 
HETATM   25  C10 UNL     1     -15.867  20.829  38.659  1.00  0.00     0.115 A 
HETATM   26  N7  UNL     1     -15.827  20.774  37.319  1.00  0.00    -0.281 N 
HETATM   27  N6  UNL     1     -17.031  20.972  36.871  1.00  0.00    -0.234 N 
ATOM     28  H7  UNL     1     -14.997  20.606  36.751  1.00  0.00     0.188 HD
ATOM     29  H6  UNL     1     -17.275  20.980  35.881  1.00  0.00     0.209 HD
BRANCH  25  30
HETATM   30  C9  UNL     1     -14.776  20.589  39.614  1.00  0.00     0.210 C 
HETATM   31  O6  UNL     1     -14.986  19.759  40.550  1.00  0.00    -0.288 OA
BRANCH  30  32
HETATM   32  C7  UNL     1     -13.448  21.230  39.557  1.00  0.00     0.231 C 
BRANCH  32  33
HETATM   33  O4  UNL     1     -13.413  22.105  38.412  1.00  0.00    -0.304 OA
BRANCH  33  34
HETATM   34  C6  UNL     1     -13.061  23.432  38.573  1.00  0.00     0.291 C 
HETATM   35  O3  UNL     1     -12.101  23.649  39.370  1.00  0.00    -0.263 OA
BRANCH  34  36
HETATM   36  C4  UNL     1     -13.723  24.572  37.897  1.00  0.00     0.293 C 
BRANCH  36  37
HETATM   37  C2  UNL     1     -15.209  24.264  37.857  1.00  0.00     0.018 C 
HETATM   38  C1  UNL     1     -15.957  24.956  36.771  1.00  0.00     0.012 C 
HETATM   39  C3  UNL     1     -15.851  24.524  39.191  1.00  0.00     0.012 C 
ENDBRANCH  36  37
BRANCH  36  40
HETATM   40  N1  UNL     1     -13.594  25.700  38.832  1.00  0.00    -0.011 N 
ATOM     41  H12 UNL     1     -14.503  26.073  39.105  1.00  0.00     0.284 HD
ATOM     42  H11 UNL     1     -13.274  25.397  39.752  1.00  0.00     0.284 HD
BRANCH  40  43
HETATM   43  C5  UNL     1     -12.735  26.725  38.270  1.00  0.00     0.465 C 
BRANCH  43  44
HETATM   44  O1  UNL     1     -11.405  26.461  38.615  1.00  0.00    -0.350 OA
ATOM     45  H1  UNL     1     -10.829  27.026  38.114  1.00  0.00     0.214 HD
ENDBRANCH  43  44
BRANCH  43  46
HETATM   46  O2  UNL     1     -12.868  26.750  36.873  1.00  0.00    -0.350 OA
ATOM     47  H2  UNL     1     -12.093  27.134  36.480  1.00  0.00     0.214 HD
ENDBRANCH  43  46
ENDBRANCH  40  43
ENDBRANCH  36  40
ENDBRANCH  34  36
ENDBRANCH  33  34
ENDBRANCH  32  33
BRANCH  32  48
HETATM   48  C8  UNL     1     -12.293  20.286  39.469  1.00  0.00     0.205 C 
BRANCH  48  49
HETATM   49  O5  UNL     1     -11.046  20.834  39.532  1.00  0.00    -0.398 OA
ATOM     50  H5  UNL     1     -10.312  20.229  39.526  1.00  0.00     0.209 HD
ENDBRANCH  48  49
ENDBRANCH  32  48
ENDBRANCH  30  32
ENDBRANCH  25  30
ENDBRANCH   1  23
BRANCH   7  51
HETATM   51  C17 UNL     1     -19.412  19.013  37.064  1.00  0.00     0.209 C 
BRANCH  51  52
HETATM   52  O8  UNL     1     -19.675  18.128  38.108  1.00  0.00    -0.396 OA
ATOM     53  H8  UNL     1     -19.833  17.266  37.741  1.00  0.00     0.209 HD
ENDBRANCH  51  52
ENDBRANCH   7  51
BRANCH   6  54
HETATM   54  O7  UNL     1     -22.239  19.344  36.835  1.00  0.00    -0.359 OA
ATOM     55  H7  UNL     1     -22.123  18.903  36.002  1.00  0.00     0.217 HD
ENDBRANCH   6  54
BRANCH  20  56
HETATM   56  C28 UNL     1     -22.002  29.736  39.271  1.00  0.00     0.191 C 
BRANCH  56  57
HETATM   57  O13 UNL     1     -22.817  30.811  39.690  1.00  0.00    -0.399 OA
ATOM     58  H13 UNL     1     -22.281  31.357  40.254  1.00  0.00     0.209 HD
ENDBRANCH  56  57
ENDBRANCH  20  56
BRANCH  18  59
HETATM   59  O11 UNL     1     -26.195  27.844  40.458  1.00  0.00    -0.393 OA
ATOM     60  H11 UNL     1     -26.016  28.019  41.374  1.00  0.00     0.210 HD
ENDBRANCH  18  59
BRANCH  19  61
HETATM   61  O12 UNL     1     -25.128  29.623  38.674  1.00  0.00    -0.391 OA
ATOM     62  H12 UNL     1     -24.937  30.537  38.850  1.00  0.00     0.210 HD
ENDBRANCH  19  61
TORSDOF 20
ENDMDL
MODEL 4
REMARK VINA RESULT: -9.161847645      2.773      5.319
REMARK  20 active torsions:
REMARK  status: ('A' for Active; 'I' for Inactive)
REMARK    1  A    between atoms: C2_2  and  C4_4 
REMARK    2  A    between atoms: C4_4  and  N1_5 
REMARK    3  A    between atoms: C4_4  and  C6_13 
REMARK    4  A    between atoms: N1_5  and  C5_8 
REMARK    5  A    between atoms: C5_8  and  O1_9 
REMARK    6  A    between atoms: C5_8  and  O2_11 
REMARK    7  A    between atoms: C6_13  and  O4_15 
REMARK    8  A    between atoms: O4_15  and  C7_16 
REMARK    9  A    between atoms: C7_16  and  C8_17 
REMARK   10  A    between atoms: C7_16  and  C9_20 
REMARK   11  A    between atoms: C8_17  and  O5_18 
REMARK   12  A    between atoms: C9_20  and  C10_22 
REMARK   13  A    between atoms: N2_24  and  C12_25 
REMARK   14  A    between atoms: C15_30  and  O7_31 
REMARK   15  A    between atoms: C16_33  and  C17_34 
REMARK   16  A    between atoms: C17_34  and  O8_35 
REMARK   17  A    between atoms: C25_47  and  O11_48 
REMARK   18  A    between atoms: C26_50  and  O12_51 
REMARK   19  A    between atoms: C27_53  and  C28_54 
REMARK   20  A    between atoms: C28_54  and  O13_55 
ROOT
HETATM    1  C12 UNL     1     -18.337  24.826  36.677  1.00  0.00     0.140 A 
HETATM    2  N3  UNL     1     -19.311  25.683  36.955  1.00  0.00    -0.338 N 
ATOM      3  H3  UNL     1     -19.157  26.388  37.675  1.00  0.00     0.167 HD
HETATM    4  C13 UNL     1     -20.505  25.651  36.312  1.00  0.00     0.080 A 
HETATM    5  C14 UNL     1     -20.735  24.718  35.342  1.00  0.00     0.095 A 
HETATM    6  C15 UNL     1     -19.761  23.808  35.010  1.00  0.00     0.096 A 
HETATM    7  C16 UNL     1     -18.542  23.876  35.702  1.00  0.00     0.045 A 
HETATM    8  C18 UNL     1     -22.101  24.963  34.874  1.00  0.00     0.270 A 
HETATM    9  O9  UNL     1     -22.654  24.268  33.957  1.00  0.00    -0.266 OA
HETATM   10  N4  UNL     1     -22.672  26.052  35.582  1.00  0.00    -0.241 N 
HETATM   11  C19 UNL     1     -21.719  26.483  36.459  1.00  0.00     0.076 A 
HETATM   12  C20 UNL     1     -21.980  27.534  37.292  1.00  0.00     0.062 A 
HETATM   13  C21 UNL     1     -23.221  28.130  37.212  1.00  0.00     0.042 A 
HETATM   14  C22 UNL     1     -24.189  27.687  36.321  1.00  0.00     0.039 A 
HETATM   15  C23 UNL     1     -23.881  26.630  35.506  1.00  0.00     0.263 A 
HETATM   16  O10 UNL     1     -24.721  26.200  34.688  1.00  0.00    -0.267 OA
HETATM   17  C24 UNL     1     -25.589  28.223  36.136  1.00  0.00     0.081 C 
HETATM   18  C25 UNL     1     -26.043  28.622  37.524  1.00  0.00     0.153 C 
HETATM   19  C26 UNL     1     -25.715  30.022  37.901  1.00  0.00     0.171 C 
HETATM   20  C27 UNL     1     -24.255  30.349  37.967  1.00  0.00     0.136 C 
HETATM   21  N5  UNL     1     -23.376  29.232  38.096  1.00  0.00    -0.380 N 
ATOM     22  H5  UNL     1     -22.784  29.224  38.927  1.00  0.00     0.160 HD
ENDROOT
BRANCH   1  23
HETATM   23  N2  UNL     1     -17.086  24.854  37.358  1.00  0.00    -0.234 N 
HETATM   24  C11 UNL     1     -15.892  25.195  36.839  1.00  0.00     0.154 A 
HETATM   25  C10 UNL     1     -14.944  25.150  37.848  1.00  0.00     0.115 A 
HETATM   26  N7  UNL     1     -15.606  24.774  38.951  1.00  0.00    -0.281 N 
HETATM   27  N6  UNL     1     -16.856  24.607  38.635  1.00  0.00    -0.234 N 
ATOM     28  H7  UNL     1     -15.200  24.640  39.877  1.00  0.00     0.188 HD
ATOM     29  H6  UNL     1     -17.576  24.318  39.298  1.00  0.00     0.209 HD
BRANCH  25  30
HETATM   30  C9  UNL     1     -13.531  25.531  37.718  1.00  0.00     0.210 C 
HETATM   31  O6  UNL     1     -13.259  26.547  37.007  1.00  0.00    -0.288 OA
BRANCH  30  32
HETATM   32  C7  UNL     1     -12.405  24.830  38.364  1.00  0.00     0.231 C 
BRANCH  32  33
HETATM   33  O4  UNL     1     -12.937  23.772  39.185  1.00  0.00    -0.304 OA
BRANCH  33  34
HETATM   34  C6  UNL     1     -12.407  22.499  39.092  1.00  0.00     0.291 C 
HETATM   35  O3  UNL     1     -11.245  22.427  38.592  1.00  0.00    -0.263 OA
BRANCH  34  36
HETATM   36  C4  UNL     1     -13.097  21.260  39.522  1.00  0.00     0.293 C 
BRANCH  36  37
HETATM   37  C2  UNL     1     -14.584  21.486  39.320  1.00  0.00     0.018 C 
HETATM   38  C1  UNL     1     -15.462  20.579  40.109  1.00  0.00     0.012 C 
HETATM   39  C3  UNL     1     -14.947  21.439  37.863  1.00  0.00     0.012 C 
ENDBRANCH  36  37
BRANCH  36  40
HETATM   40  N1  UNL     1     -12.729  20.249  38.519  1.00  0.00    -0.011 N 
ATOM     41  H12 UNL     1     -13.545  19.887  38.027  1.00  0.00     0.284 HD
ATOM     42  H11 UNL     1     -12.243  20.662  37.723  1.00  0.00     0.284 HD
BRANCH  40  43
HETATM   43  C5  UNL     1     -11.954  19.188  39.136  1.00  0.00     0.465 C 
BRANCH  43  44
HETATM   44  O1  UNL     1     -10.589  19.449  38.970  1.00  0.00    -0.350 OA
ATOM     45  H1  UNL     1     -10.136  19.302  39.791  1.00  0.00     0.214 HD
ENDBRANCH  43  44
BRANCH  43  46
HETATM   46  O2  UNL     1     -12.259  19.102  40.503  1.00  0.00    -0.350 OA
ATOM     47  H2  UNL     1     -12.809  18.345  40.667  1.00  0.00     0.214 HD
ENDBRANCH  43  46
ENDBRANCH  40  43
ENDBRANCH  36  40
ENDBRANCH  34  36
ENDBRANCH  33  34
ENDBRANCH  32  33
BRANCH  32  48
HETATM   48  C8  UNL     1     -11.526  25.692  39.212  1.00  0.00     0.205 C 
BRANCH  48  49
HETATM   49  O5  UNL     1     -11.742  27.038  39.152  1.00  0.00    -0.398 OA
ATOM     50  H5  UNL     1     -10.973  27.595  39.154  1.00  0.00     0.209 HD
ENDBRANCH  48  49
ENDBRANCH  32  48
ENDBRANCH  30  32
ENDBRANCH  25  30
ENDBRANCH   1  23
BRANCH   7  51
HETATM   51  C17 UNL     1     -17.430  22.948  35.422  1.00  0.00     0.209 C 
BRANCH  51  52
HETATM   52  O8  UNL     1     -17.857  21.649  35.692  1.00  0.00    -0.396 OA
ATOM     53  H8  UNL     1     -18.621  21.464  35.159  1.00  0.00     0.209 HD
ENDBRANCH  51  52
ENDBRANCH   7  51
BRANCH   6  54
HETATM   54  O7  UNL     1     -19.926  22.844  34.038  1.00  0.00    -0.359 OA
ATOM     55  H7  UNL     1     -19.482  22.870  33.198  1.00  0.00     0.217 HD
ENDBRANCH   6  54
BRANCH  20  56
HETATM   56  C28 UNL     1     -23.953  31.359  39.067  1.00  0.00     0.191 C 
BRANCH  56  57
HETATM   57  O13 UNL     1     -25.196  31.765  39.599  1.00  0.00    -0.399 OA
ATOM     58  H13 UNL     1     -25.448  31.106  40.236  1.00  0.00     0.209 HD
ENDBRANCH  56  57
ENDBRANCH  20  56
BRANCH  18  59
HETATM   59  O11 UNL     1     -27.439  28.458  37.654  1.00  0.00    -0.393 OA
ATOM     60  H11 UNL     1     -27.826  29.218  38.072  1.00  0.00     0.210 HD
ENDBRANCH  18  59
BRANCH  19  61
HETATM   61  O12 UNL     1     -26.433  30.944  37.112  1.00  0.00    -0.391 OA
ATOM     62  H12 UNL     1     -26.084  31.823  37.207  1.00  0.00     0.210 HD
ENDBRANCH  19  61
TORSDOF 20
ENDMDL
MODEL 5
REMARK VINA RESULT: -9.007337435      0.913      1.437
REMARK  20 active torsions:
REMARK  status: ('A' for Active; 'I' for Inactive)
REMARK    1  A    between atoms: C2_2  and  C4_4 
REMARK    2  A    between atoms: C4_4  and  N1_5 
REMARK    3  A    between atoms: C4_4  and  C6_13 
REMARK    4  A    between atoms: N1_5  and  C5_8 
REMARK    5  A    between atoms: C5_8  and  O1_9 
REMARK    6  A    between atoms: C5_8  and  O2_11 
REMARK    7  A    between atoms: C6_13  and  O4_15 
REMARK    8  A    between atoms: O4_15  and  C7_16 
REMARK    9  A    between atoms: C7_16  and  C8_17 
REMARK   10  A    between atoms: C7_16  and  C9_20 
REMARK   11  A    between atoms: C8_17  and  O5_18 
REMARK   12  A    between atoms: C9_20  and  C10_22 
REMARK   13  A    between atoms: N2_24  and  C12_25 
REMARK   14  A    between atoms: C15_30  and  O7_31 
REMARK   15  A    between atoms: C16_33  and  C17_34 
REMARK   16  A    between atoms: C17_34  and  O8_35 
REMARK   17  A    between atoms: C25_47  and  O11_48 
REMARK   18  A    between atoms: C26_50  and  O12_51 
REMARK   19  A    between atoms: C27_53  and  C28_54 
REMARK   20  A    between atoms: C28_54  and  O13_55 
ROOT
HETATM    1  C12 UNL     1     -20.672  25.832  38.823  1.00  0.00     0.140 A 
HETATM    2  N3  UNL     1     -21.629  26.263  38.011  1.00  0.00    -0.338 N 
ATOM      3  H3  UNL     1     -21.983  25.636  37.290  1.00  0.00     0.167 HD
HETATM    4  C13 UNL     1     -22.151  27.511  38.112  1.00  0.00     0.080 A 
HETATM    5  C14 UNL     1     -21.696  28.369  39.072  1.00  0.00     0.095 A 
HETATM    6  C15 UNL     1     -20.708  27.974  39.941  1.00  0.00     0.096 A 
HETATM    7  C16 UNL     1     -20.195  26.676  39.800  1.00  0.00     0.045 A 
HETATM    8  C18 UNL     1     -22.459  29.605  38.890  1.00  0.00     0.270 A 
HETATM    9  O9  UNL     1     -22.292  30.635  39.626  1.00  0.00    -0.266 OA
HETATM   10  N4  UNL     1     -23.369  29.464  37.812  1.00  0.00    -0.241 N 
HETATM   11  C19 UNL     1     -23.198  28.200  37.326  1.00  0.00     0.076 A 
HETATM   12  C20 UNL     1     -23.945  27.765  36.267  1.00  0.00     0.062 A 
HETATM   13  C21 UNL     1     -24.861  28.640  35.721  1.00  0.00     0.042 A 
HETATM   14  C22 UNL     1     -25.031  29.926  36.215  1.00  0.00     0.039 A 
HETATM   15  C23 UNL     1     -24.259  30.315  37.278  1.00  0.00     0.263 A 
HETATM   16  O10 UNL     1     -24.381  31.463  37.756  1.00  0.00    -0.267 OA
HETATM   17  C24 UNL     1     -25.973  30.993  35.710  1.00  0.00     0.081 C 
HETATM   18  C25 UNL     1     -26.005  30.809  34.208  1.00  0.00     0.153 C 
HETATM   19  C26 UNL     1     -27.048  29.867  33.724  1.00  0.00     0.171 C 
HETATM   20  C27 UNL     1     -26.905  28.450  34.187  1.00  0.00     0.136 C 
HETATM   21  N5  UNL     1     -25.607  28.078  34.649  1.00  0.00    -0.380 N 
ATOM     22  H5  UNL     1     -25.158  27.312  34.147  1.00  0.00     0.160 HD
ENDROOT
BRANCH   1  23
HETATM   23  N2  UNL     1     -20.117  24.525  38.712  1.00  0.00    -0.234 N 
HETATM   24  C11 UNL     1     -18.978  24.183  38.080  1.00  0.00     0.154 A 
HETATM   25  C10 UNL     1     -18.764  22.827  38.260  1.00  0.00     0.115 A 
HETATM   26  N7  UNL     1     -19.796  22.392  38.998  1.00  0.00    -0.281 N 
HETATM   27  N6  UNL     1     -20.571  23.406  39.246  1.00  0.00    -0.234 N 
ATOM     28  H7  UNL     1     -19.948  21.432  39.309  1.00  0.00     0.188 HD
ATOM     29  H6  UNL     1     -21.431  23.344  39.791  1.00  0.00     0.209 HD
BRANCH  25  30
HETATM   30  C9  UNL     1     -17.590  22.072  37.800  1.00  0.00     0.210 C 
HETATM   31  O6  UNL     1     -17.590  21.661  36.599  1.00  0.00    -0.288 OA
BRANCH  30  32
HETATM   32  C7  UNL     1     -16.405  21.769  38.625  1.00  0.00     0.231 C 
BRANCH  32  33
HETATM   33  O4  UNL     1     -15.224  22.030  37.840  1.00  0.00    -0.304 OA
BRANCH  33  34
HETATM   34  C6  UNL     1     -14.189  22.768  38.382  1.00  0.00     0.291 C 
HETATM   35  O3  UNL     1     -13.641  22.266  39.408  1.00  0.00    -0.263 OA
BRANCH  34  36
HETATM   36  C4  UNL     1     -13.708  24.066  37.856  1.00  0.00     0.293 C 
BRANCH  36  37
HETATM   37  C2  UNL     1     -14.819  25.076  38.078  1.00  0.00     0.018 C 
HETATM   38  C1  UNL     1     -15.585  24.888  39.341  1.00  0.00     0.012 C 
HETATM   39  C3  UNL     1     -15.748  25.128  36.898  1.00  0.00     0.012 C 
ENDBRANCH  36  37
BRANCH  36  40
HETATM   40  N1  UNL     1     -12.634  24.478  38.773  1.00  0.00    -0.011 N 
ATOM     41  H12 UNL     1     -12.994  24.721  39.695  1.00  0.00     0.284 HD
ATOM     42  H11 UNL     1     -12.044  23.692  39.044  1.00  0.00     0.284 HD
BRANCH  40  43
HETATM   43  C5  UNL     1     -11.862  25.559  38.190  1.00  0.00     0.465 C 
BRANCH  43  44
HETATM   44  O1  UNL     1     -11.852  26.651  39.066  1.00  0.00    -0.350 OA
ATOM     45  H1  UNL     1     -11.231  26.490  39.767  1.00  0.00     0.214 HD
ENDBRANCH  43  44
BRANCH  43  46
HETATM   46  O2  UNL     1     -10.547  25.134  37.946  1.00  0.00    -0.350 OA
ATOM     47  H2  UNL     1     -10.404  24.280  38.337  1.00  0.00     0.214 HD
ENDBRANCH  43  46
ENDBRANCH  40  43
ENDBRANCH  36  40
ENDBRANCH  34  36
ENDBRANCH  33  34
ENDBRANCH  32  33
BRANCH  32  48
HETATM   48  C8  UNL     1     -16.334  20.368  39.139  1.00  0.00     0.205 C 
BRANCH  48  49
HETATM   49  O5  UNL     1     -15.626  20.170  40.288  1.00  0.00    -0.398 OA
ATOM     50  H5  UNL     1     -15.799  19.366  40.764  1.00  0.00     0.209 HD
ENDBRANCH  48  49
ENDBRANCH  32  48
ENDBRANCH  30  32
ENDBRANCH  25  30
ENDBRANCH   1  23
BRANCH   7  51
HETATM   51  C17 UNL     1     -19.135  26.153  40.683  1.00  0.00     0.209 C 
BRANCH  51  52
HETATM   52  O8  UNL     1     -19.611  26.146  41.992  1.00  0.00    -0.396 OA
ATOM     53  H8  UNL     1     -19.297  25.360  42.424  1.00  0.00     0.209 HD
ENDBRANCH  51  52
ENDBRANCH   7  51
BRANCH   6  54
HETATM   54  O7  UNL     1     -20.207  28.788  40.935  1.00  0.00    -0.359 OA
ATOM     55  H7  UNL     1     -20.225  28.557  41.856  1.00  0.00     0.217 HD
ENDBRANCH   6  54
BRANCH  20  56
HETATM   56  C28 UNL     1     -27.367  27.460  33.126  1.00  0.00     0.191 C 
BRANCH  56  57
HETATM   57  O13 UNL     1     -26.200  26.915  32.545  1.00  0.00    -0.399 OA
ATOM     58  H13 UNL     1     -26.371  25.990  32.407  1.00  0.00     0.209 HD
ENDBRANCH  56  57
ENDBRANCH  20  56
BRANCH  18  59
HETATM   59  O11 UNL     1     -26.212  32.047  33.562  1.00  0.00    -0.393 OA
ATOM     60  H11 UNL     1     -26.381  31.916  32.637  1.00  0.00     0.210 HD
ENDBRANCH  18  59
BRANCH  19  61
HETATM   61  O12 UNL     1     -28.342  30.377  33.956  1.00  0.00    -0.391 OA
ATOM     62  H12 UNL     1     -28.993  29.685  33.934  1.00  0.00     0.210 HD
ENDBRANCH  19  61
TORSDOF 20
ENDMDL
