MODEL 1
REMARK VINA RESULT: -8.198085283      0.000      0.000
REMARK  6 active torsions:
REMARK  status: ('A' for Active; 'I' for Inactive)
REMARK    1  A    between atoms: S1_2  and  C2_5 
REMARK    2  A    between atoms: C9_15  and  C10_16 
REMARK    3  A    between atoms: C10_16  and  C11_17 
REMARK       I    between atoms: C11_17  and  N2_19 
REMARK    4  A    between atoms: N2_19  and  C12_21 
REMARK    5  A    between atoms: N3_35  and  C25_36 
REMARK    6  A    between atoms: C25_36  and  C26_37 
ROOT
HETATM    1  C2  UNL     1     -12.779  37.207 -12.598  1.00  0.00     0.061 A 
HETATM    2  C3  UNL     1     -14.003  37.022 -13.201  1.00  0.00     0.024 A 
HETATM    3  C4  UNL     1     -15.073  36.576 -12.421  1.00  0.00     0.011 A 
HETATM    4  C5  UNL     1     -14.905  36.330 -11.088  1.00  0.00    -0.023 A 
HETATM    5  C6  UNL     1     -13.684  36.513 -10.475  1.00  0.00     0.043 A 
HETATM    6  C7  UNL     1     -12.632  36.953 -11.253  1.00  0.00     0.053 A 
HETATM    7  N1  UNL     1     -13.131  36.382  -9.165  1.00  0.00    -0.325 N 
ATOM      8  H1  UNL     1     -12.115  36.289  -9.144  1.00  0.00     0.169 HD
HETATM    9  C8  UNL     1     -13.761  36.357  -7.860  1.00  0.00     0.245 C 
HETATM   10  O3  UNL     1     -13.188  35.567  -7.077  1.00  0.00    -0.271 OA
HETATM   11  C9  UNL     1     -14.903  37.040  -7.265  1.00  0.00     0.188 C 
HETATM   12  N3  UNL     1     -16.147  36.917  -7.998  1.00  0.00    -0.334 N 
HETATM   13  C32 UNL     1     -16.524  36.644  -9.338  1.00  0.00     0.225 C 
HETATM   14  O5  UNL     1     -17.552  37.371  -9.610  1.00  0.00    -0.273 OA
HETATM   15  C33 UNL     1     -16.182  35.850 -10.519  1.00  0.00     0.144 C 
ENDROOT
BRANCH  11  16
HETATM   16  C10 UNL     1     -14.617  38.472  -6.973  1.00  0.00     0.138 C 
BRANCH  16  17
HETATM   17  C11 UNL     1     -14.303  38.795  -5.557  1.00  0.00     0.220 C 
HETATM   18  O4  UNL     1     -14.251  39.975  -5.121  1.00  0.00    -0.274 OA
HETATM   19  N2  UNL     1     -14.042  37.758  -4.616  1.00  0.00    -0.348 N 
ATOM     20  H2  UNL     1     -14.068  36.781  -4.907  1.00  0.00     0.163 HD
BRANCH  19  21
HETATM   21  C12 UNL     1     -13.742  38.099  -3.256  1.00  0.00     0.152 A 
HETATM   22  C13 UNL     1     -14.367  37.222  -2.273  1.00  0.00    -0.020 A 
HETATM   23  C14 UNL     1     -15.715  36.888  -2.094  1.00  0.00     0.010 A 
HETATM   24  C18 UNL     1     -13.387  36.712  -1.464  1.00  0.00    -0.017 A 
HETATM   25  C15 UNL     1     -16.023  36.026  -1.073  1.00  0.00     0.001 A 
HETATM   26  C16 UNL     1     -15.085  35.483  -0.229  1.00  0.00     0.001 A 
HETATM   27  C17 UNL     1     -13.772  35.835  -0.437  1.00  0.00     0.013 A 
HETATM   28  C19 UNL     1     -12.097  37.230  -1.884  1.00  0.00    -0.017 A 
HETATM   29  C20 UNL     1     -10.820  37.009  -1.385  1.00  0.00     0.014 A 
HETATM   30  C24 UNL     1     -12.300  38.059  -2.954  1.00  0.00    -0.018 A 
HETATM   31  C21 UNL     1      -9.705  37.610  -1.941  1.00  0.00     0.024 A 
HETATM   32  C22 UNL     1      -9.915  38.444  -3.019  1.00  0.00     0.034 A 
HETATM   33 CL1  UNL     1      -8.507  39.224  -3.750  1.00  0.00    -0.084 Cl
HETATM   34  C23 UNL     1     -11.179  38.670  -3.520  1.00  0.00     0.034 A 
ENDBRANCH  19  21
ENDBRANCH  16  17
ENDBRANCH  11  16
BRANCH  12  35
HETATM   35  C25 UNL     1     -17.304  37.128  -7.173  1.00  0.00     0.165 C 
BRANCH  35  36
HETATM   36  C26 UNL     1     -17.670  35.881  -6.422  1.00  0.00    -0.040 A 
HETATM   37  C27 UNL     1     -18.024  34.725  -7.109  1.00  0.00     0.009 A 
HETATM   38  C28 UNL     1     -18.362  33.574  -6.395  1.00  0.00     0.001 A 
HETATM   39  C29 UNL     1     -18.351  33.553  -5.032  1.00  0.00     0.000 A 
HETATM   40  C30 UNL     1     -17.991  34.724  -4.356  1.00  0.00     0.001 A 
HETATM   41  C31 UNL     1     -17.656  35.867  -5.049  1.00  0.00     0.009 A 
ENDBRANCH  35  36
ENDBRANCH  12  35
BRANCH   1  42
HETATM   42  S1  UNL     1     -11.460  37.762 -13.596  1.00  0.00     0.172 S 
HETATM   43  C1  UNL     1     -12.031  38.913 -14.833  1.00  0.00     0.167 C 
HETATM   44  O1  UNL     1     -10.391  38.432 -12.801  1.00  0.00    -0.223 OA
HETATM   45  O2  UNL     1     -10.858  36.548 -14.253  1.00  0.00    -0.223 OA
ENDBRANCH   1  42
TORSDOF 6
ENDMDL
MODEL 2
REMARK VINA RESULT: -7.988651167      5.031      9.613
REMARK  6 active torsions:
REMARK  status: ('A' for Active; 'I' for Inactive)
REMARK    1  A    between atoms: S1_2  and  C2_5 
REMARK    2  A    between atoms: C9_15  and  C10_16 
REMARK    3  A    between atoms: C10_16  and  C11_17 
REMARK       I    between atoms: C11_17  and  N2_19 
REMARK    4  A    between atoms: N2_19  and  C12_21 
REMARK    5  A    between atoms: N3_35  and  C25_36 
REMARK    6  A    between atoms: C25_36  and  C26_37 
ROOT
HETATM    1  C2  UNL     1     -18.721  33.766  -0.405  1.00  0.00     0.061 A 
HETATM    2  C3  UNL     1     -19.680  34.254   0.455  1.00  0.00     0.024 A 
HETATM    3  C4  UNL     1     -19.525  35.544   0.969  1.00  0.00     0.011 A 
HETATM    4  C5  UNL     1     -18.443  36.303   0.623  1.00  0.00    -0.023 A 
HETATM    5  C6  UNL     1     -17.478  35.824  -0.237  1.00  0.00     0.043 A 
HETATM    6  C7  UNL     1     -17.640  34.549  -0.740  1.00  0.00     0.053 A 
HETATM    7  N1  UNL     1     -16.262  36.290  -0.823  1.00  0.00    -0.325 N 
ATOM      8  H1  UNL     1     -15.643  35.549  -1.154  1.00  0.00     0.169 HD
HETATM    9  C8  UNL     1     -15.754  37.631  -1.030  1.00  0.00     0.245 C 
HETATM   10  O3  UNL     1     -14.514  37.691  -0.876  1.00  0.00    -0.271 OA
HETATM   11  C9  UNL     1     -16.361  38.912  -1.372  1.00  0.00     0.188 C 
HETATM   12  N3  UNL     1     -17.448  39.330  -0.509  1.00  0.00    -0.334 N 
HETATM   13  C32 UNL     1     -18.370  38.692   0.359  1.00  0.00     0.225 C 
HETATM   14  O5  UNL     1     -19.497  39.307   0.252  1.00  0.00    -0.273 OA
HETATM   15  C33 UNL     1     -18.519  37.602   1.325  1.00  0.00     0.144 C 
ENDROOT
BRANCH  11  16
HETATM   16  C10 UNL     1     -16.783  38.975  -2.799  1.00  0.00     0.138 C 
BRANCH  16  17
HETATM   17  C11 UNL     1     -15.705  39.258  -3.781  1.00  0.00     0.220 C 
HETATM   18  O4  UNL     1     -15.714  40.269  -4.531  1.00  0.00    -0.274 OA
HETATM   19  N2  UNL     1     -14.595  38.375  -3.918  1.00  0.00    -0.348 N 
ATOM     20  H2  UNL     1     -14.531  37.537  -3.339  1.00  0.00     0.163 HD
BRANCH  19  21
HETATM   21  C12 UNL     1     -13.570  38.674  -4.875  1.00  0.00     0.152 A 
HETATM   22  C13 UNL     1     -12.215  38.506  -4.364  1.00  0.00    -0.020 A 
HETATM   23  C14 UNL     1     -11.601  39.073  -3.240  1.00  0.00     0.010 A 
HETATM   24  C18 UNL     1     -11.545  37.643  -5.190  1.00  0.00    -0.017 A 
HETATM   25  C15 UNL     1     -10.295  38.733  -2.995  1.00  0.00     0.001 A 
HETATM   26  C16 UNL     1      -9.571  37.875  -3.787  1.00  0.00     0.001 A 
HETATM   27  C17 UNL     1     -10.210  37.338  -4.880  1.00  0.00     0.013 A 
HETATM   28  C19 UNL     1     -12.429  37.219  -6.262  1.00  0.00    -0.017 A 
HETATM   29  C20 UNL     1     -12.216  36.360  -7.331  1.00  0.00     0.014 A 
HETATM   30  C24 UNL     1     -13.641  37.829  -6.080  1.00  0.00    -0.018 A 
HETATM   31  C21 UNL     1     -13.209  36.085  -8.255  1.00  0.00     0.024 A 
HETATM   32  C22 UNL     1     -14.427  36.702  -8.068  1.00  0.00     0.034 A 
HETATM   33 CL1  UNL     1     -15.714  36.366  -9.233  1.00  0.00    -0.084 Cl
HETATM   34  C23 UNL     1     -14.647  37.556  -7.008  1.00  0.00     0.034 A 
ENDBRANCH  19  21
ENDBRANCH  16  17
ENDBRANCH  11  16
BRANCH  12  35
HETATM   35  C25 UNL     1     -17.662  40.750  -0.531  1.00  0.00     0.165 C 
BRANCH  35  36
HETATM   36  C26 UNL     1     -17.141  41.397   0.719  1.00  0.00    -0.040 A 
HETATM   37  C27 UNL     1     -17.919  42.319   1.410  1.00  0.00     0.009 A 
HETATM   38  C28 UNL     1     -17.420  42.911   2.572  1.00  0.00     0.001 A 
HETATM   39  C29 UNL     1     -16.180  42.605   3.049  1.00  0.00     0.000 A 
HETATM   40  C30 UNL     1     -15.409  41.676   2.342  1.00  0.00     0.001 A 
HETATM   41  C31 UNL     1     -15.891  41.084   1.194  1.00  0.00     0.009 A 
ENDBRANCH  35  36
ENDBRANCH  12  35
BRANCH   1  42
HETATM   42  S1  UNL     1     -18.940  32.152  -1.029  1.00  0.00     0.172 S 
HETATM   43  C1  UNL     1     -19.788  32.178  -2.596  1.00  0.00     0.167 C 
HETATM   44  O1  UNL     1     -17.644  31.438  -1.217  1.00  0.00    -0.223 OA
HETATM   45  O2  UNL     1     -19.747  31.388  -0.013  1.00  0.00    -0.223 OA
ENDBRANCH   1  42
TORSDOF 6
ENDMDL
MODEL 3
REMARK VINA RESULT: -7.978324407      4.081      7.428
REMARK  6 active torsions:
REMARK  status: ('A' for Active; 'I' for Inactive)
REMARK    1  A    between atoms: S1_2  and  C2_5 
REMARK    2  A    between atoms: C9_15  and  C10_16 
REMARK    3  A    between atoms: C10_16  and  C11_17 
REMARK       I    between atoms: C11_17  and  N2_19 
REMARK    4  A    between atoms: N2_19  and  C12_21 
REMARK    5  A    between atoms: N3_35  and  C25_36 
REMARK    6  A    between atoms: C25_36  and  C26_37 
ROOT
HETATM    1  C2  UNL     1     -17.253  39.909  -5.631  1.00  0.00     0.061 A 
HETATM    2  C3  UNL     1     -17.734  41.045  -5.019  1.00  0.00     0.024 A 
HETATM    3  C4  UNL     1     -18.207  40.951  -3.708  1.00  0.00     0.011 A 
HETATM    4  C5  UNL     1     -18.191  39.755  -3.049  1.00  0.00    -0.023 A 
HETATM    5  C6  UNL     1     -17.711  38.612  -3.652  1.00  0.00     0.043 A 
HETATM    6  C7  UNL     1     -17.246  38.714  -4.947  1.00  0.00     0.053 A 
HETATM    7  N1  UNL     1     -17.525  37.238  -3.311  1.00  0.00    -0.325 N 
ATOM      8  H1  UNL     1     -17.448  36.612  -4.113  1.00  0.00     0.169 HD
HETATM    9  C8  UNL     1     -17.428  36.578  -2.025  1.00  0.00     0.245 C 
HETATM   10  O3  UNL     1     -17.969  35.450  -2.035  1.00  0.00    -0.271 OA
HETATM   11  C9  UNL     1     -16.847  36.933  -0.736  1.00  0.00     0.188 C 
HETATM   12  N3  UNL     1     -17.293  38.198  -0.185  1.00  0.00    -0.334 N 
HETATM   13  C32 UNL     1     -17.849  39.398  -0.696  1.00  0.00     0.225 C 
HETATM   14  O5  UNL     1     -17.355  40.376  -0.017  1.00  0.00    -0.273 OA
HETATM   15  C33 UNL     1     -18.768  39.938  -1.700  1.00  0.00     0.144 C 
ENDROOT
BRANCH  11  16
HETATM   16  C10 UNL     1     -15.359  36.874  -0.750  1.00  0.00     0.138 C 
BRANCH  16  17
HETATM   17  C11 UNL     1     -14.688  37.696  -1.790  1.00  0.00     0.220 C 
HETATM   18  O4  UNL     1     -14.707  38.954  -1.782  1.00  0.00    -0.274 OA
HETATM   19  N2  UNL     1     -13.982  37.077  -2.862  1.00  0.00    -0.348 N 
ATOM     20  H2  UNL     1     -13.931  36.061  -2.925  1.00  0.00     0.163 HD
BRANCH  19  21
HETATM   21  C12 UNL     1     -13.345  37.896  -3.851  1.00  0.00     0.152 A 
HETATM   22  C13 UNL     1     -11.924  38.119  -3.610  1.00  0.00    -0.020 A 
HETATM   23  C14 UNL     1     -11.273  38.637  -2.483  1.00  0.00     0.010 A 
HETATM   24  C18 UNL     1     -11.230  37.724  -4.722  1.00  0.00    -0.017 A 
HETATM   25  C15 UNL     1      -9.907  38.737  -2.533  1.00  0.00     0.001 A 
HETATM   26  C16 UNL     1      -9.156  38.358  -3.620  1.00  0.00     0.001 A 
HETATM   27  C17 UNL     1      -9.832  37.853  -4.706  1.00  0.00     0.013 A 
HETATM   28  C19 UNL     1     -12.162  37.233  -5.723  1.00  0.00    -0.017 A 
HETATM   29  C20 UNL     1     -11.946  36.728  -6.998  1.00  0.00     0.014 A 
HETATM   30  C24 UNL     1     -13.427  37.331  -5.210  1.00  0.00    -0.018 A 
HETATM   31  C21 UNL     1     -12.990  36.306  -7.801  1.00  0.00     0.024 A 
HETATM   32  C22 UNL     1     -14.262  36.407  -7.280  1.00  0.00     0.034 A 
HETATM   33 CL1  UNL     1     -15.615  35.873  -8.286  1.00  0.00    -0.084 Cl
HETATM   34  C23 UNL     1     -14.486  36.907  -6.015  1.00  0.00     0.034 A 
ENDBRANCH  19  21
ENDBRANCH  16  17
ENDBRANCH  11  16
BRANCH  12  35
HETATM   35  C25 UNL     1     -17.135  38.271   1.241  1.00  0.00     0.165 C 
BRANCH  35  36
HETATM   36  C26 UNL     1     -18.170  37.443   1.946  1.00  0.00    -0.040 A 
HETATM   37  C27 UNL     1     -19.514  37.789   1.876  1.00  0.00     0.009 A 
HETATM   38  C28 UNL     1     -20.463  37.008   2.538  1.00  0.00     0.001 A 
HETATM   39  C29 UNL     1     -20.102  35.906   3.254  1.00  0.00     0.000 A 
HETATM   40  C30 UNL     1     -18.745  35.571   3.315  1.00  0.00     0.001 A 
HETATM   41  C31 UNL     1     -17.799  36.334   2.666  1.00  0.00     0.009 A 
ENDBRANCH  35  36
ENDBRANCH  12  35
BRANCH   1  42
HETATM   42  S1  UNL     1     -16.670  40.056  -7.269  1.00  0.00     0.172 S 
HETATM   43  C1  UNL     1     -17.252  41.562  -8.025  1.00  0.00     0.167 C 
HETATM   44  O1  UNL     1     -15.181  40.048  -7.342  1.00  0.00    -0.223 OA
HETATM   45  O2  UNL     1     -17.179  38.860  -8.030  1.00  0.00    -0.223 OA
ENDBRANCH   1  42
TORSDOF 6
ENDMDL
MODEL 4
REMARK VINA RESULT: -7.852563429      5.354     10.485
REMARK  6 active torsions:
REMARK  status: ('A' for Active; 'I' for Inactive)
REMARK    1  A    between atoms: S1_2  and  C2_5 
REMARK    2  A    between atoms: C9_15  and  C10_16 
REMARK    3  A    between atoms: C10_16  and  C11_17 
REMARK       I    between atoms: C11_17  and  N2_19 
REMARK    4  A    between atoms: N2_19  and  C12_21 
REMARK    5  A    between atoms: N3_35  and  C25_36 
REMARK    6  A    between atoms: C25_36  and  C26_37 
ROOT
HETATM    1  C2  UNL     1     -20.646  35.432   1.876  1.00  0.00     0.061 A 
HETATM    2  C3  UNL     1     -20.235  36.545   2.574  1.00  0.00     0.024 A 
HETATM    3  C4  UNL     1     -18.923  36.994   2.409  1.00  0.00     0.011 A 
HETATM    4  C5  UNL     1     -18.066  36.339   1.570  1.00  0.00    -0.023 A 
HETATM    5  C6  UNL     1     -18.467  35.224   0.866  1.00  0.00     0.043 A 
HETATM    6  C7  UNL     1     -19.766  34.788   1.035  1.00  0.00     0.053 A 
HETATM    7  N1  UNL     1     -17.901  34.309  -0.074  1.00  0.00    -0.325 N 
ATOM      8  H1  UNL     1     -18.387  33.414  -0.135  1.00  0.00     0.169 HD
HETATM    9  C8  UNL     1     -16.757  34.431  -0.954  1.00  0.00     0.245 C 
HETATM   10  O3  UNL     1     -16.136  33.350  -1.067  1.00  0.00    -0.271 OA
HETATM   11  C9  UNL     1     -16.174  35.521  -1.727  1.00  0.00     0.188 C 
HETATM   12  N3  UNL     1     -15.868  36.719  -0.971  1.00  0.00    -0.334 N 
HETATM   13  C32 UNL     1     -16.312  37.307   0.240  1.00  0.00     0.225 C 
HETATM   14  O5  UNL     1     -16.340  38.583   0.067  1.00  0.00    -0.273 OA
HETATM   15  C33 UNL     1     -16.748  37.007   1.606  1.00  0.00     0.144 C 
ENDROOT
BRANCH  11  16
HETATM   16  C10 UNL     1     -16.988  35.863  -2.926  1.00  0.00     0.138 C 
BRANCH  16  17
HETATM   17  C11 UNL     1     -16.340  36.765  -3.913  1.00  0.00     0.220 C 
HETATM   18  O4  UNL     1     -16.670  37.971  -4.054  1.00  0.00    -0.274 OA
HETATM   19  N2  UNL     1     -15.299  36.287  -4.760  1.00  0.00    -0.348 N 
ATOM     20  H2  UNL     1     -14.987  35.318  -4.696  1.00  0.00     0.163 HD
BRANCH  19  21
HETATM   21  C12 UNL     1     -14.693  37.181  -5.704  1.00  0.00     0.152 A 
HETATM   22  C13 UNL     1     -13.261  37.369  -5.506  1.00  0.00    -0.020 A 
HETATM   23  C14 UNL     1     -12.557  37.785  -4.368  1.00  0.00     0.010 A 
HETATM   24  C18 UNL     1     -12.618  37.063  -6.675  1.00  0.00    -0.017 A 
HETATM   25  C15 UNL     1     -11.192  37.876  -4.467  1.00  0.00     0.001 A 
HETATM   26  C16 UNL     1     -10.492  37.583  -5.612  1.00  0.00     0.001 A 
HETATM   27  C17 UNL     1     -11.219  37.178  -6.707  1.00  0.00     0.013 A 
HETATM   28  C19 UNL     1     -13.596  36.667  -7.673  1.00  0.00    -0.017 A 
HETATM   29  C20 UNL     1     -13.441  36.269  -8.994  1.00  0.00     0.014 A 
HETATM   30  C24 UNL     1     -14.838  36.733  -7.100  1.00  0.00    -0.018 A 
HETATM   31  C21 UNL     1     -14.522  35.925  -9.785  1.00  0.00     0.024 A 
HETATM   32  C22 UNL     1     -15.770  35.994  -9.203  1.00  0.00     0.034 A 
HETATM   33 CL1  UNL     1     -17.170  35.559 -10.192  1.00  0.00    -0.084 Cl
HETATM   34  C23 UNL     1     -15.934  36.388  -7.893  1.00  0.00     0.034 A 
ENDBRANCH  19  21
ENDBRANCH  16  17
ENDBRANCH  11  16
BRANCH  12  35
HETATM   35  C25 UNL     1     -14.863  37.532  -1.597  1.00  0.00     0.165 C 
BRANCH  35  36
HETATM   36  C26 UNL     1     -13.483  37.059  -1.243  1.00  0.00    -0.040 A 
HETATM   37  C27 UNL     1     -12.451  37.973  -1.066  1.00  0.00     0.009 A 
HETATM   38  C28 UNL     1     -11.173  37.517  -0.735  1.00  0.00     0.001 A 
HETATM   39  C29 UNL     1     -10.911  36.188  -0.580  1.00  0.00     0.000 A 
HETATM   40  C30 UNL     1     -11.961  35.281  -0.761  1.00  0.00     0.001 A 
HETATM   41  C31 UNL     1     -13.226  35.719  -1.087  1.00  0.00     0.009 A 
ENDBRANCH  35  36
ENDBRANCH  12  35
BRANCH   1  42
HETATM   42  S1  UNL     1     -22.290  34.894   2.103  1.00  0.00     0.172 S 
HETATM   43  C1  UNL     1     -23.141  34.750   0.543  1.00  0.00     0.167 C 
HETATM   44  O1  UNL     1     -22.362  33.573   2.792  1.00  0.00    -0.223 OA
HETATM   45  O2  UNL     1     -22.973  35.911   2.978  1.00  0.00    -0.223 OA
ENDBRANCH   1  42
TORSDOF 6
ENDMDL
MODEL 5
REMARK VINA RESULT: -7.844551711      3.899      8.052
REMARK  6 active torsions:
REMARK  status: ('A' for Active; 'I' for Inactive)
REMARK    1  A    between atoms: S1_2  and  C2_5 
REMARK    2  A    between atoms: C9_15  and  C10_16 
REMARK    3  A    between atoms: C10_16  and  C11_17 
REMARK       I    between atoms: C11_17  and  N2_19 
REMARK    4  A    between atoms: N2_19  and  C12_21 
REMARK    5  A    between atoms: N3_35  and  C25_36 
REMARK    6  A    between atoms: C25_36  and  C26_37 
ROOT
HETATM    1  C2  UNL     1     -11.554  37.437  -2.466  1.00  0.00     0.061 A 
HETATM    2  C3  UNL     1     -11.210  36.340  -1.709  1.00  0.00     0.024 A 
HETATM    3  C4  UNL     1     -12.183  35.758  -0.893  1.00  0.00     0.011 A 
HETATM    4  C5  UNL     1     -13.449  36.269  -0.850  1.00  0.00    -0.023 A 
HETATM    5  C6  UNL     1     -13.804  37.366  -1.605  1.00  0.00     0.043 A 
HETATM    6  C7  UNL     1     -12.837  37.935  -2.408  1.00  0.00     0.053 A 
HETATM    7  N1  UNL     1     -14.971  38.157  -1.835  1.00  0.00    -0.325 N 
ATOM      8  H1  UNL     1     -14.783  39.087  -2.207  1.00  0.00     0.169 HD
HETATM    9  C8  UNL     1     -16.376  37.866  -1.630  1.00  0.00     0.245 C 
HETATM   10  O3  UNL     1     -17.011  38.872  -1.242  1.00  0.00    -0.271 OA
HETATM   11  C9  UNL     1     -17.204  36.675  -1.774  1.00  0.00     0.188 C 
HETATM   12  N3  UNL     1     -16.738  35.507  -1.053  1.00  0.00    -0.334 N 
HETATM   13  C32 UNL     1     -15.498  35.049  -0.540  1.00  0.00     0.225 C 
HETATM   14  O5  UNL     1     -15.455  33.772  -0.708  1.00  0.00    -0.273 OA
HETATM   15  C33 UNL     1     -14.257  35.482   0.106  1.00  0.00     0.144 C 
ENDROOT
BRANCH  11  16
HETATM   16  C10 UNL     1     -17.459  36.331  -3.201  1.00  0.00     0.138 C 
BRANCH  16  17
HETATM   17  C11 UNL     1     -16.358  36.644  -4.149  1.00  0.00     0.220 C 
HETATM   18  O4  UNL     1     -15.292  35.976  -4.201  1.00  0.00    -0.274 OA
HETATM   19  N2  UNL     1     -16.467  37.738  -5.055  1.00  0.00    -0.348 N 
ATOM     20  H2  UNL     1     -17.306  38.319  -5.061  1.00  0.00     0.163 HD
BRANCH  19  21
HETATM   21  C12 UNL     1     -15.388  38.016  -5.957  1.00  0.00     0.152 A 
HETATM   22  C13 UNL     1     -15.603  37.516  -7.310  1.00  0.00    -0.020 A 
HETATM   23  C14 UNL     1     -15.896  36.220  -7.753  1.00  0.00     0.010 A 
HETATM   24  C18 UNL     1     -15.474  38.561  -8.184  1.00  0.00    -0.017 A 
HETATM   25  C15 UNL     1     -16.049  36.033  -9.103  1.00  0.00     0.001 A 
HETATM   26  C16 UNL     1     -15.930  37.041 -10.028  1.00  0.00     0.001 A 
HETATM   27  C17 UNL     1     -15.643  38.300  -9.553  1.00  0.00     0.013 A 
HETATM   28  C19 UNL     1     -15.172  39.774  -7.443  1.00  0.00    -0.017 A 
HETATM   29  C20 UNL     1     -14.956  41.075  -7.875  1.00  0.00     0.014 A 
HETATM   30  C24 UNL     1     -15.121  39.457  -6.112  1.00  0.00    -0.018 A 
HETATM   31  C21 UNL     1     -14.680  42.102  -6.990  1.00  0.00     0.024 A 
HETATM   32  C22 UNL     1     -14.629  41.777  -5.651  1.00  0.00     0.034 A 
HETATM   33 CL1  UNL     1     -14.279  43.071  -4.497  1.00  0.00    -0.084 Cl
HETATM   34  C23 UNL     1     -14.842  40.488  -5.213  1.00  0.00     0.034 A 
ENDBRANCH  19  21
ENDBRANCH  16  17
ENDBRANCH  11  16
BRANCH  12  35
HETATM   35  C25 UNL     1     -17.785  34.562  -0.787  1.00  0.00     0.165 C 
BRANCH  35  36
HETATM   36  C26 UNL     1     -18.600  34.974   0.404  1.00  0.00    -0.040 A 
HETATM   37  C27 UNL     1     -17.976  35.340   1.591  1.00  0.00     0.009 A 
HETATM   38  C28 UNL     1     -18.749  35.722   2.689  1.00  0.00     0.001 A 
HETATM   39  C29 UNL     1     -20.111  35.746   2.625  1.00  0.00     0.000 A 
HETATM   40  C30 UNL     1     -20.724  35.375   1.423  1.00  0.00     0.001 A 
HETATM   41  C31 UNL     1     -19.972  34.997   0.333  1.00  0.00     0.009 A 
ENDBRANCH  35  36
ENDBRANCH  12  35
BRANCH   1  42
HETATM   42  S1  UNL     1     -10.319  38.145  -3.475  1.00  0.00     0.172 S 
HETATM   43  C1  UNL     1     -10.489  37.614  -5.168  1.00  0.00     0.167 C 
HETATM   44  O1  UNL     1     -10.355  39.636  -3.451  1.00  0.00    -0.223 OA
HETATM   45  O2  UNL     1      -8.989  37.704  -2.922  1.00  0.00    -0.223 OA
ENDBRANCH   1  42
TORSDOF 6
ENDMDL
