MODEL 1
REMARK VINA RESULT: -9.446199366      0.000      0.000
REMARK  7 active torsions:
REMARK  status: ('A' for Active; 'I' for Inactive)
REMARK    1  A    between atoms: N1_1  and  S1_4 
REMARK    2  A    between atoms: S1_4  and  C1_7 
REMARK    3  A    between atoms: C6_12  and  C7_13 
REMARK    4  A    between atoms: N2_25  and  C18_26 
REMARK    5  A    between atoms: C18_26  and  C19_27 
REMARK    6  A    between atoms: C19_27  and  C20_28 
REMARK    7  A    between atoms: C19_27  and  C26_34 
ROOT
HETATM    1  C7  UNL     1     -13.458  36.210 -10.852  1.00  0.00    -0.013 A 
HETATM    2  C8  UNL     1     -12.221  36.270 -10.249  1.00  0.00     0.014 A 
HETATM    3  C9  UNL     1     -12.140  36.264  -8.852  1.00  0.00     0.019 A 
HETATM    4  C10 UNL     1     -13.267  36.197  -8.067  1.00  0.00     0.044 A 
HETATM    5  C11 UNL     1     -14.518  36.134  -8.644  1.00  0.00     0.006 A 
HETATM    6  C12 UNL     1     -15.654  36.072  -7.846  1.00  0.00     0.044 A 
HETATM    7  C13 UNL     1     -16.891  36.015  -8.426  1.00  0.00     0.018 A 
HETATM    8  C14 UNL     1     -16.989  36.023  -9.797  1.00  0.00     0.002 A 
HETATM    9  C15 UNL     1     -15.847  36.086 -10.582  1.00  0.00     0.013 A 
HETATM   10  C16 UNL     1     -14.589  36.142 -10.026  1.00  0.00    -0.013 A 
HETATM   11  C17 UNL     1     -15.507  36.071  -6.377  1.00  0.00     0.261 A 
HETATM   12  O3  UNL     1     -16.562  36.019  -5.740  1.00  0.00    -0.267 OA
HETATM   13  N2  UNL     1     -14.270  36.129  -5.735  1.00  0.00    -0.276 N 
HETATM   14  C34 UNL     1     -13.115  36.195  -6.621  1.00  0.00     0.261 A 
HETATM   15  O5  UNL     1     -11.984  36.251  -6.090  1.00  0.00    -0.267 OA
ENDROOT
BRANCH  13  16
HETATM   16  C18 UNL     1     -14.087  36.081  -4.316  1.00  0.00     0.176 C 
BRANCH  16  17
HETATM   17  C19 UNL     1     -13.905  37.331  -3.579  1.00  0.00    -0.016 C 
BRANCH  17  18
HETATM   18  C20 UNL     1     -12.648  37.935  -3.262  1.00  0.00    -0.027 A 
HETATM   19  C21 UNL     1     -11.988  37.447  -2.110  1.00  0.00     0.012 A 
HETATM   20  C22 UNL     1     -10.771  37.910  -1.691  1.00  0.00     0.001 A 
HETATM   21  C23 UNL     1     -10.112  38.895  -2.385  1.00  0.00     0.000 A 
HETATM   22  C24 UNL     1     -10.753  39.372  -3.507  1.00  0.00     0.001 A 
HETATM   23  C25 UNL     1     -11.968  38.907  -3.919  1.00  0.00     0.012 A 
ENDBRANCH  17  18
BRANCH  17  24
HETATM   24  C26 UNL     1     -14.803  37.424  -2.361  1.00  0.00     0.012 A 
HETATM   25  C27 UNL     1     -14.821  36.389  -1.426  1.00  0.00     0.025 A 
HETATM   26  C28 UNL     1     -15.620  36.391  -0.293  1.00  0.00    -0.024 A 
HETATM   27  C29 UNL     1     -16.426  37.487  -0.114  1.00  0.00     0.042 A 
HETATM   28  C33 UNL     1     -15.801  35.419   0.822  1.00  0.00     0.162 A 
HETATM   29  C30 UNL     1     -16.419  38.521  -1.034  1.00  0.00     0.060 A 
HETATM   30  C32 UNL     1     -17.168  37.270   1.130  1.00  0.00     0.252 A 
HETATM   31  C31 UNL     1     -15.613  38.517  -2.172  1.00  0.00     0.128 A 
HETATM   32  F1  UNL     1     -15.653  39.570  -3.022  1.00  0.00    -0.205 F 
HETATM   33  O4  UNL     1     -18.005  38.060   1.624  1.00  0.00    -0.268 OA
HETATM   34  N3  UNL     1     -16.785  36.028   1.678  1.00  0.00    -0.353 N 
ATOM     35  H3  UNL     1     -17.148  35.626   2.542  1.00  0.00     0.163 HD
ENDBRANCH  17  24
ENDBRANCH  16  17
ENDBRANCH  13  16
BRANCH   1  36
HETATM   36  C6  UNL     1     -13.564  36.123 -12.303  1.00  0.00    -0.002 A 
HETATM   37  C1  UNL     1     -13.459  37.140 -13.185  1.00  0.00     0.090 A 
HETATM   38  C2  UNL     1     -13.498  36.879 -14.568  1.00  0.00     0.026 A 
HETATM   39  C3  UNL     1     -13.641  35.611 -15.077  1.00  0.00     0.002 A 
HETATM   40  C4  UNL     1     -13.749  34.571 -14.171  1.00  0.00     0.001 A 
HETATM   41  C5  UNL     1     -13.711  34.825 -12.822  1.00  0.00     0.014 A 
BRANCH  37  42
HETATM   42  S1  UNL     1     -13.343  38.786 -12.630  1.00  0.00     0.257 S 
HETATM   43  O1  UNL     1     -11.946  39.077 -12.176  1.00  0.00    -0.201 OA
HETATM   44  O2  UNL     1     -14.378  39.130 -11.609  1.00  0.00    -0.201 OA
BRANCH  42  45
HETATM   45  N1  UNL     1     -13.595  39.877 -13.980  1.00  0.00    -0.324 N 
ATOM     46  H12 UNL     1     -14.221  39.740 -14.773  1.00  0.00     0.169 HD
ATOM     47  H11 UNL     1     -12.977  40.665 -13.785  1.00  0.00     0.169 HD
ENDBRANCH  42  45
ENDBRANCH  37  42
ENDBRANCH   1  36
TORSDOF 7
ENDMDL
MODEL 2
REMARK VINA RESULT: -9.266338023      1.637      2.095
REMARK  7 active torsions:
REMARK  status: ('A' for Active; 'I' for Inactive)
REMARK    1  A    between atoms: N1_1  and  S1_4 
REMARK    2  A    between atoms: S1_4  and  C1_7 
REMARK    3  A    between atoms: C6_12  and  C7_13 
REMARK    4  A    between atoms: N2_25  and  C18_26 
REMARK    5  A    between atoms: C18_26  and  C19_27 
REMARK    6  A    between atoms: C19_27  and  C20_28 
REMARK    7  A    between atoms: C19_27  and  C26_34 
ROOT
HETATM    1  C7  UNL     1     -13.283  36.199 -10.919  1.00  0.00    -0.013 A 
HETATM    2  C8  UNL     1     -12.069  36.284 -10.275  1.00  0.00     0.014 A 
HETATM    3  C9  UNL     1     -12.037  36.307  -8.875  1.00  0.00     0.019 A 
HETATM    4  C10 UNL     1     -13.190  36.244  -8.129  1.00  0.00     0.044 A 
HETATM    5  C11 UNL     1     -14.420  36.156  -8.748  1.00  0.00     0.006 A 
HETATM    6  C12 UNL     1     -15.582  36.098  -7.989  1.00  0.00     0.044 A 
HETATM    7  C13 UNL     1     -16.798  36.018  -8.611  1.00  0.00     0.018 A 
HETATM    8  C14 UNL     1     -16.847  35.998  -9.985  1.00  0.00     0.002 A 
HETATM    9  C15 UNL     1     -15.679  36.057 -10.730  1.00  0.00     0.013 A 
HETATM   10  C16 UNL     1     -14.442  36.136 -10.131  1.00  0.00    -0.013 A 
HETATM   11  C17 UNL     1     -15.486  36.128  -6.516  1.00  0.00     0.261 A 
HETATM   12  O3  UNL     1     -16.563  36.078  -5.915  1.00  0.00    -0.267 OA
HETATM   13  N2  UNL     1     -14.273  36.211  -5.832  1.00  0.00    -0.276 N 
HETATM   14  C34 UNL     1     -13.089  36.271  -6.679  1.00  0.00     0.261 A 
HETATM   15  O5  UNL     1     -11.978  36.349  -6.110  1.00  0.00    -0.267 OA
ENDROOT
BRANCH  13  16
HETATM   16  C18 UNL     1     -14.140  36.193  -4.407  1.00  0.00     0.176 C 
BRANCH  16  17
HETATM   17  C19 UNL     1     -13.612  37.374  -3.727  1.00  0.00    -0.016 C 
BRANCH  17  18
HETATM   18  C20 UNL     1     -12.649  37.364  -2.669  1.00  0.00    -0.027 A 
HETATM   19  C21 UNL     1     -11.655  38.370  -2.714  1.00  0.00     0.012 A 
HETATM   20  C22 UNL     1     -10.679  38.502  -1.764  1.00  0.00     0.001 A 
HETATM   21  C23 UNL     1     -10.615  37.645  -0.693  1.00  0.00     0.000 A 
HETATM   22  C24 UNL     1     -11.581  36.666  -0.648  1.00  0.00     0.001 A 
HETATM   23  C25 UNL     1     -12.552  36.538  -1.599  1.00  0.00     0.012 A 
ENDBRANCH  17  18
BRANCH  17  24
HETATM   24  C26 UNL     1     -14.694  38.378  -3.382  1.00  0.00     0.012 A 
HETATM   25  C27 UNL     1     -15.321  38.331  -2.137  1.00  0.00     0.025 A 
HETATM   26  C28 UNL     1     -16.325  39.203  -1.748  1.00  0.00    -0.024 A 
HETATM   27  C29 UNL     1     -16.699  40.154  -2.664  1.00  0.00     0.042 A 
HETATM   28  C33 UNL     1     -17.121  39.340  -0.496  1.00  0.00     0.162 A 
HETATM   29  C30 UNL     1     -16.086  40.213  -3.904  1.00  0.00     0.060 A 
HETATM   30  C32 UNL     1     -17.760  40.950  -2.042  1.00  0.00     0.252 A 
HETATM   31  C31 UNL     1     -15.075  39.335  -4.292  1.00  0.00     0.128 A 
HETATM   32  F1  UNL     1     -14.516  39.461  -5.518  1.00  0.00    -0.205 F 
HETATM   33  O4  UNL     1     -18.352  41.915  -2.576  1.00  0.00    -0.268 OA
HETATM   34  N3  UNL     1     -18.003  40.450  -0.745  1.00  0.00    -0.353 N 
ATOM     35  H3  UNL     1     -18.693  40.817  -0.090  1.00  0.00     0.163 HD
ENDBRANCH  17  24
ENDBRANCH  16  17
ENDBRANCH  13  16
BRANCH   1  36
HETATM   36  C6  UNL     1     -13.337  36.083 -12.370  1.00  0.00    -0.002 A 
HETATM   37  C1  UNL     1     -13.200  37.081 -13.269  1.00  0.00     0.090 A 
HETATM   38  C2  UNL     1     -13.189  36.792 -14.647  1.00  0.00     0.026 A 
HETATM   39  C3  UNL     1     -13.316  35.514 -15.135  1.00  0.00     0.002 A 
HETATM   40  C4  UNL     1     -13.458  34.493 -14.212  1.00  0.00     0.001 A 
HETATM   41  C5  UNL     1     -13.467  34.774 -12.868  1.00  0.00     0.014 A 
BRANCH  37  42
HETATM   42  S1  UNL     1     -13.102  38.738 -12.744  1.00  0.00     0.257 S 
HETATM   43  O1  UNL     1     -11.728  39.032 -12.227  1.00  0.00    -0.201 OA
HETATM   44  O2  UNL     1     -14.185  39.109 -11.783  1.00  0.00    -0.201 OA
BRANCH  42  45
HETATM   45  N1  UNL     1     -13.280  39.802 -14.128  1.00  0.00    -0.324 N 
ATOM     46  H12 UNL     1     -14.076  40.401 -14.345  1.00  0.00     0.169 HD
ATOM     47  H11 UNL     1     -12.413  39.680 -14.651  1.00  0.00     0.169 HD
ENDBRANCH  42  45
ENDBRANCH  37  42
ENDBRANCH   1  36
TORSDOF 7
ENDMDL
MODEL 3
REMARK VINA RESULT: -9.263948130      2.261      3.242
REMARK  7 active torsions:
REMARK  status: ('A' for Active; 'I' for Inactive)
REMARK    1  A    between atoms: N1_1  and  S1_4 
REMARK    2  A    between atoms: S1_4  and  C1_7 
REMARK    3  A    between atoms: C6_12  and  C7_13 
REMARK    4  A    between atoms: N2_25  and  C18_26 
REMARK    5  A    between atoms: C18_26  and  C19_27 
REMARK    6  A    between atoms: C19_27  and  C20_28 
REMARK    7  A    between atoms: C19_27  and  C26_34 
ROOT
HETATM    1  C7  UNL     1     -13.166  36.352 -11.323  1.00  0.00    -0.013 A 
HETATM    2  C8  UNL     1     -12.071  36.349 -10.488  1.00  0.00     0.014 A 
HETATM    3  C9  UNL     1     -12.263  36.224  -9.107  1.00  0.00     0.019 A 
HETATM    4  C10 UNL     1     -13.521  36.102  -8.565  1.00  0.00     0.044 A 
HETATM    5  C11 UNL     1     -14.635  36.099  -9.378  1.00  0.00     0.006 A 
HETATM    6  C12 UNL     1     -15.904  35.981  -8.824  1.00  0.00     0.044 A 
HETATM    7  C13 UNL     1     -17.004  35.985  -9.636  1.00  0.00     0.018 A 
HETATM    8  C14 UNL     1     -16.833  36.109 -10.995  1.00  0.00     0.002 A 
HETATM    9  C15 UNL     1     -15.561  36.228 -11.534  1.00  0.00     0.013 A 
HETATM   10  C16 UNL     1     -14.436  36.224 -10.741  1.00  0.00    -0.013 A 
HETATM   11  C17 UNL     1     -16.045  35.854  -7.360  1.00  0.00     0.261 A 
HETATM   12  O3  UNL     1     -17.204  35.758  -6.946  1.00  0.00    -0.267 OA
HETATM   13  N2  UNL     1     -14.957  35.846  -6.487  1.00  0.00    -0.276 N 
HETATM   14  C34 UNL     1     -13.653  35.976  -7.123  1.00  0.00     0.261 A 
HETATM   15  O5  UNL     1     -12.647  35.976  -6.379  1.00  0.00    -0.267 OA
ENDROOT
BRANCH  13  16
HETATM   16  C18 UNL     1     -15.054  35.676  -5.068  1.00  0.00     0.176 C 
BRANCH  16  17
HETATM   17  C19 UNL     1     -15.070  36.859  -4.210  1.00  0.00    -0.016 C 
BRANCH  17  18
HETATM   18  C20 UNL     1     -15.153  38.214  -4.662  1.00  0.00    -0.027 A 
HETATM   19  C21 UNL     1     -16.086  39.043  -3.997  1.00  0.00     0.012 A 
HETATM   20  C22 UNL     1     -16.266  40.364  -4.302  1.00  0.00     0.001 A 
HETATM   21  C23 UNL     1     -15.531  40.967  -5.293  1.00  0.00     0.000 A 
HETATM   22  C24 UNL     1     -14.623  40.162  -5.942  1.00  0.00     0.001 A 
HETATM   23  C25 UNL     1     -14.449  38.844  -5.634  1.00  0.00     0.012 A 
ENDBRANCH  17  18
BRANCH  17  24
HETATM   24  C26 UNL     1     -14.041  36.786  -3.099  1.00  0.00     0.012 A 
HETATM   25  C27 UNL     1     -12.934  37.634  -3.114  1.00  0.00     0.025 A 
HETATM   26  C28 UNL     1     -11.944  37.624  -2.145  1.00  0.00    -0.024 A 
HETATM   27  C29 UNL     1     -12.092  36.714  -1.128  1.00  0.00     0.042 A 
HETATM   28  C33 UNL     1     -10.699  38.421  -1.958  1.00  0.00     0.162 A 
HETATM   29  C30 UNL     1     -13.185  35.866  -1.100  1.00  0.00     0.060 A 
HETATM   30  C32 UNL     1     -10.943  36.884  -0.236  1.00  0.00     0.252 A 
HETATM   31  C31 UNL     1     -14.181  35.879  -2.076  1.00  0.00     0.128 A 
HETATM   32  F1  UNL     1     -15.226  35.025  -1.975  1.00  0.00    -0.205 F 
HETATM   33  O4  UNL     1     -10.731  36.225   0.808  1.00  0.00    -0.268 OA
HETATM   34  N3  UNL     1     -10.117  37.907  -0.746  1.00  0.00    -0.353 N 
ATOM     35  H3  UNL     1      -9.247  38.231  -0.324  1.00  0.00     0.163 HD
ENDBRANCH  17  24
ENDBRANCH  16  17
ENDBRANCH  13  16
BRANCH   1  36
HETATM   36  C6  UNL     1     -12.987  36.389 -12.768  1.00  0.00    -0.002 A 
HETATM   37  C1  UNL     1     -12.760  37.482 -13.529  1.00  0.00     0.090 A 
HETATM   38  C2  UNL     1     -12.520  37.341 -14.909  1.00  0.00     0.026 A 
HETATM   39  C3  UNL     1     -12.507  36.119 -15.536  1.00  0.00     0.002 A 
HETATM   40  C4  UNL     1     -12.740  35.001 -14.755  1.00  0.00     0.001 A 
HETATM   41  C5  UNL     1     -12.973  35.137 -13.408  1.00  0.00     0.014 A 
BRANCH  37  42
HETATM   42  S1  UNL     1     -12.826  39.075 -12.831  1.00  0.00     0.257 S 
HETATM   43  O1  UNL     1     -11.486  39.450 -12.280  1.00  0.00    -0.201 OA
HETATM   44  O2  UNL     1     -13.935  39.232 -11.842  1.00  0.00    -0.201 OA
BRANCH  42  45
HETATM   45  N1  UNL     1     -13.118  40.255 -14.096  1.00  0.00    -0.324 N 
ATOM     46  H12 UNL     1     -12.670  41.165 -14.204  1.00  0.00     0.169 HD
ATOM     47  H11 UNL     1     -13.829  39.821 -14.685  1.00  0.00     0.169 HD
ENDBRANCH  42  45
ENDBRANCH  37  42
ENDBRANCH   1  36
TORSDOF 7
ENDMDL
MODEL 4
REMARK VINA RESULT: -9.165984780      0.978      1.390
REMARK  7 active torsions:
REMARK  status: ('A' for Active; 'I' for Inactive)
REMARK    1  A    between atoms: N1_1  and  S1_4 
REMARK    2  A    between atoms: S1_4  and  C1_7 
REMARK    3  A    between atoms: C6_12  and  C7_13 
REMARK    4  A    between atoms: N2_25  and  C18_26 
REMARK    5  A    between atoms: C18_26  and  C19_27 
REMARK    6  A    between atoms: C19_27  and  C20_28 
REMARK    7  A    between atoms: C19_27  and  C26_34 
ROOT
HETATM    1  C7  UNL     1     -13.272  36.233 -10.929  1.00  0.00    -0.013 A 
HETATM    2  C8  UNL     1     -12.059  36.310 -10.283  1.00  0.00     0.014 A 
HETATM    3  C9  UNL     1     -12.026  36.291  -8.883  1.00  0.00     0.019 A 
HETATM    4  C10 UNL     1     -13.178  36.195  -8.139  1.00  0.00     0.044 A 
HETATM    5  C11 UNL     1     -14.407  36.115  -8.760  1.00  0.00     0.006 A 
HETATM    6  C12 UNL     1     -15.568  36.024  -8.002  1.00  0.00     0.044 A 
HETATM    7  C13 UNL     1     -16.783  35.951  -8.626  1.00  0.00     0.018 A 
HETATM    8  C14 UNL     1     -16.834  35.971  -9.999  1.00  0.00     0.002 A 
HETATM    9  C15 UNL     1     -15.666  36.063 -10.743  1.00  0.00     0.013 A 
HETATM   10  C16 UNL     1     -14.430  36.136 -10.143  1.00  0.00    -0.013 A 
HETATM   11  C17 UNL     1     -15.472  36.010  -6.529  1.00  0.00     0.261 A 
HETATM   12  O3  UNL     1     -16.547  35.933  -5.929  1.00  0.00    -0.267 OA
HETATM   13  N2  UNL     1     -14.259  36.084  -5.844  1.00  0.00    -0.276 N 
HETATM   14  C34 UNL     1     -13.076  36.180  -6.689  1.00  0.00     0.261 A 
HETATM   15  O5  UNL     1     -11.965  36.252  -6.118  1.00  0.00    -0.267 OA
ENDROOT
BRANCH  13  16
HETATM   16  C18 UNL     1     -14.124  36.025  -4.420  1.00  0.00     0.176 C 
BRANCH  16  17
HETATM   17  C19 UNL     1     -13.966  37.268  -3.667  1.00  0.00    -0.016 C 
BRANCH  17  18
HETATM   18  C20 UNL     1     -12.719  37.885  -3.332  1.00  0.00    -0.027 A 
HETATM   19  C21 UNL     1     -12.016  37.328  -2.238  1.00  0.00     0.012 A 
HETATM   20  C22 UNL     1     -10.804  37.795  -1.811  1.00  0.00     0.001 A 
HETATM   21  C23 UNL     1     -10.192  38.853  -2.438  1.00  0.00     0.000 A 
HETATM   22  C24 UNL     1     -10.876  39.396  -3.503  1.00  0.00     0.001 A 
HETATM   23  C25 UNL     1     -12.086  38.927  -3.924  1.00  0.00     0.012 A 
ENDBRANCH  17  18
BRANCH  17  24
HETATM   24  C26 UNL     1     -14.876  37.336  -2.458  1.00  0.00     0.012 A 
HETATM   25  C27 UNL     1     -15.552  38.519  -2.156  1.00  0.00     0.025 A 
HETATM   26  C28 UNL     1     -16.392  38.667  -1.064  1.00  0.00    -0.024 A 
HETATM   27  C29 UNL     1     -16.544  37.570  -0.254  1.00  0.00     0.042 A 
HETATM   28  C33 UNL     1     -17.203  39.809  -0.557  1.00  0.00     0.162 A 
HETATM   29  C30 UNL     1     -15.879  36.390  -0.540  1.00  0.00     0.060 A 
HETATM   30  C32 UNL     1     -17.463  37.957   0.819  1.00  0.00     0.252 A 
HETATM   31  C31 UNL     1     -15.035  36.243  -1.640  1.00  0.00     0.128 A 
HETATM   32  F1  UNL     1     -14.427  35.054  -1.860  1.00  0.00    -0.205 F 
HETATM   33  O4  UNL     1     -17.842  37.215   1.753  1.00  0.00    -0.268 OA
HETATM   34  N3  UNL     1     -17.848  39.301   0.625  1.00  0.00    -0.353 N 
ATOM     35  H3  UNL     1     -18.481  39.827   1.227  1.00  0.00     0.163 HD
ENDBRANCH  17  24
ENDBRANCH  16  17
ENDBRANCH  13  16
BRANCH   1  36
HETATM   36  C6  UNL     1     -13.326  36.159 -12.383  1.00  0.00    -0.002 A 
HETATM   37  C1  UNL     1     -13.211  37.187 -13.251  1.00  0.00     0.090 A 
HETATM   38  C2  UNL     1     -13.197  36.940 -14.637  1.00  0.00     0.026 A 
HETATM   39  C3  UNL     1     -13.298  35.675 -15.163  1.00  0.00     0.002 A 
HETATM   40  C4  UNL     1     -13.417  34.623 -14.272  1.00  0.00     0.001 A 
HETATM   41  C5  UNL     1     -13.430  34.864 -12.919  1.00  0.00     0.014 A 
BRANCH  37  42
HETATM   42  S1  UNL     1     -13.146  38.829 -12.676  1.00  0.00     0.257 S 
HETATM   43  O1  UNL     1     -11.765  39.150 -12.196  1.00  0.00    -0.201 OA
HETATM   44  O2  UNL     1     -14.207  39.135 -11.669  1.00  0.00    -0.201 OA
BRANCH  42  45
HETATM   45  N1  UNL     1     -13.404  39.929 -14.018  1.00  0.00    -0.324 N 
ATOM     46  H12 UNL     1     -12.995  39.869 -14.951  1.00  0.00     0.169 HD
ATOM     47  H11 UNL     1     -14.049  40.628 -13.650  1.00  0.00     0.169 HD
ENDBRANCH  42  45
ENDBRANCH  37  42
ENDBRANCH   1  36
TORSDOF 7
ENDMDL
MODEL 5
REMARK VINA RESULT: -8.982889947      2.085      2.937
REMARK  7 active torsions:
REMARK  status: ('A' for Active; 'I' for Inactive)
REMARK    1  A    between atoms: N1_1  and  S1_4 
REMARK    2  A    between atoms: S1_4  and  C1_7 
REMARK    3  A    between atoms: C6_12  and  C7_13 
REMARK    4  A    between atoms: N2_25  and  C18_26 
REMARK    5  A    between atoms: C18_26  and  C19_27 
REMARK    6  A    between atoms: C19_27  and  C20_28 
REMARK    7  A    between atoms: C19_27  and  C26_34 
ROOT
HETATM    1  C7  UNL     1     -13.281  36.120 -11.159  1.00  0.00    -0.013 A 
HETATM    2  C8  UNL     1     -12.058  36.222 -10.536  1.00  0.00     0.014 A 
HETATM    3  C9  UNL     1     -12.004  36.281  -9.138  1.00  0.00     0.019 A 
HETATM    4  C10 UNL     1     -13.146  36.237  -8.374  1.00  0.00     0.044 A 
HETATM    5  C11 UNL     1     -14.384  36.134  -8.972  1.00  0.00     0.006 A 
HETATM    6  C12 UNL     1     -15.535  36.096  -8.193  1.00  0.00     0.044 A 
HETATM    7  C13 UNL     1     -16.760  36.000  -8.794  1.00  0.00     0.018 A 
HETATM    8  C14 UNL     1     -16.831  35.944 -10.166  1.00  0.00     0.002 A 
HETATM    9  C15 UNL     1     -15.674  35.983 -10.931  1.00  0.00     0.013 A 
HETATM   10  C16 UNL     1     -14.428  36.078 -10.353  1.00  0.00    -0.013 A 
HETATM   11  C17 UNL     1     -15.417  36.164  -6.723  1.00  0.00     0.261 A 
HETATM   12  O3  UNL     1     -16.484  36.130  -6.105  1.00  0.00    -0.267 OA
HETATM   13  N2  UNL     1     -14.194  36.265  -6.061  1.00  0.00    -0.276 N 
HETATM   14  C34 UNL     1     -13.023  36.303  -6.926  1.00  0.00     0.261 A 
HETATM   15  O5  UNL     1     -11.903  36.395  -6.377  1.00  0.00    -0.267 OA
ENDROOT
BRANCH  13  16
HETATM   16  C18 UNL     1     -14.039  36.283  -4.637  1.00  0.00     0.176 C 
BRANCH  16  17
HETATM   17  C19 UNL     1     -13.480  37.474  -3.998  1.00  0.00    -0.016 C 
BRANCH  17  18
HETATM   18  C20 UNL     1     -12.615  37.477  -2.858  1.00  0.00    -0.027 A 
HETATM   19  C21 UNL     1     -11.609  38.472  -2.835  1.00  0.00     0.012 A 
HETATM   20  C22 UNL     1     -10.721  38.615  -1.805  1.00  0.00     0.001 A 
HETATM   21  C23 UNL     1     -10.762  37.780  -0.715  1.00  0.00     0.000 A 
HETATM   22  C24 UNL     1     -11.740  36.812  -0.736  1.00  0.00     0.001 A 
HETATM   23  C25 UNL     1     -12.623  36.673  -1.767  1.00  0.00     0.012 A 
ENDBRANCH  17  18
BRANCH  17  24
HETATM   24  C26 UNL     1     -14.503  38.578  -3.828  1.00  0.00     0.012 A 
HETATM   25  C27 UNL     1     -14.441  39.719  -4.627  1.00  0.00     0.025 A 
HETATM   26  C28 UNL     1     -15.329  40.778  -4.527  1.00  0.00    -0.024 A 
HETATM   27  C29 UNL     1     -16.314  40.664  -3.577  1.00  0.00     0.042 A 
HETATM   28  C33 UNL     1     -15.455  42.069  -5.259  1.00  0.00     0.162 A 
HETATM   29  C30 UNL     1     -16.388  39.537  -2.776  1.00  0.00     0.060 A 
HETATM   30  C32 UNL     1     -17.121  41.883  -3.653  1.00  0.00     0.252 A 
HETATM   31  C31 UNL     1     -15.493  38.473  -2.880  1.00  0.00     0.128 A 
HETATM   32  F1  UNL     1     -15.636  37.399  -2.068  1.00  0.00    -0.205 F 
HETATM   33  O4  UNL     1     -18.116  42.142  -2.937  1.00  0.00    -0.268 OA
HETATM   34  N3  UNL     1     -16.595  42.716  -4.663  1.00  0.00    -0.353 N 
ATOM     35  H3  UNL     1     -16.963  43.629  -4.928  1.00  0.00     0.163 HD
ENDBRANCH  17  24
ENDBRANCH  16  17
ENDBRANCH  13  16
BRANCH   1  36
HETATM   36  C6  UNL     1     -13.357  35.966 -12.606  1.00  0.00    -0.002 A 
HETATM   37  C1  UNL     1     -13.283  36.948 -13.531  1.00  0.00     0.090 A 
HETATM   38  C2  UNL     1     -13.286  36.626 -14.902  1.00  0.00     0.026 A 
HETATM   39  C3  UNL     1     -13.363  35.331 -15.356  1.00  0.00     0.002 A 
HETATM   40  C4  UNL     1     -13.439  34.328 -14.408  1.00  0.00     0.001 A 
HETATM   41  C5  UNL     1     -13.436  34.641 -13.070  1.00  0.00     0.014 A 
BRANCH  37  42
HETATM   42  S1  UNL     1     -13.252  38.620 -13.046  1.00  0.00     0.257 S 
HETATM   43  O1  UNL     1     -11.909  38.965 -12.483  1.00  0.00    -0.201 OA
HETATM   44  O2  UNL     1     -14.383  38.984 -12.142  1.00  0.00    -0.201 OA
BRANCH  42  45
HETATM   45  N1  UNL     1     -13.401  39.642 -14.465  1.00  0.00    -0.324 N 
ATOM     46  H12 UNL     1     -13.987  39.477 -15.283  1.00  0.00     0.169 HD
ATOM     47  H11 UNL     1     -12.774  40.424 -14.278  1.00  0.00     0.169 HD
ENDBRANCH  42  45
ENDBRANCH  37  42
ENDBRANCH   1  36
TORSDOF 7
ENDMDL
