MODEL 1
REMARK VINA RESULT: -7.239396260      0.000      0.000
REMARK  9 active torsions:
REMARK  status: ('A' for Active; 'I' for Inactive)
REMARK    1  A    between atoms: O1_2  and  C2_3 
REMARK    2  A    between atoms: C2_3  and  C3_5 
REMARK    3  A    between atoms: C3_5  and  C4_6 
REMARK    4  A    between atoms: C4_6  and  N1_7 
REMARK    5  A    between atoms: C4_6  and  C13_31 
REMARK       I    between atoms: N1_7  and  C5_9 
REMARK    6  A    between atoms: C5_9  and  C6_11 
REMARK    7  A    between atoms: C7_15  and  C8_16 
REMARK    8  A    between atoms: C11_21  and  N4_22 
REMARK    9  A    between atoms: C13_31  and  O7_33 
ROOT
HETATM    1  C6  UNL     1      -9.980  16.857 -16.982  1.00  0.00     0.197 A 
HETATM    2  N2  UNL     1      -9.959  16.652 -18.312  1.00  0.00    -0.238 N 
ATOM      3  H2  UNL     1      -9.909  17.379 -19.027  1.00  0.00     0.197 HD
HETATM    4  O4  UNL     1     -10.013  15.371 -18.533  1.00  0.00    -0.217 OA
HETATM    5  C7  UNL     1     -10.071  14.694 -17.415  1.00  0.00     0.190 A 
HETATM    6  N6  UNL     1     -10.050  15.628 -16.446  1.00  0.00    -0.314 N 
ATOM      7  H6  UNL     1     -10.083  15.431 -15.445  1.00  0.00     0.169 HD
ENDROOT
BRANCH   1   8
HETATM    8  C5  UNL     1      -9.937  18.127 -16.266  1.00  0.00     0.288 C 
HETATM    9  N1  UNL     1      -9.001  18.383 -15.255  1.00  0.00    -0.340 N 
ATOM     10  H1  UNL     1      -8.319  17.668 -15.000  1.00  0.00     0.163 HD
HETATM   11  O3  UNL     1     -10.781  19.016 -16.581  1.00  0.00    -0.264 OA
BRANCH   9  12
HETATM   12  C4  UNL     1      -9.000  19.657 -14.575  1.00  0.00     0.194 C 
BRANCH  12  13
HETATM   13  C3  UNL     1      -9.079  19.451 -13.076  1.00  0.00     0.146 C 
BRANCH  13  14
HETATM   14  C2  UNL     1      -7.933  18.740 -12.504  1.00  0.00     0.260 C 
HETATM   15  O2  UNL     1      -7.211  19.286 -11.640  1.00  0.00    -0.265 OA
BRANCH  14  16
HETATM   16  O1  UNL     1      -7.611  17.454 -12.896  1.00  0.00    -0.326 OA
HETATM   17  C1  UNL     1      -7.231  16.496 -11.918  1.00  0.00     0.213 C 
ENDBRANCH  14  16
ENDBRANCH  13  14
ENDBRANCH  12  13
BRANCH  12  18
HETATM   18  C13 UNL     1      -7.797  20.463 -14.949  1.00  0.00     0.281 C 
HETATM   19  O6  UNL     1      -6.941  20.076 -15.780  1.00  0.00    -0.263 OA
BRANCH  18  20
HETATM   20  O7  UNL     1      -7.602  21.713 -14.350  1.00  0.00    -0.325 OA
HETATM   21  C14 UNL     1      -7.581  22.866 -15.165  1.00  0.00     0.213 C 
ENDBRANCH  18  20
ENDBRANCH  12  18
ENDBRANCH   9  12
ENDBRANCH   1   8
BRANCH   5  22
HETATM   22  C8  UNL     1     -10.142  13.255 -17.224  1.00  0.00     0.108 A 
HETATM   23  C9  UNL     1      -9.065  12.459 -17.547  1.00  0.00     0.043 A 
HETATM   24  C10 UNL     1      -7.822  13.055 -18.102  1.00  0.00     0.070 C 
HETATM   25  N3  UNL     1      -9.147  11.109 -17.355  1.00  0.00    -0.195 N 
HETATM   26  C11 UNL     1     -10.281  10.561 -16.851  1.00  0.00     0.679 A 
ATOM     27  H3  UNL     1      -8.355  10.512 -17.590  1.00  0.00     0.184 HD
HETATM   28  N5  UNL     1     -11.350  11.317 -16.528  1.00  0.00    -0.155 N 
HETATM   29  C12 UNL     1     -11.257  12.632 -16.719  1.00  0.00     0.276 A 
ATOM     30  H5  UNL     1     -12.199  10.896 -16.150  1.00  0.00     0.187 HD
HETATM   31  O5  UNL     1     -12.266  13.354 -16.416  1.00  0.00    -0.267 OA
BRANCH  26  32
HETATM   32  N4  UNL     1     -10.338   9.308 -16.679  1.00  0.00    -0.234 N 
ATOM     33  H42 UNL     1      -9.582   8.841 -16.177  1.00  0.00     0.174 HD
ATOM     34  H41 UNL     1     -11.136   8.792 -17.047  1.00  0.00     0.174 HD
ENDBRANCH  26  32
ENDBRANCH   5  22
TORSDOF 9
ENDMDL
MODEL 2
REMARK VINA RESULT: -7.196696221      1.427      3.538
REMARK  9 active torsions:
REMARK  status: ('A' for Active; 'I' for Inactive)
REMARK    1  A    between atoms: O1_2  and  C2_3 
REMARK    2  A    between atoms: C2_3  and  C3_5 
REMARK    3  A    between atoms: C3_5  and  C4_6 
REMARK    4  A    between atoms: C4_6  and  N1_7 
REMARK    5  A    between atoms: C4_6  and  C13_31 
REMARK       I    between atoms: N1_7  and  C5_9 
REMARK    6  A    between atoms: C5_9  and  C6_11 
REMARK    7  A    between atoms: C7_15  and  C8_16 
REMARK    8  A    between atoms: C11_21  and  N4_22 
REMARK    9  A    between atoms: C13_31  and  O7_33 
ROOT
HETATM    1  C6  UNL     1      -8.609  15.950 -16.707  1.00  0.00     0.197 A 
HETATM    2  N2  UNL     1      -9.292  16.047 -17.863  1.00  0.00    -0.238 N 
ATOM      3  H2  UNL     1      -9.471  16.908 -18.379  1.00  0.00     0.197 HD
HETATM    4  O4  UNL     1      -9.684  14.856 -18.210  1.00  0.00    -0.217 OA
HETATM    5  C7  UNL     1      -9.301  13.953 -17.344  1.00  0.00     0.190 A 
HETATM    6  N6  UNL     1      -8.628  14.643 -16.404  1.00  0.00    -0.314 N 
ATOM      7  H6  UNL     1      -8.194  14.230 -15.577  1.00  0.00     0.169 HD
ENDROOT
BRANCH   1   8
HETATM    8  C5  UNL     1      -7.981  17.021 -15.940  1.00  0.00     0.288 C 
HETATM    9  N1  UNL     1      -8.501  17.469 -14.718  1.00  0.00    -0.340 N 
ATOM     10  H1  UNL     1      -9.345  17.042 -14.337  1.00  0.00     0.163 HD
HETATM   11  O3  UNL     1      -6.933  17.552 -16.410  1.00  0.00    -0.264 OA
BRANCH   9  12
HETATM   12  C4  UNL     1      -7.842  18.533 -13.998  1.00  0.00     0.194 C 
BRANCH  12  13
HETATM   13  C3  UNL     1      -8.564  19.846 -14.227  1.00  0.00     0.146 C 
BRANCH  13  14
HETATM   14  C2  UNL     1      -7.758  20.867 -14.900  1.00  0.00     0.260 C 
HETATM   15  O2  UNL     1      -7.353  20.690 -16.071  1.00  0.00    -0.265 OA
BRANCH  14  16
HETATM   16  O1  UNL     1      -7.420  22.051 -14.272  1.00  0.00    -0.326 OA
HETATM   17  C1  UNL     1      -7.353  23.253 -15.026  1.00  0.00     0.213 C 
ENDBRANCH  14  16
ENDBRANCH  13  14
ENDBRANCH  12  13
BRANCH  12  18
HETATM   18  C13 UNL     1      -7.746  18.214 -12.540  1.00  0.00     0.281 C 
HETATM   19  O6  UNL     1      -7.366  19.042 -11.678  1.00  0.00    -0.263 OA
BRANCH  18  20
HETATM   20  O7  UNL     1      -8.093  16.931 -12.100  1.00  0.00    -0.325 OA
HETATM   21  C14 UNL     1      -7.067  16.036 -11.724  1.00  0.00     0.213 C 
ENDBRANCH  18  20
ENDBRANCH  12  18
ENDBRANCH   9  12
ENDBRANCH   1   8
BRANCH   5  22
HETATM   22  C8  UNL     1      -9.532  12.519 -17.361  1.00  0.00     0.108 A 
HETATM   23  C9  UNL     1     -10.721  12.004 -16.891  1.00  0.00     0.043 A 
HETATM   24  C10 UNL     1     -11.777  12.901 -16.355  1.00  0.00     0.070 C 
HETATM   25  N3  UNL     1     -10.924  10.653 -16.920  1.00  0.00    -0.195 N 
HETATM   26  C11 UNL     1      -9.962   9.830 -17.407  1.00  0.00     0.679 A 
ATOM     27  H3  UNL     1     -11.801  10.263 -16.576  1.00  0.00     0.184 HD
HETATM   28  N5  UNL     1      -8.790  10.307 -17.872  1.00  0.00    -0.155 N 
HETATM   29  C12 UNL     1      -8.604  11.626 -17.839  1.00  0.00     0.276 A 
ATOM     30  H5  UNL     1      -8.072   9.681 -18.235  1.00  0.00     0.187 HD
HETATM   31  O5  UNL     1      -7.496  12.086 -18.277  1.00  0.00    -0.267 OA
BRANCH  26  32
HETATM   32  N4  UNL     1     -10.170   8.581 -17.426  1.00  0.00    -0.234 N 
ATOM     33  H42 UNL     1     -10.537   8.126 -16.590  1.00  0.00     0.174 HD
ATOM     34  H41 UNL     1      -9.966   8.057 -18.277  1.00  0.00     0.174 HD
ENDBRANCH  26  32
ENDBRANCH   5  22
TORSDOF 9
ENDMDL
MODEL 3
REMARK VINA RESULT: -7.158497105      2.437      8.347
REMARK  9 active torsions:
REMARK  status: ('A' for Active; 'I' for Inactive)
REMARK    1  A    between atoms: O1_2  and  C2_3 
REMARK    2  A    between atoms: C2_3  and  C3_5 
REMARK    3  A    between atoms: C3_5  and  C4_6 
REMARK    4  A    between atoms: C4_6  and  N1_7 
REMARK    5  A    between atoms: C4_6  and  C13_31 
REMARK       I    between atoms: N1_7  and  C5_9 
REMARK    6  A    between atoms: C5_9  and  C6_11 
REMARK    7  A    between atoms: C7_15  and  C8_16 
REMARK    8  A    between atoms: C11_21  and  N4_22 
REMARK    9  A    between atoms: C13_31  and  O7_33 
ROOT
HETATM    1  C6  UNL     1      -9.617  16.289 -16.272  1.00  0.00     0.197 A 
HETATM    2  N2  UNL     1     -10.013  16.360 -14.988  1.00  0.00    -0.238 N 
ATOM      3  H2  UNL     1     -10.375  15.585 -14.432  1.00  0.00     0.197 HD
HETATM    4  O4  UNL     1      -9.857  17.584 -14.575  1.00  0.00    -0.217 OA
HETATM    5  C7  UNL     1      -9.373  18.350 -15.519  1.00  0.00     0.190 A 
HETATM    6  N6  UNL     1      -9.225  17.535 -16.581  1.00  0.00    -0.314 N 
ATOM      7  H6  UNL     1      -8.865  17.823 -17.491  1.00  0.00     0.169 HD
ENDROOT
BRANCH   1   8
HETATM    8  C5  UNL     1      -9.610  15.123 -17.149  1.00  0.00     0.288 C 
HETATM    9  N1  UNL     1      -9.188  13.861 -16.710  1.00  0.00    -0.340 N 
ATOM     10  H1  UNL     1      -8.874  13.735 -15.747  1.00  0.00     0.163 HD
HETATM   11  O3  UNL     1     -10.000  15.275 -18.343  1.00  0.00    -0.264 OA
BRANCH   9  12
HETATM   12  C4  UNL     1      -9.199  12.737 -17.618  1.00  0.00     0.194 C 
BRANCH  12  13
HETATM   13  C3  UNL     1      -7.789  12.225 -17.833  1.00  0.00     0.146 C 
BRANCH  13  14
HETATM   14  C2  UNL     1      -6.739  13.156 -17.413  1.00  0.00     0.260 C 
HETATM   15  O2  UNL     1      -6.117  12.975 -16.342  1.00  0.00    -0.265 OA
BRANCH  14  16
HETATM   16  O1  UNL     1      -6.400  14.256 -18.178  1.00  0.00    -0.326 OA
HETATM   17  C1  UNL     1      -5.875  15.416 -17.547  1.00  0.00     0.213 C 
ENDBRANCH  14  16
ENDBRANCH  13  14
ENDBRANCH  12  13
BRANCH  12  18
HETATM   18  C13 UNL     1     -10.099  11.653 -17.118  1.00  0.00     0.281 C 
HETATM   19  O6  UNL     1     -11.272  11.860 -16.723  1.00  0.00    -0.263 OA
BRANCH  18  20
HETATM   20  O7  UNL     1      -9.624  10.337 -17.081  1.00  0.00    -0.325 OA
HETATM   21  C14 UNL     1     -10.554   9.274 -17.097  1.00  0.00     0.213 C 
ENDBRANCH  18  20
ENDBRANCH  12  18
ENDBRANCH   9  12
ENDBRANCH   1   8
BRANCH   5  22
HETATM   22  C8  UNL     1      -9.055  19.767 -15.469  1.00  0.00     0.108 A 
HETATM   23  C9  UNL     1     -10.049  20.691 -15.233  1.00  0.00     0.043 A 
HETATM   24  C10 UNL     1     -11.456  20.258 -15.034  1.00  0.00     0.070 C 
HETATM   25  N3  UNL     1      -9.731  22.019 -15.183  1.00  0.00    -0.195 N 
HETATM   26  C11 UNL     1      -8.449  22.420 -15.366  1.00  0.00     0.679 A 
ATOM     27  H3  UNL     1     -10.460  22.711 -15.007  1.00  0.00     0.184 HD
HETATM   28  N5  UNL     1      -7.457  21.536 -15.600  1.00  0.00    -0.155 N 
HETATM   29  C12 UNL     1      -7.780  20.245 -15.645  1.00  0.00     0.276 A 
ATOM     30  H5  UNL     1      -6.495  21.846 -15.737  1.00  0.00     0.187 HD
HETATM   31  O5  UNL     1      -6.846  19.402 -15.868  1.00  0.00    -0.267 OA
BRANCH  26  32
HETATM   32  N4  UNL     1      -8.174  23.654 -15.315  1.00  0.00    -0.234 N 
ATOM     33  H42 UNL     1      -8.578  24.222 -14.570  1.00  0.00     0.174 HD
ATOM     34  H41 UNL     1      -7.556  24.056 -16.020  1.00  0.00     0.174 HD
ENDBRANCH  26  32
ENDBRANCH   5  22
TORSDOF 9
ENDMDL
MODEL 4
REMARK VINA RESULT: -7.071075521      2.183      4.403
REMARK  9 active torsions:
REMARK  status: ('A' for Active; 'I' for Inactive)
REMARK    1  A    between atoms: O1_2  and  C2_3 
REMARK    2  A    between atoms: C2_3  and  C3_5 
REMARK    3  A    between atoms: C3_5  and  C4_6 
REMARK    4  A    between atoms: C4_6  and  N1_7 
REMARK    5  A    between atoms: C4_6  and  C13_31 
REMARK       I    between atoms: N1_7  and  C5_9 
REMARK    6  A    between atoms: C5_9  and  C6_11 
REMARK    7  A    between atoms: C7_15  and  C8_16 
REMARK    8  A    between atoms: C11_21  and  N4_22 
REMARK    9  A    between atoms: C13_31  and  O7_33 
ROOT
HETATM    1  C6  UNL     1      -9.294  12.977 -17.422  1.00  0.00     0.197 A 
HETATM    2  N2  UNL     1      -8.338  12.032 -17.494  1.00  0.00    -0.238 N 
ATOM      3  H2  UNL     1      -7.351  12.197 -17.692  1.00  0.00     0.197 HD
HETATM    4  O4  UNL     1      -8.886  10.874 -17.268  1.00  0.00    -0.217 OA
HETATM    5  C7  UNL     1     -10.170  10.986 -17.046  1.00  0.00     0.190 A 
HETATM    6  N6  UNL     1     -10.422  12.305 -17.144  1.00  0.00    -0.314 N 
ATOM      7  H6  UNL     1     -11.340  12.733 -17.024  1.00  0.00     0.169 HD
ENDROOT
BRANCH   1   8
HETATM    8  C5  UNL     1      -9.151  14.418 -17.604  1.00  0.00     0.288 C 
HETATM    9  N1  UNL     1      -9.510  15.335 -16.607  1.00  0.00    -0.340 N 
ATOM     10  H1  UNL     1      -9.883  15.002 -15.718  1.00  0.00     0.163 HD
HETATM   11  O3  UNL     1      -8.688  14.835 -18.705  1.00  0.00    -0.264 OA
BRANCH   9  12
HETATM   12  C4  UNL     1      -9.350  16.752 -16.836  1.00  0.00     0.194 C 
BRANCH  12  13
HETATM   13  C3  UNL     1     -10.587  17.499 -16.380  1.00  0.00     0.146 C 
BRANCH  13  14
HETATM   14  C2  UNL     1     -10.993  18.592 -17.267  1.00  0.00     0.260 C 
HETATM   15  O2  UNL     1     -10.723  18.555 -18.489  1.00  0.00    -0.265 OA
BRANCH  14  16
HETATM   16  O1  UNL     1     -11.681  19.692 -16.791  1.00  0.00    -0.326 OA
HETATM   17  C1  UNL     1     -11.361  20.222 -15.512  1.00  0.00     0.213 C 
ENDBRANCH  14  16
ENDBRANCH  13  14
ENDBRANCH  12  13
BRANCH  12  18
HETATM   18  C13 UNL     1      -8.122  17.270 -16.157  1.00  0.00     0.281 C 
HETATM   19  O6  UNL     1      -6.965  17.116 -16.616  1.00  0.00    -0.263 OA
BRANCH  18  20
HETATM   20  O7  UNL     1      -8.254  17.962 -14.947  1.00  0.00    -0.325 OA
HETATM   21  C14 UNL     1      -7.843  19.311 -14.883  1.00  0.00     0.213 C 
ENDBRANCH  18  20
ENDBRANCH  12  18
ENDBRANCH   9  12
ENDBRANCH   1   8
BRANCH   5  22
HETATM   22  C8  UNL     1     -11.139   9.943 -16.757  1.00  0.00     0.108 A 
HETATM   23  C9  UNL     1     -11.006   8.696 -17.330  1.00  0.00     0.043 A 
HETATM   24  C10 UNL     1      -9.881   8.403 -18.254  1.00  0.00     0.070 C 
HETATM   25  N3  UNL     1     -11.923   7.725 -17.041  1.00  0.00    -0.195 N 
HETATM   26  C11 UNL     1     -12.953   7.990 -16.200  1.00  0.00     0.679 A 
ATOM     27  H3  UNL     1     -11.833   6.800 -17.460  1.00  0.00     0.184 HD
HETATM   28  N5  UNL     1     -13.107   9.201 -15.627  1.00  0.00    -0.155 N 
HETATM   29  C12 UNL     1     -12.206  10.138 -15.915  1.00  0.00     0.276 A 
ATOM     30  H5  UNL     1     -13.885   9.391 -14.996  1.00  0.00     0.187 HD
HETATM   31  O5  UNL     1     -12.346  11.289 -15.377  1.00  0.00    -0.267 OA
BRANCH  26  32
HETATM   32  N4  UNL     1     -13.792   7.076 -15.945  1.00  0.00    -0.234 N 
ATOM     33  H42 UNL     1     -14.772   7.325 -15.813  1.00  0.00     0.174 HD
ATOM     34  H41 UNL     1     -13.470   6.111 -15.875  1.00  0.00     0.174 HD
ENDBRANCH  26  32
ENDBRANCH   5  22
TORSDOF 9
ENDMDL
MODEL 5
REMARK VINA RESULT: -7.041810812      1.622      3.260
REMARK  9 active torsions:
REMARK  status: ('A' for Active; 'I' for Inactive)
REMARK    1  A    between atoms: O1_2  and  C2_3 
REMARK    2  A    between atoms: C2_3  and  C3_5 
REMARK    3  A    between atoms: C3_5  and  C4_6 
REMARK    4  A    between atoms: C4_6  and  N1_7 
REMARK    5  A    between atoms: C4_6  and  C13_31 
REMARK       I    between atoms: N1_7  and  C5_9 
REMARK    6  A    between atoms: C5_9  and  C6_11 
REMARK    7  A    between atoms: C7_15  and  C8_16 
REMARK    8  A    between atoms: C11_21  and  N4_22 
REMARK    9  A    between atoms: C13_31  and  O7_33 
ROOT
HETATM    1  C6  UNL     1      -8.576  15.955 -16.875  1.00  0.00     0.197 A 
HETATM    2  N2  UNL     1      -9.396  16.043 -17.939  1.00  0.00    -0.238 N 
ATOM      3  H2  UNL     1      -9.648  16.902 -18.427  1.00  0.00     0.197 HD
HETATM    4  O4  UNL     1      -9.812  14.847 -18.238  1.00  0.00    -0.217 OA
HETATM    5  C7  UNL     1      -9.313  13.949 -17.428  1.00  0.00     0.190 A 
HETATM    6  N6  UNL     1      -8.540  14.647 -16.575  1.00  0.00    -0.314 N 
ATOM      7  H6  UNL     1      -8.002  14.240 -15.809  1.00  0.00     0.169 HD
ENDROOT
BRANCH   1   8
HETATM    8  C5  UNL     1      -7.873  17.033 -16.189  1.00  0.00     0.288 C 
HETATM    9  N1  UNL     1      -8.472  17.785 -15.169  1.00  0.00    -0.340 N 
ATOM     10  H1  UNL     1      -9.430  17.583 -14.883  1.00  0.00     0.163 HD
HETATM   11  O3  UNL     1      -6.683  17.286 -16.540  1.00  0.00    -0.264 OA
BRANCH   9  12
HETATM   12  C4  UNL     1      -7.733  18.843 -14.521  1.00  0.00     0.194 C 
BRANCH  12  13
HETATM   13  C3  UNL     1      -8.005  20.167 -15.207  1.00  0.00     0.146 C 
BRANCH  13  14
HETATM   14  C2  UNL     1      -9.401  20.604 -15.141  1.00  0.00     0.260 C 
HETATM   15  O2  UNL     1      -9.689  21.766 -14.772  1.00  0.00    -0.265 OA
BRANCH  14  16
HETATM   16  O1  UNL     1     -10.440  19.759 -15.481  1.00  0.00    -0.326 OA
HETATM   17  C1  UNL     1     -11.715  19.934 -14.879  1.00  0.00     0.213 C 
ENDBRANCH  14  16
ENDBRANCH  13  14
ENDBRANCH  12  13
BRANCH  12  18
HETATM   18  C13 UNL     1      -8.061  18.911 -13.063  1.00  0.00     0.281 C 
HETATM   19  O6  UNL     1      -7.499  19.700 -12.267  1.00  0.00    -0.263 OA
BRANCH  18  20
HETATM   20  O7  UNL     1      -9.042  18.055 -12.546  1.00  0.00    -0.325 OA
HETATM   21  C14 UNL     1     -10.122  18.610 -11.825  1.00  0.00     0.213 C 
ENDBRANCH  18  20
ENDBRANCH  12  18
ENDBRANCH   9  12
ENDBRANCH   1   8
BRANCH   5  22
HETATM   22  C8  UNL     1      -9.525  12.512 -17.420  1.00  0.00     0.108 A 
HETATM   23  C9  UNL     1     -10.704  11.988 -16.935  1.00  0.00     0.043 A 
HETATM   24  C10 UNL     1     -11.769  12.880 -16.407  1.00  0.00     0.070 C 
HETATM   25  N3  UNL     1     -10.889  10.634 -16.940  1.00  0.00    -0.195 N 
HETATM   26  C11 UNL     1      -9.919   9.817 -17.419  1.00  0.00     0.679 A 
ATOM     27  H3  UNL     1     -11.759  10.238 -16.584  1.00  0.00     0.184 HD
HETATM   28  N5  UNL     1      -8.756  10.302 -17.899  1.00  0.00    -0.155 N 
HETATM   29  C12 UNL     1      -8.588  11.623 -17.888  1.00  0.00     0.276 A 
ATOM     30  H5  UNL     1      -8.031   9.680 -18.256  1.00  0.00     0.187 HD
HETATM   31  O5  UNL     1      -7.488  12.091 -18.340  1.00  0.00    -0.267 OA
BRANCH  26  32
HETATM   32  N4  UNL     1     -10.110   8.565 -17.416  1.00  0.00    -0.234 N 
ATOM     33  H42 UNL     1     -10.650   8.147 -16.658  1.00  0.00     0.174 HD
ATOM     34  H41 UNL     1      -9.720   8.001 -18.172  1.00  0.00     0.174 HD
ENDBRANCH  26  32
ENDBRANCH   5  22
TORSDOF 9
ENDMDL
