MODEL 1
REMARK VINA RESULT: -8.906982351      0.000      0.000
REMARK  13 active torsions:
REMARK  status: ('A' for Active; 'I' for Inactive)
REMARK    1  A    between atoms: C3_3  and  C4_4 
REMARK    2  A    between atoms: C5_5  and  C6_6 
REMARK    3  A    between atoms: C6_6  and  C7_7 
REMARK    4  A    between atoms: C7_7  and  O2_9 
REMARK    5  A    between atoms: O2_9  and  C8_10 
REMARK    6  A    between atoms: C8_10  and  O3_11 
REMARK    7  A    between atoms: C12_16  and  O4_18 
REMARK    8  A    between atoms: C17_23  and  C18_24 
REMARK    9  A    between atoms: C19_27  and  C20_28 
REMARK   10  A    between atoms: C20_28  and  O7_29 
REMARK   11  A    between atoms: O7_29  and  C21_30 
REMARK   12  A    between atoms: C21_30  and  C22_32 
REMARK   13  A    between atoms: C26_37  and  O9_38 
ROOT
HETATM    1  C8  UNL     1      38.805 -19.848  28.219  1.00  0.00     0.223 C 
HETATM    2  C9  UNL     1      37.902 -19.464  27.119  1.00  0.00    -0.008 C 
HETATM    3  C10 UNL     1      38.247 -18.605  26.222  1.00  0.00    -0.042 C 
HETATM    4  C11 UNL     1      37.332 -18.199  25.143  1.00  0.00     0.047 C 
HETATM    5  C12 UNL     1      39.754 -18.259  26.144  1.00  0.00     0.083 C 
HETATM    6  C13 UNL     1      39.989 -17.977  24.641  1.00  0.00     0.051 C 
HETATM    7  C15 UNL     1      40.486 -19.566  26.403  1.00  0.00     0.080 C 
HETATM    8  C16 UNL     1      39.817 -20.596  27.236  1.00  0.00     0.192 C 
HETATM    9  O5  UNL     1      39.059 -21.559  26.691  1.00  0.00    -0.372 OA
HETATM   10  C17 UNL     1      37.853 -21.508  26.157  1.00  0.00     0.149 C 
HETATM   11  C30 UNL     1      36.845 -20.489  26.882  1.00  0.00     0.074 C 
ENDROOT
BRANCH  10  12
HETATM   12  C18 UNL     1      37.111 -22.795  26.147  1.00  0.00     0.156 C 
HETATM   13  N1  UNL     1      37.827 -23.977  26.463  1.00  0.00    -0.091 NA
HETATM   14  O6  UNL     1      37.366 -24.987  25.758  1.00  0.00    -0.277 OA
HETATM   15  C19 UNL     1      36.406 -24.620  24.862  1.00  0.00     0.192 C 
HETATM   16  C29 UNL     1      36.521 -23.113  24.783  1.00  0.00     0.139 C 
HETATM   17 CL1  UNL     1      37.604 -22.690  23.456  1.00  0.00    -0.120 Cl
BRANCH  15  18
HETATM   18  C20 UNL     1      35.045 -25.053  25.307  1.00  0.00     0.214 C 
BRANCH  18  19
HETATM   19  O7  UNL     1      34.311 -25.859  24.469  1.00  0.00    -0.315 OA
BRANCH  19  20
HETATM   20  C21 UNL     1      34.668 -26.662  23.434  1.00  0.00     0.293 C 
HETATM   21  O8  UNL     1      35.099 -26.175  22.372  1.00  0.00    -0.259 OA
BRANCH  20  22
HETATM   22  C22 UNL     1      34.539 -28.124  23.585  1.00  0.00     0.042 A 
HETATM   23  C23 UNL     1      34.444 -28.920  22.445  1.00  0.00     0.019 A 
HETATM   24  C24 UNL     1      34.319 -30.292  22.576  1.00  0.00     0.023 A 
HETATM   25  C25 UNL     1      34.285 -30.911  23.819  1.00  0.00     0.044 A 
HETATM   26 BR1  UNL     1      34.111 -32.800  23.924  1.00  0.00    -0.048 Br
HETATM   27  C26 UNL     1      34.380 -30.118  24.942  1.00  0.00     0.086 A 
HETATM   28  C28 UNL     1      34.504 -28.752  24.796  1.00  0.00     0.055 A 
BRANCH  27  29
HETATM   29  O9  UNL     1      34.348 -30.719  26.187  1.00  0.00    -0.355 OA
HETATM   30  C27 UNL     1      34.813 -30.002  27.301  1.00  0.00     0.210 C 
ENDBRANCH  27  29
ENDBRANCH  20  22
ENDBRANCH  19  20
ENDBRANCH  18  19
ENDBRANCH  15  18
ENDBRANCH  10  12
BRANCH   1  31
HETATM   31  O2  UNL     1      39.443 -18.878  28.933  1.00  0.00    -0.276 OA
BRANCH  31  32
HETATM   32  C7  UNL     1      39.024 -18.397  30.187  1.00  0.00     0.265 C 
HETATM   33  O1  UNL     1      39.669 -18.806  31.147  1.00  0.00    -0.265 OA
BRANCH  32  34
HETATM   34  C6  UNL     1      37.901 -17.485  30.271  1.00  0.00     0.138 C 
BRANCH  34  35
HETATM   35  C5  UNL     1      37.906 -16.305  29.411  1.00  0.00    -0.017 C 
HETATM   36  C4  UNL     1      37.103 -15.939  28.462  1.00  0.00    -0.004 C 
BRANCH  36  37
HETATM   37  C3  UNL     1      37.388 -14.661  27.768  1.00  0.00    -0.005 C 
HETATM   38  C2  UNL     1      36.622 -13.629  28.004  1.00  0.00    -0.031 C 
HETATM   39  C1  UNL     1      35.481 -13.676  28.935  1.00  0.00     0.036 C 
ENDBRANCH  36  37
ENDBRANCH  34  35
ENDBRANCH  32  34
ENDBRANCH  31  32
ENDBRANCH   1  31
BRANCH   1  40
HETATM   40  O3  UNL     1      38.384 -20.861  29.037  1.00  0.00    -0.359 OA
ATOM     41  H3  UNL     1      38.223 -21.655  28.540  1.00  0.00     0.213 HD
ENDBRANCH   1  40
BRANCH   5  42
HETATM   42  O4  UNL     1      40.110 -17.166  26.802  1.00  0.00    -0.381 OA
HETATM   43  C14 UNL     1      40.361 -16.011  26.127  1.00  0.00     0.203 C 
ENDBRANCH   5  42
TORSDOF 13
ENDMDL
MODEL 2
REMARK VINA RESULT: -8.724933576      2.526      3.453
REMARK  13 active torsions:
REMARK  status: ('A' for Active; 'I' for Inactive)
REMARK    1  A    between atoms: C3_3  and  C4_4 
REMARK    2  A    between atoms: C5_5  and  C6_6 
REMARK    3  A    between atoms: C6_6  and  C7_7 
REMARK    4  A    between atoms: C7_7  and  O2_9 
REMARK    5  A    between atoms: O2_9  and  C8_10 
REMARK    6  A    between atoms: C8_10  and  O3_11 
REMARK    7  A    between atoms: C12_16  and  O4_18 
REMARK    8  A    between atoms: C17_23  and  C18_24 
REMARK    9  A    between atoms: C19_27  and  C20_28 
REMARK   10  A    between atoms: C20_28  and  O7_29 
REMARK   11  A    between atoms: O7_29  and  C21_30 
REMARK   12  A    between atoms: C21_30  and  C22_32 
REMARK   13  A    between atoms: C26_37  and  O9_38 
ROOT
HETATM    1  C8  UNL     1      38.940 -19.783  28.111  1.00  0.00     0.223 C 
HETATM    2  C9  UNL     1      38.006 -19.250  27.102  1.00  0.00    -0.008 C 
HETATM    3  C10 UNL     1      38.290 -18.212  26.392  1.00  0.00    -0.042 C 
HETATM    4  C11 UNL     1      37.343 -17.663  25.409  1.00  0.00     0.047 C 
HETATM    5  C12 UNL     1      39.771 -17.763  26.392  1.00  0.00     0.083 C 
HETATM    6  C13 UNL     1      39.977 -17.178  24.974  1.00  0.00     0.051 C 
HETATM    7  C15 UNL     1      40.586 -19.046  26.394  1.00  0.00     0.080 C 
HETATM    8  C16 UNL     1      39.990 -20.259  27.006  1.00  0.00     0.192 C 
HETATM    9  O5  UNL     1      39.290 -21.143  26.279  1.00  0.00    -0.372 OA
HETATM   10  C17 UNL     1      38.079 -21.066  25.760  1.00  0.00     0.149 C 
HETATM   11  C30 UNL     1      37.014 -20.274  26.664  1.00  0.00     0.074 C 
ENDROOT
BRANCH  10  12
HETATM   12  C18 UNL     1      37.421 -22.371  25.494  1.00  0.00     0.156 C 
HETATM   13  N1  UNL     1      38.008 -23.227  24.529  1.00  0.00    -0.091 NA
HETATM   14  O6  UNL     1      37.073 -23.888  23.882  1.00  0.00    -0.277 OA
HETATM   15  C19 UNL     1      35.811 -23.513  24.237  1.00  0.00     0.192 C 
HETATM   16  C29 UNL     1      35.999 -22.209  24.981  1.00  0.00     0.139 C 
HETATM   17 CL1  UNL     1      35.835 -20.871  23.842  1.00  0.00    -0.120 Cl
BRANCH  15  18
HETATM   18  C20 UNL     1      35.150 -24.550  25.089  1.00  0.00     0.214 C 
BRANCH  18  19
HETATM   19  O7  UNL     1      35.376 -25.875  24.796  1.00  0.00    -0.315 OA
BRANCH  19  20
HETATM   20  C21 UNL     1      36.101 -26.836  25.423  1.00  0.00     0.293 C 
HETATM   21  O8  UNL     1      35.538 -27.810  25.956  1.00  0.00    -0.259 OA
BRANCH  20  22
HETATM   22  C22 UNL     1      37.571 -26.710  25.464  1.00  0.00     0.042 A 
HETATM   23  C23 UNL     1      38.319 -27.108  24.357  1.00  0.00     0.019 A 
HETATM   24  C24 UNL     1      39.698 -26.997  24.386  1.00  0.00     0.023 A 
HETATM   25  C25 UNL     1      40.371 -26.497  25.494  1.00  0.00     0.044 A 
HETATM   26 BR1  UNL     1      42.267 -26.373  25.465  1.00  0.00    -0.048 Br
HETATM   27  C26 UNL     1      39.626 -26.104  26.584  1.00  0.00     0.086 A 
HETATM   28  C28 UNL     1      38.252 -26.221  26.541  1.00  0.00     0.055 A 
BRANCH  27  29
HETATM   29  O9  UNL     1      40.281 -25.604  27.695  1.00  0.00    -0.355 OA
HETATM   30  C27 UNL     1      40.114 -24.250  28.030  1.00  0.00     0.210 C 
ENDBRANCH  27  29
ENDBRANCH  20  22
ENDBRANCH  19  20
ENDBRANCH  18  19
ENDBRANCH  15  18
ENDBRANCH  10  12
BRANCH   1  31
HETATM   31  O2  UNL     1      39.520 -18.933  29.004  1.00  0.00    -0.276 OA
BRANCH  31  32
HETATM   32  C7  UNL     1      38.946 -18.538  30.226  1.00  0.00     0.265 C 
HETATM   33  O1  UNL     1      39.654 -18.701  31.214  1.00  0.00    -0.265 OA
BRANCH  32  34
HETATM   34  C6  UNL     1      37.608 -17.984  30.249  1.00  0.00     0.138 C 
BRANCH  34  35
HETATM   35  C5  UNL     1      37.418 -16.620  29.763  1.00  0.00    -0.017 C 
HETATM   36  C4  UNL     1      36.431 -16.069  29.129  1.00  0.00    -0.004 C 
BRANCH  36  37
HETATM   37  C3  UNL     1      36.549 -14.636  28.772  1.00  0.00    -0.005 C 
HETATM   38  C2  UNL     1      35.608 -13.812  29.149  1.00  0.00    -0.031 C 
HETATM   39  C1  UNL     1      34.427 -14.242  29.917  1.00  0.00     0.036 C 
ENDBRANCH  36  37
ENDBRANCH  34  35
ENDBRANCH  32  34
ENDBRANCH  31  32
ENDBRANCH   1  31
BRANCH   1  40
HETATM   40  O3  UNL     1      38.590 -20.961  28.713  1.00  0.00    -0.359 OA
ATOM     41  H3  UNL     1      39.012 -21.699  28.288  1.00  0.00     0.213 HD
ENDBRANCH   1  40
BRANCH   5  42
HETATM   42  O4  UNL     1      40.062 -16.799  27.252  1.00  0.00    -0.381 OA
HETATM   43  C14 UNL     1      39.630 -15.528  27.028  1.00  0.00     0.203 C 
ENDBRANCH   5  42
TORSDOF 13
ENDMDL
MODEL 3
REMARK VINA RESULT: -8.608370257      3.041      4.259
REMARK  13 active torsions:
REMARK  status: ('A' for Active; 'I' for Inactive)
REMARK    1  A    between atoms: C3_3  and  C4_4 
REMARK    2  A    between atoms: C5_5  and  C6_6 
REMARK    3  A    between atoms: C6_6  and  C7_7 
REMARK    4  A    between atoms: C7_7  and  O2_9 
REMARK    5  A    between atoms: O2_9  and  C8_10 
REMARK    6  A    between atoms: C8_10  and  O3_11 
REMARK    7  A    between atoms: C12_16  and  O4_18 
REMARK    8  A    between atoms: C17_23  and  C18_24 
REMARK    9  A    between atoms: C19_27  and  C20_28 
REMARK   10  A    between atoms: C20_28  and  O7_29 
REMARK   11  A    between atoms: O7_29  and  C21_30 
REMARK   12  A    between atoms: C21_30  and  C22_32 
REMARK   13  A    between atoms: C26_37  and  O9_38 
ROOT
HETATM    1  C8  UNL     1      39.164 -19.985  28.417  1.00  0.00     0.223 C 
HETATM    2  C9  UNL     1      38.234 -19.905  27.276  1.00  0.00    -0.008 C 
HETATM    3  C10 UNL     1      38.423 -19.085  26.299  1.00  0.00    -0.042 C 
HETATM    4  C11 UNL     1      37.477 -18.985  25.177  1.00  0.00     0.047 C 
HETATM    5  C12 UNL     1      39.828 -18.444  26.200  1.00  0.00     0.083 C 
HETATM    6  C13 UNL     1      40.046 -18.268  24.679  1.00  0.00     0.051 C 
HETATM    7  C15 UNL     1      40.805 -19.540  26.597  1.00  0.00     0.080 C 
HETATM    8  C16 UNL     1      40.336 -20.600  27.524  1.00  0.00     0.192 C 
HETATM    9  O5  UNL     1      39.808 -21.747  27.073  1.00  0.00    -0.372 OA
HETATM   10  C17 UNL     1      38.633 -22.000  26.527  1.00  0.00     0.149 C 
HETATM   11  C30 UNL     1      37.417 -21.145  27.135  1.00  0.00     0.074 C 
ENDROOT
BRANCH  10  12
HETATM   12  C18 UNL     1      38.172 -23.406  26.641  1.00  0.00     0.156 C 
HETATM   13  N1  UNL     1      38.782 -24.229  27.621  1.00  0.00    -0.091 NA
HETATM   14  O6  UNL     1      38.871 -25.466  27.183  1.00  0.00    -0.277 OA
HETATM   15  C19 UNL     1      38.448 -25.608  25.895  1.00  0.00     0.192 C 
HETATM   16  C29 UNL     1      38.389 -24.194  25.359  1.00  0.00     0.139 C 
HETATM   17 CL1  UNL     1      39.924 -23.813  24.577  1.00  0.00    -0.120 Cl
BRANCH  15  18
HETATM   18  C20 UNL     1      37.116 -26.287  25.826  1.00  0.00     0.214 C 
BRANCH  18  19
HETATM   19  O7  UNL     1      36.346 -26.097  24.702  1.00  0.00    -0.315 OA
BRANCH  19  20
HETATM   20  C21 UNL     1      35.298 -25.273  24.444  1.00  0.00     0.293 C 
HETATM   21  O8  UNL     1      34.144 -25.589  24.787  1.00  0.00    -0.259 OA
BRANCH  20  22
HETATM   22  C22 UNL     1      35.547 -23.994  23.751  1.00  0.00     0.042 A 
HETATM   23  C23 UNL     1      35.234 -22.799  24.396  1.00  0.00     0.019 A 
HETATM   24  C24 UNL     1      35.461 -21.594  23.753  1.00  0.00     0.023 A 
HETATM   25  C25 UNL     1      35.995 -21.534  22.473  1.00  0.00     0.044 A 
HETATM   26 BR1  UNL     1      36.279 -19.845  21.651  1.00  0.00    -0.048 Br
HETATM   27  C26 UNL     1      36.304 -22.719  21.842  1.00  0.00     0.086 A 
HETATM   28  C28 UNL     1      36.072 -23.912  22.494  1.00  0.00     0.055 A 
BRANCH  27  29
HETATM   29  O9  UNL     1      36.837 -22.676  20.566  1.00  0.00    -0.355 OA
HETATM   30  C27 UNL     1      37.472 -23.821  20.056  1.00  0.00     0.210 C 
ENDBRANCH  27  29
ENDBRANCH  20  22
ENDBRANCH  19  20
ENDBRANCH  18  19
ENDBRANCH  15  18
ENDBRANCH  10  12
BRANCH   1  31
HETATM   31  O2  UNL     1      39.569 -18.839  29.035  1.00  0.00    -0.276 OA
BRANCH  31  32
HETATM   32  C7  UNL     1      39.059 -18.363  30.257  1.00  0.00     0.265 C 
HETATM   33  O1  UNL     1      39.675 -18.719  31.255  1.00  0.00    -0.265 OA
BRANCH  32  34
HETATM   34  C6  UNL     1      37.886 -17.514  30.266  1.00  0.00     0.138 C 
BRANCH  34  35
HETATM   35  C5  UNL     1      37.886 -16.327  29.415  1.00  0.00    -0.017 C 
HETATM   36  C4  UNL     1      37.107 -15.976  28.440  1.00  0.00    -0.004 C 
BRANCH  36  37
HETATM   37  C3  UNL     1      37.379 -14.684  27.766  1.00  0.00    -0.005 C 
HETATM   38  C2  UNL     1      36.611 -13.661  28.029  1.00  0.00    -0.031 C 
HETATM   39  C1  UNL     1      35.481 -13.730  28.970  1.00  0.00     0.036 C 
ENDBRANCH  36  37
ENDBRANCH  34  35
ENDBRANCH  32  34
ENDBRANCH  31  32
ENDBRANCH   1  31
BRANCH   1  40
HETATM   40  O3  UNL     1      38.936 -20.978  29.330  1.00  0.00    -0.359 OA
ATOM     41  H3  UNL     1      38.432 -21.686  28.944  1.00  0.00     0.213 HD
ENDBRANCH   1  40
BRANCH   5  42
HETATM   42  O4  UNL     1      39.933 -17.242  26.747  1.00  0.00    -0.381 OA
HETATM   43  C14 UNL     1      40.306 -16.176  25.988  1.00  0.00     0.203 C 
ENDBRANCH   5  42
TORSDOF 13
ENDMDL
MODEL 4
REMARK VINA RESULT: -8.556225801      1.346      1.743
REMARK  13 active torsions:
REMARK  status: ('A' for Active; 'I' for Inactive)
REMARK    1  A    between atoms: C3_3  and  C4_4 
REMARK    2  A    between atoms: C5_5  and  C6_6 
REMARK    3  A    between atoms: C6_6  and  C7_7 
REMARK    4  A    between atoms: C7_7  and  O2_9 
REMARK    5  A    between atoms: O2_9  and  C8_10 
REMARK    6  A    between atoms: C8_10  and  O3_11 
REMARK    7  A    between atoms: C12_16  and  O4_18 
REMARK    8  A    between atoms: C17_23  and  C18_24 
REMARK    9  A    between atoms: C19_27  and  C20_28 
REMARK   10  A    between atoms: C20_28  and  O7_29 
REMARK   11  A    between atoms: O7_29  and  C21_30 
REMARK   12  A    between atoms: C21_30  and  C22_32 
REMARK   13  A    between atoms: C26_37  and  O9_38 
ROOT
HETATM    1  C8  UNL     1      38.682 -19.701  28.102  1.00  0.00     0.223 C 
HETATM    2  C9  UNL     1      37.839 -19.326  26.952  1.00  0.00    -0.008 C 
HETATM    3  C10 UNL     1      38.243 -18.496  26.053  1.00  0.00    -0.042 C 
HETATM    4  C11 UNL     1      37.388 -18.099  24.924  1.00  0.00     0.047 C 
HETATM    5  C12 UNL     1      39.758 -18.181  26.038  1.00  0.00     0.083 C 
HETATM    6  C13 UNL     1      40.069 -17.939  24.542  1.00  0.00     0.051 C 
HETATM    7  C15 UNL     1      40.451 -19.495  26.362  1.00  0.00     0.080 C 
HETATM    8  C16 UNL     1      39.723 -20.492  27.185  1.00  0.00     0.192 C 
HETATM    9  O5  UNL     1      38.971 -21.453  26.627  1.00  0.00    -0.372 OA
HETATM   10  C17 UNL     1      37.793 -21.392  26.036  1.00  0.00     0.149 C 
HETATM   11  C30 UNL     1      36.773 -20.336  26.689  1.00  0.00     0.074 C 
ENDROOT
BRANCH  10  12
HETATM   12  C18 UNL     1      37.026 -22.664  26.021  1.00  0.00     0.156 C 
HETATM   13  N1  UNL     1      37.663 -23.829  26.517  1.00  0.00    -0.091 NA
HETATM   14  O6  UNL     1      37.275 -24.883  25.833  1.00  0.00    -0.277 OA
HETATM   15  C19 UNL     1      36.453 -24.571  24.790  1.00  0.00     0.192 C 
HETATM   16  C29 UNL     1      36.616 -23.077  24.616  1.00  0.00     0.139 C 
HETATM   17 CL1  UNL     1      37.878 -22.773  23.421  1.00  0.00    -0.120 Cl
BRANCH  15  18
HETATM   18  C20 UNL     1      35.034 -24.947  25.077  1.00  0.00     0.214 C 
BRANCH  18  19
HETATM   19  O7  UNL     1      34.598 -26.192  24.687  1.00  0.00    -0.315 OA
BRANCH  19  20
HETATM   20  C21 UNL     1      35.163 -27.423  24.774  1.00  0.00     0.293 C 
HETATM   21  O8  UNL     1      35.520 -27.882  25.875  1.00  0.00    -0.259 OA
BRANCH  20  22
HETATM   22  C22 UNL     1      35.350 -28.213  23.541  1.00  0.00     0.042 A 
HETATM   23  C23 UNL     1      36.334 -27.831  22.631  1.00  0.00     0.019 A 
HETATM   24  C24 UNL     1      36.515 -28.564  21.471  1.00  0.00     0.023 A 
HETATM   25  C25 UNL     1      35.740 -29.679  21.178  1.00  0.00     0.044 A 
HETATM   26 BR1  UNL     1      36.043 -30.637  19.565  1.00  0.00    -0.048 Br
HETATM   27  C26 UNL     1      34.770 -30.052  22.083  1.00  0.00     0.086 A 
HETATM   28  C28 UNL     1      34.601 -29.313  23.235  1.00  0.00     0.055 A 
BRANCH  27  29
HETATM   29  O9  UNL     1      33.991 -31.160  21.806  1.00  0.00    -0.355 OA
HETATM   30  C27 UNL     1      33.358 -31.828  22.867  1.00  0.00     0.210 C 
ENDBRANCH  27  29
ENDBRANCH  20  22
ENDBRANCH  19  20
ENDBRANCH  18  19
ENDBRANCH  15  18
ENDBRANCH  10  12
BRANCH   1  31
HETATM   31  O2  UNL     1      39.305 -18.728  28.823  1.00  0.00    -0.276 OA
BRANCH  31  32
HETATM   32  C7  UNL     1      38.916 -18.307  30.108  1.00  0.00     0.265 C 
HETATM   33  O1  UNL     1      39.597 -18.744  31.030  1.00  0.00    -0.265 OA
BRANCH  32  34
HETATM   34  C6  UNL     1      37.783 -17.418  30.264  1.00  0.00     0.138 C 
BRANCH  34  35
HETATM   35  C5  UNL     1      37.763 -16.183  29.484  1.00  0.00    -0.017 C 
HETATM   36  C4  UNL     1      37.150 -15.880  28.383  1.00  0.00    -0.004 C 
BRANCH  36  37
HETATM   37  C3  UNL     1      37.339 -14.515  27.837  1.00  0.00    -0.005 C 
HETATM   38  C2  UNL     1      36.499 -13.576  28.182  1.00  0.00    -0.031 C 
HETATM   39  C1  UNL     1      35.366 -13.810  29.093  1.00  0.00     0.036 C 
ENDBRANCH  36  37
ENDBRANCH  34  35
ENDBRANCH  32  34
ENDBRANCH  31  32
ENDBRANCH   1  31
BRANCH   1  40
HETATM   40  O3  UNL     1      38.202 -20.686  28.922  1.00  0.00    -0.359 OA
ATOM     41  H3  UNL     1      38.910 -21.112  29.393  1.00  0.00     0.213 HD
ENDBRANCH   1  40
BRANCH   5  42
HETATM   42  O4  UNL     1      40.105 -17.079  26.687  1.00  0.00    -0.381 OA
HETATM   43  C14 UNL     1      40.270 -15.910  26.011  1.00  0.00     0.203 C 
ENDBRANCH   5  42
TORSDOF 13
ENDMDL
MODEL 5
REMARK VINA RESULT: -8.419341299      3.822      5.822
REMARK  13 active torsions:
REMARK  status: ('A' for Active; 'I' for Inactive)
REMARK    1  A    between atoms: C3_3  and  C4_4 
REMARK    2  A    between atoms: C5_5  and  C6_6 
REMARK    3  A    between atoms: C6_6  and  C7_7 
REMARK    4  A    between atoms: C7_7  and  O2_9 
REMARK    5  A    between atoms: O2_9  and  C8_10 
REMARK    6  A    between atoms: C8_10  and  O3_11 
REMARK    7  A    between atoms: C12_16  and  O4_18 
REMARK    8  A    between atoms: C17_23  and  C18_24 
REMARK    9  A    between atoms: C19_27  and  C20_28 
REMARK   10  A    between atoms: C20_28  and  O7_29 
REMARK   11  A    between atoms: O7_29  and  C21_30 
REMARK   12  A    between atoms: C21_30  and  C22_32 
REMARK   13  A    between atoms: C26_37  and  O9_38 
ROOT
HETATM    1  C8  UNL     1      40.047 -21.352  29.184  1.00  0.00     0.223 C 
HETATM    2  C9  UNL     1      40.856 -21.498  27.960  1.00  0.00    -0.008 C 
HETATM    3  C10 UNL     1      42.141 -21.592  27.999  1.00  0.00    -0.042 C 
HETATM    4  C11 UNL     1      42.947 -21.705  26.774  1.00  0.00     0.047 C 
HETATM    5  C12 UNL     1      42.767 -21.894  29.382  1.00  0.00     0.083 C 
HETATM    6  C13 UNL     1      44.016 -22.742  29.042  1.00  0.00     0.051 C 
HETATM    7  C15 UNL     1      41.817 -22.873  30.054  1.00  0.00     0.080 C 
HETATM    8  C16 UNL     1      40.382 -22.834  29.679  1.00  0.00     0.192 C 
HETATM    9  O5  UNL     1      39.889 -23.603  28.698  1.00  0.00    -0.372 OA
HETATM   10  C17 UNL     1      40.017 -23.517  27.387  1.00  0.00     0.149 C 
HETATM   11  C30 UNL     1      40.048 -22.015  26.817  1.00  0.00     0.074 C 
ENDROOT
BRANCH  10  12
HETATM   12  C18 UNL     1      38.941 -24.173  26.602  1.00  0.00     0.156 C 
HETATM   13  N1  UNL     1      38.176 -25.183  27.237  1.00  0.00    -0.091 NA
HETATM   14  O6  UNL     1      37.844 -26.114  26.369  1.00  0.00    -0.277 OA
HETATM   15  C19 UNL     1      38.391 -25.914  25.136  1.00  0.00     0.192 C 
HETATM   16  C29 UNL     1      39.473 -24.881  25.366  1.00  0.00     0.139 C 
HETATM   17 CL1  UNL     1      41.002 -25.711  25.664  1.00  0.00    -0.120 Cl
BRANCH  15  18
HETATM   18  C20 UNL     1      37.368 -25.439  24.152  1.00  0.00     0.214 C 
BRANCH  18  19
HETATM   19  O7  UNL     1      36.123 -25.094  24.623  1.00  0.00    -0.315 OA
BRANCH  19  20
HETATM   20  C21 UNL     1      35.319 -24.028  24.376  1.00  0.00     0.293 C 
HETATM   21  O8  UNL     1      34.172 -24.191  23.919  1.00  0.00    -0.259 OA
BRANCH  20  22
HETATM   22  C22 UNL     1      35.825 -22.670  24.656  1.00  0.00     0.042 A 
HETATM   23  C23 UNL     1      36.026 -22.279  25.979  1.00  0.00     0.019 A 
HETATM   24  C24 UNL     1      36.497 -21.007  26.252  1.00  0.00     0.023 A 
HETATM   25  C25 UNL     1      36.779 -20.095  25.243  1.00  0.00     0.044 A 
HETATM   26 BR1  UNL     1      37.422 -18.365  25.692  1.00  0.00    -0.048 Br
HETATM   27  C26 UNL     1      36.578 -20.489  23.938  1.00  0.00     0.086 A 
HETATM   28  C28 UNL     1      36.108 -21.760  23.680  1.00  0.00     0.055 A 
BRANCH  27  29
HETATM   29  O9  UNL     1      36.854 -19.592  22.921  1.00  0.00    -0.355 OA
HETATM   30  C27 UNL     1      38.026 -19.762  22.165  1.00  0.00     0.210 C 
ENDBRANCH  27  29
ENDBRANCH  20  22
ENDBRANCH  19  20
ENDBRANCH  18  19
ENDBRANCH  15  18
ENDBRANCH  10  12
BRANCH   1  31
HETATM   31  O2  UNL     1      40.407 -20.430  30.121  1.00  0.00    -0.276 OA
BRANCH  31  32
HETATM   32  C7  UNL     1      39.806 -19.167  30.277  1.00  0.00     0.265 C 
HETATM   33  O1  UNL     1      39.738 -18.759  31.431  1.00  0.00    -0.265 OA
BRANCH  32  34
HETATM   34  C6  UNL     1      39.321 -18.451  29.115  1.00  0.00     0.138 C 
BRANCH  34  35
HETATM   35  C5  UNL     1      38.163 -17.576  29.278  1.00  0.00    -0.017 C 
HETATM   36  C4  UNL     1      38.025 -16.301  29.090  1.00  0.00    -0.004 C 
BRANCH  36  37
HETATM   37  C3  UNL     1      36.694 -15.702  29.349  1.00  0.00    -0.005 C 
HETATM   38  C2  UNL     1      36.352 -14.619  28.705  1.00  0.00    -0.031 C 
HETATM   39  C1  UNL     1      37.232 -13.960  27.725  1.00  0.00     0.036 C 
ENDBRANCH  36  37
ENDBRANCH  34  35
ENDBRANCH  32  34
ENDBRANCH  31  32
ENDBRANCH   1  31
BRANCH   1  40
HETATM   40  O3  UNL     1      38.688 -21.391  29.033  1.00  0.00    -0.359 OA
ATOM     41  H3  UNL     1      38.285 -20.600  29.370  1.00  0.00     0.213 HD
ENDBRANCH   1  40
BRANCH   5  42
HETATM   42  O4  UNL     1      43.192 -20.830  30.047  1.00  0.00    -0.381 OA
HETATM   43  C14 UNL     1      44.507 -20.706  30.371  1.00  0.00     0.203 C 
ENDBRANCH   5  42
TORSDOF 13
ENDMDL
