MODEL 1
REMARK VINA RESULT: -6.974767334      0.000      0.000
REMARK  5 active torsions:
REMARK  status: ('A' for Active; 'I' for Inactive)
REMARK    1  A    between atoms: C3_4  and  C4_5 
REMARK    2  A    between atoms: C4_5  and  N1_6 
REMARK    3  A    between atoms: N2_9  and  C7_10 
REMARK    4  A    between atoms: C7_10  and  C8_11 
REMARK    5  A    between atoms: C9_16  and  N5_17 
ROOT
HETATM    1  C8  UNL     1      27.940  67.055  20.032  1.00  0.00     0.098 A 
HETATM    2  N3  UNL     1      27.738  68.086  20.851  1.00  0.00    -0.294 N 
ATOM      3  H3  UNL     1      26.787  68.384  21.071  1.00  0.00     0.187 HD
HETATM    4  N4  UNL     1      28.718  68.691  21.352  1.00  0.00    -0.279 N 
ATOM      5  H4  UNL     1      28.558  69.481  21.979  1.00  0.00     0.189 HD
HETATM    6  C9  UNL     1      29.961  68.311  21.073  1.00  0.00     0.163 A 
HETATM    7  S2  UNL     1      29.659  66.999  20.020  1.00  0.00    -0.036 SA
ENDROOT
BRANCH   1   8
HETATM    8  C7  UNL     1      26.914  66.212  19.335  1.00  0.00     0.338 C 
BRANCH   8   9
HETATM    9  N2  UNL     1      25.816  65.912  20.199  1.00  0.00     0.097 N 
HETATM   10  C6  UNL     1      26.315  64.922  21.152  1.00  0.00     0.292 C 
HETATM   11  C5  UNL     1      26.106  63.561  20.469  1.00  0.00     0.147 C 
HETATM   12  N1  UNL     1      24.730  63.248  20.638  1.00  0.00    -0.405 N 
HETATM   13  C15 UNL     1      23.913  64.321  20.195  1.00  0.00     0.147 C 
HETATM   14  C14 UNL     1      24.617  65.475  19.565  1.00  0.00     0.292 C 
BRANCH  12  15
HETATM   15  C4  UNL     1      24.312  61.935  20.313  1.00  0.00     0.163 C 
BRANCH  15  16
HETATM   16  C3  UNL     1      24.996  60.968  21.237  1.00  0.00    -0.000 A 
HETATM   17  S1  UNL     1      26.457  60.110  21.066  1.00  0.00    -0.105 SA
HETATM   18  C2  UNL     1      26.466  59.269  22.547  1.00  0.00     0.050 A 
HETATM   19  C1  UNL     1      25.305  59.693  23.142  1.00  0.00     0.008 A 
HETATM   20  C16 UNL     1      24.548  60.566  22.469  1.00  0.00     0.017 A 
ENDBRANCH  15  16
ENDBRANCH  12  15
ENDBRANCH   8   9
ENDBRANCH   1   8
BRANCH   6  21
HETATM   21  N5  UNL     1      31.200  68.855  21.531  1.00  0.00    -0.356 N 
HETATM   22  C10 UNL     1      31.196  70.155  22.160  1.00  0.00     0.151 C 
HETATM   23  C11 UNL     1      32.473  70.306  22.947  1.00  0.00     0.187 C 
HETATM   24  O1  UNL     1      32.890  69.136  23.541  1.00  0.00    -0.388 OA
HETATM   25  C12 UNL     1      33.198  68.123  22.677  1.00  0.00     0.187 C 
HETATM   26  C13 UNL     1      32.431  68.155  21.383  1.00  0.00     0.151 C 
ENDBRANCH   6  21
TORSDOF 5
ENDMDL
MODEL 2
REMARK VINA RESULT: -6.882527751      0.888      1.014
REMARK  5 active torsions:
REMARK  status: ('A' for Active; 'I' for Inactive)
REMARK    1  A    between atoms: C3_4  and  C4_5 
REMARK    2  A    between atoms: C4_5  and  N1_6 
REMARK    3  A    between atoms: N2_9  and  C7_10 
REMARK    4  A    between atoms: C7_10  and  C8_11 
REMARK    5  A    between atoms: C9_16  and  N5_17 
ROOT
HETATM    1  C8  UNL     1      27.943  66.968  20.069  1.00  0.00     0.098 A 
HETATM    2  N3  UNL     1      27.734  68.024  20.853  1.00  0.00    -0.294 N 
ATOM      3  H3  UNL     1      26.782  68.323  21.064  1.00  0.00     0.187 HD
HETATM    4  N4  UNL     1      28.710  68.652  21.333  1.00  0.00    -0.279 N 
ATOM      5  H4  UNL     1      28.546  69.461  21.933  1.00  0.00     0.189 HD
HETATM    6  C9  UNL     1      29.955  68.272  21.066  1.00  0.00     0.163 A 
HETATM    7  S2  UNL     1      29.662  66.923  20.058  1.00  0.00    -0.036 SA
ENDROOT
BRANCH   1   8
HETATM    8  C7  UNL     1      26.922  66.095  19.401  1.00  0.00     0.338 C 
BRANCH   8   9
HETATM    9  N2  UNL     1      25.812  65.841  20.265  1.00  0.00     0.097 N 
HETATM   10  C6  UNL     1      26.275  64.844  21.229  1.00  0.00     0.292 C 
HETATM   11  C5  UNL     1      26.022  63.485  20.558  1.00  0.00     0.147 C 
HETATM   12  N1  UNL     1      24.635  63.220  20.726  1.00  0.00    -0.405 N 
HETATM   13  C15 UNL     1      23.856  64.317  20.271  1.00  0.00     0.147 C 
HETATM   14  C14 UNL     1      24.601  65.440  19.633  1.00  0.00     0.292 C 
BRANCH  12  15
HETATM   15  C4  UNL     1      24.174  61.919  20.413  1.00  0.00     0.163 C 
BRANCH  15  16
HETATM   16  C3  UNL     1      24.249  61.069  21.649  1.00  0.00    -0.000 A 
HETATM   17  S1  UNL     1      23.074  60.721  22.832  1.00  0.00    -0.105 SA
HETATM   18  C2  UNL     1      23.990  59.705  23.848  1.00  0.00     0.050 A 
HETATM   19  C1  UNL     1      25.208  59.668  23.220  1.00  0.00     0.008 A 
HETATM   20  C16 UNL     1      25.343  60.369  22.089  1.00  0.00     0.017 A 
ENDBRANCH  15  16
ENDBRANCH  12  15
ENDBRANCH   8   9
ENDBRANCH   1   8
BRANCH   6  21
HETATM   21  N5  UNL     1      31.191  68.839  21.504  1.00  0.00    -0.356 N 
HETATM   22  C10 UNL     1      31.179  70.161  22.084  1.00  0.00     0.151 C 
HETATM   23  C11 UNL     1      32.455  70.348  22.867  1.00  0.00     0.187 C 
HETATM   24  O1  UNL     1      32.878  69.203  23.504  1.00  0.00    -0.388 OA
HETATM   25  C12 UNL     1      33.192  68.161  22.679  1.00  0.00     0.187 C 
HETATM   26  C13 UNL     1      32.426  68.141  21.383  1.00  0.00     0.151 C 
ENDBRANCH   6  21
TORSDOF 5
ENDMDL
MODEL 3
REMARK VINA RESULT: -6.580665069      3.049      8.702
REMARK  5 active torsions:
REMARK  status: ('A' for Active; 'I' for Inactive)
REMARK    1  A    between atoms: C3_4  and  C4_5 
REMARK    2  A    between atoms: C4_5  and  N1_6 
REMARK    3  A    between atoms: N2_9  and  C7_10 
REMARK    4  A    between atoms: C7_10  and  C8_11 
REMARK    5  A    between atoms: C9_16  and  N5_17 
ROOT
HETATM    1  C8  UNL     1      26.443  64.478  19.352  1.00  0.00     0.098 A 
HETATM    2  N3  UNL     1      27.016  63.460  18.712  1.00  0.00    -0.294 N 
ATOM      3  H3  UNL     1      27.505  63.621  17.831  1.00  0.00     0.187 HD
HETATM    4  N4  UNL     1      26.954  62.301  19.193  1.00  0.00    -0.279 N 
ATOM      5  H4  UNL     1      27.394  61.524  18.699  1.00  0.00     0.189 HD
HETATM    6  C9  UNL     1      26.320  62.079  20.339  1.00  0.00     0.163 A 
HETATM    7  S2  UNL     1      25.793  63.660  20.718  1.00  0.00    -0.036 SA
ENDROOT
BRANCH   1   8
HETATM    8  C7  UNL     1      26.401  65.921  18.945  1.00  0.00     0.338 C 
BRANCH   8   9
HETATM    9  N2  UNL     1      27.659  66.347  18.418  1.00  0.00     0.097 N 
HETATM   10  C6  UNL     1      28.594  66.324  19.543  1.00  0.00     0.292 C 
HETATM   11  C5  UNL     1      28.448  67.697  20.219  1.00  0.00     0.147 C 
HETATM   12  N1  UNL     1      29.200  68.603  19.422  1.00  0.00    -0.405 N 
HETATM   13  C15 UNL     1      28.812  68.514  18.059  1.00  0.00     0.147 C 
HETATM   14  C14 UNL     1      27.669  67.607  17.752  1.00  0.00     0.292 C 
BRANCH  12  15
HETATM   15  C4  UNL     1      29.436  69.897  19.948  1.00  0.00     0.163 C 
BRANCH  15  16
HETATM   16  C3  UNL     1      30.622  69.834  20.867  1.00  0.00    -0.000 A 
HETATM   17  S1  UNL     1      31.974  68.798  20.869  1.00  0.00    -0.105 SA
HETATM   18  C2  UNL     1      32.800  69.415  22.226  1.00  0.00     0.050 A 
HETATM   19  C1  UNL     1      31.979  70.431  22.643  1.00  0.00     0.008 A 
HETATM   20  C16 UNL     1      30.859  70.647  21.946  1.00  0.00     0.017 A 
ENDBRANCH  15  16
ENDBRANCH  12  15
ENDBRANCH   8   9
ENDBRANCH   1   8
BRANCH   6  21
HETATM   21  N5  UNL     1      26.134  60.854  21.052  1.00  0.00    -0.356 N 
HETATM   22  C10 UNL     1      27.227  59.912  21.105  1.00  0.00     0.151 C 
HETATM   23  C11 UNL     1      26.979  58.961  22.248  1.00  0.00     0.187 C 
HETATM   24  O1  UNL     1      26.392  59.560  23.340  1.00  0.00    -0.388 OA
HETATM   25  C12 UNL     1      25.148  60.080  23.118  1.00  0.00     0.187 C 
HETATM   26  C13 UNL     1      24.909  60.540  21.705  1.00  0.00     0.151 C 
ENDBRANCH   6  21
TORSDOF 5
ENDMDL
MODEL 4
REMARK VINA RESULT: -6.494828383      3.787      5.065
REMARK  5 active torsions:
REMARK  status: ('A' for Active; 'I' for Inactive)
REMARK    1  A    between atoms: C3_4  and  C4_5 
REMARK    2  A    between atoms: C4_5  and  N1_6 
REMARK    3  A    between atoms: N2_9  and  C7_10 
REMARK    4  A    between atoms: C7_10  and  C8_11 
REMARK    5  A    between atoms: C9_16  and  N5_17 
ROOT
HETATM    1  C8  UNL     1      26.186  64.685  20.258  1.00  0.00     0.098 A 
HETATM    2  N3  UNL     1      27.209  65.301  20.849  1.00  0.00    -0.294 N 
ATOM      3  H3  UNL     1      27.244  65.370  21.866  1.00  0.00     0.187 HD
HETATM    4  N4  UNL     1      28.130  65.796  20.154  1.00  0.00    -0.279 N 
ATOM      5  H4  UNL     1      28.911  66.267  20.611  1.00  0.00     0.189 HD
HETATM    6  C9  UNL     1      28.095  65.712  18.828  1.00  0.00     0.163 A 
HETATM    7  S2  UNL     1      26.630  64.860  18.606  1.00  0.00    -0.036 SA
ENDROOT
BRANCH   1   8
HETATM    8  C7  UNL     1      24.997  64.038  20.904  1.00  0.00     0.338 C 
BRANCH   8   9
HETATM    9  N2  UNL     1      24.875  62.669  20.510  1.00  0.00     0.097 N 
HETATM   10  C6  UNL     1      23.523  62.261  20.892  1.00  0.00     0.292 C 
HETATM   11  C5  UNL     1      23.639  61.797  22.353  1.00  0.00     0.147 C 
HETATM   12  N1  UNL     1      24.181  60.484  22.302  1.00  0.00    -0.405 N 
HETATM   13  C15 UNL     1      25.369  60.461  21.525  1.00  0.00     0.147 C 
HETATM   14  C14 UNL     1      25.859  61.777  21.023  1.00  0.00     0.292 C 
BRANCH  12  15
HETATM   15  C4  UNL     1      24.169  59.724  23.497  1.00  0.00     0.163 C 
BRANCH  15  16
HETATM   16  C3  UNL     1      22.777  59.733  24.061  1.00  0.00    -0.000 A 
HETATM   17  S1  UNL     1      21.324  60.353  23.425  1.00  0.00    -0.105 SA
HETATM   18  C2  UNL     1      20.264  59.943  24.695  1.00  0.00     0.050 A 
HETATM   19  C1  UNL     1      21.093  59.323  25.593  1.00  0.00     0.008 A 
HETATM   20  C16 UNL     1      22.386  59.215  25.269  1.00  0.00     0.017 A 
ENDBRANCH  15  16
ENDBRANCH  12  15
ENDBRANCH   8   9
ENDBRANCH   1   8
BRANCH   6  21
HETATM   21  N5  UNL     1      29.028  66.201  17.862  1.00  0.00    -0.356 N 
HETATM   22  C10 UNL     1      29.781  65.248  17.083  1.00  0.00     0.151 C 
HETATM   23  C11 UNL     1      30.322  65.952  15.864  1.00  0.00     0.187 C 
HETATM   24  O1  UNL     1      29.460  66.895  15.350  1.00  0.00    -0.388 OA
HETATM   25  C12 UNL     1      29.174  67.937  16.186  1.00  0.00     0.187 C 
HETATM   26  C13 UNL     1      29.233  67.594  17.650  1.00  0.00     0.151 C 
ENDBRANCH   6  21
TORSDOF 5
ENDMDL
MODEL 5
REMARK VINA RESULT: -6.446164982      3.645      9.173
REMARK  5 active torsions:
REMARK  status: ('A' for Active; 'I' for Inactive)
REMARK    1  A    between atoms: C3_4  and  C4_5 
REMARK    2  A    between atoms: C4_5  and  N1_6 
REMARK    3  A    between atoms: N2_9  and  C7_10 
REMARK    4  A    between atoms: C7_10  and  C8_11 
REMARK    5  A    between atoms: C9_16  and  N5_17 
ROOT
HETATM    1  C8  UNL     1      28.698  66.117  18.540  1.00  0.00     0.098 A 
HETATM    2  N3  UNL     1      28.681  65.099  17.682  1.00  0.00    -0.294 N 
ATOM      3  H3  UNL     1      29.448  64.976  17.021  1.00  0.00     0.187 HD
HETATM    4  N4  UNL     1      27.721  64.289  17.688  1.00  0.00    -0.279 N 
ATOM      5  H4  UNL     1      27.712  63.510  17.029  1.00  0.00     0.189 HD
HETATM    6  C9  UNL     1      26.717  64.438  18.545  1.00  0.00     0.163 A 
HETATM    7  S2  UNL     1      27.222  65.843  19.378  1.00  0.00    -0.036 SA
ENDROOT
BRANCH   1   8
HETATM    8  C7  UNL     1      29.741  67.185  18.689  1.00  0.00     0.338 C 
BRANCH   8   9
HETATM    9  N2  UNL     1      30.896  66.690  19.369  1.00  0.00     0.097 N 
HETATM   10  C6  UNL     1      30.635  66.883  20.795  1.00  0.00     0.292 C 
HETATM   11  C5  UNL     1      31.107  68.313  21.102  1.00  0.00     0.147 C 
HETATM   12  N1  UNL     1      32.522  68.239  21.220  1.00  0.00    -0.405 N 
HETATM   13  C15 UNL     1      33.088  67.606  20.081  1.00  0.00     0.147 C 
HETATM   14  C14 UNL     1      32.145  67.254  18.981  1.00  0.00     0.292 C 
BRANCH  12  15
HETATM   15  C4  UNL     1      33.197  69.370  21.739  1.00  0.00     0.163 C 
BRANCH  15  16
HETATM   16  C3  UNL     1      33.484  69.136  23.194  1.00  0.00    -0.000 A 
HETATM   17  S1  UNL     1      33.919  67.715  24.027  1.00  0.00    -0.105 SA
HETATM   18  C2  UNL     1      34.045  68.341  25.606  1.00  0.00     0.050 A 
HETATM   19  C1  UNL     1      33.738  69.666  25.431  1.00  0.00     0.008 A 
HETATM   20  C16 UNL     1      33.449  70.076  24.192  1.00  0.00     0.017 A 
ENDBRANCH  15  16
ENDBRANCH  12  15
ENDBRANCH   8   9
ENDBRANCH   1   8
BRANCH   6  21
HETATM   21  N5  UNL     1      25.543  63.641  18.717  1.00  0.00    -0.356 N 
HETATM   22  C10 UNL     1      25.498  62.336  18.103  1.00  0.00     0.151 C 
HETATM   23  C11 UNL     1      24.418  61.529  18.779  1.00  0.00     0.187 C 
HETATM   24  O1  UNL     1      24.317  61.777  20.130  1.00  0.00    -0.388 OA
HETATM   25  C12 UNL     1      23.976  63.057  20.463  1.00  0.00     0.187 C 
HETATM   26  C13 UNL     1      24.425  64.097  19.472  1.00  0.00     0.151 C 
ENDBRANCH   6  21
TORSDOF 5
ENDMDL
