MODEL 1
REMARK VINA RESULT: -7.952642534      0.000      0.000
REMARK  7 active torsions:
REMARK  status: ('A' for Active; 'I' for Inactive)
REMARK    1  A    between atoms: C2_2  and  C4_4 
REMARK    2  A    between atoms: C4_4  and  O2_6 
REMARK    3  A    between atoms: O2_6  and  C5_7 
REMARK    4  A    between atoms: C6_9  and  C7_10 
REMARK    5  A    between atoms: C8_11  and  C9_12 
REMARK    6  A    between atoms: C9_12  and  O5_14 
REMARK    7  A    between atoms: O5_14  and  C10_15 
ROOT
HETATM    1  C5  UNL     1      24.885  63.409  20.109  1.00  0.00     0.302 C 
HETATM    2  O3  UNL     1      24.426  62.637  21.133  1.00  0.00    -0.348 OA
HETATM    3  C6  UNL     1      24.262  61.298  20.774  1.00  0.00     0.154 C 
HETATM    4  C15 UNL     1      25.435  60.716  20.086  1.00  0.00     0.047 C 
HETATM    5  C16 UNL     1      26.662  60.565  20.938  1.00  0.00     0.015 C 
HETATM    6  C17 UNL     1      25.713  61.493  18.818  1.00  0.00     0.175 C 
HETATM    7  O6  UNL     1      26.991  62.124  18.823  1.00  0.00    -0.289 OA
HETATM    8  C18 UNL     1      26.827  63.191  17.915  1.00  0.00     0.407 C 
HETATM    9  O7  UNL     1      27.703  63.833  17.283  1.00  0.00    -0.229 OA
HETATM   10  O8  UNL     1      25.454  63.477  17.787  1.00  0.00    -0.285 OA
HETATM   11  C19 UNL     1      24.805  62.681  18.783  1.00  0.00     0.219 C 
ENDROOT
BRANCH   3  12
HETATM   12  C7  UNL     1      23.838  60.476  21.906  1.00  0.00     0.011 C 
HETATM   13  C8  UNL     1      23.098  60.971  22.883  1.00  0.00     0.081 C 
BRANCH  13  14
HETATM   14  C9  UNL     1      22.695  60.089  24.009  1.00  0.00     0.283 C 
HETATM   15  O4  UNL     1      23.454  59.139  24.290  1.00  0.00    -0.260 OA
BRANCH  14  16
HETATM   16  O5  UNL     1      21.546  60.293  24.721  1.00  0.00    -0.313 OA
BRANCH  16  17
HETATM   17  C10 UNL     1      20.244  60.035  24.198  1.00  0.00     0.132 C 
HETATM   18  C11 UNL     1      19.253  60.568  25.206  1.00  0.00     0.032 C 
HETATM   19  C12 UNL     1      18.172  61.280  24.458  1.00  0.00     0.002 C 
HETATM   20  C13 UNL     1      18.472  61.097  22.986  1.00  0.00     0.002 C 
HETATM   21  C14 UNL     1      19.971  60.938  22.994  1.00  0.00     0.032 C 
ENDBRANCH  16  17
ENDBRANCH  14  16
ENDBRANCH  13  14
ENDBRANCH   3  12
BRANCH   1  22
HETATM   22  O2  UNL     1      24.140  64.611  19.939  1.00  0.00    -0.283 OA
BRANCH  22  23
HETATM   23  C4  UNL     1      23.621  65.313  21.020  1.00  0.00     0.290 C 
HETATM   24  O1  UNL     1      24.459  65.943  21.713  1.00  0.00    -0.260 OA
BRANCH  23  25
HETATM   25  C2  UNL     1      22.210  65.337  21.354  1.00  0.00     0.004 C 
HETATM   26  C1  UNL     1      21.438  66.251  20.813  1.00  0.00     0.024 C 
HETATM   27  C3  UNL     1      21.591  64.370  22.285  1.00  0.00     0.054 C 
ENDBRANCH  23  25
ENDBRANCH  22  23
ENDBRANCH   1  22
TORSDOF 7
ENDMDL
MODEL 2
REMARK VINA RESULT: -7.862120985      1.103      1.346
REMARK  7 active torsions:
REMARK  status: ('A' for Active; 'I' for Inactive)
REMARK    1  A    between atoms: C2_2  and  C4_4 
REMARK    2  A    between atoms: C4_4  and  O2_6 
REMARK    3  A    between atoms: O2_6  and  C5_7 
REMARK    4  A    between atoms: C6_9  and  C7_10 
REMARK    5  A    between atoms: C8_11  and  C9_12 
REMARK    6  A    between atoms: C9_12  and  O5_14 
REMARK    7  A    between atoms: O5_14  and  C10_15 
ROOT
HETATM    1  C5  UNL     1      24.939  63.468  19.970  1.00  0.00     0.302 C 
HETATM    2  O3  UNL     1      24.482  62.707  21.002  1.00  0.00    -0.348 OA
HETATM    3  C6  UNL     1      24.341  61.360  20.664  1.00  0.00     0.154 C 
HETATM    4  C15 UNL     1      25.529  60.784  19.996  1.00  0.00     0.047 C 
HETATM    5  C16 UNL     1      26.749  60.665  20.862  1.00  0.00     0.015 C 
HETATM    6  C17 UNL     1      25.806  61.544  18.718  1.00  0.00     0.175 C 
HETATM    7  O6  UNL     1      27.076  62.194  18.724  1.00  0.00    -0.289 OA
HETATM    8  C18 UNL     1      26.904  63.243  17.798  1.00  0.00     0.407 C 
HETATM    9  O7  UNL     1      27.777  63.888  17.163  1.00  0.00    -0.229 OA
HETATM   10  O8  UNL     1      25.528  63.506  17.652  1.00  0.00    -0.285 OA
HETATM   11  C19 UNL     1      24.881  62.717  18.656  1.00  0.00     0.219 C 
ENDROOT
BRANCH   3  12
HETATM   12  C7  UNL     1      23.917  60.550  21.806  1.00  0.00     0.011 C 
HETATM   13  C8  UNL     1      23.181  61.057  22.780  1.00  0.00     0.081 C 
BRANCH  13  14
HETATM   14  C9  UNL     1      22.780  60.187  23.916  1.00  0.00     0.283 C 
HETATM   15  O4  UNL     1      23.549  59.252  24.219  1.00  0.00    -0.260 OA
BRANCH  14  16
HETATM   16  O5  UNL     1      21.621  60.387  24.613  1.00  0.00    -0.313 OA
BRANCH  16  17
HETATM   17  C10 UNL     1      20.328  60.119  24.076  1.00  0.00     0.132 C 
HETATM   18  C11 UNL     1      19.324  60.494  25.141  1.00  0.00     0.032 C 
HETATM   19  C12 UNL     1      18.200  61.225  24.479  1.00  0.00     0.002 C 
HETATM   20  C13 UNL     1      18.490  61.209  22.993  1.00  0.00     0.002 C 
HETATM   21  C14 UNL     1      19.995  61.126  22.974  1.00  0.00     0.032 C 
ENDBRANCH  16  17
ENDBRANCH  14  16
ENDBRANCH  13  14
ENDBRANCH   3  12
BRANCH   1  22
HETATM   22  O2  UNL     1      24.177  64.656  19.772  1.00  0.00    -0.283 OA
BRANCH  22  23
HETATM   23  C4  UNL     1      24.700  65.917  20.037  1.00  0.00     0.290 C 
HETATM   24  O1  UNL     1      25.355  66.441  19.101  1.00  0.00    -0.260 OA
BRANCH  23  25
HETATM   25  C2  UNL     1      24.522  66.607  21.300  1.00  0.00     0.004 C 
HETATM   26  C1  UNL     1      25.445  66.495  22.227  1.00  0.00     0.024 C 
HETATM   27  C3  UNL     1      23.339  67.440  21.597  1.00  0.00     0.054 C 
ENDBRANCH  23  25
ENDBRANCH  22  23
ENDBRANCH   1  22
TORSDOF 7
ENDMDL
MODEL 3
REMARK VINA RESULT: -7.776390251      1.940      4.372
REMARK  7 active torsions:
REMARK  status: ('A' for Active; 'I' for Inactive)
REMARK    1  A    between atoms: C2_2  and  C4_4 
REMARK    2  A    between atoms: C4_4  and  O2_6 
REMARK    3  A    between atoms: O2_6  and  C5_7 
REMARK    4  A    between atoms: C6_9  and  C7_10 
REMARK    5  A    between atoms: C8_11  and  C9_12 
REMARK    6  A    between atoms: C9_12  and  O5_14 
REMARK    7  A    between atoms: O5_14  and  C10_15 
ROOT
HETATM    1  C5  UNL     1      25.512  63.921  19.144  1.00  0.00     0.302 C 
HETATM    2  O3  UNL     1      24.320  63.560  19.693  1.00  0.00    -0.348 OA
HETATM    3  C6  UNL     1      23.939  64.384  20.754  1.00  0.00     0.154 C 
HETATM    4  C15 UNL     1      24.028  65.829  20.451  1.00  0.00     0.047 C 
HETATM    5  C16 UNL     1      23.049  66.325  19.428  1.00  0.00     0.015 C 
HETATM    6  C17 UNL     1      25.456  66.182  20.095  1.00  0.00     0.175 C 
HETATM    7  O6  UNL     1      25.589  66.676  18.764  1.00  0.00    -0.289 OA
HETATM    8  C18 UNL     1      26.935  66.396  18.451  1.00  0.00     0.407 C 
HETATM    9  O7  UNL     1      27.668  66.921  17.575  1.00  0.00    -0.229 OA
HETATM   10  O8  UNL     1      27.403  65.377  19.304  1.00  0.00    -0.285 OA
HETATM   11  C19 UNL     1      26.249  64.917  20.015  1.00  0.00     0.219 C 
ENDROOT
BRANCH   3  12
HETATM   12  C7  UNL     1      22.625  64.023  21.282  1.00  0.00     0.011 C 
HETATM   13  C8  UNL     1      22.367  62.805  21.728  1.00  0.00     0.081 C 
BRANCH  13  14
HETATM   14  C9  UNL     1      21.012  62.495  22.254  1.00  0.00     0.283 C 
HETATM   15  O4  UNL     1      20.096  63.297  21.982  1.00  0.00    -0.260 OA
BRANCH  14  16
HETATM   16  O5  UNL     1      20.759  61.381  23.006  1.00  0.00    -0.313 OA
BRANCH  16  17
HETATM   17  C10 UNL     1      21.598  60.952  24.076  1.00  0.00     0.132 C 
HETATM   18  C11 UNL     1      20.708  60.251  25.076  1.00  0.00     0.032 C 
HETATM   19  C12 UNL     1      21.414  59.015  25.535  1.00  0.00     0.002 C 
HETATM   20  C13 UNL     1      22.774  59.021  24.870  1.00  0.00     0.002 C 
HETATM   21  C14 UNL     1      22.498  59.805  23.612  1.00  0.00     0.032 C 
ENDBRANCH  16  17
ENDBRANCH  14  16
ENDBRANCH  13  14
ENDBRANCH   3  12
BRANCH   1  22
HETATM   22  O2  UNL     1      26.403  62.821  18.972  1.00  0.00    -0.283 OA
BRANCH  22  23
HETATM   23  C4  UNL     1      25.949  61.508  18.927  1.00  0.00     0.290 C 
HETATM   24  O1  UNL     1      25.416  61.153  17.846  1.00  0.00    -0.260 OA
BRANCH  23  25
HETATM   25  C2  UNL     1      26.067  60.585  20.039  1.00  0.00     0.004 C 
HETATM   26  C1  UNL     1      27.253  60.132  20.374  1.00  0.00     0.024 C 
HETATM   27  C3  UNL     1      24.903  60.123  20.824  1.00  0.00     0.054 C 
ENDBRANCH  23  25
ENDBRANCH  22  23
ENDBRANCH   1  22
TORSDOF 7
ENDMDL
MODEL 4
REMARK VINA RESULT: -7.627222291      2.386      7.394
REMARK  7 active torsions:
REMARK  status: ('A' for Active; 'I' for Inactive)
REMARK    1  A    between atoms: C2_2  and  C4_4 
REMARK    2  A    between atoms: C4_4  and  O2_6 
REMARK    3  A    between atoms: O2_6  and  C5_7 
REMARK    4  A    between atoms: C6_9  and  C7_10 
REMARK    5  A    between atoms: C8_11  and  C9_12 
REMARK    6  A    between atoms: C9_12  and  O5_14 
REMARK    7  A    between atoms: O5_14  and  C10_15 
ROOT
HETATM    1  C5  UNL     1      20.658  61.877  22.972  1.00  0.00     0.302 C 
HETATM    2  O3  UNL     1      21.967  62.091  22.668  1.00  0.00    -0.348 OA
HETATM    3  C6  UNL     1      22.139  62.846  21.506  1.00  0.00     0.154 C 
HETATM    4  C15 UNL     1      21.323  64.079  21.469  1.00  0.00     0.047 C 
HETATM    5  C16 UNL     1      21.711  65.128  22.470  1.00  0.00     0.015 C 
HETATM    6  C17 UNL     1      19.857  63.716  21.559  1.00  0.00     0.175 C 
HETATM    7  O6  UNL     1      19.224  64.249  22.720  1.00  0.00    -0.289 OA
HETATM    8  C18 UNL     1      18.133  63.379  22.919  1.00  0.00     0.407 C 
HETATM    9  O7  UNL     1      17.070  63.578  23.560  1.00  0.00    -0.229 OA
HETATM   10  O8  UNL     1      18.391  62.160  22.261  1.00  0.00    -0.285 OA
HETATM   11  C19 UNL     1      19.749  62.248  21.818  1.00  0.00     0.219 C 
ENDROOT
BRANCH   3  12
HETATM   12  C7  UNL     1      23.550  63.123  21.238  1.00  0.00     0.011 C 
HETATM   13  C8  UNL     1      24.428  62.150  21.069  1.00  0.00     0.081 C 
BRANCH  13  14
HETATM   14  C9  UNL     1      25.848  62.491  20.799  1.00  0.00     0.283 C 
HETATM   15  O4  UNL     1      26.221  63.649  21.076  1.00  0.00    -0.260 OA
BRANCH  14  16
HETATM   16  O5  UNL     1      26.728  61.587  20.270  1.00  0.00    -0.313 OA
BRANCH  16  17
HETATM   17  C10 UNL     1      26.693  60.193  20.569  1.00  0.00     0.132 C 
HETATM   18  C11 UNL     1      28.065  59.643  20.255  1.00  0.00     0.032 C 
HETATM   19  C12 UNL     1      28.453  58.713  21.360  1.00  0.00     0.002 C 
HETATM   20  C13 UNL     1      27.267  58.637  22.298  1.00  0.00     0.002 C 
HETATM   21  C14 UNL     1      26.617  59.980  22.082  1.00  0.00     0.032 C 
ENDBRANCH  16  17
ENDBRANCH  14  16
ENDBRANCH  13  14
ENDBRANCH   3  12
BRANCH   1  22
HETATM   22  O2  UNL     1      20.369  60.514  23.272  1.00  0.00    -0.283 OA
BRANCH  22  23
HETATM   23  C4  UNL     1      20.446  60.014  24.566  1.00  0.00     0.290 C 
HETATM   24  O1  UNL     1      19.405  60.137  25.260  1.00  0.00    -0.260 OA
BRANCH  23  25
HETATM   25  C2  UNL     1      21.635  59.389  25.112  1.00  0.00     0.004 C 
HETATM   26  C1  UNL     1      21.613  58.937  26.345  1.00  0.00     0.024 C 
HETATM   27  C3  UNL     1      22.885  59.232  24.339  1.00  0.00     0.054 C 
ENDBRANCH  23  25
ENDBRANCH  22  23
ENDBRANCH   1  22
TORSDOF 7
ENDMDL
MODEL 5
REMARK VINA RESULT: -7.620985657      1.747      2.805
REMARK  7 active torsions:
REMARK  status: ('A' for Active; 'I' for Inactive)
REMARK    1  A    between atoms: C2_2  and  C4_4 
REMARK    2  A    between atoms: C4_4  and  O2_6 
REMARK    3  A    between atoms: O2_6  and  C5_7 
REMARK    4  A    between atoms: C6_9  and  C7_10 
REMARK    5  A    between atoms: C8_11  and  C9_12 
REMARK    6  A    between atoms: C9_12  and  O5_14 
REMARK    7  A    between atoms: O5_14  and  C10_15 
ROOT
HETATM    1  C5  UNL     1      25.959  64.509  20.241  1.00  0.00     0.302 C 
HETATM    2  O3  UNL     1      24.989  63.922  20.996  1.00  0.00    -0.348 OA
HETATM    3  C6  UNL     1      24.014  63.284  20.227  1.00  0.00     0.154 C 
HETATM    4  C15 UNL     1      24.564  62.389  19.185  1.00  0.00     0.047 C 
HETATM    5  C16 UNL     1      25.267  61.168  19.703  1.00  0.00     0.015 C 
HETATM    6  C17 UNL     1      25.432  63.191  18.240  1.00  0.00     0.175 C 
HETATM    7  O6  UNL     1      26.793  62.765  18.240  1.00  0.00    -0.289 OA
HETATM    8  C18 UNL     1      27.489  63.911  17.805  1.00  0.00     0.407 C 
HETATM    9  O7  UNL     1      28.634  63.994  17.294  1.00  0.00    -0.229 OA
HETATM   10  O8  UNL     1      26.686  65.047  18.027  1.00  0.00    -0.285 OA
HETATM   11  C19 UNL     1      25.563  64.579  18.781  1.00  0.00     0.219 C 
ENDROOT
BRANCH   3  12
HETATM   12  C7  UNL     1      23.024  62.601  21.057  1.00  0.00     0.011 C 
HETATM   13  C8  UNL     1      21.927  63.211  21.473  1.00  0.00     0.081 C 
BRANCH  13  14
HETATM   14  C9  UNL     1      20.955  62.467  22.315  1.00  0.00     0.283 C 
HETATM   15  O4  UNL     1      19.785  62.375  21.891  1.00  0.00    -0.260 OA
BRANCH  14  16
HETATM   16  O5  UNL     1      21.308  61.898  23.507  1.00  0.00    -0.313 OA
BRANCH  16  17
HETATM   17  C10 UNL     1      21.271  60.493  23.746  1.00  0.00     0.132 C 
HETATM   18  C11 UNL     1      22.696  59.996  23.665  1.00  0.00     0.032 C 
HETATM   19  C12 UNL     1      22.913  59.033  24.787  1.00  0.00     0.002 C 
HETATM   20  C13 UNL     1      21.583  58.884  25.494  1.00  0.00     0.002 C 
HETATM   21  C14 UNL     1      20.934  60.216  25.212  1.00  0.00     0.032 C 
ENDBRANCH  16  17
ENDBRANCH  14  16
ENDBRANCH  13  14
ENDBRANCH   3  12
BRANCH   1  22
HETATM   22  O2  UNL     1      26.235  65.851  20.633  1.00  0.00    -0.283 OA
BRANCH  22  23
HETATM   23  C4  UNL     1      25.314  66.613  21.343  1.00  0.00     0.290 C 
HETATM   24  O1  UNL     1      25.594  66.820  22.550  1.00  0.00    -0.260 OA
BRANCH  23  25
HETATM   25  C2  UNL     1      24.100  67.147  20.757  1.00  0.00     0.004 C 
HETATM   26  C1  UNL     1      22.946  66.893  21.331  1.00  0.00     0.024 C 
HETATM   27  C3  UNL     1      24.097  67.974  19.532  1.00  0.00     0.054 C 
ENDBRANCH  23  25
ENDBRANCH  22  23
ENDBRANCH   1  22
TORSDOF 7
ENDMDL
