MODEL 1
REMARK VINA RESULT: -9.372106088      0.000      0.000
REMARK  4 active torsions:
REMARK  status: ('A' for Active; 'I' for Inactive)
REMARK    1  A    between atoms: C15_15  and  C16_16 
REMARK    2  A    between atoms: C16_16  and  O1_17 
REMARK    3  A    between atoms: O1_17  and  C17_18 
REMARK    4  A    between atoms: C20_22  and  O3_23 
ROOT
HETATM    1  C1  UNL     1      38.365 -33.979  -2.443  1.00  0.00     0.043 C 
HETATM    2  C2  UNL     1      37.696 -32.688  -2.021  1.00  0.00    -0.080 C 
HETATM    3  C3  UNL     1      38.411 -31.653  -1.629  1.00  0.00     0.017 C 
HETATM    4  C4  UNL     1      37.738 -30.407  -1.222  1.00  0.00     0.096 C 
HETATM    5  C5  UNL     1      37.646 -29.543  -2.490  1.00  0.00     0.055 C 
HETATM    6  C6  UNL     1      38.507 -29.681  -0.202  1.00  0.00     0.015 C 
HETATM    7  C7  UNL     1      39.304 -30.114   0.717  1.00  0.00    -0.001 C 
HETATM    8  C8  UNL     1      39.743 -31.439   1.100  1.00  0.00    -0.000 C 
HETATM    9  C9  UNL     1      39.093 -32.446   1.597  1.00  0.00    -0.000 C 
HETATM   10  C10 UNL     1      37.722 -32.685   1.969  1.00  0.00    -0.004 C 
HETATM   11  C11 UNL     1      36.947 -32.123   2.840  1.00  0.00    -0.026 C 
HETATM   12  C12 UNL     1      37.200 -31.013   3.781  1.00  0.00     0.036 C 
HETATM   13  C13 UNL     1      36.018 -30.069   3.880  1.00  0.00     0.016 C 
HETATM   14  C14 UNL     1      36.534 -28.809   4.535  1.00  0.00     0.015 C 
HETATM   15  C15 UNL     1      34.864 -30.639   4.627  1.00  0.00    -0.052 C 
HETATM   16  C22 UNL     1      33.594 -30.423   4.358  1.00  0.00     0.005 C 
HETATM   17  C23 UNL     1      32.975 -29.632   3.333  1.00  0.00    -0.004 C 
HETATM   18  C24 UNL     1      32.835 -29.885   2.049  1.00  0.00    -0.025 C 
HETATM   19  C25 UNL     1      33.299 -31.103   1.330  1.00  0.00     0.053 C 
HETATM   20  C26 UNL     1      34.196 -30.691   0.206  1.00  0.00     0.174 C 
HETATM   21  O4  UNL     1      34.581 -31.765  -0.591  1.00  0.00    -0.361 OA
HETATM   22  C27 UNL     1      35.631 -31.375  -1.460  1.00  0.00     0.265 C 
HETATM   23  C28 UNL     1      36.219 -32.600  -2.059  1.00  0.00     0.094 C 
HETATM   24  O5  UNL     1      36.475 -30.613  -0.701  1.00  0.00    -0.342 OA
ENDROOT
BRANCH  15  25
HETATM   25  C16 UNL     1      35.281 -31.527   5.788  1.00  0.00     0.205 C 
BRANCH  25  26
HETATM   26  O1  UNL     1      34.796 -30.905   6.905  1.00  0.00    -0.354 OA
BRANCH  26  27
HETATM   27  C17 UNL     1      35.704 -30.275   7.716  1.00  0.00     0.297 C 
HETATM   28  O2  UNL     1      36.980 -30.814   7.661  1.00  0.00    -0.351 OA
HETATM   29  C18 UNL     1      37.635 -30.046   8.651  1.00  0.00     0.152 C 
HETATM   30  C19 UNL     1      37.758 -28.599   8.271  1.00  0.00     0.042 C 
HETATM   31  C20 UNL     1      36.678 -30.094   9.849  1.00  0.00     0.185 C 
HETATM   32  C21 UNL     1      35.343 -30.273   9.161  1.00  0.00     0.256 C 
HETATM   33  F1  UNL     1      34.825 -31.477   9.593  1.00  0.00    -0.241 F 
BRANCH  31  34
HETATM   34  O3  UNL     1      36.988 -31.153  10.684  1.00  0.00    -0.390 OA
ATOM     35  H3  UNL     1      37.466 -30.853  11.447  1.00  0.00     0.210 HD
ENDBRANCH  31  34
ENDBRANCH  26  27
ENDBRANCH  25  26
ENDBRANCH  15  25
TORSDOF 4
ENDMDL
MODEL 2
REMARK VINA RESULT: -9.359576181      4.154      7.090
REMARK  4 active torsions:
REMARK  status: ('A' for Active; 'I' for Inactive)
REMARK    1  A    between atoms: C15_15  and  C16_16 
REMARK    2  A    between atoms: C16_16  and  O1_17 
REMARK    3  A    between atoms: O1_17  and  C17_18 
REMARK    4  A    between atoms: C20_22  and  O3_23 
ROOT
HETATM    1  C1  UNL     1      40.287 -24.913   1.063  1.00  0.00     0.043 C 
HETATM    2  C2  UNL     1      40.791 -26.304   0.738  1.00  0.00    -0.080 C 
HETATM    3  C3  UNL     1      41.140 -26.626  -0.491  1.00  0.00     0.017 C 
HETATM    4  C4  UNL     1      41.627 -27.985  -0.784  1.00  0.00     0.096 C 
HETATM    5  C5  UNL     1      43.155 -27.928  -0.633  1.00  0.00     0.055 C 
HETATM    6  C6  UNL     1      41.295 -28.399  -2.154  1.00  0.00     0.015 C 
HETATM    7  C7  UNL     1      40.303 -28.074  -2.914  1.00  0.00    -0.001 C 
HETATM    8  C8  UNL     1      39.159 -27.206  -2.728  1.00  0.00    -0.000 C 
HETATM    9  C9  UNL     1      38.142 -27.291  -1.927  1.00  0.00    -0.000 C 
HETATM   10  C10 UNL     1      37.716 -28.231  -0.923  1.00  0.00    -0.004 C 
HETATM   11  C11 UNL     1      37.411 -29.487  -0.981  1.00  0.00    -0.026 C 
HETATM   12  C12 UNL     1      37.391 -30.422  -2.124  1.00  0.00     0.036 C 
HETATM   13  C13 UNL     1      37.927 -31.790  -1.752  1.00  0.00     0.016 C 
HETATM   14  C14 UNL     1      38.220 -32.500  -3.053  1.00  0.00     0.015 C 
HETATM   15  C15 UNL     1      37.001 -32.579  -0.896  1.00  0.00    -0.052 C 
HETATM   16  C22 UNL     1      37.358 -33.404   0.065  1.00  0.00     0.005 C 
HETATM   17  C23 UNL     1      38.659 -33.768   0.550  1.00  0.00    -0.004 C 
HETATM   18  C24 UNL     1      39.488 -33.088   1.314  1.00  0.00    -0.025 C 
HETATM   19  C25 UNL     1      39.262 -31.730   1.878  1.00  0.00     0.053 C 
HETATM   20  C26 UNL     1      40.382 -30.834   1.453  1.00  0.00     0.174 C 
HETATM   21  O4  UNL     1      40.308 -29.573   2.036  1.00  0.00    -0.361 OA
HETATM   22  C27 UNL     1      41.215 -28.688   1.400  1.00  0.00     0.265 C 
HETATM   23  C28 UNL     1      40.891 -27.303   1.826  1.00  0.00     0.094 C 
HETATM   24  O5  UNL     1      41.107 -28.946   0.062  1.00  0.00    -0.342 OA
ENDROOT
BRANCH  15  25
HETATM   25  C16 UNL     1      35.535 -32.357  -1.236  1.00  0.00     0.205 C 
BRANCH  25  26
HETATM   26  O1  UNL     1      34.841 -33.108  -0.327  1.00  0.00    -0.354 OA
BRANCH  26  27
HETATM   27  C17 UNL     1      34.396 -32.472   0.803  1.00  0.00     0.297 C 
HETATM   28  O2  UNL     1      33.133 -32.871   1.215  1.00  0.00    -0.351 OA
HETATM   29  C18 UNL     1      32.918 -31.989   2.300  1.00  0.00     0.152 C 
HETATM   30  C19 UNL     1      33.852 -32.247   3.447  1.00  0.00     0.042 C 
HETATM   31  C20 UNL     1      33.299 -30.614   1.739  1.00  0.00     0.185 C 
HETATM   32  C21 UNL     1      34.317 -30.990   0.685  1.00  0.00     0.256 C 
HETATM   33  F1  UNL     1      33.815 -30.567  -0.529  1.00  0.00    -0.241 F 
BRANCH  31  34
HETATM   34  O3  UNL     1      32.194 -29.978   1.202  1.00  0.00    -0.390 OA
ATOM     35  H3  UNL     1      32.434 -29.476   0.432  1.00  0.00     0.210 HD
ENDBRANCH  31  34
ENDBRANCH  26  27
ENDBRANCH  25  26
ENDBRANCH  15  25
TORSDOF 4
ENDMDL
MODEL 3
REMARK VINA RESULT: -9.231146961      3.885      6.910
REMARK  4 active torsions:
REMARK  status: ('A' for Active; 'I' for Inactive)
REMARK    1  A    between atoms: C15_15  and  C16_16 
REMARK    2  A    between atoms: C16_16  and  O1_17 
REMARK    3  A    between atoms: O1_17  and  C17_18 
REMARK    4  A    between atoms: C20_22  and  O3_23 
ROOT
HETATM    1  C1  UNL     1      40.433 -24.680   0.674  1.00  0.00     0.043 C 
HETATM    2  C2  UNL     1      40.944 -26.080   0.408  1.00  0.00    -0.080 C 
HETATM    3  C3  UNL     1      41.249 -26.468  -0.814  1.00  0.00     0.017 C 
HETATM    4  C4  UNL     1      41.743 -27.835  -1.049  1.00  0.00     0.096 C 
HETATM    5  C5  UNL     1      43.275 -27.751  -0.963  1.00  0.00     0.055 C 
HETATM    6  C6  UNL     1      41.363 -28.330  -2.379  1.00  0.00     0.015 C 
HETATM    7  C7  UNL     1      40.337 -28.062  -3.115  1.00  0.00    -0.001 C 
HETATM    8  C8  UNL     1      39.189 -27.198  -2.933  1.00  0.00    -0.000 C 
HETATM    9  C9  UNL     1      38.206 -27.250  -2.088  1.00  0.00    -0.000 C 
HETATM   10  C10 UNL     1      37.834 -28.136  -1.015  1.00  0.00    -0.004 C 
HETATM   11  C11 UNL     1      37.544 -29.397  -0.990  1.00  0.00    -0.026 C 
HETATM   12  C12 UNL     1      37.492 -30.396  -2.076  1.00  0.00     0.036 C 
HETATM   13  C13 UNL     1      38.063 -31.733  -1.650  1.00  0.00     0.016 C 
HETATM   14  C14 UNL     1      38.314 -32.513  -2.919  1.00  0.00     0.015 C 
HETATM   15  C15 UNL     1      37.182 -32.483  -0.714  1.00  0.00    -0.052 C 
HETATM   16  C22 UNL     1      37.590 -33.248   0.277  1.00  0.00     0.005 C 
HETATM   17  C23 UNL     1      38.913 -33.568   0.729  1.00  0.00    -0.004 C 
HETATM   18  C24 UNL     1      39.763 -32.836   1.418  1.00  0.00    -0.025 C 
HETATM   19  C25 UNL     1      39.539 -31.450   1.914  1.00  0.00     0.053 C 
HETATM   20  C26 UNL     1      40.629 -30.567   1.394  1.00  0.00     0.174 C 
HETATM   21  O4  UNL     1      40.560 -29.276   1.907  1.00  0.00    -0.361 OA
HETATM   22  C27 UNL     1      41.429 -28.418   1.186  1.00  0.00     0.265 C 
HETATM   23  C28 UNL     1      41.101 -27.014   1.546  1.00  0.00     0.094 C 
HETATM   24  O5  UNL     1      41.271 -28.752  -0.130  1.00  0.00    -0.342 OA
ENDROOT
BRANCH  15  25
HETATM   25  C16 UNL     1      35.702 -32.299  -1.006  1.00  0.00     0.205 C 
BRANCH  25  26
HETATM   26  O1  UNL     1      35.054 -32.970  -0.005  1.00  0.00    -0.354 OA
BRANCH  26  27
HETATM   27  C17 UNL     1      34.491 -32.217   0.993  1.00  0.00     0.297 C 
HETATM   28  O2  UNL     1      34.935 -32.544   2.266  1.00  0.00    -0.351 OA
HETATM   29  C18 UNL     1      34.121 -31.699   3.055  1.00  0.00     0.152 C 
HETATM   30  C19 UNL     1      34.428 -30.244   2.848  1.00  0.00     0.042 C 
HETATM   31  C20 UNL     1      32.709 -31.922   2.499  1.00  0.00     0.185 C 
HETATM   32  C21 UNL     1      33.007 -32.300   1.065  1.00  0.00     0.256 C 
HETATM   33  F1  UNL     1      32.524 -33.579   0.877  1.00  0.00    -0.241 F 
BRANCH  31  34
HETATM   34  O3  UNL     1      32.063 -32.933   3.188  1.00  0.00    -0.390 OA
ATOM     35  H3  UNL     1      31.911 -32.682   4.091  1.00  0.00     0.210 HD
ENDBRANCH  31  34
ENDBRANCH  26  27
ENDBRANCH  25  26
ENDBRANCH  15  25
TORSDOF 4
ENDMDL
MODEL 4
REMARK VINA RESULT: -8.666506199      2.646      4.547
REMARK  4 active torsions:
REMARK  status: ('A' for Active; 'I' for Inactive)
REMARK    1  A    between atoms: C15_15  and  C16_16 
REMARK    2  A    between atoms: C16_16  and  O1_17 
REMARK    3  A    between atoms: O1_17  and  C17_18 
REMARK    4  A    between atoms: C20_22  and  O3_23 
ROOT
HETATM    1  C1  UNL     1      38.803 -26.887  -2.042  1.00  0.00     0.043 C 
HETATM    2  C2  UNL     1      39.240 -27.456  -0.709  1.00  0.00    -0.080 C 
HETATM    3  C3  UNL     1      39.729 -28.676  -0.622  1.00  0.00     0.017 C 
HETATM    4  C4  UNL     1      40.146 -29.208   0.687  1.00  0.00     0.096 C 
HETATM    5  C5  UNL     1      41.639 -28.870   0.824  1.00  0.00     0.055 C 
HETATM    6  C6  UNL     1      39.976 -30.666   0.762  1.00  0.00     0.015 C 
HETATM    7  C7  UNL     1      39.125 -31.444   0.180  1.00  0.00    -0.001 C 
HETATM    8  C8  UNL     1      38.036 -31.203  -0.743  1.00  0.00    -0.000 C 
HETATM    9  C9  UNL     1      36.915 -30.567  -0.596  1.00  0.00    -0.000 C 
HETATM   10  C10 UNL     1      36.285 -29.857   0.486  1.00  0.00    -0.004 C 
HETATM   11  C11 UNL     1      35.895 -30.232   1.663  1.00  0.00    -0.026 C 
HETATM   12  C12 UNL     1      35.961 -31.550   2.325  1.00  0.00     0.036 C 
HETATM   13  C13 UNL     1      36.335 -31.435   3.788  1.00  0.00     0.016 C 
HETATM   14  C14 UNL     1      36.749 -32.820   4.231  1.00  0.00     0.015 C 
HETATM   15  C15 UNL     1      35.242 -30.894   4.640  1.00  0.00    -0.052 C 
HETATM   16  C22 UNL     1      35.400 -30.108   5.684  1.00  0.00     0.005 C 
HETATM   17  C23 UNL     1      36.590 -29.568   6.278  1.00  0.00    -0.004 C 
HETATM   18  C24 UNL     1      37.356 -28.580   5.867  1.00  0.00    -0.025 C 
HETATM   19  C25 UNL     1      37.158 -27.754   4.645  1.00  0.00     0.053 C 
HETATM   20  C26 UNL     1      38.392 -27.833   3.801  1.00  0.00     0.174 C 
HETATM   21  O4  UNL     1      38.335 -26.994   2.693  1.00  0.00    -0.361 OA
HETATM   22  C27 UNL     1      39.386 -27.303   1.793  1.00  0.00     0.265 C 
HETATM   23  C28 UNL     1      39.112 -26.617   0.504  1.00  0.00     0.094 C 
HETATM   24  O5  UNL     1      39.443 -28.668   1.746  1.00  0.00    -0.342 OA
ENDROOT
BRANCH  15  25
HETATM   25  C16 UNL     1      33.859 -31.344   4.199  1.00  0.00     0.205 C 
BRANCH  25  26
HETATM   26  O1  UNL     1      33.472 -32.271   5.128  1.00  0.00    -0.354 OA
BRANCH  26  27
HETATM   27  C17 UNL     1      33.294 -31.832   6.415  1.00  0.00     0.297 C 
HETATM   28  O2  UNL     1      33.252 -32.849   7.357  1.00  0.00    -0.351 OA
HETATM   29  C18 UNL     1      32.961 -32.112   8.529  1.00  0.00     0.152 C 
HETATM   30  C19 UNL     1      34.082 -31.197   8.928  1.00  0.00     0.042 C 
HETATM   31  C20 UNL     1      31.795 -31.206   8.115  1.00  0.00     0.185 C 
HETATM   32  C21 UNL     1      32.048 -31.047   6.633  1.00  0.00     0.256 C 
HETATM   33  F1  UNL     1      30.953 -31.573   5.978  1.00  0.00    -0.241 F 
BRANCH  31  34
HETATM   34  O3  UNL     1      30.581 -31.815   8.381  1.00  0.00    -0.390 OA
ATOM     35  H3  UNL     1      29.863 -31.309   8.019  1.00  0.00     0.210 HD
ENDBRANCH  31  34
ENDBRANCH  26  27
ENDBRANCH  25  26
ENDBRANCH  15  25
TORSDOF 4
ENDMDL
MODEL 5
REMARK VINA RESULT: -8.574636348      4.252      6.903
REMARK  4 active torsions:
REMARK  status: ('A' for Active; 'I' for Inactive)
REMARK    1  A    between atoms: C15_15  and  C16_16 
REMARK    2  A    between atoms: C16_16  and  O1_17 
REMARK    3  A    between atoms: O1_17  and  C17_18 
REMARK    4  A    between atoms: C20_22  and  O3_23 
ROOT
HETATM    1  C1  UNL     1      39.959 -23.143  -2.557  1.00  0.00     0.043 C 
HETATM    2  C2  UNL     1      40.488 -23.888  -1.350  1.00  0.00    -0.080 C 
HETATM    3  C3  UNL     1      41.385 -24.844  -1.485  1.00  0.00     0.017 C 
HETATM    4  C4  UNL     1      41.885 -25.555  -0.295  1.00  0.00     0.096 C 
HETATM    5  C5  UNL     1      43.137 -24.789   0.160  1.00  0.00     0.055 C 
HETATM    6  C6  UNL     1      42.257 -26.942  -0.607  1.00  0.00     0.015 C 
HETATM    7  C7  UNL     1      41.790 -27.760  -1.490  1.00  0.00    -0.001 C 
HETATM    8  C8  UNL     1      40.750 -27.646  -2.491  1.00  0.00    -0.000 C 
HETATM    9  C9  UNL     1      39.467 -27.493  -2.377  1.00  0.00    -0.000 C 
HETATM   10  C10 UNL     1      38.553 -27.377  -1.271  1.00  0.00    -0.004 C 
HETATM   11  C11 UNL     1      38.254 -28.180  -0.301  1.00  0.00    -0.026 C 
HETATM   12  C12 UNL     1      38.757 -29.530   0.021  1.00  0.00     0.036 C 
HETATM   13  C13 UNL     1      38.969 -29.720   1.509  1.00  0.00     0.016 C 
HETATM   14  C14 UNL     1      39.834 -30.950   1.663  1.00  0.00     0.015 C 
HETATM   15  C15 UNL     1      37.702 -29.844   2.279  1.00  0.00    -0.052 C 
HETATM   16  C22 UNL     1      37.493 -29.384   3.494  1.00  0.00     0.005 C 
HETATM   17  C23 UNL     1      38.361 -28.670   4.386  1.00  0.00    -0.004 C 
HETATM   18  C24 UNL     1      38.735 -27.408   4.359  1.00  0.00    -0.025 C 
HETATM   19  C25 UNL     1      38.325 -26.384   3.359  1.00  0.00     0.053 C 
HETATM   20  C26 UNL     1      39.553 -25.799   2.733  1.00  0.00     0.174 C 
HETATM   21  O4  UNL     1      39.262 -24.749   1.869  1.00  0.00    -0.361 OA
HETATM   22  C27 UNL     1      40.408 -24.416   1.104  1.00  0.00     0.265 C 
HETATM   23  C28 UNL     1      39.984 -23.524  -0.006  1.00  0.00     0.094 C 
HETATM   24  O5  UNL     1      40.966 -25.608   0.735  1.00  0.00    -0.342 OA
ENDROOT
BRANCH  15  25
HETATM   25  C16 UNL     1      36.612 -30.587   1.523  1.00  0.00     0.205 C 
BRANCH  25  26
HETATM   26  O1  UNL     1      36.301 -31.663   2.310  1.00  0.00    -0.354 OA
BRANCH  26  27
HETATM   27  C17 UNL     1      35.022 -31.733   2.799  1.00  0.00     0.297 C 
HETATM   28  O2  UNL     1      34.799 -32.812   3.641  1.00  0.00    -0.351 OA
HETATM   29  C18 UNL     1      33.413 -32.675   3.884  1.00  0.00     0.152 C 
HETATM   30  C19 UNL     1      33.084 -31.438   4.668  1.00  0.00     0.042 C 
HETATM   31  C20 UNL     1      32.811 -32.471   2.489  1.00  0.00     0.185 C 
HETATM   32  C21 UNL     1      33.967 -31.829   1.754  1.00  0.00     0.256 C 
HETATM   33  F1  UNL     1      34.304 -32.675   0.717  1.00  0.00    -0.241 F 
BRANCH  31  34
HETATM   34  O3  UNL     1      32.438 -33.682   1.932  1.00  0.00    -0.390 OA
ATOM     35  H3  UNL     1      32.059 -33.554   1.070  1.00  0.00     0.210 HD
ENDBRANCH  31  34
ENDBRANCH  26  27
ENDBRANCH  25  26
ENDBRANCH  15  25
TORSDOF 4
ENDMDL
