MODEL 1
REMARK VINA RESULT: -7.802847297      0.000      0.000
REMARK  4 active torsions:
REMARK  status: ('A' for Active; 'I' for Inactive)
REMARK    1  A    between atoms: C4_7  and  N3_8 
REMARK    2  A    between atoms: C5_11  and  C6_12 
REMARK    3  A    between atoms: N6_14  and  N7_16 
REMARK    4  A    between atoms: C8_23  and  N11_24 
ROOT
HETATM    1  N1  UNL     1       3.239   3.757   8.544  1.00  0.00    -0.190 NA
HETATM    2  C1  UNL     1       2.323   3.958   9.242  1.00  0.00     0.120 C 
HETATM    3  C2  UNL     1       1.177   4.220  10.095  1.00  0.00     0.144 A 
HETATM    4  C3  UNL     1      -0.116   4.165   9.624  1.00  0.00     0.148 A 
HETATM    5  N2  UNL     1      -1.161   4.410  10.454  1.00  0.00    -0.195 N 
ATOM      6  H2  UNL     1      -2.112   4.365  10.087  1.00  0.00     0.183 HD
HETATM    7  C4  UNL     1      -0.969   4.712  11.749  1.00  0.00     0.733 A 
HETATM    8  N13 UNL     1       0.297   4.762  12.191  1.00  0.00    -0.129 N 
ATOM      9  H13 UNL     1       0.468   4.988  13.170  1.00  0.00     0.205 HD
HETATM   10  N14 UNL     1       1.335   4.525  11.393  1.00  0.00    -0.275 N 
ATOM     11  H14 UNL     1       2.278   4.578  11.778  1.00  0.00     0.188 HD
ENDROOT
BRANCH   7  12
HETATM   12  N3  UNL     1      -2.015   4.960  12.684  1.00  0.00     0.093 N 
HETATM   13  N4  UNL     1      -2.687   3.999  13.329  1.00  0.00    -0.246 N 
HETATM   14  C5  UNL     1      -3.582   4.584  14.118  1.00  0.00     0.179 A 
ATOM     15  H4  UNL     1      -2.539   2.995  13.232  1.00  0.00     0.190 HD
HETATM   16  N10 UNL     1      -3.454   5.908  13.955  1.00  0.00    -0.170 N 
HETATM   17  C8  UNL     1      -2.478   6.167  13.060  1.00  0.00     0.720 A 
ATOM     18  H10 UNL     1      -4.011   6.615  14.435  1.00  0.00     0.186 HD
BRANCH  14  19
HETATM   19  C6  UNL     1      -4.547   3.911  15.020  1.00  0.00     0.177 C 
HETATM   20  N5  UNL     1      -5.870   4.376  15.144  1.00  0.00    -0.077 NA
HETATM   21  N6  UNL     1      -4.142   2.911  15.664  1.00  0.00    -0.283 N 
ATOM     22  H6  UNL     1      -3.167   2.668  15.487  1.00  0.00     0.188 HD
BRANCH  21  23
HETATM   23  N7  UNL     1      -4.758   2.100  16.547  1.00  0.00    -0.275 N 
HETATM   24  C7  UNL     1      -5.007   0.854  16.484  1.00  0.00     0.215 C 
HETATM   25  N8  UNL     1      -5.692   0.290  17.614  1.00  0.00    -0.065 NA
HETATM   26  N9  UNL     1      -4.681  -0.019  15.434  1.00  0.00    -0.065 NA
ATOM     27  H7  UNL     1      -5.075   2.558  17.402  1.00  0.00     0.189 HD
ENDBRANCH  21  23
ENDBRANCH  14  19
BRANCH  17  28
HETATM   28  N11 UNL     1      -2.018   7.400  12.576  1.00  0.00    -0.189 N 
HETATM   29  C9  UNL     1      -2.581   8.099  11.437  1.00  0.00     0.170 C 
HETATM   30  C10 UNL     1      -2.018   9.481  11.450  1.00  0.00     0.254 C 
HETATM   31  N12 UNL     1      -1.403   9.608  12.754  1.00  0.00    -0.057 N 
HETATM   32  C11 UNL     1      -0.941   8.258  13.027  1.00  0.00     0.374 C 
ATOM     33 2H12 UNL     1      -0.681  10.327  12.817  1.00  0.00     0.279 HD
ATOM     34 1H12 UNL     1      -2.006  10.006  13.474  1.00  0.00     0.279 HD
ENDBRANCH  17  28
ENDBRANCH   7  12
TORSDOF 4
ENDMDL
MODEL 2
REMARK VINA RESULT: -7.589528772      2.526      3.160
REMARK  4 active torsions:
REMARK  status: ('A' for Active; 'I' for Inactive)
REMARK    1  A    between atoms: C4_7  and  N3_8 
REMARK    2  A    between atoms: C5_11  and  C6_12 
REMARK    3  A    between atoms: N6_14  and  N7_16 
REMARK    4  A    between atoms: C8_23  and  N11_24 
ROOT
HETATM    1  N1  UNL     1       5.159   6.033  10.985  1.00  0.00    -0.190 NA
HETATM    2  C1  UNL     1       4.047   5.675  10.961  1.00  0.00     0.120 C 
HETATM    3  C2  UNL     1       2.663   5.237  10.912  1.00  0.00     0.144 A 
HETATM    4  C3  UNL     1       2.134   4.597   9.814  1.00  0.00     0.148 A 
HETATM    5  N2  UNL     1       0.837   4.198   9.809  1.00  0.00    -0.195 N 
ATOM      6  H2  UNL     1       0.462   3.725   8.986  1.00  0.00     0.183 HD
HETATM    7  C4  UNL     1       0.035   4.413  10.866  1.00  0.00     0.733 A 
HETATM    8  N13 UNL     1       0.567   5.037  11.927  1.00  0.00    -0.129 N 
ATOM      9  H13 UNL     1      -0.021   5.211  12.743  1.00  0.00     0.205 HD
HETATM   10  N14 UNL     1       1.836   5.438  11.951  1.00  0.00    -0.275 N 
ATOM     11  H14 UNL     1       2.191   5.911  12.783  1.00  0.00     0.188 HD
ENDROOT
BRANCH   7  12
HETATM   12  N3  UNL     1      -1.327   4.004  10.942  1.00  0.00     0.093 N 
HETATM   13  N4  UNL     1      -1.786   3.081  11.797  1.00  0.00    -0.246 N 
HETATM   14  C5  UNL     1      -3.093   2.952  11.597  1.00  0.00     0.179 A 
ATOM     15  H4  UNL     1      -1.231   2.568  12.481  1.00  0.00     0.190 HD
HETATM   16  N10 UNL     1      -3.434   3.801  10.617  1.00  0.00    -0.170 N 
HETATM   17  C8  UNL     1      -2.343   4.470  10.191  1.00  0.00     0.720 A 
ATOM     18  H10 UNL     1      -4.377   3.923  10.248  1.00  0.00     0.186 HD
BRANCH  14  19
HETATM   19  C6  UNL     1      -4.018   2.046  12.319  1.00  0.00     0.177 C 
HETATM   20  N5  UNL     1      -4.982   1.291  11.624  1.00  0.00    -0.077 NA
HETATM   21  N6  UNL     1      -3.905   1.973  13.568  1.00  0.00    -0.283 N 
ATOM     22  H6  UNL     1      -3.168   2.562  13.954  1.00  0.00     0.188 HD
BRANCH  21  23
HETATM   23  N7  UNL     1      -4.580   1.259  14.492  1.00  0.00    -0.275 N 
HETATM   24  C7  UNL     1      -4.407   1.169  15.749  1.00  0.00     0.215 C 
HETATM   25  N8  UNL     1      -5.315   0.305  16.450  1.00  0.00    -0.065 NA
HETATM   26  N9  UNL     1      -3.429   1.826  16.515  1.00  0.00    -0.065 NA
ATOM     27  H7  UNL     1      -5.351   0.703  14.124  1.00  0.00     0.189 HD
ENDBRANCH  21  23
ENDBRANCH  14  19
BRANCH  17  28
HETATM   28  N11 UNL     1      -2.227   5.435   9.180  1.00  0.00    -0.189 N 
HETATM   29  C9  UNL     1      -2.367   6.864   9.386  1.00  0.00     0.170 C 
HETATM   30  C10 UNL     1      -1.875   7.534   8.146  1.00  0.00     0.254 C 
HETATM   31  N12 UNL     1      -1.198   6.486   7.413  1.00  0.00    -0.057 N 
HETATM   32  C11 UNL     1      -1.962   5.301   7.762  1.00  0.00     0.374 C 
ATOM     33 2H12 UNL     1      -1.107   6.656   6.411  1.00  0.00     0.279 HD
ATOM     34 1H12 UNL     1      -0.197   6.416   7.595  1.00  0.00     0.279 HD
ENDBRANCH  17  28
ENDBRANCH   7  12
TORSDOF 4
ENDMDL
MODEL 3
REMARK VINA RESULT: -7.536985727      4.223      7.212
REMARK  4 active torsions:
REMARK  status: ('A' for Active; 'I' for Inactive)
REMARK    1  A    between atoms: C4_7  and  N3_8 
REMARK    2  A    between atoms: C5_11  and  C6_12 
REMARK    3  A    between atoms: N6_14  and  N7_16 
REMARK    4  A    between atoms: C8_23  and  N11_24 
ROOT
HETATM    1  N1  UNL     1      -2.758  -2.845  11.239  1.00  0.00    -0.190 NA
HETATM    2  C1  UNL     1      -2.976  -1.697  11.268  1.00  0.00     0.120 C 
HETATM    3  C2  UNL     1      -3.232  -0.268  11.317  1.00  0.00     0.144 A 
HETATM    4  C3  UNL     1      -2.225   0.662  11.192  1.00  0.00     0.148 A 
HETATM    5  N2  UNL     1      -2.506   1.990  11.237  1.00  0.00    -0.195 N 
ATOM      6  H2  UNL     1      -1.746   2.664  11.142  1.00  0.00     0.183 HD
HETATM    7  C4  UNL     1      -3.763   2.433  11.404  1.00  0.00     0.733 A 
HETATM    8  N13 UNL     1      -4.731   1.513  11.524  1.00  0.00    -0.129 N 
ATOM      9  H13 UNL     1      -5.694   1.825  11.651  1.00  0.00     0.205 HD
HETATM   10  N14 UNL     1      -4.477   0.207  11.484  1.00  0.00    -0.275 N 
ATOM     11  H14 UNL     1      -5.250  -0.451  11.583  1.00  0.00     0.188 HD
ENDROOT
BRANCH   7  12
HETATM   12  N3  UNL     1      -4.136   3.808  11.439  1.00  0.00     0.093 N 
HETATM   13  N4  UNL     1      -4.280   4.573  10.350  1.00  0.00    -0.246 N 
HETATM   14  C5  UNL     1      -4.635   5.790  10.750  1.00  0.00     0.179 A 
ATOM     15  H4  UNL     1      -4.141   4.276   9.385  1.00  0.00     0.190 HD
HETATM   16  N10 UNL     1      -4.710   5.766  12.088  1.00  0.00    -0.170 N 
HETATM   17  C8  UNL     1      -4.401   4.533  12.541  1.00  0.00     0.720 A 
ATOM     18  H10 UNL     1      -4.963   6.560  12.676  1.00  0.00     0.186 HD
BRANCH  14  19
HETATM   19  C6  UNL     1      -4.906   6.965   9.887  1.00  0.00     0.177 C 
HETATM   20  N5  UNL     1      -4.143   8.143  10.006  1.00  0.00    -0.077 NA
HETATM   21  N6  UNL     1      -5.834   6.869   9.047  1.00  0.00    -0.283 N 
ATOM     22  H6  UNL     1      -6.309   5.966   9.053  1.00  0.00     0.188 HD
BRANCH  21  23
HETATM   23  N7  UNL     1      -6.319   7.739   8.138  1.00  0.00    -0.275 N 
HETATM   24  C7  UNL     1      -6.512   7.602   6.888  1.00  0.00     0.215 C 
HETATM   25  N8  UNL     1      -7.048   8.745   6.203  1.00  0.00    -0.065 NA
HETATM   26  N9  UNL     1      -6.258   6.455   6.117  1.00  0.00    -0.065 NA
ATOM     27  H7  UNL     1      -6.572   8.653   8.513  1.00  0.00     0.189 HD
ENDBRANCH  21  23
ENDBRANCH  14  19
BRANCH  17  28
HETATM   28  N11 UNL     1      -4.334   4.060  13.860  1.00  0.00    -0.189 N 
HETATM   29  C9  UNL     1      -5.415   3.378  14.545  1.00  0.00     0.170 C 
HETATM   30  C10 UNL     1      -4.838   2.783  15.787  1.00  0.00     0.254 C 
HETATM   31  N12 UNL     1      -3.406   2.887  15.606  1.00  0.00    -0.057 N 
HETATM   32  C11 UNL     1      -3.266   4.111  14.837  1.00  0.00     0.374 C 
ATOM     33 2H12 UNL     1      -2.864   2.861  16.470  1.00  0.00     0.279 HD
ATOM     34 1H12 UNL     1      -2.968   2.067  15.186  1.00  0.00     0.279 HD
ENDBRANCH  17  28
ENDBRANCH   7  12
TORSDOF 4
ENDMDL
MODEL 4
REMARK VINA RESULT: -7.525645064      2.424      3.707
REMARK  4 active torsions:
REMARK  status: ('A' for Active; 'I' for Inactive)
REMARK    1  A    between atoms: C4_7  and  N3_8 
REMARK    2  A    between atoms: C5_11  and  C6_12 
REMARK    3  A    between atoms: N6_14  and  N7_16 
REMARK    4  A    between atoms: C8_23  and  N11_24 
ROOT
HETATM    1  N1  UNL     1       5.103   7.199  12.405  1.00  0.00    -0.190 NA
HETATM    2  C1  UNL     1       4.030   6.767  12.236  1.00  0.00     0.120 C 
HETATM    3  C2  UNL     1       2.690   6.242  12.040  1.00  0.00     0.144 A 
HETATM    4  C3  UNL     1       1.586   7.060  11.961  1.00  0.00     0.148 A 
HETATM    5  N2  UNL     1       0.350   6.531  11.772  1.00  0.00    -0.195 N 
ATOM      6  H2  UNL     1      -0.456   7.153  11.716  1.00  0.00     0.183 HD
HETATM    7  C4  UNL     1       0.168   5.205  11.656  1.00  0.00     0.733 A 
HETATM    8  N13 UNL     1       1.255   4.423  11.736  1.00  0.00    -0.129 N 
ATOM      9  H13 UNL     1       1.142   3.412  11.651  1.00  0.00     0.205 HD
HETATM   10  N14 UNL     1       2.474   4.921  11.923  1.00  0.00    -0.275 N 
ATOM     11  H14 UNL     1       3.268   4.283  11.978  1.00  0.00     0.188 HD
ENDROOT
BRANCH   7  12
HETATM   12  N3  UNL     1      -1.093   4.579  11.435  1.00  0.00     0.093 N 
HETATM   13  N4  UNL     1      -1.840   4.035  12.403  1.00  0.00    -0.246 N 
HETATM   14  C5  UNL     1      -2.944   3.549  11.844  1.00  0.00     0.179 A 
ATOM     15  H4  UNL     1      -1.604   3.999  13.394  1.00  0.00     0.190 HD
HETATM   16  N10 UNL     1      -2.870   3.800  10.529  1.00  0.00    -0.170 N 
HETATM   17  C8  UNL     1      -1.718   4.445  10.250  1.00  0.00     0.720 A 
ATOM     18  H10 UNL     1      -3.578   3.542   9.842  1.00  0.00     0.186 HD
BRANCH  14  19
HETATM   19  C6  UNL     1      -4.060   2.859  12.534  1.00  0.00     0.177 C 
HETATM   20  N5  UNL     1      -5.364   2.880  12.003  1.00  0.00    -0.077 NA
HETATM   21  N6  UNL     1      -3.798   2.253  13.602  1.00  0.00    -0.283 N 
ATOM     22  H6  UNL     1      -2.818   2.306  13.881  1.00  0.00     0.188 HD
BRANCH  21  23
HETATM   23  N7  UNL     1      -4.574   1.547  14.449  1.00  0.00    -0.275 N 
HETATM   24  C7  UNL     1      -4.429   1.305  15.690  1.00  0.00     0.215 C 
HETATM   25  N8  UNL     1      -5.454   0.504  16.300  1.00  0.00    -0.065 NA
HETATM   26  N9  UNL     1      -3.380   1.740  16.517  1.00  0.00    -0.065 NA
ATOM     27  H7  UNL     1      -5.409   1.142  14.028  1.00  0.00     0.189 HD
ENDBRANCH  21  23
ENDBRANCH  14  19
BRANCH  17  28
HETATM   28  N11 UNL     1      -1.220   4.884   9.015  1.00  0.00    -0.189 N 
HETATM   29  C9  UNL     1      -0.166   4.223   8.270  1.00  0.00     0.170 C 
HETATM   30  C10 UNL     1      -0.156   4.821   6.903  1.00  0.00     0.254 C 
HETATM   31  N12 UNL     1      -1.390   5.574   6.828  1.00  0.00    -0.057 N 
HETATM   32  C11 UNL     1      -1.576   6.025   8.196  1.00  0.00     0.374 C 
ATOM     33 2H12 UNL     1      -1.395   6.317   6.129  1.00  0.00     0.279 HD
ATOM     34 1H12 UNL     1      -2.180   5.061   6.437  1.00  0.00     0.279 HD
ENDBRANCH  17  28
ENDBRANCH   7  12
TORSDOF 4
ENDMDL
MODEL 5
REMARK VINA RESULT: -7.498032454      2.536      3.232
REMARK  4 active torsions:
REMARK  status: ('A' for Active; 'I' for Inactive)
REMARK    1  A    between atoms: C4_7  and  N3_8 
REMARK    2  A    between atoms: C5_11  and  C6_12 
REMARK    3  A    between atoms: N6_14  and  N7_16 
REMARK    4  A    between atoms: C8_23  and  N11_24 
ROOT
HETATM    1  N1  UNL     1       5.339   5.595   9.644  1.00  0.00    -0.190 NA
HETATM    2  C1  UNL     1       4.231   5.300   9.870  1.00  0.00     0.120 C 
HETATM    3  C2  UNL     1       2.859   4.927  10.170  1.00  0.00     0.144 A 
HETATM    4  C3  UNL     1       2.234   5.309  11.335  1.00  0.00     0.148 A 
HETATM    5  N2  UNL     1       0.948   4.946  11.577  1.00  0.00    -0.195 N 
ATOM      6  H2  UNL     1       0.501   5.238  12.446  1.00  0.00     0.183 HD
HETATM    7  C4  UNL     1       0.253   4.209  10.694  1.00  0.00     0.733 A 
HETATM    8  N13 UNL     1       0.878   3.846   9.564  1.00  0.00    -0.129 N 
ATOM      9  H13 UNL     1       0.371   3.287   8.878  1.00  0.00     0.205 HD
HETATM   10  N14 UNL     1       2.138   4.191   9.309  1.00  0.00    -0.275 N 
ATOM     11  H14 UNL     1       2.567   3.886   8.436  1.00  0.00     0.188 HD
ENDROOT
BRANCH   7  12
HETATM   12  N3  UNL     1      -1.104   3.809  10.868  1.00  0.00     0.093 N 
HETATM   13  N4  UNL     1      -1.495   2.819  11.679  1.00  0.00    -0.246 N 
HETATM   14  C5  UNL     1      -2.818   2.723  11.598  1.00  0.00     0.179 A 
ATOM     15  H4  UNL     1      -0.886   2.242  12.258  1.00  0.00     0.190 HD
HETATM   16  N10 UNL     1      -3.235   3.659  10.734  1.00  0.00    -0.170 N 
HETATM   17  C8  UNL     1      -2.178   4.351  10.264  1.00  0.00     0.720 A 
ATOM     18  H10 UNL     1      -4.207   3.823  10.471  1.00  0.00     0.186 HD
BRANCH  14  19
HETATM   19  C6  UNL     1      -3.686   1.765  12.325  1.00  0.00     0.177 C 
HETATM   20  N5  UNL     1      -4.273   0.671  11.661  1.00  0.00    -0.077 NA
HETATM   21  N6  UNL     1      -3.872   1.964  13.551  1.00  0.00    -0.283 N 
ATOM     22  H6  UNL     1      -3.390   2.784  13.918  1.00  0.00     0.188 HD
BRANCH  21  23
HETATM   23  N7  UNL     1      -4.592   1.292  14.472  1.00  0.00    -0.275 N 
HETATM   24  C7  UNL     1      -4.433   1.195  15.731  1.00  0.00     0.215 C 
HETATM   25  N8  UNL     1      -5.394   0.385  16.428  1.00  0.00    -0.065 NA
HETATM   26  N9  UNL     1      -3.425   1.797  16.502  1.00  0.00    -0.065 NA
ATOM     27  H7  UNL     1      -5.392   0.779  14.100  1.00  0.00     0.189 HD
ENDBRANCH  21  23
ENDBRANCH  14  19
BRANCH  17  28
HETATM   28  N11 UNL     1      -2.143   5.401   9.334  1.00  0.00    -0.189 N 
HETATM   29  C9  UNL     1      -2.280   6.805   9.672  1.00  0.00     0.170 C 
HETATM   30  C10 UNL     1      -1.883   7.585   8.463  1.00  0.00     0.254 C 
HETATM   31  N12 UNL     1      -1.249   6.614   7.597  1.00  0.00    -0.057 N 
HETATM   32  C11 UNL     1      -1.977   5.393   7.895  1.00  0.00     0.374 C 
ATOM     33 2H12 UNL     1      -1.231   6.871   6.610  1.00  0.00     0.279 HD
ATOM     34 1H12 UNL     1      -0.237   6.544   7.703  1.00  0.00     0.279 HD
ENDBRANCH  17  28
ENDBRANCH   7  12
TORSDOF 4
ENDMDL
