MODEL 1
REMARK VINA RESULT: -8.359822528      0.000      0.000
REMARK  6 active torsions:
REMARK  status: ('A' for Active; 'I' for Inactive)
REMARK       I    between atoms: C2_2  and  N1_4 
REMARK    1  A    between atoms: C4_9  and  O3_10 
REMARK    2  A    between atoms: C5_12  and  S1_13 
REMARK    3  A    between atoms: S1_13  and  O4_14 
REMARK    4  A    between atoms: O4_14  and  N3_15 
REMARK    5  A    between atoms: C7_17  and  C8_18 
REMARK    6  A    between atoms: C8_18  and  O5_19 
ROOT
HETATM    1  C1  UNL     1      -4.594   0.533  11.466  1.00  0.00     0.118 C 
HETATM    2  C2  UNL     1      -3.378   1.226  10.984  1.00  0.00     0.231 C 
HETATM    3  O1  UNL     1      -2.469   0.566  10.366  1.00  0.00    -0.273 OA
HETATM    4  N1  UNL     1      -3.188   2.596  11.183  1.00  0.00    -0.197 N 
HETATM    5  C3  UNL     1      -2.037   3.151  10.705  1.00  0.00     0.338 A 
HETATM    6  O2  UNL     1      -1.167   2.459  10.100  1.00  0.00    -0.246 OA
HETATM    7  N2  UNL     1      -1.764   4.451  10.845  1.00  0.00    -0.287 N 
ATOM      8  H2  UNL     1      -0.898   4.847  10.480  1.00  0.00     0.172 HD
HETATM    9  C4  UNL     1      -2.665   5.221  11.483  1.00  0.00     0.169 A 
HETATM   10  C5  UNL     1      -3.837   4.717  11.984  1.00  0.00     0.150 A 
HETATM   11  C11 UNL     1      -4.080   3.359  11.814  1.00  0.00     0.281 A 
HETATM   12  O8  UNL     1      -5.169   2.936  12.290  1.00  0.00    -0.266 OA
ENDROOT
BRANCH  10  13
HETATM   13  S1  UNL     1      -4.982   5.787  12.813  1.00  0.00     0.071 SA
BRANCH  13  14
HETATM   14  O4  UNL     1      -4.836   5.675  14.532  1.00  0.00    -0.188 OA
BRANCH  14  15
HETATM   15  N3  UNL     1      -4.812   4.477  15.204  1.00  0.00    -0.167 N 
HETATM   16  C6  UNL     1      -5.916   3.900  15.732  1.00  0.00     0.144 A 
HETATM   17  C7  UNL     1      -5.869   2.696  16.406  1.00  0.00     0.051 A 
HETATM   18  C9  UNL     1      -4.664   2.046  16.556  1.00  0.00     0.259 A 
HETATM   19  O6  UNL     1      -4.583   0.957  17.159  1.00  0.00    -0.267 OA
HETATM   20  N4  UNL     1      -3.576   2.632  16.027  1.00  0.00    -0.273 N 
HETATM   21  C10 UNL     1      -3.656   3.816  15.370  1.00  0.00     0.354 A 
ATOM     22  H4  UNL     1      -2.669   2.176  16.122  1.00  0.00     0.173 HD
HETATM   23  O7  UNL     1      -2.594   4.300  14.903  1.00  0.00    -0.244 OA
BRANCH  17  24
HETATM   24  C8  UNL     1      -7.087   2.104  16.962  1.00  0.00     0.210 C 
BRANCH  24  25
HETATM   25  O5  UNL     1      -7.182   0.765  16.584  1.00  0.00    -0.396 OA
ATOM     26  H5  UNL     1      -8.070   0.452  16.717  1.00  0.00     0.209 HD
ENDBRANCH  24  25
ENDBRANCH  17  24
ENDBRANCH  14  15
ENDBRANCH  13  14
ENDBRANCH  10  13
BRANCH   9  27
HETATM   27  O3  UNL     1      -2.376   6.585  11.629  1.00  0.00    -0.345 OA
ATOM     28  H3  UNL     1      -3.040   7.212  11.367  1.00  0.00     0.219 HD
ENDBRANCH   9  27
TORSDOF 6
ENDMDL
MODEL 2
REMARK VINA RESULT: -7.874661427      1.339      5.350
REMARK  6 active torsions:
REMARK  status: ('A' for Active; 'I' for Inactive)
REMARK       I    between atoms: C2_2  and  N1_4 
REMARK    1  A    between atoms: C4_9  and  O3_10 
REMARK    2  A    between atoms: C5_12  and  S1_13 
REMARK    3  A    between atoms: S1_13  and  O4_14 
REMARK    4  A    between atoms: O4_14  and  N3_15 
REMARK    5  A    between atoms: C7_17  and  C8_18 
REMARK    6  A    between atoms: C8_18  and  O5_19 
ROOT
HETATM    1  C1  UNL     1      -7.874   1.733  16.716  1.00  0.00     0.118 C 
HETATM    2  C2  UNL     1      -6.426   1.436  16.793  1.00  0.00     0.231 C 
HETATM    3  O1  UNL     1      -6.022   0.379  17.396  1.00  0.00    -0.273 OA
HETATM    4  N1  UNL     1      -5.473   2.282  16.220  1.00  0.00    -0.197 N 
HETATM    5  C3  UNL     1      -4.161   1.929  16.339  1.00  0.00     0.338 A 
HETATM    6  O2  UNL     1      -3.809   0.874  16.945  1.00  0.00    -0.246 OA
HETATM    7  N2  UNL     1      -3.177   2.672  15.826  1.00  0.00    -0.287 N 
ATOM      8  H2  UNL     1      -2.201   2.391  15.926  1.00  0.00     0.172 HD
HETATM    9  C4  UNL     1      -3.510   3.801  15.175  1.00  0.00     0.169 A 
HETATM   10  C5  UNL     1      -4.812   4.204  15.025  1.00  0.00     0.150 A 
HETATM   11  C11 UNL     1      -5.803   3.400  15.575  1.00  0.00     0.281 A 
HETATM   12  O8  UNL     1      -6.987   3.807  15.415  1.00  0.00    -0.266 OA
ENDROOT
BRANCH  10  13
HETATM   13  S1  UNL     1      -5.183   5.703  14.154  1.00  0.00     0.071 SA
BRANCH  13  14
HETATM   14  O4  UNL     1      -4.956   5.528  12.450  1.00  0.00    -0.188 OA
BRANCH  14  15
HETATM   15  N3  UNL     1      -4.241   4.497  11.891  1.00  0.00    -0.167 N 
HETATM   16  C6  UNL     1      -4.750   3.259  11.697  1.00  0.00     0.144 A 
HETATM   17  C7  UNL     1      -4.013   2.237  11.135  1.00  0.00     0.051 A 
HETATM   18  C9  UNL     1      -2.709   2.468  10.753  1.00  0.00     0.259 A 
HETATM   19  O6  UNL     1      -2.012   1.568  10.242  1.00  0.00    -0.267 OA
HETATM   20  N4  UNL     1      -2.217   3.702  10.953  1.00  0.00    -0.273 N 
HETATM   21  C10 UNL     1      -2.968   4.686  11.508  1.00  0.00     0.354 A 
ATOM     22  H4  UNL     1      -1.254   3.904  10.682  1.00  0.00     0.173 HD
HETATM   23  O7  UNL     1      -2.436   5.813  11.662  1.00  0.00    -0.244 OA
BRANCH  17  24
HETATM   24  C8  UNL     1      -4.602   0.911  10.940  1.00  0.00     0.210 C 
BRANCH  24  25
HETATM   25  O5  UNL     1      -4.685   0.621   9.580  1.00  0.00    -0.396 OA
ATOM     26  H5  UNL     1      -5.197   1.287   9.135  1.00  0.00     0.209 HD
ENDBRANCH  24  25
ENDBRANCH  17  24
ENDBRANCH  14  15
ENDBRANCH  13  14
ENDBRANCH  10  13
BRANCH   9  27
HETATM   27  O3  UNL     1      -2.475   4.580  14.637  1.00  0.00    -0.345 OA
ATOM     28  H3  UNL     1      -2.360   4.577  13.694  1.00  0.00     0.219 HD
ENDBRANCH   9  27
TORSDOF 6
ENDMDL
MODEL 3
REMARK VINA RESULT: -7.769531435      2.775      6.243
REMARK  6 active torsions:
REMARK  status: ('A' for Active; 'I' for Inactive)
REMARK       I    between atoms: C2_2  and  N1_4 
REMARK    1  A    between atoms: C4_9  and  O3_10 
REMARK    2  A    between atoms: C5_12  and  S1_13 
REMARK    3  A    between atoms: S1_13  and  O4_14 
REMARK    4  A    between atoms: O4_14  and  N3_15 
REMARK    5  A    between atoms: C7_17  and  C8_18 
REMARK    6  A    between atoms: C8_18  and  O5_19 
ROOT
HETATM    1  C1  UNL     1      -7.731   1.587  17.140  1.00  0.00     0.118 C 
HETATM    2  C2  UNL     1      -6.305   1.269  16.902  1.00  0.00     0.231 C 
HETATM    3  O1  UNL     1      -5.842   0.122  17.239  1.00  0.00    -0.273 OA
HETATM    4  N1  UNL     1      -5.437   2.191  16.312  1.00  0.00    -0.197 N 
HETATM    5  C3  UNL     1      -4.140   1.812  16.130  1.00  0.00     0.338 A 
HETATM    6  O2  UNL     1      -3.726   0.667  16.479  1.00  0.00    -0.246 OA
HETATM    7  N2  UNL     1      -3.234   2.621  15.575  1.00  0.00    -0.287 N 
ATOM      8  H2  UNL     1      -2.268   2.319  15.447  1.00  0.00     0.172 HD
HETATM    9  C4  UNL     1      -3.633   3.847  15.189  1.00  0.00     0.169 A 
HETATM   10  C5  UNL     1      -4.925   4.281  15.348  1.00  0.00     0.150 A 
HETATM   11  C11 UNL     1      -5.833   3.405  15.930  1.00  0.00     0.281 A 
HETATM   12  O8  UNL     1      -7.009   3.843  16.057  1.00  0.00    -0.266 OA
ENDROOT
BRANCH  10  13
HETATM   13  S1  UNL     1      -5.386   5.909  14.817  1.00  0.00     0.071 SA
BRANCH  13  14
HETATM   14  O4  UNL     1      -4.353   6.491  13.560  1.00  0.00    -0.188 OA
BRANCH  14  15
HETATM   15  N3  UNL     1      -4.739   6.558  12.244  1.00  0.00    -0.167 N 
HETATM   16  C6  UNL     1      -5.557   7.520  11.758  1.00  0.00     0.144 A 
HETATM   17  C7  UNL     1      -5.933   7.568  10.431  1.00  0.00     0.051 A 
HETATM   18  C9  UNL     1      -5.470   6.610   9.556  1.00  0.00     0.259 A 
HETATM   19  O6  UNL     1      -5.789   6.621   8.350  1.00  0.00    -0.267 OA
HETATM   20  N4  UNL     1      -4.659   5.660  10.054  1.00  0.00    -0.273 N 
HETATM   21  C10 UNL     1      -4.307   5.641  11.364  1.00  0.00     0.354 A 
ATOM     22  H4  UNL     1      -4.300   4.936   9.432  1.00  0.00     0.173 HD
HETATM   23  O7  UNL     1      -3.545   4.721  11.752  1.00  0.00    -0.244 OA
BRANCH  17  24
HETATM   24  C8  UNL     1      -6.820   8.627   9.944  1.00  0.00     0.210 C 
BRANCH  24  25
HETATM   25  O5  UNL     1      -7.953   8.067   9.356  1.00  0.00    -0.396 OA
ATOM     26  H5  UNL     1      -7.810   7.142   9.189  1.00  0.00     0.209 HD
ENDBRANCH  24  25
ENDBRANCH  17  24
ENDBRANCH  14  15
ENDBRANCH  13  14
ENDBRANCH  10  13
BRANCH   9  27
HETATM   27  O3  UNL     1      -2.682   4.696  14.607  1.00  0.00    -0.345 OA
ATOM     28  H3  UNL     1      -2.796   5.633  14.714  1.00  0.00     0.219 HD
ENDBRANCH   9  27
TORSDOF 6
ENDMDL
MODEL 4
REMARK VINA RESULT: -7.734117076      3.021      4.607
REMARK  6 active torsions:
REMARK  status: ('A' for Active; 'I' for Inactive)
REMARK       I    between atoms: C2_2  and  N1_4 
REMARK    1  A    between atoms: C4_9  and  O3_10 
REMARK    2  A    between atoms: C5_12  and  S1_13 
REMARK    3  A    between atoms: S1_13  and  O4_14 
REMARK    4  A    between atoms: O4_14  and  N3_15 
REMARK    5  A    between atoms: C7_17  and  C8_18 
REMARK    6  A    between atoms: C8_18  and  O5_19 
ROOT
HETATM    1  C1  UNL     1       2.993   6.313  12.509  1.00  0.00     0.118 C 
HETATM    2  C2  UNL     1       2.777   5.397  11.365  1.00  0.00     0.231 C 
HETATM    3  O1  UNL     1       3.783   4.873  10.768  1.00  0.00    -0.273 OA
HETATM    4  N1  UNL     1       1.494   5.081  10.913  1.00  0.00    -0.197 N 
HETATM    5  C3  UNL     1       1.389   4.229   9.854  1.00  0.00     0.338 A 
HETATM    6  O2  UNL     1       2.412   3.735   9.294  1.00  0.00    -0.246 OA
HETATM    7  N2  UNL     1       0.207   3.866   9.348  1.00  0.00    -0.287 N 
ATOM      8  H2  UNL     1       0.149   3.226   8.556  1.00  0.00     0.172 HD
HETATM    9  C4  UNL     1      -0.905   4.369   9.915  1.00  0.00     0.169 A 
HETATM   10  C5  UNL     1      -0.859   5.231  10.982  1.00  0.00     0.150 A 
HETATM   11  C11 UNL     1       0.393   5.580  11.475  1.00  0.00     0.281 A 
HETATM   12  O8  UNL     1       0.391   6.374  12.455  1.00  0.00    -0.266 OA
ENDROOT
BRANCH  10  13
HETATM   13  S1  UNL     1      -2.362   5.857  11.683  1.00  0.00     0.071 SA
BRANCH  13  14
HETATM   14  O4  UNL     1      -3.686   4.776  11.432  1.00  0.00    -0.188 OA
BRANCH  14  15
HETATM   15  N3  UNL     1      -3.942   3.703  12.250  1.00  0.00    -0.167 N 
HETATM   16  C6  UNL     1      -3.931   3.779  13.601  1.00  0.00     0.144 A 
HETATM   17  C7  UNL     1      -4.190   2.687  14.405  1.00  0.00     0.051 A 
HETATM   18  C9  UNL     1      -4.472   1.468  13.827  1.00  0.00     0.259 A 
HETATM   19  O6  UNL     1      -4.711   0.459  14.522  1.00  0.00    -0.267 OA
HETATM   20  N4  UNL     1      -4.478   1.407  12.485  1.00  0.00    -0.273 N 
HETATM   21  C10 UNL     1      -4.220   2.499  11.723  1.00  0.00     0.354 A 
ATOM     22  H4  UNL     1      -4.682   0.519  12.028  1.00  0.00     0.173 HD
HETATM   23  O7  UNL     1      -4.246   2.362  10.474  1.00  0.00    -0.244 OA
BRANCH  17  24
HETATM   24  C8  UNL     1      -4.169   2.811  15.863  1.00  0.00     0.210 C 
BRANCH  24  25
HETATM   25  O5  UNL     1      -3.164   2.006  16.396  1.00  0.00    -0.396 OA
ATOM     26  H5  UNL     1      -2.450   2.545  16.716  1.00  0.00     0.209 HD
ENDBRANCH  24  25
ENDBRANCH  17  24
ENDBRANCH  14  15
ENDBRANCH  13  14
ENDBRANCH  10  13
BRANCH   9  27
HETATM   27  O3  UNL     1      -2.145   3.988   9.383  1.00  0.00    -0.345 OA
ATOM     28  H3  UNL     1      -2.861   4.609   9.433  1.00  0.00     0.219 HD
ENDBRANCH   9  27
TORSDOF 6
ENDMDL
MODEL 5
REMARK VINA RESULT: -7.717632225      0.827      2.445
REMARK  6 active torsions:
REMARK  status: ('A' for Active; 'I' for Inactive)
REMARK       I    between atoms: C2_2  and  N1_4 
REMARK    1  A    between atoms: C4_9  and  O3_10 
REMARK    2  A    between atoms: C5_12  and  S1_13 
REMARK    3  A    between atoms: S1_13  and  O4_14 
REMARK    4  A    between atoms: O4_14  and  N3_15 
REMARK    5  A    between atoms: C7_17  and  C8_18 
REMARK    6  A    between atoms: C8_18  and  O5_19 
ROOT
HETATM    1  C1  UNL     1       0.044   5.425  10.586  1.00  0.00     0.118 C 
HETATM    2  C2  UNL     1      -0.574   4.084  10.477  1.00  0.00     0.231 C 
HETATM    3  O1  UNL     1       0.079   3.122   9.938  1.00  0.00    -0.273 OA
HETATM    4  N1  UNL     1      -1.863   3.830  10.952  1.00  0.00    -0.197 N 
HETATM    5  C3  UNL     1      -2.352   2.565  10.810  1.00  0.00     0.338 A 
HETATM    6  O2  UNL     1      -1.670   1.645  10.270  1.00  0.00    -0.246 OA
HETATM    7  N2  UNL     1      -3.572   2.223  11.232  1.00  0.00    -0.287 N 
ATOM      8  H2  UNL     1      -3.920   1.271  11.117  1.00  0.00     0.172 HD
HETATM    9  C4  UNL     1      -4.329   3.172  11.813  1.00  0.00     0.169 A 
HETATM   10  C5  UNL     1      -3.889   4.461  11.981  1.00  0.00     0.150 A 
HETATM   11  C11 UNL     1      -2.613   4.770  11.527  1.00  0.00     0.281 A 
HETATM   12  O8  UNL     1      -2.247   5.965  11.701  1.00  0.00    -0.266 OA
ENDROOT
BRANCH  10  13
HETATM   13  S1  UNL     1      -4.937   5.664  12.755  1.00  0.00     0.071 SA
BRANCH  13  14
HETATM   14  O4  UNL     1      -4.826   5.597  14.478  1.00  0.00    -0.188 OA
BRANCH  14  15
HETATM   15  N3  UNL     1      -4.823   4.419  15.184  1.00  0.00    -0.167 N 
HETATM   16  C6  UNL     1      -5.941   3.862  15.703  1.00  0.00     0.144 A 
HETATM   17  C7  UNL     1      -5.916   2.676  16.410  1.00  0.00     0.051 A 
HETATM   18  C9  UNL     1      -4.718   2.025  16.605  1.00  0.00     0.259 A 
HETATM   19  O6  UNL     1      -4.657   0.952  17.239  1.00  0.00    -0.267 OA
HETATM   20  N4  UNL     1      -3.616   2.591  16.084  1.00  0.00    -0.273 N 
HETATM   21  C10 UNL     1      -3.674   3.757  15.393  1.00  0.00     0.354 A 
ATOM     22  H4  UNL     1      -2.713   2.134  16.212  1.00  0.00     0.173 HD
HETATM   23  O7  UNL     1      -2.600   4.223  14.938  1.00  0.00    -0.244 OA
BRANCH  17  24
HETATM   24  C8  UNL     1      -7.149   2.106  16.954  1.00  0.00     0.210 C 
BRANCH  24  25
HETATM   25  O5  UNL     1      -7.261   0.767  16.582  1.00  0.00    -0.396 OA
ATOM     26  H5  UNL     1      -6.897   0.209  17.260  1.00  0.00     0.209 HD
ENDBRANCH  24  25
ENDBRANCH  17  24
ENDBRANCH  14  15
ENDBRANCH  13  14
ENDBRANCH  10  13
BRANCH   9  27
HETATM   27  O3  UNL     1      -5.610   2.813  12.255  1.00  0.00    -0.345 OA
ATOM     28  H3  UNL     1      -5.682   2.104  12.882  1.00  0.00     0.219 HD
ENDBRANCH   9  27
TORSDOF 6
ENDMDL
