MODEL 1
REMARK VINA RESULT: -8.717994305      0.000      0.000
REMARK  6 active torsions:
REMARK  status: ('A' for Active; 'I' for Inactive)
REMARK       I    between atoms: C1_2  and  N2_4 
REMARK    1  A    between atoms: N2_4  and  O2_6 
REMARK    2  A    between atoms: O2_6  and  C2_7 
REMARK       I    between atoms: C2_7  and  N3_9 
REMARK    3  A    between atoms: N3_9  and  N4_10 
REMARK       I    between atoms: N4_10  and  C3_12 
REMARK    4  A    between atoms: C3_12  and  C4_14 
REMARK    5  A    between atoms: N5_16  and  C6_17 
REMARK    6  A    between atoms: C9_20  and  N6_21 
ROOT
HETATM    1  C4  UNL     1      -1.006   4.183   9.820  1.00  0.00     0.137 A 
HETATM    2  C5  UNL     1      -1.435   3.296  10.804  1.00  0.00     0.155 A 
HETATM    3  N5  UNL     1      -2.544   3.814  11.427  1.00  0.00    -0.248 N 
HETATM    4  N9  UNL     1      -2.785   4.981  10.832  1.00  0.00    -0.235 N 
ATOM      5  H9  UNL     1      -3.554   5.602  11.081  1.00  0.00     0.209 HD
HETATM    6  N10 UNL     1      -1.908   5.235   9.881  1.00  0.00    -0.279 N 
ATOM      7  H10 UNL     1      -1.895   6.066   9.290  1.00  0.00     0.189 HD
ENDROOT
BRANCH   1   8
HETATM    8  C3  UNL     1       0.202   4.198   9.001  1.00  0.00     0.299 C 
HETATM    9  N4  UNL     1       1.471   3.842   9.621  1.00  0.00    -0.192 N 
ATOM     10  H4  UNL     1       1.448   3.514  10.587  1.00  0.00     0.205 HD
HETATM   11  O4  UNL     1       0.141   4.533   7.788  1.00  0.00    -0.263 OA
BRANCH   9  12
HETATM   12  N3  UNL     1       2.615   3.908   9.046  1.00  0.00    -0.254 NA
HETATM   13  C2  UNL     1       3.859   3.992   8.417  1.00  0.00     0.480 C 
HETATM   14  O3  UNL     1       4.372   4.948   7.828  1.00  0.00    -0.217 OA
BRANCH  13  15
HETATM   15  O2  UNL     1       4.682   2.819   8.462  1.00  0.00    -0.164 OA
BRANCH  15  16
HETATM   16  N2  UNL     1       5.542   2.660   7.420  1.00  0.00    -0.207 N 
HETATM   17  C1  UNL     1       5.535   1.710   6.438  1.00  0.00     0.352 C 
HETATM   18  N1  UNL     1       6.661   1.950   5.473  1.00  0.00    -0.038 NA
HETATM   19  O1  UNL     1       4.838   0.747   6.171  1.00  0.00    -0.249 OA
ATOM     20  H2  UNL     1       6.296   3.343   7.365  1.00  0.00     0.199 HD
ENDBRANCH  15  16
ENDBRANCH  13  15
ENDBRANCH   9  12
ENDBRANCH   1   8
BRANCH   3  21
HETATM   21  C6  UNL     1      -3.249   3.246  12.529  1.00  0.00     0.096 A 
HETATM   22  C7  UNL     1      -3.347   4.016  13.693  1.00  0.00     0.037 A 
HETATM   23  C8  UNL     1      -4.011   3.566  14.812  1.00  0.00     0.034 A 
HETATM   24  C9  UNL     1      -4.593   2.322  14.785  1.00  0.00     0.057 A 
HETATM   25  C12 UNL     1      -4.500   1.562  13.632  1.00  0.00     0.075 A 
HETATM   26  C13 UNL     1      -3.837   2.021  12.523  1.00  0.00     0.147 A 
HETATM   27  F1  UNL     1      -3.776   1.239  11.399  1.00  0.00    -0.204 F 
BRANCH  24  28
HETATM   28  N6  UNL     1      -5.245   1.780  15.905  1.00  0.00    -0.250 N 
HETATM   29  C10 UNL     1      -6.350   2.244  16.535  1.00  0.00     0.132 A 
HETATM   30  C11 UNL     1      -6.672   1.409  17.599  1.00  0.00     0.123 A 
HETATM   31  N7  UNL     1      -5.724   0.444  17.579  1.00  0.00    -0.294 N 
HETATM   32  N8  UNL     1      -4.888   0.672  16.575  1.00  0.00    -0.016 NA
ATOM     33  H7  UNL     1      -5.661  -0.336  18.232  1.00  0.00     0.183 HD
ENDBRANCH  24  28
ENDBRANCH   3  21
TORSDOF 6
ENDMDL
MODEL 2
REMARK VINA RESULT: -8.675951559      0.957      1.310
REMARK  6 active torsions:
REMARK  status: ('A' for Active; 'I' for Inactive)
REMARK       I    between atoms: C1_2  and  N2_4 
REMARK    1  A    between atoms: N2_4  and  O2_6 
REMARK    2  A    between atoms: O2_6  and  C2_7 
REMARK       I    between atoms: C2_7  and  N3_9 
REMARK    3  A    between atoms: N3_9  and  N4_10 
REMARK       I    between atoms: N4_10  and  C3_12 
REMARK    4  A    between atoms: C3_12  and  C4_14 
REMARK    5  A    between atoms: N5_16  and  C6_17 
REMARK    6  A    between atoms: C9_20  and  N6_21 
ROOT
HETATM    1  C4  UNL     1      -0.992   4.251   9.820  1.00  0.00     0.137 A 
HETATM    2  C5  UNL     1      -1.403   3.422  10.861  1.00  0.00     0.155 A 
HETATM    3  N5  UNL     1      -2.482   3.990  11.493  1.00  0.00    -0.248 N 
HETATM    4  N9  UNL     1      -2.723   5.130  10.849  1.00  0.00    -0.235 N 
ATOM      5  H9  UNL     1      -3.473   5.777  11.092  1.00  0.00     0.209 HD
HETATM    6  N10 UNL     1      -1.874   5.321   9.858  1.00  0.00    -0.279 N 
ATOM      7  H10 UNL     1      -1.868   6.121   9.226  1.00  0.00     0.189 HD
ENDROOT
BRANCH   1   8
HETATM    8  C3  UNL     1       0.187   4.204   8.962  1.00  0.00     0.299 C 
HETATM    9  N4  UNL     1       1.470   3.851   9.557  1.00  0.00    -0.192 N 
ATOM     10  H4  UNL     1       1.473   3.569  10.537  1.00  0.00     0.205 HD
HETATM   11  O4  UNL     1       0.092   4.484   7.737  1.00  0.00    -0.263 OA
BRANCH   9  12
HETATM   12  N3  UNL     1       2.595   3.867   8.942  1.00  0.00    -0.254 NA
HETATM   13  C2  UNL     1       3.818   3.897   8.268  1.00  0.00     0.480 C 
HETATM   14  O3  UNL     1       4.294   4.785   7.556  1.00  0.00    -0.217 OA
BRANCH  13  15
HETATM   15  O2  UNL     1       4.664   2.751   8.423  1.00  0.00    -0.164 OA
BRANCH  15  16
HETATM   16  N2  UNL     1       5.547   2.526   7.413  1.00  0.00    -0.207 N 
HETATM   17  C1  UNL     1       5.521   1.560   6.448  1.00  0.00     0.352 C 
HETATM   18  N1  UNL     1       6.688   1.721   5.517  1.00  0.00    -0.038 NA
HETATM   19  O1  UNL     1       4.781   0.630   6.175  1.00  0.00    -0.249 OA
ATOM     20  H2  UNL     1       6.338   3.168   7.371  1.00  0.00     0.199 HD
ENDBRANCH  15  16
ENDBRANCH  13  15
ENDBRANCH   9  12
ENDBRANCH   1   8
BRANCH   3  21
HETATM   21  C6  UNL     1      -3.158   3.490  12.645  1.00  0.00     0.096 A 
HETATM   22  C7  UNL     1      -3.689   2.197  12.565  1.00  0.00     0.037 A 
HETATM   23  C8  UNL     1      -4.355   1.616  13.621  1.00  0.00     0.034 A 
HETATM   24  C9  UNL     1      -4.502   2.326  14.787  1.00  0.00     0.057 A 
HETATM   25  C12 UNL     1      -3.971   3.602  14.868  1.00  0.00     0.075 A 
HETATM   26  C13 UNL     1      -3.311   4.171  13.810  1.00  0.00     0.147 A 
HETATM   27  F1  UNL     1      -2.794   5.434  13.936  1.00  0.00    -0.204 F 
BRANCH  24  28
HETATM   28  N6  UNL     1      -5.209   1.814  15.887  1.00  0.00    -0.250 N 
HETATM   29  C10 UNL     1      -6.298   2.339  16.499  1.00  0.00     0.132 A 
HETATM   30  C11 UNL     1      -6.693   1.515  17.547  1.00  0.00     0.123 A 
HETATM   31  N7  UNL     1      -5.804   0.494  17.536  1.00  0.00    -0.294 N 
HETATM   32  N8  UNL     1      -4.935   0.681  16.553  1.00  0.00    -0.016 NA
ATOM     33  H7  UNL     1      -5.803  -0.295  18.183  1.00  0.00     0.183 HD
ENDBRANCH  24  28
ENDBRANCH   3  21
TORSDOF 6
ENDMDL
MODEL 3
REMARK VINA RESULT: -8.485575215      1.400      2.154
REMARK  6 active torsions:
REMARK  status: ('A' for Active; 'I' for Inactive)
REMARK       I    between atoms: C1_2  and  N2_4 
REMARK    1  A    between atoms: N2_4  and  O2_6 
REMARK    2  A    between atoms: O2_6  and  C2_7 
REMARK       I    between atoms: C2_7  and  N3_9 
REMARK    3  A    between atoms: N3_9  and  N4_10 
REMARK       I    between atoms: N4_10  and  C3_12 
REMARK    4  A    between atoms: C3_12  and  C4_14 
REMARK    5  A    between atoms: N5_16  and  C6_17 
REMARK    6  A    between atoms: C9_20  and  N6_21 
ROOT
HETATM    1  C4  UNL     1      -0.876   4.203   9.832  1.00  0.00     0.137 A 
HETATM    2  C5  UNL     1      -1.385   3.297  10.761  1.00  0.00     0.155 A 
HETATM    3  N5  UNL     1      -2.395   3.898  11.472  1.00  0.00    -0.248 N 
HETATM    4  N9  UNL     1      -2.500   5.131  10.983  1.00  0.00    -0.235 N 
ATOM      5  H9  UNL     1      -3.173   5.823  11.315  1.00  0.00     0.209 HD
HETATM    6  N10 UNL     1      -1.630   5.352  10.017  1.00  0.00    -0.279 N 
ATOM      7  H10 UNL     1      -1.529   6.222   9.494  1.00  0.00     0.189 HD
ENDROOT
BRANCH   1   8
HETATM    8  C3  UNL     1       0.295   4.133   8.964  1.00  0.00     0.299 C 
HETATM    9  N4  UNL     1       1.596   3.873   9.566  1.00  0.00    -0.192 N 
ATOM     10  H4  UNL     1       1.621   3.667  10.565  1.00  0.00     0.205 HD
HETATM   11  O4  UNL     1       0.176   4.315   7.724  1.00  0.00    -0.263 OA
BRANCH   9  12
HETATM   12  N3  UNL     1       2.713   3.883   8.937  1.00  0.00    -0.254 NA
HETATM   13  C2  UNL     1       3.923   3.895   8.240  1.00  0.00     0.480 C 
HETATM   14  O3  UNL     1       4.122   3.892   7.022  1.00  0.00    -0.217 OA
BRANCH  13  15
HETATM   15  O2  UNL     1       5.119   3.932   9.030  1.00  0.00    -0.164 OA
BRANCH  15  16
HETATM   16  N2  UNL     1       5.964   4.967   8.777  1.00  0.00    -0.207 N 
HETATM   17  C1  UNL     1       5.980   6.217   9.327  1.00  0.00     0.352 C 
HETATM   18  N1  UNL     1       7.122   7.018   8.769  1.00  0.00    -0.038 NA
HETATM   19  O1  UNL     1       5.303   6.809  10.150  1.00  0.00    -0.249 OA
ATOM     20  H2  UNL     1       6.685   4.785   8.080  1.00  0.00     0.199 HD
ENDBRANCH  15  16
ENDBRANCH  13  15
ENDBRANCH   9  12
ENDBRANCH   1   8
BRANCH   3  21
HETATM   21  C6  UNL     1      -3.130   3.332  12.554  1.00  0.00     0.096 A 
HETATM   22  C7  UNL     1      -3.253   4.102  13.717  1.00  0.00     0.037 A 
HETATM   23  C8  UNL     1      -3.947   3.654  14.819  1.00  0.00     0.034 A 
HETATM   24  C9  UNL     1      -4.536   2.414  14.775  1.00  0.00     0.057 A 
HETATM   25  C12 UNL     1      -4.419   1.655  13.623  1.00  0.00     0.075 A 
HETATM   26  C13 UNL     1      -3.725   2.111  12.532  1.00  0.00     0.147 A 
HETATM   27  F1  UNL     1      -3.641   1.330  11.409  1.00  0.00    -0.204 F 
BRANCH  24  28
HETATM   28  N6  UNL     1      -5.219   1.874  15.877  1.00  0.00    -0.250 N 
HETATM   29  C10 UNL     1      -6.321   2.360  16.498  1.00  0.00     0.132 A 
HETATM   30  C11 UNL     1      -6.681   1.519  17.545  1.00  0.00     0.123 A 
HETATM   31  N7  UNL     1      -5.759   0.529  17.525  1.00  0.00    -0.294 N 
HETATM   32  N8  UNL     1      -4.902   0.748  16.537  1.00  0.00    -0.016 NA
ATOM     33  H7  UNL     1      -5.727  -0.261  18.169  1.00  0.00     0.183 HD
ENDBRANCH  24  28
ENDBRANCH   3  21
TORSDOF 6
ENDMDL
MODEL 4
REMARK VINA RESULT: -8.461714565      1.689      2.523
REMARK  6 active torsions:
REMARK  status: ('A' for Active; 'I' for Inactive)
REMARK       I    between atoms: C1_2  and  N2_4 
REMARK    1  A    between atoms: N2_4  and  O2_6 
REMARK    2  A    between atoms: O2_6  and  C2_7 
REMARK       I    between atoms: C2_7  and  N3_9 
REMARK    3  A    between atoms: N3_9  and  N4_10 
REMARK       I    between atoms: N4_10  and  C3_12 
REMARK    4  A    between atoms: C3_12  and  C4_14 
REMARK    5  A    between atoms: N5_16  and  C6_17 
REMARK    6  A    between atoms: C9_20  and  N6_21 
ROOT
HETATM    1  C4  UNL     1      -0.939   4.239   9.843  1.00  0.00     0.137 A 
HETATM    2  C5  UNL     1      -1.378   3.405  10.869  1.00  0.00     0.155 A 
HETATM    3  N5  UNL     1      -2.426   4.004  11.522  1.00  0.00    -0.248 N 
HETATM    4  N9  UNL     1      -2.622   5.167  10.906  1.00  0.00    -0.235 N 
ATOM      5  H9  UNL     1      -3.343   5.840  11.169  1.00  0.00     0.209 HD
HETATM    6  N10 UNL     1      -1.774   5.345   9.913  1.00  0.00    -0.279 N 
ATOM      7  H10 UNL     1      -1.738   6.158   9.298  1.00  0.00     0.189 HD
ENDROOT
BRANCH   1   8
HETATM    8  C3  UNL     1       0.231   4.161   8.975  1.00  0.00     0.299 C 
HETATM    9  N4  UNL     1       1.532   3.898   9.577  1.00  0.00    -0.192 N 
ATOM     10  H4  UNL     1       1.556   3.696  10.577  1.00  0.00     0.205 HD
HETATM   11  O4  UNL     1       0.112   4.338   7.733  1.00  0.00    -0.263 OA
BRANCH   9  12
HETATM   12  N3  UNL     1       2.648   3.901   8.947  1.00  0.00    -0.254 NA
HETATM   13  C2  UNL     1       3.858   3.905   8.249  1.00  0.00     0.480 C 
HETATM   14  O3  UNL     1       4.055   3.914   7.031  1.00  0.00    -0.217 OA
BRANCH  13  15
HETATM   15  O2  UNL     1       5.054   3.916   9.038  1.00  0.00    -0.164 OA
BRANCH  15  16
HETATM   16  N2  UNL     1       5.902   4.956   8.815  1.00  0.00    -0.207 N 
HETATM   17  C1  UNL     1       5.912   6.195   9.388  1.00  0.00     0.352 C 
HETATM   18  N1  UNL     1       7.059   7.006   8.858  1.00  0.00    -0.038 NA
HETATM   19  O1  UNL     1       5.225   6.771  10.215  1.00  0.00    -0.249 OA
ATOM     20  H2  UNL     1       6.631   4.787   8.123  1.00  0.00     0.199 HD
ENDBRANCH  15  16
ENDBRANCH  13  15
ENDBRANCH   9  12
ENDBRANCH   1   8
BRANCH   3  21
HETATM   21  C6  UNL     1      -3.115   3.507  12.668  1.00  0.00     0.096 A 
HETATM   22  C7  UNL     1      -3.672   2.226  12.575  1.00  0.00     0.037 A 
HETATM   23  C8  UNL     1      -4.351   1.649  13.625  1.00  0.00     0.034 A 
HETATM   24  C9  UNL     1      -4.488   2.352  14.797  1.00  0.00     0.057 A 
HETATM   25  C12 UNL     1      -3.932   3.616  14.890  1.00  0.00     0.075 A 
HETATM   26  C13 UNL     1      -3.257   4.181  13.839  1.00  0.00     0.147 A 
HETATM   27  F1  UNL     1      -2.716   5.433  13.977  1.00  0.00    -0.204 F 
BRANCH  24  28
HETATM   28  N6  UNL     1      -5.207   1.844  15.890  1.00  0.00    -0.250 N 
HETATM   29  C10 UNL     1      -6.297   2.377  16.494  1.00  0.00     0.132 A 
HETATM   30  C11 UNL     1      -6.706   1.555  17.538  1.00  0.00     0.123 A 
HETATM   31  N7  UNL     1      -5.826   0.527  17.533  1.00  0.00    -0.294 N 
HETATM   32  N8  UNL     1      -4.947   0.708  16.557  1.00  0.00    -0.016 NA
ATOM     33  H7  UNL     1      -5.836  -0.262  18.179  1.00  0.00     0.183 HD
ENDBRANCH  24  28
ENDBRANCH   3  21
TORSDOF 6
ENDMDL
MODEL 5
REMARK VINA RESULT: -8.375485553      1.804      2.729
REMARK  6 active torsions:
REMARK  status: ('A' for Active; 'I' for Inactive)
REMARK       I    between atoms: C1_2  and  N2_4 
REMARK    1  A    between atoms: N2_4  and  O2_6 
REMARK    2  A    between atoms: O2_6  and  C2_7 
REMARK       I    between atoms: C2_7  and  N3_9 
REMARK    3  A    between atoms: N3_9  and  N4_10 
REMARK       I    between atoms: N4_10  and  C3_12 
REMARK    4  A    between atoms: C3_12  and  C4_14 
REMARK    5  A    between atoms: N5_16  and  C6_17 
REMARK    6  A    between atoms: C9_20  and  N6_21 
ROOT
HETATM    1  C4  UNL     1      -0.830   4.024   9.734  1.00  0.00     0.137 A 
HETATM    2  C5  UNL     1      -1.197   3.242  10.827  1.00  0.00     0.155 A 
HETATM    3  N5  UNL     1      -2.453   3.609  11.245  1.00  0.00    -0.248 N 
HETATM    4  N9  UNL     1      -2.840   4.582  10.422  1.00  0.00    -0.235 N 
ATOM      5  H9  UNL     1      -3.740   5.059  10.484  1.00  0.00     0.209 HD
HETATM    6  N10 UNL     1      -1.919   4.855   9.519  1.00  0.00    -0.279 N 
ATOM      7  H10 UNL     1      -1.996   5.559   8.785  1.00  0.00     0.189 HD
ENDROOT
BRANCH   1   8
HETATM    8  C3  UNL     1       0.443   4.158   9.033  1.00  0.00     0.299 C 
HETATM    9  N4  UNL     1       1.674   4.146   9.812  1.00  0.00    -0.192 N 
ATOM     10  H4  UNL     1       1.597   3.959  10.812  1.00  0.00     0.205 HD
HETATM   11  O4  UNL     1       0.465   4.302   7.782  1.00  0.00    -0.263 OA
BRANCH   9  12
HETATM   12  N3  UNL     1       2.847   4.352   9.337  1.00  0.00    -0.254 NA
HETATM   13  C2  UNL     1       4.119   4.579   8.808  1.00  0.00     0.480 C 
HETATM   14  O3  UNL     1       4.448   4.822   7.644  1.00  0.00    -0.217 OA
BRANCH  13  15
HETATM   15  O2  UNL     1       5.214   4.546   9.733  1.00  0.00    -0.164 OA
BRANCH  15  16
HETATM   16  N2  UNL     1       5.279   5.582  10.611  1.00  0.00    -0.207 N 
HETATM   17  C1  UNL     1       4.759   5.676  11.870  1.00  0.00     0.352 C 
HETATM   18  N1  UNL     1       5.114   7.000  12.484  1.00  0.00    -0.038 NA
HETATM   19  O1  UNL     1       4.099   4.946  12.590  1.00  0.00    -0.249 OA
ATOM     20  H2  UNL     1       5.787   6.403  10.284  1.00  0.00     0.199 HD
ENDBRANCH  15  16
ENDBRANCH  13  15
ENDBRANCH   9  12
ENDBRANCH   1   8
BRANCH   3  21
HETATM   21  C6  UNL     1      -3.163   3.096  12.369  1.00  0.00     0.096 A 
HETATM   22  C7  UNL     1      -3.317   3.944  13.472  1.00  0.00     0.037 A 
HETATM   23  C8  UNL     1      -3.992   3.551  14.606  1.00  0.00     0.034 A 
HETATM   24  C9  UNL     1      -4.528   2.288  14.658  1.00  0.00     0.057 A 
HETATM   25  C12 UNL     1      -4.380   1.451  13.565  1.00  0.00     0.075 A 
HETATM   26  C13 UNL     1      -3.707   1.853  12.441  1.00  0.00     0.147 A 
HETATM   27  F1  UNL     1      -3.591   0.995  11.378  1.00  0.00    -0.204 F 
BRANCH  24  28
HETATM   28  N6  UNL     1      -5.187   1.804  15.799  1.00  0.00    -0.250 N 
HETATM   29  C10 UNL     1      -6.248   2.345  16.445  1.00  0.00     0.132 A 
HETATM   30  C11 UNL     1      -6.597   1.548  17.529  1.00  0.00     0.123 A 
HETATM   31  N7  UNL     1      -5.710   0.526  17.505  1.00  0.00    -0.294 N 
HETATM   32  N8  UNL     1      -4.883   0.687  16.481  1.00  0.00    -0.016 NA
ATOM     33  H7  UNL     1      -5.680  -0.246  18.171  1.00  0.00     0.183 HD
ENDBRANCH  24  28
ENDBRANCH   3  21
TORSDOF 6
ENDMDL
