MODEL 1
REMARK VINA RESULT: -6.914708721      0.000      0.000
REMARK  6 active torsions:
REMARK  status: ('A' for Active; 'I' for Inactive)
REMARK    1  A    between atoms: C2_2  and  C3_3 
REMARK    2  A    between atoms: C3_3  and  C6_6 
REMARK    3  A    between atoms: C8_8  and  C9_9 
REMARK    4  A    between atoms: C12_12  and  O1_13 
REMARK    5  A    between atoms: C16_17  and  O2_18 
REMARK    6  A    between atoms: C17_20  and  O3_21 
ROOT
HETATM    1  C9  UNL     1      10.259   9.953   1.525  1.00  0.00     0.009 A 
HETATM    2  C10 UNL     1       9.409  11.062   1.627  1.00  0.00    -0.015 A 
HETATM    3  C11 UNL     1       9.935  12.364   2.146  1.00  0.00     0.052 C 
HETATM    4  C12 UNL     1       8.086  10.984   1.256  1.00  0.00     0.083 A 
HETATM    5  C14 UNL     1       7.554   9.812   0.772  1.00  0.00     0.008 A 
HETATM    6  C15 UNL     1       6.119   9.714   0.366  1.00  0.00     0.054 C 
HETATM    7  C16 UNL     1       8.369   8.678   0.653  1.00  0.00     0.108 A 
HETATM    8  C17 UNL     1       9.686   8.783   1.029  1.00  0.00     0.110 A 
ENDROOT
BRANCH   1   9
HETATM    9  C8  UNL     1      11.636  10.109   1.899  1.00  0.00     0.018 C 
HETATM   10  C6  UNL     1      12.284   9.735   2.939  1.00  0.00    -0.071 C 
HETATM   11  C7  UNL     1      11.668   9.039   4.087  1.00  0.00     0.044 C 
BRANCH  10  12
HETATM   12  C3  UNL     1      13.740  10.024   3.081  1.00  0.00    -0.008 C 
HETATM   13  C4  UNL     1      14.582   8.817   2.771  1.00  0.00     0.024 C 
HETATM   14  C5  UNL     1      14.192  11.161   2.190  1.00  0.00     0.024 C 
BRANCH  12  15
HETATM   15  C2  UNL     1      14.038  10.463   4.487  1.00  0.00    -0.024 C 
HETATM   16  C1  UNL     1      15.146  10.143   5.117  1.00  0.00     0.008 C 
ENDBRANCH  12  15
ENDBRANCH  10  12
ENDBRANCH   1   9
BRANCH   8  17
HETATM   17  O3  UNL     1      10.557   7.716   0.938  1.00  0.00    -0.357 OA
ATOM     18  H3  UNL     1      10.801   7.336   1.774  1.00  0.00     0.217 HD
ENDBRANCH   8  17
BRANCH   4  19
HETATM   19  O1  UNL     1       7.233  12.074   1.352  1.00  0.00    -0.355 OA
HETATM   20  C13 UNL     1       7.131  13.036   0.296  1.00  0.00     0.210 C 
ENDBRANCH   4  19
BRANCH   7  21
HETATM   21  O2  UNL     1       7.843   7.499   0.168  1.00  0.00    -0.357 OA
ATOM     22  H2  UNL     1       7.347   6.928   0.743  1.00  0.00     0.217 HD
ENDBRANCH   7  21
TORSDOF 6
ENDMDL
MODEL 2
REMARK VINA RESULT: -6.552658912      2.320      3.825
REMARK  6 active torsions:
REMARK  status: ('A' for Active; 'I' for Inactive)
REMARK    1  A    between atoms: C2_2  and  C3_3 
REMARK    2  A    between atoms: C3_3  and  C6_6 
REMARK    3  A    between atoms: C8_8  and  C9_9 
REMARK    4  A    between atoms: C12_12  and  O1_13 
REMARK    5  A    between atoms: C16_17  and  O2_18 
REMARK    6  A    between atoms: C17_20  and  O3_21 
ROOT
HETATM    1  C9  UNL     1       7.361  10.282   2.123  1.00  0.00     0.009 A 
HETATM    2  C10 UNL     1       6.709  10.269   0.883  1.00  0.00    -0.015 A 
HETATM    3  C11 UNL     1       7.444   9.834  -0.346  1.00  0.00     0.052 C 
HETATM    4  C12 UNL     1       5.393  10.651   0.765  1.00  0.00     0.083 A 
HETATM    5  C14 UNL     1       4.672  11.058   1.863  1.00  0.00     0.008 A 
HETATM    6  C15 UNL     1       3.241  11.476   1.749  1.00  0.00     0.054 C 
HETATM    7  C16 UNL     1       5.284  11.086   3.123  1.00  0.00     0.108 A 
HETATM    8  C17 UNL     1       6.599  10.699   3.214  1.00  0.00     0.110 A 
ENDROOT
BRANCH   1   9
HETATM    9  C8  UNL     1       8.726   9.842   2.183  1.00  0.00     0.018 C 
HETATM   10  C6  UNL     1       9.833  10.479   2.071  1.00  0.00    -0.071 C 
HETATM   11  C7  UNL     1       9.924  11.925   1.785  1.00  0.00     0.044 C 
BRANCH  10  12
HETATM   12  C3  UNL     1      11.139   9.771   2.181  1.00  0.00    -0.008 C 
HETATM   13  C4  UNL     1      11.367   9.230   3.567  1.00  0.00     0.024 C 
HETATM   14  C5  UNL     1      11.261   8.625   1.199  1.00  0.00     0.024 C 
BRANCH  12  15
HETATM   15  C2  UNL     1      12.261  10.714   1.850  1.00  0.00    -0.024 C 
HETATM   16  C1  UNL     1      13.506  10.500   2.209  1.00  0.00     0.008 C 
ENDBRANCH  12  15
ENDBRANCH  10  12
ENDBRANCH   1   9
BRANCH   8  17
HETATM   17  O3  UNL     1       7.275  10.691   4.418  1.00  0.00    -0.357 OA
ATOM     18  H3  UNL     1       8.190  10.444   4.352  1.00  0.00     0.217 HD
ENDBRANCH   8  17
BRANCH   4  19
HETATM   19  O1  UNL     1       4.734  10.644  -0.456  1.00  0.00    -0.355 OA
HETATM   20  C13 UNL     1       4.779  11.774  -1.334  1.00  0.00     0.210 C 
ENDBRANCH   4  19
BRANCH   7  21
HETATM   21  O2  UNL     1       4.569  11.493   4.229  1.00  0.00    -0.357 OA
ATOM     22  H2  UNL     1       3.985  10.885   4.668  1.00  0.00     0.217 HD
ENDBRANCH   7  21
TORSDOF 6
ENDMDL
MODEL 3
REMARK VINA RESULT: -6.450864845      2.010      6.358
REMARK  6 active torsions:
REMARK  status: ('A' for Active; 'I' for Inactive)
REMARK    1  A    between atoms: C2_2  and  C3_3 
REMARK    2  A    between atoms: C3_3  and  C6_6 
REMARK    3  A    between atoms: C8_8  and  C9_9 
REMARK    4  A    between atoms: C12_12  and  O1_13 
REMARK    5  A    between atoms: C16_17  and  O2_18 
REMARK    6  A    between atoms: C17_20  and  O3_21 
ROOT
HETATM    1  C9  UNL     1       9.088  10.244   1.625  1.00  0.00     0.009 A 
HETATM    2  C10 UNL     1      10.449  10.175   1.303  1.00  0.00    -0.015 A 
HETATM    3  C11 UNL     1      10.930  10.654  -0.031  1.00  0.00     0.052 C 
HETATM    4  C12 UNL     1      11.368   9.673   2.196  1.00  0.00     0.083 A 
HETATM    5  C14 UNL     1      10.979   9.221   3.435  1.00  0.00     0.008 A 
HETATM    6  C15 UNL     1      11.967   8.672   4.414  1.00  0.00     0.054 C 
HETATM    7  C16 UNL     1       9.626   9.272   3.798  1.00  0.00     0.108 A 
HETATM    8  C17 UNL     1       8.730   9.780   2.889  1.00  0.00     0.110 A 
ENDROOT
BRANCH   1   9
HETATM    9  C8  UNL     1       8.185  10.808   0.661  1.00  0.00     0.018 C 
HETATM   10  C6  UNL     1       7.696  11.986   0.538  1.00  0.00    -0.071 C 
HETATM   11  C7  UNL     1       7.960  13.089   1.484  1.00  0.00     0.044 C 
BRANCH  10  12
HETATM   12  C3  UNL     1       6.765  12.318  -0.578  1.00  0.00    -0.008 C 
HETATM   13  C4  UNL     1       5.382  12.637  -0.076  1.00  0.00     0.024 C 
HETATM   14  C5  UNL     1       7.251  13.487  -1.408  1.00  0.00     0.024 C 
BRANCH  12  15
HETATM   15  C2  UNL     1       6.670  11.155  -1.525  1.00  0.00    -0.024 C 
HETATM   16  C1  UNL     1       6.003  11.207  -2.656  1.00  0.00     0.008 C 
ENDBRANCH  12  15
ENDBRANCH  10  12
ENDBRANCH   1   9
BRANCH   8  17
HETATM   17  O3  UNL     1       7.380   9.870   3.169  1.00  0.00    -0.357 OA
ATOM     18  H3  UNL     1       7.125   9.480   3.997  1.00  0.00     0.217 HD
ENDBRANCH   8  17
BRANCH   4  19
HETATM   19  O1  UNL     1      12.720   9.598   1.892  1.00  0.00    -0.355 OA
HETATM   20  C13 UNL     1      13.615  10.671   2.206  1.00  0.00     0.210 C 
ENDBRANCH   4  19
BRANCH   7  21
HETATM   21  O2  UNL     1       9.227   8.822   5.038  1.00  0.00    -0.357 OA
ATOM     22  H2  UNL     1       8.315   8.882   5.295  1.00  0.00     0.217 HD
ENDBRANCH   7  21
TORSDOF 6
ENDMDL
MODEL 4
REMARK VINA RESULT: -6.392965790      2.362      3.724
REMARK  6 active torsions:
REMARK  status: ('A' for Active; 'I' for Inactive)
REMARK    1  A    between atoms: C2_2  and  C3_3 
REMARK    2  A    between atoms: C3_3  and  C6_6 
REMARK    3  A    between atoms: C8_8  and  C9_9 
REMARK    4  A    between atoms: C12_12  and  O1_13 
REMARK    5  A    between atoms: C16_17  and  O2_18 
REMARK    6  A    between atoms: C17_20  and  O3_21 
ROOT
HETATM    1  C9  UNL     1       7.394  10.284   2.146  1.00  0.00     0.009 A 
HETATM    2  C10 UNL     1       6.745  10.260   0.905  1.00  0.00    -0.015 A 
HETATM    3  C11 UNL     1       7.484   9.818  -0.320  1.00  0.00     0.052 C 
HETATM    4  C12 UNL     1       5.427  10.636   0.782  1.00  0.00     0.083 A 
HETATM    5  C14 UNL     1       4.703  11.050   1.876  1.00  0.00     0.008 A 
HETATM    6  C15 UNL     1       3.271  11.462   1.755  1.00  0.00     0.054 C 
HETATM    7  C16 UNL     1       5.313  11.089   3.136  1.00  0.00     0.108 A 
HETATM    8  C17 UNL     1       6.629  10.706   3.232  1.00  0.00     0.110 A 
ENDROOT
BRANCH   1   9
HETATM    9  C8  UNL     1       8.761   9.849   2.212  1.00  0.00     0.018 C 
HETATM   10  C6  UNL     1       9.865  10.487   2.087  1.00  0.00    -0.071 C 
HETATM   11  C7  UNL     1       9.952  11.928   1.776  1.00  0.00     0.044 C 
BRANCH  10  12
HETATM   12  C3  UNL     1      11.175   9.785   2.207  1.00  0.00    -0.008 C 
HETATM   13  C4  UNL     1      11.302   8.665   1.209  1.00  0.00     0.024 C 
HETATM   14  C5  UNL     1      12.351  10.719   2.025  1.00  0.00     0.024 C 
BRANCH  12  15
HETATM   15  C2  UNL     1      11.319   9.208   3.587  1.00  0.00    -0.024 C 
HETATM   16  C1  UNL     1      12.474   9.116   4.207  1.00  0.00     0.008 C 
ENDBRANCH  12  15
ENDBRANCH  10  12
ENDBRANCH   1   9
BRANCH   8  17
HETATM   17  O3  UNL     1       7.303  10.710   4.437  1.00  0.00    -0.357 OA
ATOM     18  H3  UNL     1       8.242  10.835   4.361  1.00  0.00     0.217 HD
ENDBRANCH   8  17
BRANCH   4  19
HETATM   19  O1  UNL     1       4.771  10.618  -0.441  1.00  0.00    -0.355 OA
HETATM   20  C13 UNL     1       4.816  11.740  -1.329  1.00  0.00     0.210 C 
ENDBRANCH   4  19
BRANCH   7  21
HETATM   21  O2  UNL     1       4.594  11.501   4.238  1.00  0.00    -0.357 OA
ATOM     22  H2  UNL     1       4.982  12.106   4.859  1.00  0.00     0.217 HD
ENDBRANCH   7  21
TORSDOF 6
ENDMDL
MODEL 5
REMARK VINA RESULT: -6.355380426      2.332      3.933
REMARK  6 active torsions:
REMARK  status: ('A' for Active; 'I' for Inactive)
REMARK    1  A    between atoms: C2_2  and  C3_3 
REMARK    2  A    between atoms: C3_3  and  C6_6 
REMARK    3  A    between atoms: C8_8  and  C9_9 
REMARK    4  A    between atoms: C12_12  and  O1_13 
REMARK    5  A    between atoms: C16_17  and  O2_18 
REMARK    6  A    between atoms: C17_20  and  O3_21 
ROOT
HETATM    1  C9  UNL     1       8.333  11.802   1.107  1.00  0.00     0.009 A 
HETATM    2  C10 UNL     1       7.386  11.157   0.301  1.00  0.00    -0.015 A 
HETATM    3  C11 UNL     1       7.688   9.810  -0.279  1.00  0.00     0.052 C 
HETATM    4  C12 UNL     1       6.168  11.736   0.028  1.00  0.00     0.083 A 
HETATM    5  C14 UNL     1       5.841  12.971   0.538  1.00  0.00     0.008 A 
HETATM    6  C15 UNL     1       4.522  13.612   0.248  1.00  0.00     0.054 C 
HETATM    7  C16 UNL     1       6.758  13.652   1.349  1.00  0.00     0.108 A 
HETATM    8  C17 UNL     1       7.966  13.051   1.607  1.00  0.00     0.110 A 
ENDROOT
BRANCH   1   9
HETATM    9  C8  UNL     1       9.572  11.130   1.380  1.00  0.00     0.018 C 
HETATM   10  C6  UNL     1       9.923  10.340   2.326  1.00  0.00    -0.071 C 
HETATM   11  C7  UNL     1       9.046   9.967   3.454  1.00  0.00     0.044 C 
BRANCH  10  12
HETATM   12  C3  UNL     1      11.297   9.764   2.374  1.00  0.00    -0.008 C 
HETATM   13  C4  UNL     1      11.612   9.182   3.725  1.00  0.00     0.024 C 
HETATM   14  C5  UNL     1      11.509   8.687   1.332  1.00  0.00     0.024 C 
BRANCH  12  15
HETATM   15  C2  UNL     1      12.309  10.832   2.069  1.00  0.00    -0.024 C 
HETATM   16  C1  UNL     1      13.605  10.625   2.122  1.00  0.00     0.008 C 
ENDBRANCH  12  15
ENDBRANCH  10  12
ENDBRANCH   1   9
BRANCH   8  17
HETATM   17  O3  UNL     1       8.924  13.651   2.401  1.00  0.00    -0.357 OA
ATOM     18  H3  UNL     1       9.717  13.898   1.940  1.00  0.00     0.217 HD
ENDBRANCH   8  17
BRANCH   4  19
HETATM   19  O1  UNL     1       5.221  11.109  -0.768  1.00  0.00    -0.355 OA
HETATM   20  C13 UNL     1       5.154  11.350  -2.178  1.00  0.00     0.210 C 
ENDBRANCH   4  19
BRANCH   7  21
HETATM   21  O2  UNL     1       6.438  14.890   1.864  1.00  0.00    -0.357 OA
ATOM     22  H2  UNL     1       6.486  15.043   2.800  1.00  0.00     0.217 HD
ENDBRANCH   7  21
TORSDOF 6
ENDMDL
