MODEL 1
REMARK VINA RESULT: -5.816515844      0.000      0.000
REMARK  4 active torsions:
REMARK  status: ('A' for Active; 'I' for Inactive)
REMARK    1  A    between atoms: C2_2  and  C9_14 
REMARK    2  A    between atoms: N1_3  and  N2_5 
REMARK    3  A    between atoms: C3_7  and  C4_8 
REMARK       I    between atoms: C9_14  and  N3_16 
REMARK    4  A    between atoms: N3_16  and  C10_18 
ROOT
HETATM    1  C1  UNL     1      -2.375   3.811   7.087  1.00  0.00     0.076 C 
HETATM    2  C2  UNL     1      -2.384   2.596   7.930  1.00  0.00     0.089 C 
HETATM    3  N1  UNL     1      -1.251   2.054   8.202  1.00  0.00    -0.300 N 
ATOM      4  H1  UNL     1      -1.254   1.216   8.784  1.00  0.00     0.186 HD
ENDROOT
BRANCH   3   5
HETATM    5  N2  UNL     1      -0.025   2.527   7.762  1.00  0.00    -0.315 N 
HETATM    6  C3  UNL     1       1.099   2.125   8.259  1.00  0.00     0.085 C 
ATOM      7  H2  UNL     1      -0.008   3.221   7.015  1.00  0.00     0.185 HD
BRANCH   6   8
HETATM    8  C4  UNL     1       2.393   2.627   7.791  1.00  0.00     0.038 A 
HETATM    9  C5  UNL     1       2.598   4.079   7.745  1.00  0.00     0.026 A 
HETATM   10  C6  UNL     1       3.710   4.737   7.004  1.00  0.00     0.173 C 
HETATM   11  C8  UNL     1       3.281   3.305   8.808  1.00  0.00     0.026 A 
HETATM   12  O1  UNL     1       4.901   4.185   7.376  1.00  0.00    -0.390 OA
HETATM   13  C7  UNL     1       4.727   3.354   8.445  1.00  0.00     0.173 C 
ENDBRANCH   6   8
ENDBRANCH   3   5
BRANCH   2  14
HETATM   14  C9  UNL     1      -3.592   1.995   8.459  1.00  0.00     0.265 C 
HETATM   15  O2  UNL     1      -3.553   1.444   9.583  1.00  0.00    -0.266 OA
HETATM   16  N3  UNL     1      -4.811   2.031   7.711  1.00  0.00    -0.351 N 
ATOM     17  H3  UNL     1      -4.808   2.488   6.799  1.00  0.00     0.163 HD
BRANCH  16  18
HETATM   18  C10 UNL     1      -6.034   1.456   8.179  1.00  0.00     0.084 A 
HETATM   19  C11 UNL     1      -6.371   0.027   7.972  1.00  0.00     0.027 A 
HETATM   20  C12 UNL     1      -7.108   1.127   7.210  1.00  0.00     0.027 A 
ENDBRANCH  16  18
ENDBRANCH   2  14
TORSDOF 4
ENDMDL
MODEL 2
REMARK VINA RESULT: -5.423909280      3.908      4.398
REMARK  4 active torsions:
REMARK  status: ('A' for Active; 'I' for Inactive)
REMARK    1  A    between atoms: C2_2  and  C9_14 
REMARK    2  A    between atoms: N1_3  and  N2_5 
REMARK    3  A    between atoms: C3_7  and  C4_8 
REMARK       I    between atoms: C9_14  and  N3_16 
REMARK    4  A    between atoms: N3_16  and  C10_18 
ROOT
HETATM    1  C1  UNL     1      -0.505   3.375   2.425  1.00  0.00     0.076 C 
HETATM    2  C2  UNL     1      -1.414   4.072   3.361  1.00  0.00     0.089 C 
HETATM    3  N1  UNL     1      -0.991   4.277   4.557  1.00  0.00    -0.300 N 
ATOM      4  H1  UNL     1      -1.616   4.757   5.205  1.00  0.00     0.186 HD
ENDROOT
BRANCH   3   5
HETATM    5  N2  UNL     1       0.254   3.892   5.030  1.00  0.00    -0.315 N 
HETATM    6  C3  UNL     1       0.449   3.498   6.246  1.00  0.00     0.085 C 
ATOM      7  H2  UNL     1       1.049   3.920   4.392  1.00  0.00     0.185 HD
BRANCH   6   8
HETATM    8  C4  UNL     1       1.766   3.091   6.742  1.00  0.00     0.038 A 
HETATM    9  C5  UNL     1       2.105   3.393   8.137  1.00  0.00     0.026 A 
HETATM   10  C6  UNL     1       3.488   3.340   8.685  1.00  0.00     0.173 C 
HETATM   11  C8  UNL     1       1.806   1.988   7.773  1.00  0.00     0.026 A 
HETATM   12  O1  UNL     1       4.050   2.130   8.399  1.00  0.00    -0.390 OA
HETATM   13  C7  UNL     1       3.114   1.280   7.884  1.00  0.00     0.173 C 
ENDBRANCH   6   8
ENDBRANCH   3   5
BRANCH   2  14
HETATM   14  C9  UNL     1      -2.740   4.530   3.000  1.00  0.00     0.265 C 
HETATM   15  O2  UNL     1      -2.858   5.393   2.099  1.00  0.00    -0.266 OA
HETATM   16  N3  UNL     1      -3.897   4.006   3.658  1.00  0.00    -0.351 N 
ATOM     17  H3  UNL     1      -3.764   3.304   4.387  1.00  0.00     0.163 HD
BRANCH  16  18
HETATM   18  C10 UNL     1      -5.230   4.419   3.345  1.00  0.00     0.084 A 
HETATM   19  C11 UNL     1      -6.404   3.980   4.137  1.00  0.00     0.027 A 
HETATM   20  C12 UNL     1      -6.169   3.453   2.723  1.00  0.00     0.027 A 
ENDBRANCH  16  18
ENDBRANCH   2  14
TORSDOF 4
ENDMDL
MODEL 3
REMARK VINA RESULT: -5.295391713      1.376      1.609
REMARK  4 active torsions:
REMARK  status: ('A' for Active; 'I' for Inactive)
REMARK    1  A    between atoms: C2_2  and  C9_14 
REMARK    2  A    between atoms: N1_3  and  N2_5 
REMARK    3  A    between atoms: C3_7  and  C4_8 
REMARK       I    between atoms: C9_14  and  N3_16 
REMARK    4  A    between atoms: N3_16  and  C10_18 
ROOT
HETATM    1  C1  UNL     1      -2.268   4.383   6.725  1.00  0.00     0.076 C 
HETATM    2  C2  UNL     1      -2.438   3.121   7.477  1.00  0.00     0.089 C 
HETATM    3  N1  UNL     1      -1.375   2.473   7.797  1.00  0.00    -0.300 N 
ATOM      4  H1  UNL     1      -1.489   1.602   8.315  1.00  0.00     0.186 HD
ENDROOT
BRANCH   3   5
HETATM    5  N2  UNL     1      -0.085   2.873   7.486  1.00  0.00    -0.315 N 
HETATM    6  C3  UNL     1       0.964   2.307   7.990  1.00  0.00     0.085 C 
ATOM      7  H2  UNL     1       0.044   3.646   6.834  1.00  0.00     0.185 HD
BRANCH   6   8
HETATM    8  C4  UNL     1       2.326   2.733   7.659  1.00  0.00     0.038 A 
HETATM    9  C5  UNL     1       2.623   4.169   7.661  1.00  0.00     0.026 A 
HETATM   10  C6  UNL     1       3.840   4.765   7.043  1.00  0.00     0.173 C 
HETATM   11  C8  UNL     1       3.149   3.340   8.771  1.00  0.00     0.026 A 
HETATM   12  O1  UNL     1       4.953   4.135   7.520  1.00  0.00    -0.390 OA
HETATM   13  C7  UNL     1       4.624   3.303   8.551  1.00  0.00     0.173 C 
ENDBRANCH   6   8
ENDBRANCH   3   5
BRANCH   2  14
HETATM   14  C9  UNL     1      -3.727   2.587   7.867  1.00  0.00     0.265 C 
HETATM   15  O2  UNL     1      -4.711   2.768   7.113  1.00  0.00    -0.266 OA
HETATM   16  N3  UNL     1      -3.876   1.864   9.093  1.00  0.00    -0.351 N 
ATOM     17  H3  UNL     1      -3.054   1.735   9.683  1.00  0.00     0.163 HD
BRANCH  16  18
HETATM   18  C10 UNL     1      -5.121   1.314   9.531  1.00  0.00     0.084 A 
HETATM   19  C11 UNL     1      -6.147   2.126  10.227  1.00  0.00     0.027 A 
HETATM   20  C12 UNL     1      -5.345   1.064  10.976  1.00  0.00     0.027 A 
ENDBRANCH  16  18
ENDBRANCH   2  14
TORSDOF 4
ENDMDL
MODEL 4
REMARK VINA RESULT: -5.283319484      4.495      5.527
REMARK  4 active torsions:
REMARK  status: ('A' for Active; 'I' for Inactive)
REMARK    1  A    between atoms: C2_2  and  C9_14 
REMARK    2  A    between atoms: N1_3  and  N2_5 
REMARK    3  A    between atoms: C3_7  and  C4_8 
REMARK       I    between atoms: C9_14  and  N3_16 
REMARK    4  A    between atoms: N3_16  and  C10_18 
ROOT
HETATM    1  C1  UNL     1      -0.512   3.274   2.351  1.00  0.00     0.076 C 
HETATM    2  C2  UNL     1      -1.332   4.136   3.231  1.00  0.00     0.089 C 
HETATM    3  N1  UNL     1      -0.874   4.392   4.404  1.00  0.00    -0.300 N 
ATOM      4  H1  UNL     1      -1.437   4.986   5.013  1.00  0.00     0.186 HD
ENDROOT
BRANCH   3   5
HETATM    5  N2  UNL     1       0.330   3.919   4.901  1.00  0.00    -0.315 N 
HETATM    6  C3  UNL     1       0.514   3.654   6.154  1.00  0.00     0.085 C 
ATOM      7  H2  UNL     1       1.103   3.773   4.253  1.00  0.00     0.185 HD
BRANCH   6   8
HETATM    8  C4  UNL     1       1.788   3.154   6.675  1.00  0.00     0.038 A 
HETATM    9  C5  UNL     1       2.131   3.452   8.070  1.00  0.00     0.026 A 
HETATM   10  C6  UNL     1       3.499   3.300   8.638  1.00  0.00     0.173 C 
HETATM   11  C8  UNL     1       1.727   2.069   7.725  1.00  0.00     0.026 A 
HETATM   12  O1  UNL     1       3.968   2.044   8.380  1.00  0.00    -0.390 OA
HETATM   13  C7  UNL     1       2.974   1.262   7.866  1.00  0.00     0.173 C 
ENDBRANCH   6   8
ENDBRANCH   3   5
BRANCH   2  14
HETATM   14  C9  UNL     1      -2.608   4.699   2.839  1.00  0.00     0.265 C 
HETATM   15  O2  UNL     1      -3.607   3.946   2.771  1.00  0.00    -0.266 OA
HETATM   16  N3  UNL     1      -2.728   6.092   2.536  1.00  0.00    -0.351 N 
ATOM     17  H3  UNL     1      -1.895   6.677   2.602  1.00  0.00     0.163 HD
BRANCH  16  18
HETATM   18  C10 UNL     1      -3.960   6.704   2.144  1.00  0.00     0.084 A 
HETATM   19  C11 UNL     1      -4.162   7.292   0.798  1.00  0.00     0.027 A 
HETATM   20  C12 UNL     1      -4.042   8.182   2.034  1.00  0.00     0.027 A 
ENDBRANCH  16  18
ENDBRANCH   2  14
TORSDOF 4
ENDMDL
MODEL 5
REMARK VINA RESULT: -5.279215813      5.551      7.602
REMARK  4 active torsions:
REMARK  status: ('A' for Active; 'I' for Inactive)
REMARK    1  A    between atoms: C2_2  and  C9_14 
REMARK    2  A    between atoms: N1_3  and  N2_5 
REMARK    3  A    between atoms: C3_7  and  C4_8 
REMARK       I    between atoms: C9_14  and  N3_16 
REMARK    4  A    between atoms: N3_16  and  C10_18 
ROOT
HETATM    1  C1  UNL     1      -1.927   4.690   5.539  1.00  0.00     0.076 C 
HETATM    2  C2  UNL     1      -0.630   3.979   5.565  1.00  0.00     0.089 C 
HETATM    3  N1  UNL     1       0.062   3.966   4.483  1.00  0.00    -0.300 N 
ATOM      4  H1  UNL     1       0.956   3.475   4.498  1.00  0.00     0.186 HD
ENDROOT
BRANCH   3   5
HETATM    5  N2  UNL     1      -0.320   4.571   3.296  1.00  0.00    -0.315 N 
HETATM    6  C3  UNL     1      -0.414   3.924   2.179  1.00  0.00     0.085 C 
ATOM      7  H2  UNL     1      -0.537   5.567   3.302  1.00  0.00     0.185 HD
BRANCH   6   8
HETATM    8  C4  UNL     1      -0.818   4.567   0.927  1.00  0.00     0.038 A 
HETATM    9  C5  UNL     1       0.059   5.598   0.362  1.00  0.00     0.026 A 
HETATM   10  C6  UNL     1      -0.360   6.551  -0.702  1.00  0.00     0.173 C 
HETATM   11  C8  UNL     1       0.012   4.273  -0.300  1.00  0.00     0.026 A 
HETATM   12  O1  UNL     1      -0.883   5.862  -1.758  1.00  0.00    -0.390 OA
HETATM   13  C7  UNL     1      -0.678   4.521  -1.599  1.00  0.00     0.173 C 
ENDBRANCH   6   8
ENDBRANCH   3   5
BRANCH   2  14
HETATM   14  C9  UNL     1      -0.109   3.305   6.737  1.00  0.00     0.265 C 
HETATM   15  O2  UNL     1      -0.913   2.879   7.599  1.00  0.00    -0.266 OA
HETATM   16  N3  UNL     1       1.300   3.126   6.909  1.00  0.00    -0.351 N 
ATOM     17  H3  UNL     1       1.926   3.484   6.188  1.00  0.00     0.163 HD
BRANCH  16  18
HETATM   18  C10 UNL     1       1.873   2.469   8.043  1.00  0.00     0.084 A 
HETATM   19  C11 UNL     1       3.264   2.722   8.489  1.00  0.00     0.027 A 
HETATM   20  C12 UNL     1       2.876   1.395   7.839  1.00  0.00     0.027 A 
ENDBRANCH  16  18
ENDBRANCH   2  14
TORSDOF 4
ENDMDL
