MODEL 1
REMARK VINA RESULT: -7.779661792      0.000      0.000
REMARK  18 active torsions:
REMARK  status: ('A' for Active; 'I' for Inactive)
REMARK    1  A    between atoms: N1_1  and  C1_4 
REMARK    2  A    between atoms: C7_13  and  C8_14 
REMARK    3  A    between atoms: C8_14  and  C9_15 
REMARK    4  A    between atoms: C9_15  and  C10_16 
REMARK    5  A    between atoms: C10_16  and  N4_17 
REMARK    6  A    between atoms: C10_16  and  C11_21 
REMARK    7  A    between atoms: C11_21  and  N5_22 
REMARK    8  A    between atoms: C11_21  and  C12_26 
REMARK    9  A    between atoms: C12_26  and  O1_27 
REMARK   10  A    between atoms: C12_26  and  C13_29 
REMARK   11  A    between atoms: C13_29  and  O2_30 
REMARK   12  A    between atoms: C14_34  and  N7_35 
REMARK   13  A    between atoms: C17_44  and  S1_45 
REMARK   14  A    between atoms: S1_45  and  C18_46 
REMARK   15  A    between atoms: C18_46  and  C19_47 
REMARK   16  A    between atoms: C19_47  and  O3_48 
REMARK   17  A    between atoms: C19_47  and  C20_50 
REMARK   18  A    between atoms: C20_50  and  O4_51 
ROOT
HETATM    1  C1  UNL     1     -37.551  30.284  -4.863  1.00  0.00     0.116 A 
HETATM    2  C2  UNL     1     -37.036  29.112  -4.369  1.00  0.00     0.082 A 
HETATM    3  C3  UNL     1     -38.028  28.154  -4.407  1.00  0.00     0.074 A 
HETATM    4  N2  UNL     1     -39.103  28.773  -4.918  1.00  0.00    -0.252 N 
HETATM    5  N3  UNL     1     -38.820  30.032  -5.187  1.00  0.00    -0.278 N 
ATOM      6  H3  UNL     1     -39.472  30.709  -5.583  1.00  0.00     0.189 HD
HETATM    7  C4  UNL     1     -39.826  27.564  -4.802  1.00  0.00     0.088 A 
HETATM    8  C5  UNL     1     -38.750  26.895  -4.276  1.00  0.00     0.037 A 
HETATM    9  C6  UNL     1     -38.846  25.564  -3.935  1.00  0.00     0.032 A 
HETATM   10  C7  UNL     1     -37.786  24.865  -3.424  1.00  0.00     0.040 A 
HETATM   11  N6  UNL     1     -37.953  23.541  -3.129  1.00  0.00    -0.195 N 
ATOM     12  H6  UNL     1     -37.170  23.009  -2.748  1.00  0.00     0.184 HD
HETATM   13  C14 UNL     1     -39.119  22.937  -3.330  1.00  0.00     0.676 A 
HETATM   14  N8  UNL     1     -40.197  23.572  -3.828  1.00  0.00    -0.189 N 
ATOM     15  H8  UNL     1     -41.085  23.090  -3.974  1.00  0.00     0.184 HD
HETATM   16  C15 UNL     1     -40.043  24.867  -4.120  1.00  0.00     0.090 A 
HETATM   17  C16 UNL     1     -41.117  25.547  -4.649  1.00  0.00     0.081 A 
HETATM   18  N9  UNL     1     -42.294  24.920  -4.850  1.00  0.00    -0.334 N 
ATOM     19  H9  UNL     1     -42.397  23.934  -4.607  1.00  0.00     0.168 HD
HETATM   20  C17 UNL     1     -43.329  25.597  -5.370  1.00  0.00     0.147 A 
HETATM   21  N10 UNL     1     -43.254  26.894  -5.706  1.00  0.00    -0.303 N 
ATOM     22  H10 UNL     1     -44.063  27.375  -6.098  1.00  0.00     0.171 HD
HETATM   23  C21 UNL     1     -42.095  27.552  -5.519  1.00  0.00     0.262 A 
HETATM   24  O5  UNL     1     -41.989  28.750  -5.819  1.00  0.00    -0.267 OA
HETATM   25  C22 UNL     1     -41.012  26.875  -4.985  1.00  0.00     0.091 A 
ENDROOT
BRANCH  10  26
HETATM   26  C8  UNL     1     -36.505  25.518  -3.154  1.00  0.00     0.060 C 
BRANCH  26  27
HETATM   27  C9  UNL     1     -35.962  25.296  -1.755  1.00  0.00     0.041 C 
BRANCH  27  28
HETATM   28  C10 UNL     1     -34.648  24.603  -1.921  1.00  0.00     0.216 C 
BRANCH  28  29
HETATM   29  N4  UNL     1     -33.931  24.536  -0.657  1.00  0.00    -0.073 N 
ATOM     30  H43 UNL     1     -34.309  25.193   0.025  1.00  0.00     0.274 HD
ATOM     31  H42 UNL     1     -34.126  23.667  -0.159  1.00  0.00     0.274 HD
ATOM     32  H41 UNL     1     -32.930  24.673  -0.797  1.00  0.00     0.274 HD
ENDBRANCH  28  29
BRANCH  28  33
HETATM   33  C11 UNL     1     -33.771  25.035  -3.023  1.00  0.00     0.244 C 
BRANCH  33  34
HETATM   34  N5  UNL     1     -33.230  26.368  -2.856  1.00  0.00    -0.070 N 
ATOM     35  H53 UNL     1     -33.824  26.921  -2.238  1.00  0.00     0.274 HD
ATOM     36  H52 UNL     1     -32.378  26.341  -2.297  1.00  0.00     0.274 HD
ATOM     37  H51 UNL     1     -33.068  26.862  -3.734  1.00  0.00     0.274 HD
ENDBRANCH  33  34
BRANCH  33  38
HETATM   38  C12 UNL     1     -32.805  24.045  -3.585  1.00  0.00     0.174 C 
BRANCH  38  39
HETATM   39  O1  UNL     1     -33.146  22.758  -3.052  1.00  0.00    -0.391 OA
ATOM     40  H1  UNL     1     -33.858  22.412  -3.577  1.00  0.00     0.210 HD
ENDBRANCH  38  39
BRANCH  38  41
HETATM   41  C13 UNL     1     -32.982  23.839  -5.094  1.00  0.00     0.197 C 
BRANCH  41  42
HETATM   42  O2  UNL     1     -34.110  24.590  -5.450  1.00  0.00    -0.398 OA
ATOM     43  H2  UNL     1     -34.858  24.101  -5.128  1.00  0.00     0.209 HD
ENDBRANCH  41  42
ENDBRANCH  38  41
ENDBRANCH  33  38
ENDBRANCH  28  33
ENDBRANCH  27  28
ENDBRANCH  26  27
ENDBRANCH  10  26
BRANCH  13  44
HETATM   44  N7  UNL     1     -39.244  21.672  -3.037  1.00  0.00    -0.234 N 
ATOM     45  H72 UNL     1     -39.462  21.430  -2.070  1.00  0.00     0.174 HD
ATOM     46  H71 UNL     1     -39.124  20.972  -3.769  1.00  0.00     0.174 HD
ENDBRANCH  13  44
BRANCH   1  47
HETATM   47  N1  UNL     1     -36.910  31.424  -4.987  1.00  0.00    -0.384 N 
ATOM     48  H12 UNL     1     -36.418  31.939  -4.257  1.00  0.00     0.157 HD
ATOM     49  H11 UNL     1     -36.808  31.970  -5.843  1.00  0.00     0.157 HD
ENDBRANCH   1  47
BRANCH  20  50
HETATM   50  S1  UNL     1     -44.863  24.739  -5.629  1.00  0.00    -0.091 SA
BRANCH  50  51
HETATM   51  C18 UNL     1     -45.166  23.508  -4.336  1.00  0.00     0.116 C 
BRANCH  51  52
HETATM   52  C19 UNL     1     -44.529  22.196  -4.667  1.00  0.00     0.151 C 
BRANCH  52  53
HETATM   53  O3  UNL     1     -43.150  22.259  -4.491  1.00  0.00    -0.393 OA
ATOM     54  H3  UNL     1     -42.843  21.529  -3.966  1.00  0.00     0.210 HD
ENDBRANCH  52  53
BRANCH  52  55
HETATM   55  C20 UNL     1     -44.762  21.852  -6.123  1.00  0.00     0.196 C 
BRANCH  55  56
HETATM   56  O4  UNL     1     -44.399  20.546  -6.428  1.00  0.00    -0.398 OA
ATOM     57  H4  UNL     1     -43.544  20.491  -6.839  1.00  0.00     0.209 HD
ENDBRANCH  55  56
ENDBRANCH  52  55
ENDBRANCH  51  52
ENDBRANCH  50  51
ENDBRANCH  20  50
TORSDOF 18
ENDMDL
MODEL 2
REMARK VINA RESULT: -7.722458044      3.277      8.181
REMARK  18 active torsions:
REMARK  status: ('A' for Active; 'I' for Inactive)
REMARK    1  A    between atoms: N1_1  and  C1_4 
REMARK    2  A    between atoms: C7_13  and  C8_14 
REMARK    3  A    between atoms: C8_14  and  C9_15 
REMARK    4  A    between atoms: C9_15  and  C10_16 
REMARK    5  A    between atoms: C10_16  and  N4_17 
REMARK    6  A    between atoms: C10_16  and  C11_21 
REMARK    7  A    between atoms: C11_21  and  N5_22 
REMARK    8  A    between atoms: C11_21  and  C12_26 
REMARK    9  A    between atoms: C12_26  and  O1_27 
REMARK   10  A    between atoms: C12_26  and  C13_29 
REMARK   11  A    between atoms: C13_29  and  O2_30 
REMARK   12  A    between atoms: C14_34  and  N7_35 
REMARK   13  A    between atoms: C17_44  and  S1_45 
REMARK   14  A    between atoms: S1_45  and  C18_46 
REMARK   15  A    between atoms: C18_46  and  C19_47 
REMARK   16  A    between atoms: C19_47  and  O3_48 
REMARK   17  A    between atoms: C19_47  and  C20_50 
REMARK   18  A    between atoms: C20_50  and  O4_51 
ROOT
HETATM    1  C1  UNL     1     -42.604  23.515  -4.321  1.00  0.00     0.116 A 
HETATM    2  C2  UNL     1     -42.498  24.728  -4.953  1.00  0.00     0.082 A 
HETATM    3  C3  UNL     1     -41.263  25.265  -4.654  1.00  0.00     0.074 A 
HETATM    4  N2  UNL     1     -40.667  24.366  -3.855  1.00  0.00    -0.252 N 
HETATM    5  N3  UNL     1     -41.460  23.332  -3.659  1.00  0.00    -0.278 N 
ATOM      6  H3  UNL     1     -41.234  22.518  -3.089  1.00  0.00     0.189 HD
HETATM    7  C4  UNL     1     -39.537  25.212  -3.784  1.00  0.00     0.088 A 
HETATM    8  C5  UNL     1     -40.112  26.156  -4.597  1.00  0.00     0.037 A 
HETATM    9  C6  UNL     1     -39.434  27.310  -4.925  1.00  0.00     0.032 A 
HETATM   10  C7  UNL     1     -39.974  28.262  -5.746  1.00  0.00     0.040 A 
HETATM   11  N6  UNL     1     -39.231  29.371  -6.043  1.00  0.00    -0.195 N 
ATOM     12  H6  UNL     1     -39.622  30.088  -6.655  1.00  0.00     0.184 HD
HETATM   13  C14 UNL     1     -38.009  29.530  -5.547  1.00  0.00     0.676 A 
HETATM   14  N8  UNL     1     -37.427  28.629  -4.732  1.00  0.00    -0.189 N 
ATOM     15  H8  UNL     1     -36.487  28.769  -4.360  1.00  0.00     0.184 HD
HETATM   16  C15 UNL     1     -38.145  27.541  -4.438  1.00  0.00     0.090 A 
HETATM   17  C16 UNL     1     -37.576  26.588  -3.623  1.00  0.00     0.081 A 
HETATM   18  N9  UNL     1     -36.334  26.761  -3.128  1.00  0.00    -0.334 N 
ATOM     19  H9  UNL     1     -35.807  27.605  -3.353  1.00  0.00     0.168 HD
HETATM   20  C17 UNL     1     -35.794  25.819  -2.338  1.00  0.00     0.147 A 
HETATM   21  N10 UNL     1     -36.441  24.691  -2.007  1.00  0.00    -0.303 N 
ATOM     22  H10 UNL     1     -35.997  23.999  -1.403  1.00  0.00     0.171 HD
HETATM   23  C21 UNL     1     -37.682  24.485  -2.483  1.00  0.00     0.262 A 
HETATM   24  O5  UNL     1     -38.309  23.454  -2.198  1.00  0.00    -0.267 OA
HETATM   25  C22 UNL     1     -38.261  25.441  -3.299  1.00  0.00     0.091 A 
ENDROOT
BRANCH  10  26
HETATM   26  C8  UNL     1     -41.332  28.131  -6.271  1.00  0.00     0.060 C 
BRANCH  26  27
HETATM   27  C9  UNL     1     -41.559  28.789  -7.620  1.00  0.00     0.041 C 
BRANCH  27  28
HETATM   28  C10 UNL     1     -41.814  27.680  -8.590  1.00  0.00     0.216 C 
BRANCH  28  29
HETATM   29  N4  UNL     1     -42.328  26.501  -7.910  1.00  0.00    -0.073 N 
ATOM     30  H43 UNL     1     -42.627  26.716  -6.959  1.00  0.00     0.274 HD
ATOM     31  H42 UNL     1     -43.227  26.208  -8.293  1.00  0.00     0.274 HD
ATOM     32  H41 UNL     1     -41.646  25.743  -7.928  1.00  0.00     0.274 HD
ENDBRANCH  28  29
BRANCH  28  33
HETATM   33  C11 UNL     1     -40.746  27.337  -9.545  1.00  0.00     0.244 C 
BRANCH  33  34
HETATM   34  N5  UNL     1     -41.086  27.605 -10.927  1.00  0.00    -0.070 N 
ATOM     35  H53 UNL     1     -41.758  26.919 -11.270  1.00  0.00     0.274 HD
ATOM     36  H52 UNL     1     -41.650  28.451 -11.000  1.00  0.00     0.274 HD
ATOM     37  H51 UNL     1     -40.278  27.658 -11.549  1.00  0.00     0.274 HD
ENDBRANCH  33  34
BRANCH  33  38
HETATM   38  C12 UNL     1     -39.338  27.676  -9.181  1.00  0.00     0.174 C 
BRANCH  38  39
HETATM   39  O1  UNL     1     -38.792  26.552  -8.477  1.00  0.00    -0.391 OA
ATOM     40  H1  UNL     1     -38.067  26.218  -8.991  1.00  0.00     0.210 HD
ENDBRANCH  38  39
BRANCH  38  41
HETATM   41  C13 UNL     1     -38.421  27.781 -10.405  1.00  0.00     0.197 C 
BRANCH  41  42
HETATM   42  O2  UNL     1     -38.011  26.470 -10.685  1.00  0.00    -0.398 OA
ATOM     43  H2  UNL     1     -37.616  26.503 -11.548  1.00  0.00     0.209 HD
ENDBRANCH  41  42
ENDBRANCH  38  41
ENDBRANCH  33  38
ENDBRANCH  28  33
ENDBRANCH  27  28
ENDBRANCH  26  27
ENDBRANCH  10  26
BRANCH  13  44
HETATM   44  N7  UNL     1     -37.328  30.600  -5.849  1.00  0.00    -0.234 N 
ATOM     45  H72 UNL     1     -37.133  30.773  -6.836  1.00  0.00     0.174 HD
ATOM     46  H71 UNL     1     -37.015  31.223  -5.105  1.00  0.00     0.174 HD
ENDBRANCH  13  44
BRANCH   1  47
HETATM   47  N1  UNL     1     -43.636  22.702  -4.366  1.00  0.00    -0.384 N 
ATOM     48  H12 UNL     1     -44.622  22.951  -4.289  1.00  0.00     0.157 HD
ATOM     49  H11 UNL     1     -43.602  21.690  -4.485  1.00  0.00     0.157 HD
ENDBRANCH   1  47
BRANCH  20  50
HETATM   50  S1  UNL     1     -34.153  26.075  -1.709  1.00  0.00    -0.091 SA
BRANCH  50  51
HETATM   51  C18 UNL     1     -32.907  25.255  -2.737  1.00  0.00     0.116 C 
BRANCH  51  52
HETATM   52  C19 UNL     1     -33.122  23.775  -2.782  1.00  0.00     0.151 C 
BRANCH  52  53
HETATM   53  O3  UNL     1     -31.948  23.097  -2.465  1.00  0.00    -0.393 OA
ATOM     54  H3  UNL     1     -31.524  22.771  -3.250  1.00  0.00     0.210 HD
ENDBRANCH  52  53
BRANCH  52  55
HETATM   55  C20 UNL     1     -33.502  23.344  -4.183  1.00  0.00     0.196 C 
BRANCH  55  56
HETATM   56  O4  UNL     1     -34.878  23.295  -4.372  1.00  0.00    -0.398 OA
ATOM     57  H4  UNL     1     -35.192  23.979  -4.952  1.00  0.00     0.209 HD
ENDBRANCH  55  56
ENDBRANCH  52  55
ENDBRANCH  51  52
ENDBRANCH  50  51
ENDBRANCH  20  50
TORSDOF 18
ENDMDL
MODEL 3
REMARK VINA RESULT: -7.607857207      1.458      2.046
REMARK  18 active torsions:
REMARK  status: ('A' for Active; 'I' for Inactive)
REMARK    1  A    between atoms: N1_1  and  C1_4 
REMARK    2  A    between atoms: C7_13  and  C8_14 
REMARK    3  A    between atoms: C8_14  and  C9_15 
REMARK    4  A    between atoms: C9_15  and  C10_16 
REMARK    5  A    between atoms: C10_16  and  N4_17 
REMARK    6  A    between atoms: C10_16  and  C11_21 
REMARK    7  A    between atoms: C11_21  and  N5_22 
REMARK    8  A    between atoms: C11_21  and  C12_26 
REMARK    9  A    between atoms: C12_26  and  O1_27 
REMARK   10  A    between atoms: C12_26  and  C13_29 
REMARK   11  A    between atoms: C13_29  and  O2_30 
REMARK   12  A    between atoms: C14_34  and  N7_35 
REMARK   13  A    between atoms: C17_44  and  S1_45 
REMARK   14  A    between atoms: S1_45  and  C18_46 
REMARK   15  A    between atoms: C18_46  and  C19_47 
REMARK   16  A    between atoms: C19_47  and  O3_48 
REMARK   17  A    between atoms: C19_47  and  C20_50 
REMARK   18  A    between atoms: C20_50  and  O4_51 
ROOT
HETATM    1  C1  UNL     1     -39.351  30.042  -5.262  1.00  0.00     0.116 A 
HETATM    2  C2  UNL     1     -38.869  28.949  -4.585  1.00  0.00     0.082 A 
HETATM    3  C3  UNL     1     -39.794  27.932  -4.695  1.00  0.00     0.074 A 
HETATM    4  N2  UNL     1     -40.797  28.438  -5.428  1.00  0.00    -0.252 N 
HETATM    5  N3  UNL     1     -40.534  29.685  -5.762  1.00  0.00    -0.278 N 
ATOM      6  H3  UNL     1     -41.143  30.285  -6.318  1.00  0.00     0.189 HD
HETATM    7  C4  UNL     1     -41.470  27.200  -5.320  1.00  0.00     0.088 A 
HETATM    8  C5  UNL     1     -40.466  26.645  -4.567  1.00  0.00     0.037 A 
HETATM    9  C6  UNL     1     -40.554  25.343  -4.126  1.00  0.00     0.032 A 
HETATM   10  C7  UNL     1     -39.561  24.757  -3.388  1.00  0.00     0.040 A 
HETATM   11  N6  UNL     1     -39.711  23.454  -3.003  1.00  0.00    -0.195 N 
ATOM     12  H6  UNL     1     -38.978  23.005  -2.454  1.00  0.00     0.184 HD
HETATM   13  C14 UNL     1     -40.797  22.763  -3.334  1.00  0.00     0.676 A 
HETATM   14  N8  UNL     1     -41.807  23.287  -4.056  1.00  0.00    -0.189 N 
ATOM     15  H8  UNL     1     -42.633  22.740  -4.299  1.00  0.00     0.184 HD
HETATM   16  C15 UNL     1     -41.668  24.560  -4.437  1.00  0.00     0.090 A 
HETATM   17  C16 UNL     1     -42.671  25.125  -5.193  1.00  0.00     0.081 A 
HETATM   18  N9  UNL     1     -43.766  24.411  -5.523  1.00  0.00    -0.334 N 
ATOM     19  H9  UNL     1     -43.860  23.444  -5.211  1.00  0.00     0.168 HD
HETATM   20  C17 UNL     1     -44.732  24.977  -6.264  1.00  0.00     0.147 A 
HETATM   21  N10 UNL     1     -44.664  26.244  -6.701  1.00  0.00    -0.303 N 
ATOM     22  H10 UNL     1     -45.419  26.639  -7.260  1.00  0.00     0.171 HD
HETATM   23  C21 UNL     1     -43.585  26.986  -6.390  1.00  0.00     0.262 A 
HETATM   24  O5  UNL     1     -43.488  28.160  -6.777  1.00  0.00    -0.267 OA
HETATM   25  C22 UNL     1     -42.575  26.425  -5.628  1.00  0.00     0.091 A 
ENDROOT
BRANCH  10  26
HETATM   26  C8  UNL     1     -38.376  25.508  -2.976  1.00  0.00     0.060 C 
BRANCH  26  27
HETATM   27  C9  UNL     1     -37.244  24.659  -2.430  1.00  0.00     0.041 C 
BRANCH  27  28
HETATM   28  C10 UNL     1     -36.055  25.560  -2.329  1.00  0.00     0.216 C 
BRANCH  28  29
HETATM   29  N4  UNL     1     -36.153  26.660  -3.277  1.00  0.00    -0.073 N 
ATOM     30  H43 UNL     1     -35.623  26.471  -4.128  1.00  0.00     0.274 HD
ATOM     31  H42 UNL     1     -37.085  26.723  -3.685  1.00  0.00     0.274 HD
ATOM     32  H41 UNL     1     -35.870  27.540  -2.845  1.00  0.00     0.274 HD
ENDBRANCH  28  29
BRANCH  28  33
HETATM   33  C11 UNL     1     -34.717  24.945  -2.344  1.00  0.00     0.244 C 
BRANCH  33  34
HETATM   34  N5  UNL     1     -34.434  24.125  -1.184  1.00  0.00    -0.070 N 
ATOM     35  H53 UNL     1     -34.523  24.673  -0.328  1.00  0.00     0.274 HD
ATOM     36  H52 UNL     1     -35.181  23.448  -1.033  1.00  0.00     0.274 HD
ATOM     37  H51 UNL     1     -33.527  23.658  -1.218  1.00  0.00     0.274 HD
ENDBRANCH  33  34
BRANCH  33  38
HETATM   38  C12 UNL     1     -34.213  24.381  -3.632  1.00  0.00     0.174 C 
BRANCH  38  39
HETATM   39  O1  UNL     1     -33.885  25.486  -4.486  1.00  0.00    -0.391 OA
ATOM     40  H1  UNL     1     -33.053  25.288  -4.901  1.00  0.00     0.210 HD
ENDBRANCH  38  39
BRANCH  38  41
HETATM   41  C13 UNL     1     -32.866  23.667  -3.477  1.00  0.00     0.197 C 
BRANCH  41  42
HETATM   42  O2  UNL     1     -33.162  22.298  -3.452  1.00  0.00    -0.398 OA
ATOM     43  H2  UNL     1     -32.360  21.865  -3.185  1.00  0.00     0.209 HD
ENDBRANCH  41  42
ENDBRANCH  38  41
ENDBRANCH  33  38
ENDBRANCH  28  33
ENDBRANCH  27  28
ENDBRANCH  26  27
ENDBRANCH  10  26
BRANCH  13  44
HETATM   44  N7  UNL     1     -40.909  21.521  -2.950  1.00  0.00    -0.234 N 
ATOM     45  H72 UNL     1     -41.849  21.136  -2.864  1.00  0.00     0.174 HD
ATOM     46  H71 UNL     1     -40.068  20.980  -2.750  1.00  0.00     0.174 HD
ENDBRANCH  13  44
BRANCH   1  47
HETATM   47  N1  UNL     1     -38.753  31.206  -5.385  1.00  0.00    -0.384 N 
ATOM     48  H12 UNL     1     -37.751  31.392  -5.352  1.00  0.00     0.157 HD
ATOM     49  H11 UNL     1     -39.210  32.107  -5.532  1.00  0.00     0.157 HD
ENDBRANCH   1  47
BRANCH  20  50
HETATM   50  S1  UNL     1     -46.158  24.006  -6.687  1.00  0.00    -0.091 SA
BRANCH  50  51
HETATM   51  C18 UNL     1     -46.349  22.584  -5.584  1.00  0.00     0.116 C 
BRANCH  51  52
HETATM   52  C19 UNL     1     -45.721  21.354  -6.159  1.00  0.00     0.151 C 
BRANCH  52  53
HETATM   53  O3  UNL     1     -44.426  21.621  -6.597  1.00  0.00    -0.393 OA
ATOM     54  H3  UNL     1     -44.399  21.693  -7.543  1.00  0.00     0.210 HD
ENDBRANCH  52  53
BRANCH  52  55
HETATM   55  C20 UNL     1     -46.497  20.887  -7.371  1.00  0.00     0.196 C 
BRANCH  55  56
HETATM   56  O4  UNL     1     -45.922  19.776  -7.979  1.00  0.00    -0.398 OA
ATOM     57  H4  UNL     1     -46.318  19.573  -8.818  1.00  0.00     0.209 HD
ENDBRANCH  55  56
ENDBRANCH  52  55
ENDBRANCH  51  52
ENDBRANCH  50  51
ENDBRANCH  20  50
TORSDOF 18
ENDMDL
MODEL 4
REMARK VINA RESULT: -7.577987926      2.707      8.366
REMARK  18 active torsions:
REMARK  status: ('A' for Active; 'I' for Inactive)
REMARK    1  A    between atoms: N1_1  and  C1_4 
REMARK    2  A    between atoms: C7_13  and  C8_14 
REMARK    3  A    between atoms: C8_14  and  C9_15 
REMARK    4  A    between atoms: C9_15  and  C10_16 
REMARK    5  A    between atoms: C10_16  and  N4_17 
REMARK    6  A    between atoms: C10_16  and  C11_21 
REMARK    7  A    between atoms: C11_21  and  N5_22 
REMARK    8  A    between atoms: C11_21  and  C12_26 
REMARK    9  A    between atoms: C12_26  and  O1_27 
REMARK   10  A    between atoms: C12_26  and  C13_29 
REMARK   11  A    between atoms: C13_29  and  O2_30 
REMARK   12  A    between atoms: C14_34  and  N7_35 
REMARK   13  A    between atoms: C17_44  and  S1_45 
REMARK   14  A    between atoms: S1_45  and  C18_46 
REMARK   15  A    between atoms: C18_46  and  C19_47 
REMARK   16  A    between atoms: C19_47  and  O3_48 
REMARK   17  A    between atoms: C19_47  and  C20_50 
REMARK   18  A    between atoms: C20_50  and  O4_51 
ROOT
HETATM    1  C1  UNL     1     -42.432  29.571  -6.153  1.00  0.00     0.116 A 
HETATM    2  C2  UNL     1     -42.971  28.328  -5.936  1.00  0.00     0.082 A 
HETATM    3  C3  UNL     1     -42.003  27.531  -5.361  1.00  0.00     0.074 A 
HETATM    4  N2  UNL     1     -40.917  28.312  -5.250  1.00  0.00    -0.252 N 
HETATM    5  N3  UNL     1     -41.172  29.517  -5.718  1.00  0.00    -0.278 N 
ATOM      6  H3  UNL     1     -40.507  30.290  -5.744  1.00  0.00     0.189 HD
HETATM    7  C4  UNL     1     -40.223  27.225  -4.672  1.00  0.00     0.088 A 
HETATM    8  C5  UNL     1     -41.311  26.394  -4.769  1.00  0.00     0.037 A 
HETATM    9  C6  UNL     1     -41.243  25.092  -4.325  1.00  0.00     0.032 A 
HETATM   10  C7  UNL     1     -42.316  24.244  -4.393  1.00  0.00     0.040 A 
HETATM   11  N6  UNL     1     -42.178  22.971  -3.913  1.00  0.00    -0.195 N 
ATOM     12  H6  UNL     1     -42.970  22.330  -3.957  1.00  0.00     0.184 HD
HETATM   13  C14 UNL     1     -41.029  22.557  -3.391  1.00  0.00     0.676 A 
HETATM   14  N8  UNL     1     -39.940  23.344  -3.300  1.00  0.00    -0.189 N 
ATOM     15  H8  UNL     1     -39.066  23.007  -2.896  1.00  0.00     0.184 HD
HETATM   16  C15 UNL     1     -40.066  24.590  -3.765  1.00  0.00     0.090 A 
HETATM   17  C16 UNL     1     -38.979  25.432  -3.672  1.00  0.00     0.081 A 
HETATM   18  N9  UNL     1     -37.820  24.999  -3.138  1.00  0.00    -0.334 N 
ATOM     19  H9  UNL     1     -37.739  24.039  -2.800  1.00  0.00     0.168 HD
HETATM   20  C17 UNL     1     -36.773  25.834  -3.051  1.00  0.00     0.147 A 
HETATM   21  N10 UNL     1     -36.820  27.104  -3.480  1.00  0.00    -0.303 N 
ATOM     22  H10 UNL     1     -36.002  27.708  -3.398  1.00  0.00     0.171 HD
HETATM   23  C21 UNL     1     -37.961  27.571  -4.019  1.00  0.00     0.262 A 
HETATM   24  O5  UNL     1     -38.040  28.739  -4.425  1.00  0.00    -0.267 OA
HETATM   25  C22 UNL     1     -39.055  26.729  -4.119  1.00  0.00     0.091 A 
ENDROOT
BRANCH  10  26
HETATM   26  C8  UNL     1     -43.578  24.663  -5.001  1.00  0.00     0.060 C 
BRANCH  26  27
HETATM   27  C9  UNL     1     -43.950  23.919  -6.270  1.00  0.00     0.041 C 
BRANCH  27  28
HETATM   28  C10 UNL     1     -45.247  23.231  -5.988  1.00  0.00     0.216 C 
BRANCH  28  29
HETATM   29  N4  UNL     1     -45.591  23.325  -4.578  1.00  0.00    -0.073 N 
ATOM     30  H43 UNL     1     -44.886  23.842  -4.053  1.00  0.00     0.274 HD
ATOM     31  H42 UNL     1     -46.385  23.946  -4.424  1.00  0.00     0.274 HD
ATOM     32  H41 UNL     1     -45.754  22.400  -4.179  1.00  0.00     0.274 HD
ENDBRANCH  28  29
BRANCH  28  33
HETATM   33  C11 UNL     1     -45.433  21.865  -6.506  1.00  0.00     0.244 C 
BRANCH  33  34
HETATM   34  N5  UNL     1     -44.329  20.973  -6.222  1.00  0.00    -0.070 N 
ATOM     35  H53 UNL     1     -43.715  21.377  -5.514  1.00  0.00     0.274 HD
ATOM     36  H52 UNL     1     -44.654  20.149  -5.717  1.00  0.00     0.274 HD
ATOM     37  H51 UNL     1     -43.794  20.700  -7.047  1.00  0.00     0.274 HD
ENDBRANCH  33  34
BRANCH  33  38
HETATM   38  C12 UNL     1     -46.781  21.236  -6.371  1.00  0.00     0.174 C 
BRANCH  38  39
HETATM   39  O1  UNL     1     -47.735  22.295  -6.202  1.00  0.00    -0.391 OA
ATOM     40  H1  UNL     1     -48.424  21.970  -5.634  1.00  0.00     0.210 HD
ENDBRANCH  38  39
BRANCH  38  41
HETATM   41  C13 UNL     1     -47.252  20.566  -7.666  1.00  0.00     0.197 C 
BRANCH  41  42
HETATM   42  O2  UNL     1     -46.123  19.927  -8.196  1.00  0.00    -0.398 OA
ATOM     43  H2  UNL     1     -45.886  20.423  -8.971  1.00  0.00     0.209 HD
ENDBRANCH  41  42
ENDBRANCH  38  41
ENDBRANCH  33  38
ENDBRANCH  28  33
ENDBRANCH  27  28
ENDBRANCH  26  27
ENDBRANCH  10  26
BRANCH  13  44
HETATM   44  N7  UNL     1     -40.931  21.336  -2.943  1.00  0.00    -0.234 N 
ATOM     45  H72 UNL     1     -40.400  20.668  -3.503  1.00  0.00     0.174 HD
ATOM     46  H71 UNL     1     -41.381  21.087  -2.062  1.00  0.00     0.174 HD
ENDBRANCH  13  44
BRANCH   1  47
HETATM   47  N1  UNL     1     -43.047  30.603  -6.685  1.00  0.00    -0.384 N 
ATOM     48  H12 UNL     1     -43.604  30.618  -7.538  1.00  0.00     0.157 HD
ATOM     49  H11 UNL     1     -43.056  31.555  -6.317  1.00  0.00     0.157 HD
ENDBRANCH   1  47
BRANCH  20  50
HETATM   50  S1  UNL     1     -35.262  25.233  -2.335  1.00  0.00    -0.091 SA
BRANCH  50  51
HETATM   51  C18 UNL     1     -33.930  25.146  -3.559  1.00  0.00     0.116 C 
BRANCH  51  52
HETATM   52  C19 UNL     1     -33.970  23.862  -4.324  1.00  0.00     0.151 C 
BRANCH  52  53
HETATM   53  O3  UNL     1     -35.264  23.350  -4.363  1.00  0.00    -0.393 OA
ATOM     54  H3  UNL     1     -35.251  22.402  -4.409  1.00  0.00     0.210 HD
ENDBRANCH  52  53
BRANCH  52  55
HETATM   55  C20 UNL     1     -33.115  22.817  -3.639  1.00  0.00     0.196 C 
BRANCH  55  56
HETATM   56  O4  UNL     1     -31.759  23.116  -3.694  1.00  0.00    -0.398 OA
ATOM     57  H4  UNL     1     -31.222  22.457  -3.270  1.00  0.00     0.209 HD
ENDBRANCH  55  56
ENDBRANCH  52  55
ENDBRANCH  51  52
ENDBRANCH  50  51
ENDBRANCH  20  50
TORSDOF 18
ENDMDL
MODEL 5
REMARK VINA RESULT: -7.535377992      2.627      8.128
REMARK  18 active torsions:
REMARK  status: ('A' for Active; 'I' for Inactive)
REMARK    1  A    between atoms: N1_1  and  C1_4 
REMARK    2  A    between atoms: C7_13  and  C8_14 
REMARK    3  A    between atoms: C8_14  and  C9_15 
REMARK    4  A    between atoms: C9_15  and  C10_16 
REMARK    5  A    between atoms: C10_16  and  N4_17 
REMARK    6  A    between atoms: C10_16  and  C11_21 
REMARK    7  A    between atoms: C11_21  and  N5_22 
REMARK    8  A    between atoms: C11_21  and  C12_26 
REMARK    9  A    between atoms: C12_26  and  O1_27 
REMARK   10  A    between atoms: C12_26  and  C13_29 
REMARK   11  A    between atoms: C13_29  and  O2_30 
REMARK   12  A    between atoms: C14_34  and  N7_35 
REMARK   13  A    between atoms: C17_44  and  S1_45 
REMARK   14  A    between atoms: S1_45  and  C18_46 
REMARK   15  A    between atoms: C18_46  and  C19_47 
REMARK   16  A    between atoms: C19_47  and  O3_48 
REMARK   17  A    between atoms: C19_47  and  C20_50 
REMARK   18  A    between atoms: C20_50  and  O4_51 
ROOT
HETATM    1  C1  UNL     1     -42.089  29.682  -5.744  1.00  0.00     0.116 A 
HETATM    2  C2  UNL     1     -42.437  28.365  -5.577  1.00  0.00     0.082 A 
HETATM    3  C3  UNL     1     -41.349  27.693  -5.061  1.00  0.00     0.074 A 
HETATM    4  N2  UNL     1     -40.385  28.617  -4.933  1.00  0.00    -0.252 N 
HETATM    5  N3  UNL     1     -40.824  29.792  -5.337  1.00  0.00    -0.278 N 
ATOM      6  H3  UNL     1     -40.278  30.654  -5.339  1.00  0.00     0.189 HD
HETATM    7  C4  UNL     1     -39.526  27.619  -4.422  1.00  0.00     0.088 A 
HETATM    8  C5  UNL     1     -40.484  26.643  -4.538  1.00  0.00     0.037 A 
HETATM    9  C6  UNL     1     -40.218  25.346  -4.158  1.00  0.00     0.032 A 
HETATM   10  C7  UNL     1     -41.157  24.355  -4.246  1.00  0.00     0.040 A 
HETATM   11  N6  UNL     1     -40.825  23.096  -3.830  1.00  0.00    -0.195 N 
ATOM     12  H6  UNL     1     -41.517  22.349  -3.890  1.00  0.00     0.184 HD
HETATM   13  C14 UNL     1     -39.615  22.830  -3.352  1.00  0.00     0.676 A 
HETATM   14  N8  UNL     1     -38.648  23.763  -3.244  1.00  0.00    -0.189 N 
ATOM     15  H8  UNL     1     -37.724  23.538  -2.875  1.00  0.00     0.184 HD
HETATM   16  C15 UNL     1     -38.965  24.997  -3.646  1.00  0.00     0.090 A 
HETATM   17  C16 UNL     1     -38.010  25.982  -3.535  1.00  0.00     0.081 A 
HETATM   18  N9  UNL     1     -36.786  25.699  -3.045  1.00  0.00    -0.334 N 
ATOM     19  H9  UNL     1     -36.559  24.747  -2.755  1.00  0.00     0.168 HD
HETATM   20  C17 UNL     1     -35.869  26.673  -2.939  1.00  0.00     0.147 A 
HETATM   21  N10 UNL     1     -36.110  27.941  -3.305  1.00  0.00    -0.303 N 
ATOM     22  H10 UNL     1     -35.387  28.653  -3.211  1.00  0.00     0.171 HD
HETATM   23  C21 UNL     1     -37.321  28.261  -3.798  1.00  0.00     0.262 A 
HETATM   24  O5  UNL     1     -37.579  29.422  -4.146  1.00  0.00    -0.267 OA
HETATM   25  C22 UNL     1     -38.284  27.274  -3.917  1.00  0.00     0.091 A 
ENDROOT
BRANCH  10  26
HETATM   26  C8  UNL     1     -42.483  24.612  -4.808  1.00  0.00     0.060 C 
BRANCH  26  27
HETATM   27  C9  UNL     1     -43.574  23.681  -4.314  1.00  0.00     0.041 C 
BRANCH  27  28
HETATM   28  C10 UNL     1     -44.035  22.905  -5.506  1.00  0.00     0.216 C 
BRANCH  28  29
HETATM   29  N4  UNL     1     -43.200  23.185  -6.664  1.00  0.00    -0.073 N 
ATOM     30  H43 UNL     1     -43.656  23.831  -7.309  1.00  0.00     0.274 HD
ATOM     31  H42 UNL     1     -42.392  23.757  -6.417  1.00  0.00     0.274 HD
ATOM     32  H41 UNL     1     -42.921  22.322  -7.131  1.00  0.00     0.274 HD
ENDBRANCH  28  29
BRANCH  28  33
HETATM   33  C11 UNL     1     -45.468  22.942  -5.845  1.00  0.00     0.244 C 
BRANCH  33  34
HETATM   34  N5  UNL     1     -45.938  24.242  -6.275  1.00  0.00    -0.070 N 
ATOM     35  H53 UNL     1     -46.685  24.144  -6.962  1.00  0.00     0.274 HD
ATOM     36  H52 UNL     1     -46.453  24.703  -5.525  1.00  0.00     0.274 HD
ATOM     37  H51 UNL     1     -45.201  24.852  -6.631  1.00  0.00     0.274 HD
ENDBRANCH  33  34
BRANCH  33  38
HETATM   38  C12 UNL     1     -46.041  21.796  -6.612  1.00  0.00     0.174 C 
BRANCH  38  39
HETATM   39  O1  UNL     1     -45.102  20.715  -6.538  1.00  0.00    -0.391 OA
ATOM     40  H1  UNL     1     -45.555  19.969  -6.163  1.00  0.00     0.210 HD
ENDBRANCH  38  39
BRANCH  38  41
HETATM   41  C13 UNL     1     -47.286  21.203  -5.944  1.00  0.00     0.197 C 
BRANCH  41  42
HETATM   42  O2  UNL     1     -47.722  22.169  -5.027  1.00  0.00    -0.398 OA
ATOM     43  H2  UNL     1     -48.641  21.982  -4.874  1.00  0.00     0.209 HD
ENDBRANCH  41  42
ENDBRANCH  38  41
ENDBRANCH  33  38
ENDBRANCH  28  33
ENDBRANCH  27  28
ENDBRANCH  26  27
ENDBRANCH  10  26
BRANCH  13  44
HETATM   44  N7  UNL     1     -39.330  21.617  -2.965  1.00  0.00    -0.234 N 
ATOM     45  H72 UNL     1     -40.023  21.126  -2.401  1.00  0.00     0.174 HD
ATOM     46  H71 UNL     1     -38.437  21.202  -3.232  1.00  0.00     0.174 HD
ENDBRANCH  13  44
BRANCH   1  47
HETATM   47  N1  UNL     1     -42.860  30.636  -6.213  1.00  0.00    -0.384 N 
ATOM     48  H12 UNL     1     -43.436  31.285  -5.677  1.00  0.00     0.157 HD
ATOM     49  H11 UNL     1     -42.999  30.872  -7.196  1.00  0.00     0.157 HD
ENDBRANCH   1  47
BRANCH  20  50
HETATM   50  S1  UNL     1     -34.269  26.267  -2.283  1.00  0.00    -0.091 SA
BRANCH  50  51
HETATM   51  C18 UNL     1     -33.808  24.556  -2.656  1.00  0.00     0.116 C 
BRANCH  51  52
HETATM   52  C19 UNL     1     -34.015  24.235  -4.102  1.00  0.00     0.151 C 
BRANCH  52  53
HETATM   53  O3  UNL     1     -35.169  23.477  -4.279  1.00  0.00    -0.393 OA
ATOM     54  H3  UNL     1     -35.945  24.017  -4.190  1.00  0.00     0.210 HD
ENDBRANCH  52  53
BRANCH  52  55
HETATM   55  C20 UNL     1     -32.866  23.398  -4.624  1.00  0.00     0.196 C 
BRANCH  55  56
HETATM   56  O4  UNL     1     -32.586  22.307  -3.808  1.00  0.00    -0.398 OA
ATOM     57  H4  UNL     1     -31.887  21.764  -4.152  1.00  0.00     0.209 HD
ENDBRANCH  55  56
ENDBRANCH  52  55
ENDBRANCH  51  52
ENDBRANCH  50  51
ENDBRANCH  20  50
TORSDOF 18
ENDMDL
