MODEL 1
REMARK VINA RESULT: -8.519294731      0.000      0.000
REMARK  9 active torsions:
REMARK  status: ('A' for Active; 'I' for Inactive)
REMARK    1  A    between atoms: C2_2  and  C4_4 
REMARK    2  A    between atoms: C5_5  and  C6_6 
REMARK    3  A    between atoms: C6_6  and  O1_7 
REMARK    4  A    between atoms: C8_10  and  O2_11 
REMARK    5  A    between atoms: O2_11  and  C9_12 
REMARK    6  A    between atoms: C9_12  and  C10_13 
REMARK    7  A    between atoms: C10_13  and  O3_14 
REMARK    8  A    between atoms: O3_14  and  N1_15 
REMARK    9  A    between atoms: C20_27  and  O4_28 
ROOT
HETATM    1  C6  UNL     1      10.117 163.613  30.750  1.00  0.00     0.082 C 
HETATM    2  C7  UNL     1       9.767 163.265  29.334  1.00  0.00     0.075 C 
HETATM    3  C8  UNL     1      10.219 161.802  29.123  1.00  0.00     0.133 C 
HETATM    4  C11 UNL     1       9.994 161.244  30.502  1.00  0.00    -0.011 C 
HETATM    5  C12 UNL     1       8.525 161.075  30.694  1.00  0.00     0.018 C 
HETATM    6  C13 UNL     1      10.762 159.956  30.721  1.00  0.00     0.012 C 
HETATM    7  C14 UNL     1      10.389 159.232  31.977  1.00  0.00     0.006 C 
HETATM    8  C15 UNL     1      11.379 159.179  33.057  1.00  0.00    -0.001 C 
HETATM    9  C16 UNL     1      12.773 158.794  32.634  1.00  0.00     0.010 C 
HETATM   10  C17 UNL     1      13.379 158.668  34.051  1.00  0.00     0.035 C 
HETATM   11  C18 UNL     1      12.859 159.940  34.647  1.00  0.00    -0.072 C 
HETATM   12  C19 UNL     1      13.288 160.796  35.562  1.00  0.00     0.008 C 
HETATM   13  C20 UNL     1      12.486 162.001  35.919  1.00  0.00     0.141 C 
HETATM   14  C21 UNL     1      12.025 162.633  34.664  1.00  0.00     0.041 C 
HETATM   15  C22 UNL     1      11.669 161.668  33.536  1.00  0.00     0.001 C 
HETATM   16  C23 UNL     1      10.447 162.211  32.810  1.00  0.00     0.014 C 
HETATM   17  C24 UNL     1      10.639 162.289  31.342  1.00  0.00     0.035 C 
HETATM   18  C25 UNL     1      11.538 160.266  34.018  1.00  0.00    -0.013 C 
HETATM   19  C26 UNL     1      10.473 160.111  35.088  1.00  0.00     0.021 C 
ENDROOT
BRANCH   1  20
HETATM   20  C5  UNL     1       8.988 164.107  31.519  1.00  0.00     0.012 C 
HETATM   21  C4  UNL     1       8.827 165.065  32.354  1.00  0.00     0.005 C 
BRANCH  21  22
HETATM   22  C2  UNL     1       9.671 166.073  32.906  1.00  0.00    -0.072 C 
HETATM   23  C1  UNL     1       9.435 167.346  32.466  1.00  0.00     0.018 C 
HETATM   24  C3  UNL     1      10.758 165.929  33.880  1.00  0.00     0.047 C 
ENDBRANCH  21  22
ENDBRANCH   1  20
BRANCH   1  25
HETATM   25  O1  UNL     1      11.167 164.511  30.779  1.00  0.00    -0.385 OA
ATOM     26  H1  UNL     1      11.089 165.149  30.079  1.00  0.00     0.211 HD
ENDBRANCH   1  25
BRANCH   3  27
HETATM   27  O2  UNL     1       9.459 161.196  28.205  1.00  0.00    -0.383 OA
BRANCH  27  28
HETATM   28  C9  UNL     1       9.879 160.391  27.242  1.00  0.00     0.197 C 
BRANCH  28  29
HETATM   29  C10 UNL     1       9.412 158.970  27.234  1.00  0.00     0.226 C 
BRANCH  29  30
HETATM   30  O3  UNL     1       8.245 158.816  26.540  1.00  0.00    -0.285 OA
BRANCH  30  31
HETATM   31  N1  UNL     1       7.942 157.557  26.229  1.00  0.00    -0.311 N 
ATOM     32  H12 UNL     1       8.331 156.768  26.747  1.00  0.00     0.184 HD
ATOM     33  H11 UNL     1       7.301 157.453  25.443  1.00  0.00     0.184 HD
ENDBRANCH  30  31
ENDBRANCH  29  30
ENDBRANCH  28  29
ENDBRANCH  27  28
ENDBRANCH   3  27
BRANCH  13  34
HETATM   34  O4  UNL     1      13.416 162.882  36.529  1.00  0.00    -0.392 OA
ATOM     35  H4  UNL     1      13.969 163.179  35.815  1.00  0.00     0.210 HD
ENDBRANCH  13  34
TORSDOF 9
ENDMDL
MODEL 2
REMARK VINA RESULT: -8.300729688      1.851      4.989
REMARK  9 active torsions:
REMARK  status: ('A' for Active; 'I' for Inactive)
REMARK    1  A    between atoms: C2_2  and  C4_4 
REMARK    2  A    between atoms: C5_5  and  C6_6 
REMARK    3  A    between atoms: C6_6  and  O1_7 
REMARK    4  A    between atoms: C8_10  and  O2_11 
REMARK    5  A    between atoms: O2_11  and  C9_12 
REMARK    6  A    between atoms: C9_12  and  C10_13 
REMARK    7  A    between atoms: C10_13  and  O3_14 
REMARK    8  A    between atoms: O3_14  and  N1_15 
REMARK    9  A    between atoms: C20_27  and  O4_28 
ROOT
HETATM    1  C6  UNL     1      11.026 159.661  32.471  1.00  0.00     0.082 C 
HETATM    2  C7  UNL     1      10.522 158.492  31.677  1.00  0.00     0.075 C 
HETATM    3  C8  UNL     1       9.594 159.076  30.588  1.00  0.00     0.133 C 
HETATM    4  C11 UNL     1      10.270 160.396  30.332  1.00  0.00    -0.011 C 
HETATM    5  C12 UNL     1      11.514 160.131  29.552  1.00  0.00     0.018 C 
HETATM    6  C13 UNL     1       9.346 161.378  29.639  1.00  0.00     0.012 C 
HETATM    7  C14 UNL     1      10.033 162.613  29.144  1.00  0.00     0.006 C 
HETATM    8  C15 UNL     1       9.726 163.881  29.812  1.00  0.00    -0.001 C 
HETATM    9  C16 UNL     1       8.261 164.158  30.029  1.00  0.00     0.010 C 
HETATM   10  C17 UNL     1       8.409 165.611  30.536  1.00  0.00     0.035 C 
HETATM   11  C18 UNL     1       9.518 165.408  31.523  1.00  0.00    -0.072 C 
HETATM   12  C19 UNL     1       9.875 165.968  32.668  1.00  0.00     0.008 C 
HETATM   13  C20 UNL     1      11.078 165.495  33.410  1.00  0.00     0.141 C 
HETATM   14  C21 UNL     1      11.047 164.017  33.440  1.00  0.00     0.041 C 
HETATM   15  C22 UNL     1      10.495 163.347  32.185  1.00  0.00     0.001 C 
HETATM   16  C23 UNL     1      11.313 162.094  31.911  1.00  0.00     0.014 C 
HETATM   17  C24 UNL     1      10.472 160.888  31.722  1.00  0.00     0.035 C 
HETATM   18  C25 UNL     1      10.398 164.293  31.040  1.00  0.00    -0.013 C 
HETATM   19  C26 UNL     1      11.738 164.899  30.667  1.00  0.00     0.021 C 
ENDROOT
BRANCH   1  20
HETATM   20  C5  UNL     1      12.476 159.721  32.551  1.00  0.00     0.012 C 
HETATM   21  C4  UNL     1      13.304 160.150  33.429  1.00  0.00     0.005 C 
BRANCH  21  22
HETATM   22  C2  UNL     1      13.187 160.756  34.713  1.00  0.00    -0.072 C 
HETATM   23  C1  UNL     1      13.747 161.998  34.835  1.00  0.00     0.018 C 
HETATM   24  C3  UNL     1      12.547 160.227  35.923  1.00  0.00     0.047 C 
ENDBRANCH  21  22
ENDBRANCH   1  20
BRANCH   1  25
HETATM   25  O1  UNL     1      10.460 159.666  33.731  1.00  0.00    -0.385 OA
ATOM     26  H1  UNL     1       9.592 160.051  33.713  1.00  0.00     0.211 HD
ENDBRANCH   1  25
BRANCH   3  27
HETATM   27  O2  UNL     1       9.585 158.298  29.501  1.00  0.00    -0.383 OA
BRANCH  27  28
HETATM   28  C9  UNL     1       8.517 157.882  28.839  1.00  0.00     0.197 C 
BRANCH  28  29
HETATM   29  C10 UNL     1       8.550 157.882  27.344  1.00  0.00     0.226 C 
BRANCH  29  30
HETATM   30  O3  UNL     1       8.883 159.105  26.836  1.00  0.00    -0.285 OA
BRANCH  30  31
HETATM   31  N1  UNL     1      10.172 159.254  26.537  1.00  0.00    -0.311 N 
ATOM     32  H12 UNL     1      10.481 159.874  25.788  1.00  0.00     0.184 HD
ATOM     33  H11 UNL     1      10.811 158.703  27.111  1.00  0.00     0.184 HD
ENDBRANCH  30  31
ENDBRANCH  29  30
ENDBRANCH  28  29
ENDBRANCH  27  28
ENDBRANCH   3  27
BRANCH  13  34
HETATM   34  O4  UNL     1      10.886 165.958  34.737  1.00  0.00    -0.392 OA
ATOM     35  H4  UNL     1      10.863 165.168  35.265  1.00  0.00     0.210 HD
ENDBRANCH  13  34
TORSDOF 9
ENDMDL
MODEL 3
REMARK VINA RESULT: -8.225719223      1.255      1.347
REMARK  9 active torsions:
REMARK  status: ('A' for Active; 'I' for Inactive)
REMARK    1  A    between atoms: C2_2  and  C4_4 
REMARK    2  A    between atoms: C5_5  and  C6_6 
REMARK    3  A    between atoms: C6_6  and  O1_7 
REMARK    4  A    between atoms: C8_10  and  O2_11 
REMARK    5  A    between atoms: O2_11  and  C9_12 
REMARK    6  A    between atoms: C9_12  and  C10_13 
REMARK    7  A    between atoms: C10_13  and  O3_14 
REMARK    8  A    between atoms: O3_14  and  N1_15 
REMARK    9  A    between atoms: C20_27  and  O4_28 
ROOT
HETATM    1  C6  UNL     1      10.106 163.654  30.741  1.00  0.00     0.082 C 
HETATM    2  C7  UNL     1       9.750 163.294  29.329  1.00  0.00     0.075 C 
HETATM    3  C8  UNL     1      10.201 161.829  29.129  1.00  0.00     0.133 C 
HETATM    4  C11 UNL     1       9.980 161.283  30.514  1.00  0.00    -0.011 C 
HETATM    5  C12 UNL     1       8.512 161.116  30.713  1.00  0.00     0.018 C 
HETATM    6  C13 UNL     1      10.748 159.997  30.741  1.00  0.00     0.012 C 
HETATM    7  C14 UNL     1      10.379 159.284  32.004  1.00  0.00     0.006 C 
HETATM    8  C15 UNL     1      11.373 159.239  33.081  1.00  0.00    -0.001 C 
HETATM    9  C16 UNL     1      12.766 158.849  32.657  1.00  0.00     0.010 C 
HETATM   10  C17 UNL     1      13.376 158.735  34.073  1.00  0.00     0.035 C 
HETATM   11  C18 UNL     1      12.859 160.012  34.660  1.00  0.00    -0.072 C 
HETATM   12  C19 UNL     1      13.291 160.876  35.566  1.00  0.00     0.008 C 
HETATM   13  C20 UNL     1      12.491 162.084  35.915  1.00  0.00     0.141 C 
HETATM   14  C21 UNL     1      12.026 162.706  34.656  1.00  0.00     0.041 C 
HETATM   15  C22 UNL     1      11.666 161.732  33.538  1.00  0.00     0.001 C 
HETATM   16  C23 UNL     1      10.442 162.269  32.811  1.00  0.00     0.014 C 
HETATM   17  C24 UNL     1      10.629 162.335  31.342  1.00  0.00     0.035 C 
HETATM   18  C25 UNL     1      11.536 160.334  34.032  1.00  0.00    -0.013 C 
HETATM   19  C26 UNL     1      10.475 160.189  35.107  1.00  0.00     0.021 C 
ENDROOT
BRANCH   1  20
HETATM   20  C5  UNL     1       8.979 164.155  31.510  1.00  0.00     0.012 C 
HETATM   21  C4  UNL     1       8.827 165.107  32.353  1.00  0.00     0.005 C 
BRANCH  21  22
HETATM   22  C2  UNL     1       9.680 166.100  32.917  1.00  0.00    -0.072 C 
HETATM   23  C1  UNL     1       9.467 167.379  32.482  1.00  0.00     0.018 C 
HETATM   24  C3  UNL     1      10.757 165.934  33.901  1.00  0.00     0.047 C 
ENDBRANCH  21  22
ENDBRANCH   1  20
BRANCH   1  25
HETATM   25  O1  UNL     1      11.155 164.552  30.758  1.00  0.00    -0.385 OA
ATOM     26  H1  UNL     1      11.075 165.156  31.486  1.00  0.00     0.211 HD
ENDBRANCH   1  25
BRANCH   3  27
HETATM   27  O2  UNL     1       9.437 161.215  28.219  1.00  0.00    -0.383 OA
BRANCH  27  28
HETATM   28  C9  UNL     1       9.855 160.414  27.252  1.00  0.00     0.197 C 
BRANCH  28  29
HETATM   29  C10 UNL     1      11.323 160.185  27.088  1.00  0.00     0.226 C 
BRANCH  29  30
HETATM   30  O3  UNL     1      11.761 160.529  25.840  1.00  0.00    -0.285 OA
BRANCH  30  31
HETATM   31  N1  UNL     1      13.082 160.476  25.678  1.00  0.00    -0.311 N 
ATOM     32  H12 UNL     1      13.607 161.261  25.292  1.00  0.00     0.184 HD
ATOM     33  H11 UNL     1      13.514 159.599  25.968  1.00  0.00     0.184 HD
ENDBRANCH  30  31
ENDBRANCH  29  30
ENDBRANCH  28  29
ENDBRANCH  27  28
ENDBRANCH   3  27
BRANCH  13  34
HETATM   34  O4  UNL     1      13.424 162.970  36.514  1.00  0.00    -0.392 OA
ATOM     35  H4  UNL     1      13.020 163.223  37.336  1.00  0.00     0.210 HD
ENDBRANCH  13  34
TORSDOF 9
ENDMDL
MODEL 4
REMARK VINA RESULT: -8.098827109      2.770      4.599
REMARK  9 active torsions:
REMARK  status: ('A' for Active; 'I' for Inactive)
REMARK    1  A    between atoms: C2_2  and  C4_4 
REMARK    2  A    between atoms: C5_5  and  C6_6 
REMARK    3  A    between atoms: C6_6  and  O1_7 
REMARK    4  A    between atoms: C8_10  and  O2_11 
REMARK    5  A    between atoms: O2_11  and  C9_12 
REMARK    6  A    between atoms: C9_12  and  C10_13 
REMARK    7  A    between atoms: C10_13  and  O3_14 
REMARK    8  A    between atoms: O3_14  and  N1_15 
REMARK    9  A    between atoms: C20_27  and  O4_28 
ROOT
HETATM    1  C6  UNL     1      10.552 159.641  29.501  1.00  0.00     0.082 C 
HETATM    2  C7  UNL     1       9.147 159.161  29.288  1.00  0.00     0.075 C 
HETATM    3  C8  UNL     1       8.479 159.147  30.682  1.00  0.00     0.133 C 
HETATM    4  C11 UNL     1       9.179 160.308  31.333  1.00  0.00    -0.011 C 
HETATM    5  C12 UNL     1       8.623 161.564  30.750  1.00  0.00     0.018 C 
HETATM    6  C13 UNL     1       9.059 160.264  32.843  1.00  0.00     0.012 C 
HETATM    7  C14 UNL     1       9.522 161.514  33.526  1.00  0.00     0.006 C 
HETATM    8  C15 UNL     1      10.748 161.441  34.327  1.00  0.00    -0.001 C 
HETATM    9  C16 UNL     1      10.831 160.273  35.276  1.00  0.00     0.010 C 
HETATM   10  C17 UNL     1      12.118 160.710  36.012  1.00  0.00     0.035 C 
HETATM   11  C18 UNL     1      12.963 161.062  34.826  1.00  0.00    -0.072 C 
HETATM   12  C19 UNL     1      14.258 161.030  34.548  1.00  0.00     0.008 C 
HETATM   13  C20 UNL     1      14.767 161.468  33.218  1.00  0.00     0.141 C 
HETATM   14  C21 UNL     1      13.906 160.866  32.177  1.00  0.00     0.041 C 
HETATM   15  C22 UNL     1      12.427 160.751  32.534  1.00  0.00     0.001 C 
HETATM   16  C23 UNL     1      11.608 161.057  31.289  1.00  0.00     0.014 C 
HETATM   17  C24 UNL     1      10.597 160.013  30.995  1.00  0.00     0.035 C 
HETATM   18  C25 UNL     1      12.074 161.565  33.729  1.00  0.00    -0.013 C 
HETATM   19  C26 UNL     1      12.372 163.041  33.542  1.00  0.00     0.021 C 
ENDROOT
BRANCH   1  20
HETATM   20  C5  UNL     1      10.900 160.786  28.677  1.00  0.00     0.012 C 
HETATM   21  C4  UNL     1      11.922 161.100  27.971  1.00  0.00     0.005 C 
BRANCH  21  22
HETATM   22  C2  UNL     1      13.169 160.478  27.670  1.00  0.00    -0.072 C 
HETATM   23  C1  UNL     1      14.219 160.846  28.465  1.00  0.00     0.018 C 
HETATM   24  C3  UNL     1      13.476 159.496  26.624  1.00  0.00     0.047 C 
ENDBRANCH  21  22
ENDBRANCH   1  20
BRANCH   1  25
HETATM   25  O1  UNL     1      11.447 158.605  29.313  1.00  0.00    -0.385 OA
ATOM     26  H1  UNL     1      11.060 157.772  29.555  1.00  0.00     0.211 HD
ENDBRANCH   1  25
BRANCH   3  27
HETATM   27  O2  UNL     1       7.161 159.347  30.581  1.00  0.00    -0.383 OA
BRANCH  27  28
HETATM   28  C9  UNL     1       6.214 158.725  31.266  1.00  0.00     0.197 C 
BRANCH  28  29
HETATM   29  C10 UNL     1       6.403 157.282  31.611  1.00  0.00     0.226 C 
BRANCH  29  30
HETATM   30  O3  UNL     1       6.232 156.467  30.528  1.00  0.00    -0.285 OA
BRANCH  30  31
HETATM   31  N1  UNL     1       5.404 156.942  29.598  1.00  0.00    -0.311 N 
ATOM     32  H12 UNL     1       4.998 157.875  29.668  1.00  0.00     0.184 HD
ATOM     33  H11 UNL     1       5.216 156.302  28.827  1.00  0.00     0.184 HD
ENDBRANCH  30  31
ENDBRANCH  29  30
ENDBRANCH  28  29
ENDBRANCH  27  28
ENDBRANCH   3  27
BRANCH  13  34
HETATM   34  O4  UNL     1      16.051 160.874  33.112  1.00  0.00    -0.392 OA
ATOM     35  H4  UNL     1      15.877 159.956  32.945  1.00  0.00     0.210 HD
ENDBRANCH  13  34
TORSDOF 9
ENDMDL
MODEL 5
REMARK VINA RESULT: -8.016528852      2.324      5.191
REMARK  9 active torsions:
REMARK  status: ('A' for Active; 'I' for Inactive)
REMARK    1  A    between atoms: C2_2  and  C4_4 
REMARK    2  A    between atoms: C5_5  and  C6_6 
REMARK    3  A    between atoms: C6_6  and  O1_7 
REMARK    4  A    between atoms: C8_10  and  O2_11 
REMARK    5  A    between atoms: O2_11  and  C9_12 
REMARK    6  A    between atoms: C9_12  and  C10_13 
REMARK    7  A    between atoms: C10_13  and  O3_14 
REMARK    8  A    between atoms: O3_14  and  N1_15 
REMARK    9  A    between atoms: C20_27  and  O4_28 
ROOT
HETATM    1  C6  UNL     1      10.967 159.704  32.649  1.00  0.00     0.082 C 
HETATM    2  C7  UNL     1      10.452 158.510  31.902  1.00  0.00     0.075 C 
HETATM    3  C8  UNL     1       9.532 159.060  30.788  1.00  0.00     0.133 C 
HETATM    4  C11 UNL     1      10.221 160.361  30.481  1.00  0.00    -0.011 C 
HETATM    5  C12 UNL     1      11.463 160.053  29.714  1.00  0.00     0.018 C 
HETATM    6  C13 UNL     1       9.308 161.323  29.748  1.00  0.00     0.012 C 
HETATM    7  C14 UNL     1      10.008 162.530  29.204  1.00  0.00     0.006 C 
HETATM    8  C15 UNL     1       9.713 163.828  29.820  1.00  0.00    -0.001 C 
HETATM    9  C16 UNL     1       8.250 164.127  30.024  1.00  0.00     0.010 C 
HETATM   10  C17 UNL     1       8.412 165.598  30.473  1.00  0.00     0.035 C 
HETATM   11  C18 UNL     1       9.518 165.423  31.468  1.00  0.00    -0.072 C 
HETATM   12  C19 UNL     1       9.879 166.026  32.591  1.00  0.00     0.008 C 
HETATM   13  C20 UNL     1      11.076 165.571  33.353  1.00  0.00     0.141 C 
HETATM   14  C21 UNL     1      11.030 164.095  33.443  1.00  0.00     0.041 C 
HETATM   15  C22 UNL     1      10.473 163.381  32.215  1.00  0.00     0.001 C 
HETATM   16  C23 UNL     1      11.279 162.110  31.992  1.00  0.00     0.014 C 
HETATM   17  C24 UNL     1      10.426 160.906  31.850  1.00  0.00     0.035 C 
HETATM   18  C25 UNL     1      10.387 164.282  31.033  1.00  0.00    -0.013 C 
HETATM   19  C26 UNL     1      11.733 164.859  30.638  1.00  0.00     0.021 C 
ENDROOT
BRANCH   1  20
HETATM   20  C5  UNL     1      12.417 159.753  32.729  1.00  0.00     0.012 C 
HETATM   21  C4  UNL     1      13.248 160.203  33.593  1.00  0.00     0.005 C 
BRANCH  21  22
HETATM   22  C2  UNL     1      13.135 160.853  34.857  1.00  0.00    -0.072 C 
HETATM   23  C1  UNL     1      13.706 162.093  34.937  1.00  0.00     0.018 C 
HETATM   24  C3  UNL     1      12.490 160.370  36.083  1.00  0.00     0.047 C 
ENDBRANCH  21  22
ENDBRANCH   1  20
BRANCH   1  25
HETATM   25  O1  UNL     1      10.399 159.766  33.907  1.00  0.00    -0.385 OA
ATOM     26  H1  UNL     1       9.561 160.213  33.881  1.00  0.00     0.211 HD
ENDBRANCH   1  25
BRANCH   3  27
HETATM   27  O2  UNL     1       9.517 158.238  29.733  1.00  0.00    -0.383 OA
BRANCH  27  28
HETATM   28  C9  UNL     1       8.444 157.746  29.134  1.00  0.00     0.197 C 
BRANCH  28  29
HETATM   29  C10 UNL     1       7.123 157.840  29.827  1.00  0.00     0.226 C 
BRANCH  29  30
HETATM   30  O3  UNL     1       7.019 156.952  30.860  1.00  0.00    -0.285 OA
BRANCH  30  31
HETATM   31  N1  UNL     1       6.258 157.361  31.874  1.00  0.00    -0.311 N 
ATOM     32  H12 UNL     1       6.319 158.311  32.241  1.00  0.00     0.184 HD
ATOM     33  H11 UNL     1       5.622 156.655  32.244  1.00  0.00     0.184 HD
ENDBRANCH  30  31
ENDBRANCH  29  30
ENDBRANCH  28  29
ENDBRANCH  27  28
ENDBRANCH   3  27
BRANCH  13  34
HETATM   34  O4  UNL     1      10.886 166.088  34.661  1.00  0.00    -0.392 OA
ATOM     35  H4  UNL     1      11.106 167.010  34.588  1.00  0.00     0.210 HD
ENDBRANCH  13  34
TORSDOF 9
ENDMDL
