MODEL 1
REMARK VINA RESULT: -6.942884002      0.000      0.000
REMARK  8 active torsions:
REMARK  status: ('A' for Active; 'I' for Inactive)
REMARK    1  A    between atoms: N1_1  and  C1_4 
REMARK    2  A    between atoms: C3_10  and  N4_11 
REMARK    3  A    between atoms: N4_11  and  N5_13 
REMARK    4  A    between atoms: C4_15  and  C5_17 
REMARK    5  A    between atoms: N8_21  and  C6_22 
REMARK    6  A    between atoms: C9_25  and  C10_26 
REMARK    7  A    between atoms: C10_26  and  N9_27 
REMARK    8  A    between atoms: C10_26  and  C11_31 
ROOT
HETATM    1  C5  UNL     1     -23.855   4.306  11.894  1.00  0.00     0.187 A 
HETATM    2  N7  UNL     1     -23.915   4.608  10.588  1.00  0.00    -0.219 N 
ATOM      3  H7  UNL     1     -24.744   4.563   9.995  1.00  0.00     0.198 HD
HETATM    4  O1  UNL     1     -22.729   4.966  10.219  1.00  0.00    -0.132 OA
HETATM    5  N8  UNL     1     -21.919   4.905  11.229  1.00  0.00    -0.135 N 
HETATM    6  N10 UNL     1     -22.581   4.499  12.288  1.00  0.00    -0.252 N 
ATOM      7  H10 UNL     1     -22.205   4.358  13.226  1.00  0.00     0.191 HD
ENDROOT
BRANCH   1   8
HETATM    8  C4  UNL     1     -24.990   3.859  12.683  1.00  0.00     0.178 C 
HETATM    9  N5  UNL     1     -25.218   4.413  13.818  1.00  0.00    -0.283 N 
ATOM     10  H5  UNL     1     -24.597   5.155  14.141  1.00  0.00     0.188 HD
HETATM   11  N6  UNL     1     -25.795   2.818  12.148  1.00  0.00    -0.077 NA
BRANCH   9  12
HETATM   12  N4  UNL     1     -26.278   4.034  14.612  1.00  0.00    -0.282 N 
ATOM     13  H4  UNL     1     -27.120   4.609  14.594  1.00  0.00     0.188 HD
BRANCH  12  14
HETATM   14  C3  UNL     1     -26.269   2.991  15.381  1.00  0.00     0.152 A 
HETATM   15  C2  UNL     1     -27.058   2.876  16.507  1.00  0.00     0.158 A 
HETATM   16  N3  UNL     1     -26.994   1.759  17.258  1.00  0.00    -0.294 N 
HETATM   17  N2  UNL     1     -26.199   0.741  16.973  1.00  0.00    -0.133 N 
ATOM     18  H3  UNL     1     -27.586   1.696  18.086  1.00  0.00     0.186 HD
HETATM   19  C1  UNL     1     -25.428   0.849  15.877  1.00  0.00     0.692 A 
ATOM     20  H2  UNL     1     -26.173  -0.092  17.560  1.00  0.00     0.205 HD
HETATM   21  N11 UNL     1     -25.459   1.958  15.088  1.00  0.00    -0.173 N 
ATOM     22  H11 UNL     1     -24.859   2.006  14.264  1.00  0.00     0.186 HD
BRANCH  19  23
HETATM   23  N1  UNL     1     -24.636  -0.119  15.560  1.00  0.00    -0.233 N 
ATOM     24  H12 UNL     1     -23.693  -0.131  15.946  1.00  0.00     0.174 HD
ATOM     25  H11 UNL     1     -24.966  -0.853  14.932  1.00  0.00     0.174 HD
ENDBRANCH  19  23
ENDBRANCH  12  14
ENDBRANCH   9  12
ENDBRANCH   1   8
BRANCH   5  26
HETATM   26  C6  UNL     1     -20.528   5.245  11.124  1.00  0.00     0.084 A 
HETATM   27  C7  UNL     1     -20.038   6.441  11.607  1.00  0.00     0.034 A 
HETATM   28  C8  UNL     1     -18.694   6.775  11.508  1.00  0.00     0.012 A 
HETATM   29  C9  UNL     1     -17.819   5.884  10.907  1.00  0.00    -0.019 A 
HETATM   30  C12 UNL     1     -18.305   4.679  10.418  1.00  0.00     0.012 A 
HETATM   31  C13 UNL     1     -19.657   4.359  10.526  1.00  0.00     0.034 A 
BRANCH  29  32
HETATM   32  C10 UNL     1     -16.388   6.183  10.773  1.00  0.00     0.323 C 
BRANCH  32  33
HETATM   33  N9  UNL     1     -16.106   7.542  10.412  1.00  0.00    -0.062 N 
ATOM     34  H93 UNL     1     -15.900   7.612   9.415  1.00  0.00     0.275 HD
ATOM     35  H92 UNL     1     -16.954   8.107  10.454  1.00  0.00     0.275 HD
ATOM     36  H91 UNL     1     -15.362   7.972  10.961  1.00  0.00     0.275 HD
ENDBRANCH  32  33
BRANCH  32  37
HETATM   37  C11 UNL     1     -15.658   5.801  12.052  1.00  0.00     0.419 C 
HETATM   38  F1  UNL     1     -16.478   5.051  12.861  1.00  0.00    -0.168 F 
HETATM   39  F2  UNL     1     -15.257   6.920  12.748  1.00  0.00    -0.168 F 
HETATM   40  F3  UNL     1     -14.550   5.034  11.683  1.00  0.00    -0.168 F 
ENDBRANCH  32  37
ENDBRANCH  29  32
ENDBRANCH   5  26
TORSDOF 8
ENDMDL
MODEL 2
REMARK VINA RESULT: -6.923754834      5.307      6.052
REMARK  8 active torsions:
REMARK  status: ('A' for Active; 'I' for Inactive)
REMARK    1  A    between atoms: N1_1  and  C1_4 
REMARK    2  A    between atoms: C3_10  and  N4_11 
REMARK    3  A    between atoms: N4_11  and  N5_13 
REMARK    4  A    between atoms: C4_15  and  C5_17 
REMARK    5  A    between atoms: N8_21  and  C6_22 
REMARK    6  A    between atoms: C9_25  and  C10_26 
REMARK    7  A    between atoms: C10_26  and  N9_27 
REMARK    8  A    between atoms: C10_26  and  C11_31 
ROOT
HETATM    1  C5  UNL     1     -25.474   8.158  13.891  1.00  0.00     0.187 A 
HETATM    2  N7  UNL     1     -25.863   9.298  13.300  1.00  0.00    -0.219 N 
ATOM      3  H7  UNL     1     -26.752   9.461  12.829  1.00  0.00     0.198 HD
HETATM    4  O1  UNL     1     -24.901  10.151  13.437  1.00  0.00    -0.132 OA
HETATM    5  N8  UNL     1     -23.922   9.606  14.087  1.00  0.00    -0.135 N 
HETATM    6  N10 UNL     1     -24.239   8.368  14.387  1.00  0.00    -0.252 N 
ATOM      7  H10 UNL     1     -23.663   7.697  14.895  1.00  0.00     0.191 HD
ENDROOT
BRANCH   1   8
HETATM    8  C4  UNL     1     -26.282   6.952  13.952  1.00  0.00     0.178 C 
HETATM    9  N5  UNL     1     -25.832   5.930  14.587  1.00  0.00    -0.283 N 
ATOM     10  H5  UNL     1     -24.916   5.988  15.033  1.00  0.00     0.188 HD
HETATM   11  N6  UNL     1     -27.542   6.968  13.297  1.00  0.00    -0.077 NA
BRANCH   9  12
HETATM   12  N4  UNL     1     -26.549   4.758  14.681  1.00  0.00    -0.282 N 
ATOM     13  H4  UNL     1     -27.559   4.824  14.813  1.00  0.00     0.188 HD
BRANCH  12  14
HETATM   14  C3  UNL     1     -26.020   3.578  14.610  1.00  0.00     0.152 A 
HETATM   15  C2  UNL     1     -25.352   3.115  13.496  1.00  0.00     0.158 A 
HETATM   16  N3  UNL     1     -24.828   1.874  13.498  1.00  0.00    -0.294 N 
HETATM   17  N2  UNL     1     -24.918   1.053  14.530  1.00  0.00    -0.133 N 
ATOM     18  H3  UNL     1     -24.338   1.552  12.662  1.00  0.00     0.186 HD
HETATM   19  C1  UNL     1     -25.568   1.499  15.619  1.00  0.00     0.692 A 
ATOM     20  H2  UNL     1     -24.510   0.118  14.503  1.00  0.00     0.205 HD
HETATM   21  N11 UNL     1     -26.114   2.746  15.663  1.00  0.00    -0.173 N 
ATOM     22  H11 UNL     1     -26.601   3.052  16.506  1.00  0.00     0.186 HD
BRANCH  19  23
HETATM   23  N1  UNL     1     -25.681   0.732  16.650  1.00  0.00    -0.233 N 
ATOM     24  H12 UNL     1     -24.999  -0.014  16.786  1.00  0.00     0.174 HD
ATOM     25  H11 UNL     1     -26.445   0.885  17.309  1.00  0.00     0.174 HD
ENDBRANCH  19  23
ENDBRANCH  12  14
ENDBRANCH   9  12
ENDBRANCH   1   8
BRANCH   5  26
HETATM   26  C6  UNL     1     -22.710  10.315  14.392  1.00  0.00     0.084 A 
HETATM   27  C7  UNL     1     -22.520  11.624  13.998  1.00  0.00     0.034 A 
HETATM   28  C8  UNL     1     -21.352  12.314  14.290  1.00  0.00     0.012 A 
HETATM   29  C9  UNL     1     -20.347  11.672  14.996  1.00  0.00    -0.019 A 
HETATM   30  C12 UNL     1     -20.531  10.356  15.396  1.00  0.00     0.012 A 
HETATM   31  C13 UNL     1     -21.710   9.678  15.095  1.00  0.00     0.034 A 
BRANCH  29  32
HETATM   32  C10 UNL     1     -19.090  12.351  15.334  1.00  0.00     0.323 C 
BRANCH  32  33
HETATM   33  N9  UNL     1     -18.641  13.279  14.337  1.00  0.00    -0.062 N 
ATOM     34  H93 UNL     1     -19.299  14.053  14.246  1.00  0.00     0.275 HD
ATOM     35  H92 UNL     1     -17.820  13.788  14.665  1.00  0.00     0.275 HD
ATOM     36  H91 UNL     1     -18.459  12.857  13.426  1.00  0.00     0.275 HD
ENDBRANCH  32  33
BRANCH  32  37
HETATM   37  C11 UNL     1     -19.216  13.032  16.688  1.00  0.00     0.419 C 
HETATM   38  F1  UNL     1     -19.509  12.104  17.660  1.00  0.00    -0.168 F 
HETATM   39  F2  UNL     1     -20.211  13.985  16.674  1.00  0.00    -0.168 F 
HETATM   40  F3  UNL     1     -17.981  13.620  16.973  1.00  0.00    -0.168 F 
ENDBRANCH  32  37
ENDBRANCH  29  32
ENDBRANCH   5  26
TORSDOF 8
ENDMDL
MODEL 3
REMARK VINA RESULT: -6.876504786      3.184      3.772
REMARK  8 active torsions:
REMARK  status: ('A' for Active; 'I' for Inactive)
REMARK    1  A    between atoms: N1_1  and  C1_4 
REMARK    2  A    between atoms: C3_10  and  N4_11 
REMARK    3  A    between atoms: N4_11  and  N5_13 
REMARK    4  A    between atoms: C4_15  and  C5_17 
REMARK    5  A    between atoms: N8_21  and  C6_22 
REMARK    6  A    between atoms: C9_25  and  C10_26 
REMARK    7  A    between atoms: C10_26  and  N9_27 
REMARK    8  A    between atoms: C10_26  and  C11_31 
ROOT
HETATM    1  C5  UNL     1     -22.388   5.348  12.374  1.00  0.00     0.187 A 
HETATM    2  N7  UNL     1     -21.222   5.846  12.813  1.00  0.00    -0.219 N 
ATOM      3  H7  UNL     1     -21.058   6.296  13.713  1.00  0.00     0.198 HD
HETATM    4  O1  UNL     1     -20.344   5.650  11.884  1.00  0.00    -0.132 OA
HETATM    5  N8  UNL     1     -20.899   5.051  10.877  1.00  0.00    -0.135 N 
HETATM    6  N10 UNL     1     -22.167   4.847  11.143  1.00  0.00    -0.252 N 
ATOM      7  H10 UNL     1     -22.853   4.396  10.536  1.00  0.00     0.191 HD
ENDROOT
BRANCH   1   8
HETATM    8  C4  UNL     1     -23.627   5.376  13.133  1.00  0.00     0.178 C 
HETATM    9  N5  UNL     1     -24.384   4.339  13.130  1.00  0.00    -0.283 N 
ATOM     10  H5  UNL     1     -24.099   3.519  12.594  1.00  0.00     0.188 HD
HETATM   11  N6  UNL     1     -23.937   6.564  13.846  1.00  0.00    -0.077 NA
BRANCH   9  12
HETATM   12  N4  UNL     1     -25.569   4.302  13.829  1.00  0.00    -0.282 N 
ATOM     13  H4  UNL     1     -26.255   5.036  13.649  1.00  0.00     0.188 HD
BRANCH  12  14
HETATM   14  C3  UNL     1     -25.867   3.392  14.702  1.00  0.00     0.152 A 
HETATM   15  C2  UNL     1     -26.893   3.526  15.614  1.00  0.00     0.158 A 
HETATM   16  N3  UNL     1     -27.142   2.536  16.492  1.00  0.00    -0.294 N 
HETATM   17  N2  UNL     1     -26.444   1.413  16.533  1.00  0.00    -0.133 N 
ATOM     18  H3  UNL     1     -27.906   2.658  17.158  1.00  0.00     0.186 HD
HETATM   19  C1  UNL     1     -25.443   1.278  15.646  1.00  0.00     0.692 A 
ATOM     20  H2  UNL     1     -26.657   0.680  17.209  1.00  0.00     0.205 HD
HETATM   21  N11 UNL     1     -25.154   2.252  14.740  1.00  0.00    -0.173 N 
ATOM     22  H11 UNL     1     -24.387   2.115  14.082  1.00  0.00     0.186 HD
BRANCH  19  23
HETATM   23  N1  UNL     1     -24.735   0.199  15.649  1.00  0.00    -0.233 N 
ATOM     24  H12 UNL     1     -24.355  -0.138  16.533  1.00  0.00     0.174 HD
ATOM     25  H11 UNL     1     -24.568  -0.295  14.772  1.00  0.00     0.174 HD
ENDBRANCH  19  23
ENDBRANCH  12  14
ENDBRANCH   9  12
ENDBRANCH   1   8
BRANCH   5  26
HETATM   26  C6  UNL     1     -20.167   4.701   9.691  1.00  0.00     0.084 A 
HETATM   27  C7  UNL     1     -20.579   5.114   8.441  1.00  0.00     0.034 A 
HETATM   28  C8  UNL     1     -19.877   4.779   7.291  1.00  0.00     0.012 A 
HETATM   29  C9  UNL     1     -18.730   4.008   7.401  1.00  0.00    -0.019 A 
HETATM   30  C12 UNL     1     -18.310   3.589   8.657  1.00  0.00     0.012 A 
HETATM   31  C13 UNL     1     -19.026   3.935   9.800  1.00  0.00     0.034 A 
BRANCH  29  32
HETATM   32  C10 UNL     1     -17.946   3.622   6.222  1.00  0.00     0.323 C 
BRANCH  32  33
HETATM   33  N9  UNL     1     -18.741   3.208   5.102  1.00  0.00    -0.062 N 
ATOM     34  H93 UNL     1     -18.247   3.388   4.227  1.00  0.00     0.275 HD
ATOM     35  H92 UNL     1     -18.799   2.191   5.061  1.00  0.00     0.275 HD
ATOM     36  H91 UNL     1     -19.673   3.622   5.078  1.00  0.00     0.275 HD
ENDBRANCH  32  33
BRANCH  32  37
HETATM   37  C11 UNL     1     -17.009   4.755   5.830  1.00  0.00     0.419 C 
HETATM   38  F1  UNL     1     -15.854   4.247   5.282  1.00  0.00    -0.168 F 
HETATM   39  F2  UNL     1     -16.675   5.525   6.922  1.00  0.00    -0.168 F 
HETATM   40  F3  UNL     1     -17.670   5.527   4.872  1.00  0.00    -0.168 F 
ENDBRANCH  32  37
ENDBRANCH  29  32
ENDBRANCH   5  26
TORSDOF 8
ENDMDL
MODEL 4
REMARK VINA RESULT: -6.797041041      6.497      9.998
REMARK  8 active torsions:
REMARK  status: ('A' for Active; 'I' for Inactive)
REMARK    1  A    between atoms: N1_1  and  C1_4 
REMARK    2  A    between atoms: C3_10  and  N4_11 
REMARK    3  A    between atoms: N4_11  and  N5_13 
REMARK    4  A    between atoms: C4_15  and  C5_17 
REMARK    5  A    between atoms: N8_21  and  C6_22 
REMARK    6  A    between atoms: C9_25  and  C10_26 
REMARK    7  A    between atoms: C10_26  and  N9_27 
REMARK    8  A    between atoms: C10_26  and  C11_31 
ROOT
HETATM    1  C5  UNL     1     -25.180   8.575  12.919  1.00  0.00     0.187 A 
HETATM    2  N7  UNL     1     -24.324   8.667  13.948  1.00  0.00    -0.219 N 
ATOM      3  H7  UNL     1     -23.764   9.481  14.197  1.00  0.00     0.198 HD
HETATM    4  O1  UNL     1     -24.342   7.531  14.566  1.00  0.00    -0.132 OA
HETATM    5  N8  UNL     1     -25.168   6.725  13.978  1.00  0.00    -0.135 N 
HETATM    6  N10 UNL     1     -25.708   7.336  12.950  1.00  0.00    -0.252 N 
ATOM      7  H10 UNL     1     -26.394   6.949  12.302  1.00  0.00     0.191 HD
ENDROOT
BRANCH   1   8
HETATM    8  C4  UNL     1     -25.445   9.651  11.978  1.00  0.00     0.178 C 
HETATM    9  N5  UNL     1     -26.266   9.447  11.013  1.00  0.00    -0.283 N 
ATOM     10  H5  UNL     1     -26.714   8.535  10.927  1.00  0.00     0.188 HD
HETATM   11  N6  UNL     1     -24.771  10.884  12.180  1.00  0.00    -0.077 NA
BRANCH   9  12
HETATM   12  N4  UNL     1     -26.559  10.425  10.089  1.00  0.00    -0.282 N 
ATOM     13  H4  UNL     1     -26.041  11.303  10.140  1.00  0.00     0.188 HD
BRANCH  12  14
HETATM   14  C3  UNL     1     -27.453  10.299   9.159  1.00  0.00     0.152 A 
HETATM   15  C2  UNL     1     -27.943   9.078   8.744  1.00  0.00     0.158 A 
HETATM   16  N3  UNL     1     -28.872   9.026   7.769  1.00  0.00    -0.294 N 
HETATM   17  N2  UNL     1     -29.354  10.103   7.173  1.00  0.00    -0.133 N 
ATOM     18  H3  UNL     1     -29.220   8.112   7.478  1.00  0.00     0.186 HD
HETATM   19  C1  UNL     1     -28.879  11.295   7.574  1.00  0.00     0.692 A 
ATOM     20  H2  UNL     1     -30.058  10.033   6.438  1.00  0.00     0.205 HD
HETATM   21  N11 UNL     1     -27.940  11.397   8.554  1.00  0.00    -0.173 N 
ATOM     22  H11 UNL     1     -27.601  12.318   8.834  1.00  0.00     0.186 HD
BRANCH  19  23
HETATM   23  N1  UNL     1     -29.320  12.374   7.019  1.00  0.00    -0.233 N 
ATOM     24  H12 UNL     1     -30.320  12.463   6.843  1.00  0.00     0.174 HD
ATOM     25  H11 UNL     1     -28.665  13.115   6.769  1.00  0.00     0.174 HD
ENDBRANCH  19  23
ENDBRANCH  12  14
ENDBRANCH   9  12
ENDBRANCH   1   8
BRANCH   5  26
HETATM   26  C6  UNL     1     -25.398   5.385  14.441  1.00  0.00     0.084 A 
HETATM   27  C7  UNL     1     -26.665   4.936  14.753  1.00  0.00     0.034 A 
HETATM   28  C8  UNL     1     -26.895   3.643  15.200  1.00  0.00     0.012 A 
HETATM   29  C9  UNL     1     -25.822   2.776  15.338  1.00  0.00    -0.019 A 
HETATM   30  C12 UNL     1     -24.544   3.220  15.027  1.00  0.00     0.012 A 
HETATM   31  C13 UNL     1     -24.332   4.522  14.578  1.00  0.00     0.034 A 
BRANCH  29  32
HETATM   32  C10 UNL     1     -26.002   1.396  15.808  1.00  0.00     0.323 C 
BRANCH  32  33
HETATM   33  N9  UNL     1     -24.783   0.648  15.903  1.00  0.00    -0.062 N 
ATOM     34  H93 UNL     1     -24.918  -0.185  16.477  1.00  0.00     0.275 HD
ATOM     35  H92 UNL     1     -24.562   0.208  15.009  1.00  0.00     0.275 HD
ATOM     36  H91 UNL     1     -23.987   1.189  16.241  1.00  0.00     0.275 HD
ENDBRANCH  32  33
BRANCH  32  37
HETATM   37  C11 UNL     1     -26.743   1.394  17.136  1.00  0.00     0.419 C 
HETATM   38  F1  UNL     1     -28.094   1.537  16.927  1.00  0.00    -0.168 F 
HETATM   39  F2  UNL     1     -26.312   2.421  17.948  1.00  0.00    -0.168 F 
HETATM   40  F3  UNL     1     -26.501   0.159  17.743  1.00  0.00    -0.168 F 
ENDBRANCH  32  37
ENDBRANCH  29  32
ENDBRANCH   5  26
TORSDOF 8
ENDMDL
MODEL 5
REMARK VINA RESULT: -6.788374503      1.771      2.364
REMARK  8 active torsions:
REMARK  status: ('A' for Active; 'I' for Inactive)
REMARK    1  A    between atoms: N1_1  and  C1_4 
REMARK    2  A    between atoms: C3_10  and  N4_11 
REMARK    3  A    between atoms: N4_11  and  N5_13 
REMARK    4  A    between atoms: C4_15  and  C5_17 
REMARK    5  A    between atoms: N8_21  and  C6_22 
REMARK    6  A    between atoms: C9_25  and  C10_26 
REMARK    7  A    between atoms: C10_26  and  N9_27 
REMARK    8  A    between atoms: C10_26  and  C11_31 
ROOT
HETATM    1  C5  UNL     1     -24.534   6.664  13.330  1.00  0.00     0.187 A 
HETATM    2  N7  UNL     1     -24.519   7.910  12.833  1.00  0.00    -0.219 N 
ATOM      3  H7  UNL     1     -25.321   8.532  12.739  1.00  0.00     0.198 HD
HETATM    4  O1  UNL     1     -23.299   8.176  12.495  1.00  0.00    -0.132 OA
HETATM    5  N8  UNL     1     -22.541   7.157  12.754  1.00  0.00    -0.135 N 
HETATM    6  N10 UNL     1     -23.270   6.198  13.273  1.00  0.00    -0.252 N 
ATOM      7  H10 UNL     1     -22.945   5.279  13.575  1.00  0.00     0.191 HD
ENDROOT
BRANCH   1   8
HETATM    8  C4  UNL     1     -25.726   5.994  13.823  1.00  0.00     0.178 C 
HETATM    9  N5  UNL     1     -25.599   4.899  14.481  1.00  0.00    -0.283 N 
ATOM     10  H5  UNL     1     -24.665   4.523  14.643  1.00  0.00     0.188 HD
HETATM   11  N6  UNL     1     -26.981   6.595  13.545  1.00  0.00    -0.077 NA
BRANCH   9  12
HETATM   12  N4  UNL     1     -26.689   4.217  14.974  1.00  0.00    -0.282 N 
ATOM     13  H4  UNL     1     -27.616   4.612  14.810  1.00  0.00     0.188 HD
BRANCH  12  14
HETATM   14  C3  UNL     1     -26.610   3.104  15.634  1.00  0.00     0.152 A 
HETATM   15  C2  UNL     1     -27.445   2.788  16.684  1.00  0.00     0.158 A 
HETATM   16  N3  UNL     1     -27.301   1.611  17.323  1.00  0.00    -0.294 N 
HETATM   17  N2  UNL     1     -26.384   0.717  16.993  1.00  0.00    -0.133 N 
ATOM     18  H3  UNL     1     -27.931   1.398  18.097  1.00  0.00     0.186 HD
HETATM   19  C1  UNL     1     -25.566   1.022  15.970  1.00  0.00     0.692 A 
ATOM     20  H2  UNL     1     -26.299  -0.167  17.494  1.00  0.00     0.205 HD
HETATM   21  N11 UNL     1     -25.674   2.199  15.295  1.00  0.00    -0.173 N 
ATOM     22  H11 UNL     1     -25.037   2.397  14.523  1.00  0.00     0.186 HD
BRANCH  19  23
HETATM   23  N1  UNL     1     -24.655   0.180  15.613  1.00  0.00    -0.233 N 
ATOM     24  H12 UNL     1     -23.703   0.312  15.953  1.00  0.00     0.174 HD
ATOM     25  H11 UNL     1     -24.902  -0.598  15.001  1.00  0.00     0.174 HD
ENDBRANCH  19  23
ENDBRANCH  12  14
ENDBRANCH   9  12
ENDBRANCH   1   8
BRANCH   5  26
HETATM   26  C6  UNL     1     -21.130   7.159  12.484  1.00  0.00     0.084 A 
HETATM   27  C7  UNL     1     -20.518   6.108  11.832  1.00  0.00     0.034 A 
HETATM   28  C8  UNL     1     -19.156   6.104  11.568  1.00  0.00     0.012 A 
HETATM   29  C9  UNL     1     -18.387   7.185  11.970  1.00  0.00    -0.019 A 
HETATM   30  C12 UNL     1     -18.996   8.246  12.627  1.00  0.00     0.012 A 
HETATM   31  C13 UNL     1     -20.365   8.234  12.883  1.00  0.00     0.034 A 
BRANCH  29  32
HETATM   32  C10 UNL     1     -16.941   7.237  11.719  1.00  0.00     0.323 C 
BRANCH  32  33
HETATM   33  N9  UNL     1     -16.404   8.566  11.674  1.00  0.00    -0.062 N 
ATOM     34  H93 UNL     1     -17.135   9.254  11.851  1.00  0.00     0.275 HD
ATOM     35  H92 UNL     1     -15.805   8.738  12.481  1.00  0.00     0.275 HD
ATOM     36  H91 UNL     1     -15.909   8.785  10.809  1.00  0.00     0.275 HD
ENDBRANCH  32  33
BRANCH  32  37
HETATM   37  C11 UNL     1     -16.206   6.392  12.748  1.00  0.00     0.419 C 
HETATM   38  F1  UNL     1     -14.848   6.472  12.545  1.00  0.00    -0.168 F 
HETATM   39  F2  UNL     1     -16.585   5.070  12.669  1.00  0.00    -0.168 F 
HETATM   40  F3  UNL     1     -16.514   6.913  14.008  1.00  0.00    -0.168 F 
ENDBRANCH  32  37
ENDBRANCH  29  32
ENDBRANCH   5  26
TORSDOF 8
ENDMDL
