MODEL 1
REMARK VINA RESULT: -6.161648646      0.000      0.000
REMARK  6 active torsions:
REMARK  status: ('A' for Active; 'I' for Inactive)
REMARK    1  A    between atoms: C2_2  and  C4_4 
REMARK    2  A    between atoms: C10_13  and  C11_14 
REMARK    3  A    between atoms: C11_14  and  O5_16 
REMARK    4  A    between atoms: O5_16  and  C12_17 
REMARK    5  A    between atoms: C12_17  and  O6_19 
REMARK    6  A    between atoms: C16_23  and  C17_24 
ROOT
HETATM    1  C4  UNL     1       9.058  -8.499 -11.850  1.00  0.00     0.079 C 
HETATM    2  O1  UNL     1       7.955  -8.082 -12.536  1.00  0.00    -0.322 OA
HETATM    3  C5  UNL     1       6.839  -8.798 -12.482  1.00  0.00     0.271 C 
HETATM    4  O2  UNL     1       6.933 -10.145 -12.717  1.00  0.00    -0.347 OA
HETATM    5  C6  UNL     1       7.114 -10.923 -11.627  1.00  0.00     0.209 C 
HETATM    6  C7  UNL     1       8.251 -11.846 -11.971  1.00  0.00     0.186 C 
HETATM    7  O3  UNL     1       8.184 -13.057 -12.243  1.00  0.00    -0.290 OA
HETATM    8  C8  UNL     1       9.435 -10.954 -11.902  1.00  0.00     0.007 C 
HETATM    9  C9  UNL     1      10.567 -11.310 -12.478  1.00  0.00     0.024 C 
HETATM   10  C10 UNL     1       9.078  -9.731 -11.103  1.00  0.00     0.137 C 
HETATM   11  C14 UNL     1       7.770 -10.174 -10.484  1.00  0.00     0.021 C 
HETATM   12  C15 UNL     1       8.133 -11.200  -9.443  1.00  0.00     0.021 C 
HETATM   13  C16 UNL     1       6.900  -9.050 -10.026  1.00  0.00     0.011 C 
HETATM   14  C22 UNL     1       6.103  -8.504 -11.164  1.00  0.00     0.043 C 
HETATM   15  C23 UNL     1       4.723  -8.993 -11.375  1.00  0.00     0.015 C 
ENDROOT
BRANCH  10  16
HETATM   16  C11 UNL     1      10.086  -9.641  -9.999  1.00  0.00     0.282 C 
HETATM   17  O4  UNL     1      10.010  -8.668  -9.223  1.00  0.00    -0.263 OA
BRANCH  16  18
HETATM   18  O5  UNL     1      11.094 -10.552  -9.777  1.00  0.00    -0.289 OA
BRANCH  18  19
HETATM   19  C12 UNL     1      12.075 -10.282  -8.792  1.00  0.00     0.262 C 
HETATM   20  C13 UNL     1      12.980 -11.492  -8.579  1.00  0.00     0.071 C 
BRANCH  19  21
HETATM   21  O6  UNL     1      12.908  -9.246  -9.209  1.00  0.00    -0.371 OA
ATOM     22  H6  UNL     1      13.404  -8.904  -8.474  1.00  0.00     0.212 HD
ENDBRANCH  19  21
ENDBRANCH  18  19
ENDBRANCH  16  18
ENDBRANCH  10  16
BRANCH   1  23
HETATM   23  C2  UNL     1      10.250  -8.215 -12.658  1.00  0.00    -0.040 C 
HETATM   24  C1  UNL     1      10.179  -8.262 -13.985  1.00  0.00     0.021 C 
HETATM   25  C3  UNL     1      11.606  -7.860 -12.113  1.00  0.00     0.050 C 
ENDBRANCH   1  23
BRANCH  13  26
HETATM   26  C17 UNL     1       6.256  -9.247  -8.745  1.00  0.00    -0.009 C 
HETATM   27  C18 UNL     1       6.540  -8.137  -7.714  1.00  0.00     0.005 C 
HETATM   28  C19 UNL     1       5.601  -8.520  -6.577  1.00  0.00     0.000 C 
HETATM   29  C20 UNL     1       4.866  -9.785  -7.042  1.00  0.00     0.000 C 
HETATM   30  C21 UNL     1       4.818  -9.391  -8.544  1.00  0.00     0.005 C 
ENDBRANCH  13  26
TORSDOF 6
ENDMDL
MODEL 2
REMARK VINA RESULT: -5.810725312      1.655      2.183
REMARK  6 active torsions:
REMARK  status: ('A' for Active; 'I' for Inactive)
REMARK    1  A    between atoms: C2_2  and  C4_4 
REMARK    2  A    between atoms: C10_13  and  C11_14 
REMARK    3  A    between atoms: C11_14  and  O5_16 
REMARK    4  A    between atoms: O5_16  and  C12_17 
REMARK    5  A    between atoms: C12_17  and  O6_19 
REMARK    6  A    between atoms: C16_23  and  C17_24 
ROOT
HETATM    1  C4  UNL     1       9.058  -8.624 -12.040  1.00  0.00     0.079 C 
HETATM    2  O1  UNL     1       7.769  -8.194 -11.915  1.00  0.00    -0.322 OA
HETATM    3  C5  UNL     1       6.903  -8.910 -11.209  1.00  0.00     0.271 C 
HETATM    4  O2  UNL     1       6.820 -10.252 -11.473  1.00  0.00    -0.347 OA
HETATM    5  C6  UNL     1       7.614 -11.051 -10.724  1.00  0.00     0.209 C 
HETATM    6  C7  UNL     1       8.302 -11.968 -11.698  1.00  0.00     0.186 C 
HETATM    7  O3  UNL     1       8.071 -13.173 -11.891  1.00  0.00    -0.290 OA
HETATM    8  C8  UNL     1       9.298 -11.078 -12.344  1.00  0.00     0.007 C 
HETATM    9  C9  UNL     1       9.849 -11.423 -13.492  1.00  0.00     0.024 C 
HETATM   10  C10 UNL     1       9.510  -9.870 -11.474  1.00  0.00     0.137 C 
HETATM   11  C14 UNL     1       8.835 -10.323 -10.198  1.00  0.00     0.021 C 
HETATM   12  C15 UNL     1       9.741 -11.368  -9.601  1.00  0.00     0.021 C 
HETATM   13  C16 UNL     1       8.430  -9.207  -9.291  1.00  0.00     0.011 C 
HETATM   14  C22 UNL     1       7.115  -8.640  -9.711  1.00  0.00     0.043 C 
HETATM   15  C23 UNL     1       5.881  -9.124  -9.053  1.00  0.00     0.015 C 
ENDROOT
BRANCH  10  16
HETATM   16  C11 UNL     1      10.980  -9.801 -11.201  1.00  0.00     0.282 C 
HETATM   17  O4  UNL     1      11.685 -10.759 -11.576  1.00  0.00    -0.263 OA
BRANCH  16  18
HETATM   18  O5  UNL     1      11.615  -8.759 -10.562  1.00  0.00    -0.289 OA
BRANCH  18  19
HETATM   19  C12 UNL     1      13.024  -8.649 -10.636  1.00  0.00     0.262 C 
HETATM   20  C13 UNL     1      13.436  -7.307 -11.234  1.00  0.00     0.071 C 
BRANCH  19  21
HETATM   21  O6  UNL     1      13.581  -8.689  -9.359  1.00  0.00    -0.371 OA
ATOM     22  H6  UNL     1      14.475  -8.368  -9.377  1.00  0.00     0.212 HD
ENDBRANCH  19  21
ENDBRANCH  18  19
ENDBRANCH  16  18
ENDBRANCH  10  16
BRANCH   1  23
HETATM   23  C2  UNL     1       9.524  -8.325 -13.399  1.00  0.00    -0.040 C 
HETATM   24  C1  UNL     1       8.665  -8.339 -14.413  1.00  0.00     0.021 C 
HETATM   25  C3  UNL     1      10.940  -7.991 -13.779  1.00  0.00     0.050 C 
ENDBRANCH   1  23
BRANCH  13  26
HETATM   26  C17 UNL     1       8.687  -9.428  -7.884  1.00  0.00    -0.009 C 
HETATM   27  C18 UNL     1       9.268  -8.206  -7.146  1.00  0.00     0.005 C 
HETATM   28  C19 UNL     1       9.247  -8.679  -5.697  1.00  0.00     0.000 C 
HETATM   29  C20 UNL     1       8.662 -10.097  -5.722  1.00  0.00     0.000 C 
HETATM   30  C21 UNL     1       7.687  -9.840  -6.905  1.00  0.00     0.005 C 
ENDBRANCH  13  26
TORSDOF 6
ENDMDL
MODEL 3
REMARK VINA RESULT: -5.791010173      1.757      2.036
REMARK  6 active torsions:
REMARK  status: ('A' for Active; 'I' for Inactive)
REMARK    1  A    between atoms: C2_2  and  C4_4 
REMARK    2  A    between atoms: C10_13  and  C11_14 
REMARK    3  A    between atoms: C11_14  and  O5_16 
REMARK    4  A    between atoms: O5_16  and  C12_17 
REMARK    5  A    between atoms: C12_17  and  O6_19 
REMARK    6  A    between atoms: C16_23  and  C17_24 
ROOT
HETATM    1  C4  UNL     1       8.312  -8.253 -11.896  1.00  0.00     0.079 C 
HETATM    2  O1  UNL     1       6.990  -7.983 -11.691  1.00  0.00    -0.322 OA
HETATM    3  C5  UNL     1       6.241  -8.846 -11.018  1.00  0.00     0.271 C 
HETATM    4  O2  UNL     1       6.295 -10.164 -11.388  1.00  0.00    -0.347 OA
HETATM    5  C6  UNL     1       7.204 -10.924 -10.736  1.00  0.00     0.209 C 
HETATM    6  C7  UNL     1       7.946 -11.678 -11.805  1.00  0.00     0.186 C 
HETATM    7  O3  UNL     1       7.841 -12.883 -12.089  1.00  0.00    -0.290 OA
HETATM    8  C8  UNL     1       8.809 -10.633 -12.410  1.00  0.00     0.007 C 
HETATM    9  C9  UNL     1       9.344 -10.823 -13.600  1.00  0.00     0.024 C 
HETATM   10  C10 UNL     1       8.924  -9.480 -11.450  1.00  0.00     0.137 C 
HETATM   11  C14 UNL     1       8.359 -10.105 -10.194  1.00  0.00     0.021 C 
HETATM   12  C15 UNL     1       9.400 -11.084  -9.717  1.00  0.00     0.021 C 
HETATM   13  C16 UNL     1       7.873  -9.117  -9.185  1.00  0.00     0.011 C 
HETATM   14  C22 UNL     1       6.486  -8.671  -9.510  1.00  0.00     0.043 C 
HETATM   15  C23 UNL     1       5.343  -9.342  -8.853  1.00  0.00     0.015 C 
ENDROOT
BRANCH  10  16
HETATM   16  C11 UNL     1      10.388  -9.266 -11.223  1.00  0.00     0.282 C 
HETATM   17  O4  UNL     1      10.725  -8.376 -10.417  1.00  0.00    -0.263 OA
BRANCH  16  18
HETATM   18  O5  UNL     1      11.392  -9.977 -11.839  1.00  0.00    -0.289 OA
BRANCH  18  19
HETATM   19  C12 UNL     1      12.650 -10.106 -11.202  1.00  0.00     0.262 C 
HETATM   20  C13 UNL     1      13.425 -11.296 -11.761  1.00  0.00     0.071 C 
BRANCH  19  21
HETATM   21  O6  UNL     1      13.436  -8.983 -11.448  1.00  0.00    -0.371 OA
ATOM     22  H6  UNL     1      13.468  -8.799 -12.379  1.00  0.00     0.212 HD
ENDBRANCH  19  21
ENDBRANCH  18  19
ENDBRANCH  16  18
ENDBRANCH  10  16
BRANCH   1  23
HETATM   23  C2  UNL     1       8.683  -7.798 -13.241  1.00  0.00    -0.040 C 
HETATM   24  C1  UNL     1       7.802  -7.873 -14.233  1.00  0.00     0.021 C 
HETATM   25  C3  UNL     1      10.021  -7.232 -13.629  1.00  0.00     0.050 C 
ENDBRANCH   1  23
BRANCH  13  26
HETATM   26  C17 UNL     1       8.214  -9.416  -7.810  1.00  0.00    -0.009 C 
HETATM   27  C18 UNL     1       9.313  -8.513  -7.218  1.00  0.00     0.005 C 
HETATM   28  C19 UNL     1       9.308  -8.936  -5.753  1.00  0.00     0.000 C 
HETATM   29  C20 UNL     1       8.226 -10.017  -5.628  1.00  0.00     0.000 C 
HETATM   30  C21 UNL     1       7.274  -9.406  -6.693  1.00  0.00     0.005 C 
ENDBRANCH  13  26
TORSDOF 6
ENDMDL
MODEL 4
REMARK VINA RESULT: -5.784862810      1.700      1.953
REMARK  6 active torsions:
REMARK  status: ('A' for Active; 'I' for Inactive)
REMARK    1  A    between atoms: C2_2  and  C4_4 
REMARK    2  A    between atoms: C10_13  and  C11_14 
REMARK    3  A    between atoms: C11_14  and  O5_16 
REMARK    4  A    between atoms: O5_16  and  C12_17 
REMARK    5  A    between atoms: C12_17  and  O6_19 
REMARK    6  A    between atoms: C16_23  and  C17_24 
ROOT
HETATM    1  C4  UNL     1       9.469  -8.302 -11.689  1.00  0.00     0.079 C 
HETATM    2  O1  UNL     1       8.116  -8.177 -11.811  1.00  0.00    -0.322 OA
HETATM    3  C5  UNL     1       7.323  -9.111 -11.300  1.00  0.00     0.271 C 
HETATM    4  O2  UNL     1       7.602 -10.419 -11.598  1.00  0.00    -0.347 OA
HETATM    5  C6  UNL     1       8.404 -11.065 -10.723  1.00  0.00     0.209 C 
HETATM    6  C7  UNL     1       9.454 -11.744 -11.559  1.00  0.00     0.186 C 
HETATM    7  O3  UNL     1       9.547 -12.957 -11.815  1.00  0.00    -0.290 OA
HETATM    8  C8  UNL     1      10.321 -10.617 -11.983  1.00  0.00     0.007 C 
HETATM    9  C9  UNL     1      11.140 -10.760 -13.007  1.00  0.00     0.024 C 
HETATM   10  C10 UNL     1      10.083  -9.448 -11.068  1.00  0.00     0.137 C 
HETATM   11  C14 UNL     1       9.305 -10.117  -9.956  1.00  0.00     0.021 C 
HETATM   12  C15 UNL     1      10.300 -10.969  -9.212  1.00  0.00     0.021 C 
HETATM   13  C16 UNL     1       8.492  -9.178  -9.127  1.00  0.00     0.011 C 
HETATM   14  C22 UNL     1       7.183  -8.892  -9.785  1.00  0.00     0.043 C 
HETATM   15  C23 UNL     1       5.994  -9.679  -9.389  1.00  0.00     0.015 C 
ENDROOT
BRANCH  10  16
HETATM   16  C11 UNL     1      11.420  -9.070 -10.511  1.00  0.00     0.282 C 
HETATM   17  O4  UNL     1      11.453  -8.192  -9.627  1.00  0.00    -0.263 OA
BRANCH  16  18
HETATM   18  O5  UNL     1      12.620  -9.618 -10.905  1.00  0.00    -0.289 OA
BRANCH  18  19
HETATM   19  C12 UNL     1      13.737  -9.552 -10.037  1.00  0.00     0.262 C 
HETATM   20  C13 UNL     1      14.935 -10.286 -10.633  1.00  0.00     0.071 C 
BRANCH  19  21
HETATM   21  O6  UNL     1      14.141  -8.229  -9.868  1.00  0.00    -0.371 OA
ATOM     22  H6  UNL     1      15.077  -8.148 -10.013  1.00  0.00     0.212 HD
ENDBRANCH  19  21
ENDBRANCH  18  19
ENDBRANCH  16  18
ENDBRANCH  10  16
BRANCH   1  23
HETATM   23  C2  UNL     1      10.098  -7.824 -12.927  1.00  0.00    -0.040 C 
HETATM   24  C1  UNL     1       9.490  -8.006 -14.094  1.00  0.00     0.021 C 
HETATM   25  C3  UNL     1      11.423  -7.117 -13.011  1.00  0.00     0.050 C 
ENDBRANCH   1  23
BRANCH  13  26
HETATM   26  C17 UNL     1       8.527  -9.421  -7.701  1.00  0.00    -0.009 C 
HETATM   27  C18 UNL     1       9.178  -8.291  -6.879  1.00  0.00     0.005 C 
HETATM   28  C19 UNL     1       8.897  -8.744  -5.451  1.00  0.00     0.000 C 
HETATM   29  C20 UNL     1       8.119 -10.061  -5.568  1.00  0.00     0.000 C 
HETATM   30  C21 UNL     1       7.357  -9.675  -6.866  1.00  0.00     0.005 C 
ENDBRANCH  13  26
TORSDOF 6
ENDMDL
MODEL 5
REMARK VINA RESULT: -5.773196155      1.128      1.562
REMARK  6 active torsions:
REMARK  status: ('A' for Active; 'I' for Inactive)
REMARK    1  A    between atoms: C2_2  and  C4_4 
REMARK    2  A    between atoms: C10_13  and  C11_14 
REMARK    3  A    between atoms: C11_14  and  O5_16 
REMARK    4  A    between atoms: O5_16  and  C12_17 
REMARK    5  A    between atoms: C12_17  and  O6_19 
REMARK    6  A    between atoms: C16_23  and  C17_24 
ROOT
HETATM    1  C4  UNL     1       9.529  -8.556 -11.329  1.00  0.00     0.079 C 
HETATM    2  O1  UNL     1       8.600  -8.003 -12.162  1.00  0.00    -0.322 OA
HETATM    3  C5  UNL     1       7.451  -8.631 -12.372  1.00  0.00     0.271 C 
HETATM    4  O2  UNL     1       7.501  -9.959 -12.707  1.00  0.00    -0.347 OA
HETATM    5  C6  UNL     1       7.428 -10.830 -11.675  1.00  0.00     0.209 C 
HETATM    6  C7  UNL     1       8.548 -11.811 -11.891  1.00  0.00     0.186 C 
HETATM    7  O3  UNL     1       8.456 -12.988 -12.277  1.00  0.00    -0.290 OA
HETATM    8  C8  UNL     1       9.753 -11.022 -11.532  1.00  0.00     0.007 C 
HETATM    9  C9  UNL     1      10.947 -11.421 -11.925  1.00  0.00     0.024 C 
HETATM   10  C10 UNL     1       9.332  -9.839 -10.703  1.00  0.00     0.137 C 
HETATM   11  C14 UNL     1       7.907 -10.224 -10.371  1.00  0.00     0.021 C 
HETATM   12  C15 UNL     1       8.005 -11.351  -9.377  1.00  0.00     0.021 C 
HETATM   13  C16 UNL     1       7.040  -9.073  -9.978  1.00  0.00     0.011 C 
HETATM   14  C22 UNL     1       6.504  -8.381 -11.187  1.00  0.00     0.043 C 
HETATM   15  C23 UNL     1       5.158  -8.743 -11.685  1.00  0.00     0.015 C 
ENDROOT
BRANCH  10  16
HETATM   16  C11 UNL     1      10.122  -9.913  -9.434  1.00  0.00     0.282 C 
HETATM   17  O4  UNL     1      10.664 -11.000  -9.151  1.00  0.00    -0.263 OA
BRANCH  16  18
HETATM   18  O5  UNL     1      10.292  -8.871  -8.550  1.00  0.00    -0.289 OA
BRANCH  18  19
HETATM   19  C12 UNL     1       9.372  -8.697  -7.488  1.00  0.00     0.262 C 
HETATM   20  C13 UNL     1       9.611  -9.726  -6.387  1.00  0.00     0.071 C 
BRANCH  19  21
HETATM   21  O6  UNL     1       9.547  -7.449  -6.894  1.00  0.00    -0.371 OA
ATOM     22  H6  UNL     1       8.851  -7.278  -6.271  1.00  0.00     0.212 HD
ENDBRANCH  19  21
ENDBRANCH  18  19
ENDBRANCH  16  18
ENDBRANCH  10  16
BRANCH   1  23
HETATM   23  C2  UNL     1      10.865  -8.306 -11.882  1.00  0.00    -0.040 C 
HETATM   24  C1  UNL     1      11.016  -8.103 -13.187  1.00  0.00     0.021 C 
HETATM   25  C3  UNL     1      12.140  -8.254 -11.086  1.00  0.00     0.050 C 
ENDBRANCH   1  23
BRANCH  13  26
HETATM   26  C17 UNL     1       6.159  -9.316  -8.856  1.00  0.00    -0.009 C 
HETATM   27  C18 UNL     1       6.101  -8.164  -7.833  1.00  0.00     0.005 C 
HETATM   28  C19 UNL     1       4.983  -8.626  -6.906  1.00  0.00     0.000 C 
HETATM   29  C20 UNL     1       4.497  -9.970  -7.466  1.00  0.00     0.000 C 
HETATM   30  C21 UNL     1       4.733  -9.609  -8.959  1.00  0.00     0.005 C 
ENDBRANCH  13  26
TORSDOF 6
ENDMDL
