MODEL 1
REMARK VINA RESULT: -7.800838070      0.000      0.000
REMARK  6 active torsions:
REMARK  status: ('A' for Active; 'I' for Inactive)
REMARK    1  A    between atoms: C7_7  and  C8_8 
REMARK    2  A    between atoms: C8_8  and  C9_9 
REMARK    3  A    between atoms: C9_9  and  C10_10 
REMARK    4  A    between atoms: N1_13  and  C13_14 
REMARK    5  A    between atoms: C13_14  and  C14_15 
REMARK    6  A    between atoms: C14_15  and  O1_16 
ROOT
HETATM    1  C1  UNL     1      11.783 -11.058  -8.737  1.00  0.00     0.082 C 
HETATM    2  C2  UNL     1      10.619 -10.460  -9.547  1.00  0.00     0.196 C 
HETATM    3  C3  UNL     1       9.532 -11.452  -9.566  1.00  0.00     0.072 C 
HETATM    4  C4  UNL     1       8.507 -11.350 -10.608  1.00  0.00     0.018 C 
HETATM    5  C5  UNL     1       7.918  -9.967 -10.806  1.00  0.00     0.006 C 
HETATM    6  C6  UNL     1       6.996  -9.565  -9.718  1.00  0.00     0.021 C 
HETATM    7  C7  UNL     1       5.521  -9.756 -10.032  1.00  0.00     0.009 C 
HETATM    8  C17 UNL     1       5.260  -8.959 -11.290  1.00  0.00     0.009 C 
HETATM    9  C18 UNL     1       5.969  -9.695 -12.405  1.00  0.00     0.006 C 
HETATM   10  C19 UNL     1       7.431  -9.864 -12.200  1.00  0.00    -0.000 C 
HETATM   11  C20 UNL     1       8.155  -8.735 -12.893  1.00  0.00     0.041 C 
HETATM   12  C21 UNL     1       9.015  -8.059 -11.870  1.00  0.00     0.168 C 
HETATM   13  O2  UNL     1      10.407  -8.267 -12.050  1.00  0.00    -0.349 OA
HETATM   14  C22 UNL     1      10.185  -9.554 -11.584  1.00  0.00     0.305 C 
HETATM   15  O3  UNL     1      11.143 -10.102 -10.765  1.00  0.00    -0.320 OA
HETATM   16  C23 UNL     1       9.084  -9.015 -10.753  1.00  0.00     0.179 C 
HETATM   17  O4  UNL     1       9.410  -8.583  -9.515  1.00  0.00    -0.218 OA
HETATM   18  O5  UNL     1      10.235  -9.318  -8.848  1.00  0.00    -0.200 OA
ENDROOT
BRANCH   7  19
HETATM   19  C8  UNL     1       4.739  -9.333  -8.862  1.00  0.00    -0.026 C 
BRANCH  19  20
HETATM   20  C9  UNL     1       5.102  -9.727  -7.508  1.00  0.00    -0.026 C 
BRANCH  20  21
HETATM   21  C10 UNL     1       5.838  -8.852  -6.599  1.00  0.00     0.011 C 
HETATM   22  C11 UNL     1       7.260  -9.183  -6.259  1.00  0.00     0.039 C 
HETATM   23  C12 UNL     1       7.626  -8.419  -4.985  1.00  0.00     0.273 C 
HETATM   24  N1  UNL     1       7.389  -7.003  -5.159  1.00  0.00     0.090 N 
HETATM   25  C15 UNL     1       6.095  -6.646  -5.626  1.00  0.00     0.273 C 
HETATM   26  C16 UNL     1       5.836  -7.367  -6.934  1.00  0.00     0.039 C 
BRANCH  24  27
HETATM   27  C13 UNL     1       7.775  -6.333  -3.940  1.00  0.00     0.298 C 
BRANCH  27  28
HETATM   28  C14 UNL     1       6.634  -5.583  -3.299  1.00  0.00     0.194 C 
BRANCH  28  29
HETATM   29  O1  UNL     1       7.036  -5.281  -1.986  1.00  0.00    -0.399 OA
ATOM     30  H1  UNL     1       6.328  -4.787  -1.591  1.00  0.00     0.209 HD
ENDBRANCH  28  29
ENDBRANCH  27  28
ENDBRANCH  24  27
ENDBRANCH  20  21
ENDBRANCH  19  20
ENDBRANCH   7  19
TORSDOF 6
ENDMDL
MODEL 2
REMARK VINA RESULT: -7.715710261      1.464      2.076
REMARK  6 active torsions:
REMARK  status: ('A' for Active; 'I' for Inactive)
REMARK    1  A    between atoms: C7_7  and  C8_8 
REMARK    2  A    between atoms: C8_8  and  C9_9 
REMARK    3  A    between atoms: C9_9  and  C10_10 
REMARK    4  A    between atoms: N1_13  and  C13_14 
REMARK    5  A    between atoms: C13_14  and  C14_15 
REMARK    6  A    between atoms: C14_15  and  O1_16 
ROOT
HETATM    1  C1  UNL     1      11.305 -10.253 -12.222  1.00  0.00     0.082 C 
HETATM    2  C2  UNL     1       9.827  -9.883 -12.009  1.00  0.00     0.196 C 
HETATM    3  C3  UNL     1       9.168 -11.029 -11.363  1.00  0.00     0.072 C 
HETATM    4  C4  UNL     1       7.709 -11.139 -11.448  1.00  0.00     0.018 C 
HETATM    5  C5  UNL     1       6.942  -9.875 -11.113  1.00  0.00     0.006 C 
HETATM    6  C6  UNL     1       6.936  -9.563  -9.664  1.00  0.00     0.021 C 
HETATM    7  C7  UNL     1       5.678  -9.994  -8.927  1.00  0.00     0.009 C 
HETATM    8  C17 UNL     1       4.530  -9.312  -9.636  1.00  0.00     0.009 C 
HETATM    9  C18 UNL     1       4.412  -9.988 -10.984  1.00  0.00     0.006 C 
HETATM   10  C19 UNL     1       5.641  -9.920 -11.817  1.00  0.00    -0.000 C 
HETATM   11  C20 UNL     1       5.540  -8.730 -12.741  1.00  0.00     0.041 C 
HETATM   12  C21 UNL     1       6.750  -7.878 -12.511  1.00  0.00     0.168 C 
HETATM   13  O2  UNL     1       7.677  -7.880 -13.585  1.00  0.00    -0.349 OA
HETATM   14  C22 UNL     1       8.016  -9.161 -13.175  1.00  0.00     0.305 C 
HETATM   15  O3  UNL     1       9.343  -9.512 -13.240  1.00  0.00    -0.320 OA
HETATM   16  C23 UNL     1       7.688  -8.754 -11.789  1.00  0.00     0.179 C 
HETATM   17  O4  UNL     1       8.688  -8.214 -11.058  1.00  0.00    -0.218 OA
HETATM   18  O5  UNL     1       9.844  -8.778 -11.160  1.00  0.00    -0.200 OA
ENDROOT
BRANCH   7  19
HETATM   19  C8  UNL     1       5.826  -9.636  -7.509  1.00  0.00    -0.026 C 
BRANCH  19  20
HETATM   20  C9  UNL     1       7.001  -8.936  -7.008  1.00  0.00    -0.026 C 
BRANCH  20  21
HETATM   21  C10 UNL     1       6.936  -7.949  -5.934  1.00  0.00     0.011 C 
HETATM   22  C11 UNL     1       8.199  -7.278  -5.482  1.00  0.00     0.039 C 
HETATM   23  C12 UNL     1       7.938  -6.678  -4.098  1.00  0.00     0.273 C 
HETATM   24  N1  UNL     1       6.797  -5.791  -4.139  1.00  0.00     0.090 N 
HETATM   25  C15 UNL     1       5.610  -6.336  -4.701  1.00  0.00     0.273 C 
HETATM   26  C16 UNL     1       5.919  -6.828  -6.100  1.00  0.00     0.039 C 
BRANCH  24  27
HETATM   27  C13 UNL     1       6.616  -5.235  -2.819  1.00  0.00     0.298 C 
BRANCH  27  28
HETATM   28  C14 UNL     1       5.279  -5.586  -2.215  1.00  0.00     0.194 C 
BRANCH  28  29
HETATM   29  O1  UNL     1       5.537  -6.099  -0.932  1.00  0.00    -0.399 OA
ATOM     30  H1  UNL     1       5.116  -5.513  -0.315  1.00  0.00     0.209 HD
ENDBRANCH  28  29
ENDBRANCH  27  28
ENDBRANCH  24  27
ENDBRANCH  20  21
ENDBRANCH  19  20
ENDBRANCH   7  19
TORSDOF 6
ENDMDL
MODEL 3
REMARK VINA RESULT: -7.713117834      1.004      1.302
REMARK  6 active torsions:
REMARK  status: ('A' for Active; 'I' for Inactive)
REMARK    1  A    between atoms: C7_7  and  C8_8 
REMARK    2  A    between atoms: C8_8  and  C9_9 
REMARK    3  A    between atoms: C9_9  and  C10_10 
REMARK    4  A    between atoms: N1_13  and  C13_14 
REMARK    5  A    between atoms: C13_14  and  C14_15 
REMARK    6  A    between atoms: C14_15  and  O1_16 
ROOT
HETATM    1  C1  UNL     1      12.538 -11.793  -9.678  1.00  0.00     0.082 C 
HETATM    2  C2  UNL     1      11.292 -11.009 -10.124  1.00  0.00     0.196 C 
HETATM    3  C3  UNL     1      10.118 -11.864  -9.886  1.00  0.00     0.072 C 
HETATM    4  C4  UNL     1       8.878 -11.571 -10.611  1.00  0.00     0.018 C 
HETATM    5  C5  UNL     1       8.444 -10.119 -10.594  1.00  0.00     0.006 C 
HETATM    6  C6  UNL     1       7.900  -9.688  -9.285  1.00  0.00     0.021 C 
HETATM    7  C7  UNL     1       6.382  -9.684  -9.199  1.00  0.00     0.009 C 
HETATM    8  C17 UNL     1       5.908  -8.776 -10.311  1.00  0.00     0.009 C 
HETATM    9  C18 UNL     1       6.197  -9.512 -11.601  1.00  0.00     0.006 C 
HETATM   10  C19 UNL     1       7.627  -9.864 -11.802  1.00  0.00    -0.000 C 
HETATM   11  C20 UNL     1       8.286  -8.781 -12.622  1.00  0.00     0.041 C 
HETATM   12  C21 UNL     1       9.465  -8.282 -11.844  1.00  0.00     0.168 C 
HETATM   13  O2  UNL     1      10.722  -8.638 -12.397  1.00  0.00    -0.349 OA
HETATM   14  C22 UNL     1      10.463  -9.920 -11.936  1.00  0.00     0.305 C 
HETATM   15  O3  UNL     1      11.521 -10.631 -11.424  1.00  0.00    -0.320 OA
HETATM   16  C23 UNL     1       9.697  -9.315 -10.821  1.00  0.00     0.179 C 
HETATM   17  O4  UNL     1      10.389  -9.011  -9.701  1.00  0.00    -0.218 OA
HETATM   18  O5  UNL     1      11.257  -9.881  -9.307  1.00  0.00    -0.200 OA
ENDROOT
BRANCH   7  19
HETATM   19  C8  UNL     1       5.995  -9.255  -7.848  1.00  0.00    -0.026 C 
BRANCH  19  20
HETATM   20  C9  UNL     1       6.970  -9.106  -6.776  1.00  0.00    -0.026 C 
BRANCH  20  21
HETATM   21  C10 UNL     1       6.891  -8.045  -5.775  1.00  0.00     0.011 C 
HETATM   22  C11 UNL     1       8.150  -7.362  -5.334  1.00  0.00     0.039 C 
HETATM   23  C12 UNL     1       7.860  -6.663  -4.003  1.00  0.00     0.273 C 
HETATM   24  N1  UNL     1       6.733  -5.767  -4.137  1.00  0.00     0.090 N 
HETATM   25  C15 UNL     1       5.555  -6.335  -4.694  1.00  0.00     0.273 C 
HETATM   26  C16 UNL     1       5.895  -6.926  -6.047  1.00  0.00     0.039 C 
BRANCH  24  27
HETATM   27  C13 UNL     1       6.525  -5.119  -2.864  1.00  0.00     0.298 C 
BRANCH  27  28
HETATM   28  C14 UNL     1       5.226  -5.521  -2.210  1.00  0.00     0.194 C 
BRANCH  28  29
HETATM   29  O1  UNL     1       5.556  -6.066  -0.957  1.00  0.00    -0.399 OA
ATOM     30  H1  UNL     1       5.646  -5.335  -0.358  1.00  0.00     0.209 HD
ENDBRANCH  28  29
ENDBRANCH  27  28
ENDBRANCH  24  27
ENDBRANCH  20  21
ENDBRANCH  19  20
ENDBRANCH   7  19
TORSDOF 6
ENDMDL
MODEL 4
REMARK VINA RESULT: -7.686540605      2.453      3.915
REMARK  6 active torsions:
REMARK  status: ('A' for Active; 'I' for Inactive)
REMARK    1  A    between atoms: C7_7  and  C8_8 
REMARK    2  A    between atoms: C8_8  and  C9_9 
REMARK    3  A    between atoms: C9_9  and  C10_10 
REMARK    4  A    between atoms: N1_13  and  C13_14 
REMARK    5  A    between atoms: C13_14  and  C14_15 
REMARK    6  A    between atoms: C14_15  and  O1_16 
ROOT
HETATM    1  C1  UNL     1       5.605  -6.543 -13.819  1.00  0.00     0.082 C 
HETATM    2  C2  UNL     1       6.099  -7.846 -13.166  1.00  0.00     0.196 C 
HETATM    3  C3  UNL     1       7.396  -7.563 -12.530  1.00  0.00     0.072 C 
HETATM    4  C4  UNL     1       8.290  -8.685 -12.231  1.00  0.00     0.018 C 
HETATM    5  C5  UNL     1       7.643  -9.863 -11.530  1.00  0.00     0.006 C 
HETATM    6  C6  UNL     1       7.334  -9.597 -10.105  1.00  0.00     0.021 C 
HETATM    7  C7  UNL     1       8.358 -10.141  -9.122  1.00  0.00     0.009 C 
HETATM    8  C17 UNL     1       8.442 -11.626  -9.393  1.00  0.00     0.009 C 
HETATM    9  C18 UNL     1       9.119 -11.766 -10.738  1.00  0.00     0.006 C 
HETATM   10  C19 UNL     1       8.418 -11.081 -11.855  1.00  0.00    -0.000 C 
HETATM   11  C20 UNL     1       7.512 -12.073 -12.544  1.00  0.00     0.041 C 
HETATM   12  C21 UNL     1       6.128 -11.498 -12.536  1.00  0.00     0.168 C 
HETATM   13  O2  UNL     1       5.659 -11.088 -13.810  1.00  0.00    -0.349 OA
HETATM   14  C22 UNL     1       6.529 -10.014 -13.687  1.00  0.00     0.305 C 
HETATM   15  O3  UNL     1       6.097  -8.797 -14.157  1.00  0.00    -0.320 OA
HETATM   16  C23 UNL     1       6.321 -10.073 -12.221  1.00  0.00     0.179 C 
HETATM   17  O4  UNL     1       5.296  -9.348 -11.721  1.00  0.00    -0.218 OA
HETATM   18  O5  UNL     1       5.137  -8.164 -12.209  1.00  0.00    -0.200 OA
ENDROOT
BRANCH   7  19
HETATM   19  C8  UNL     1       7.929  -9.787  -7.762  1.00  0.00    -0.026 C 
BRANCH  19  20
HETATM   20  C9  UNL     1       6.888  -8.798  -7.513  1.00  0.00    -0.026 C 
BRANCH  20  21
HETATM   21  C10 UNL     1       6.898  -7.913  -6.351  1.00  0.00     0.011 C 
HETATM   22  C11 UNL     1       8.199  -7.333  -5.886  1.00  0.00     0.039 C 
HETATM   23  C12 UNL     1       8.008  -6.855  -4.445  1.00  0.00     0.273 C 
HETATM   24  N1  UNL     1       6.901  -5.928  -4.361  1.00  0.00     0.090 N 
HETATM   25  C15 UNL     1       5.677  -6.377  -4.928  1.00  0.00     0.273 C 
HETATM   26  C16 UNL     1       5.919  -6.747  -6.377  1.00  0.00     0.039 C 
BRANCH  24  27
HETATM   27  C13 UNL     1       6.786  -5.492  -2.990  1.00  0.00     0.298 C 
BRANCH  27  28
HETATM   28  C14 UNL     1       5.365  -5.523  -2.485  1.00  0.00     0.194 C 
BRANCH  28  29
HETATM   29  O1  UNL     1       5.378  -4.935  -1.208  1.00  0.00    -0.399 OA
ATOM     30  H1  UNL     1       5.241  -5.637  -0.584  1.00  0.00     0.209 HD
ENDBRANCH  28  29
ENDBRANCH  27  28
ENDBRANCH  24  27
ENDBRANCH  20  21
ENDBRANCH  19  20
ENDBRANCH   7  19
TORSDOF 6
ENDMDL
MODEL 5
REMARK VINA RESULT: -7.674823813      1.449      2.315
REMARK  6 active torsions:
REMARK  status: ('A' for Active; 'I' for Inactive)
REMARK    1  A    between atoms: C7_7  and  C8_8 
REMARK    2  A    between atoms: C8_8  and  C9_9 
REMARK    3  A    between atoms: C9_9  and  C10_10 
REMARK    4  A    between atoms: N1_13  and  C13_14 
REMARK    5  A    between atoms: C13_14  and  C14_15 
REMARK    6  A    between atoms: C14_15  and  O1_16 
ROOT
HETATM    1  C1  UNL     1      13.563 -11.437 -10.517  1.00  0.00     0.082 C 
HETATM    2  C2  UNL     1      12.148 -10.841 -10.426  1.00  0.00     0.196 C 
HETATM    3  C3  UNL     1      11.265 -11.871  -9.855  1.00  0.00     0.072 C 
HETATM    4  C4  UNL     1       9.820 -11.752 -10.066  1.00  0.00     0.018 C 
HETATM    5  C5  UNL     1       9.233 -10.384  -9.779  1.00  0.00     0.006 C 
HETATM    6  C6  UNL     1       9.150 -10.076  -8.332  1.00  0.00     0.021 C 
HETATM    7  C7  UNL     1       7.781 -10.306  -7.712  1.00  0.00     0.009 C 
HETATM    8  C17 UNL     1       6.819  -9.452  -8.506  1.00  0.00     0.009 C 
HETATM    9  C18 UNL     1       6.715 -10.100  -9.869  1.00  0.00     0.006 C 
HETATM   10  C19 UNL     1       8.006 -10.224 -10.593  1.00  0.00    -0.000 C 
HETATM   11  C20 UNL     1       8.172  -9.032 -11.505  1.00  0.00     0.041 C 
HETATM   12  C21 UNL     1       9.476  -8.380 -11.160  1.00  0.00     0.168 C 
HETATM   13  O2  UNL     1      10.480  -8.525 -12.151  1.00  0.00    -0.349 OA
HETATM   14  C22 UNL     1      10.580  -9.844 -11.731  1.00  0.00     0.305 C 
HETATM   15  O3  UNL     1      11.836 -10.398 -11.688  1.00  0.00    -0.320 OA
HETATM   16  C23 UNL     1      10.199  -9.392 -10.373  1.00  0.00     0.179 C 
HETATM   17  O4  UNL     1      11.204  -9.016  -9.551  1.00  0.00    -0.218 OA
HETATM   18  O5  UNL     1      12.263  -9.754  -9.562  1.00  0.00    -0.200 OA
ENDROOT
BRANCH   7  19
HETATM   19  C8  UNL     1       7.859  -9.978  -6.282  1.00  0.00    -0.026 C 
BRANCH  19  20
HETATM   20  C9  UNL     1       8.470  -8.744  -5.805  1.00  0.00    -0.026 C 
BRANCH  20  21
HETATM   21  C10 UNL     1       7.739  -7.748  -5.026  1.00  0.00     0.011 C 
HETATM   22  C11 UNL     1       8.506  -6.779  -4.177  1.00  0.00     0.039 C 
HETATM   23  C12 UNL     1       7.537  -6.189  -3.150  1.00  0.00     0.273 C 
HETATM   24  N1  UNL     1       6.396  -5.598  -3.813  1.00  0.00     0.090 N 
HETATM   25  C15 UNL     1       5.722  -6.433  -4.745  1.00  0.00     0.273 C 
HETATM   26  C16 UNL     1       6.720  -6.907  -5.782  1.00  0.00     0.039 C 
BRANCH  24  27
HETATM   27  C13 UNL     1       5.533  -5.036  -2.800  1.00  0.00     0.298 C 
BRANCH  27  28
HETATM   28  C14 UNL     1       5.547  -5.829  -1.516  1.00  0.00     0.194 C 
BRANCH  28  29
HETATM   29  O1  UNL     1       5.497  -4.896  -0.466  1.00  0.00    -0.399 OA
ATOM     30  H1  UNL     1       5.632  -4.040  -0.855  1.00  0.00     0.209 HD
ENDBRANCH  28  29
ENDBRANCH  27  28
ENDBRANCH  24  27
ENDBRANCH  20  21
ENDBRANCH  19  20
ENDBRANCH   7  19
TORSDOF 6
ENDMDL
