MODEL 1
REMARK VINA RESULT: -7.355895156      0.000      0.000
REMARK  11 active torsions:
REMARK  status: ('A' for Active; 'I' for Inactive)
REMARK    1  A    between atoms: C2_2  and  O1_3 
REMARK    2  A    between atoms: O1_3  and  C3_4 
REMARK    3  A    between atoms: C3_4  and  C4_6 
REMARK    4  A    between atoms: C7_13  and  O4_14 
REMARK    5  A    between atoms: C12_21  and  O5_22 
REMARK    6  A    between atoms: O5_22  and  C13_23 
REMARK    7  A    between atoms: C16_26  and  O6_27 
REMARK    8  A    between atoms: O6_27  and  C17_28 
REMARK    9  A    between atoms: C22_33  and  C23_34 
REMARK   10  A    between atoms: C24_35  and  C25_36 
REMARK   11  A    between atoms: C25_36  and  O7_37 
ROOT
HETATM    1  C4  UNL     1      24.536  -9.643  31.466  1.00  0.00     0.179 C 
HETATM    2  C5  UNL     1      23.246  -8.911  31.378  1.00  0.00     0.126 C 
HETATM    3  N1  UNL     1      22.835  -8.150  32.320  1.00  0.00    -0.383 N 
ATOM      4  H11 UNL     1      21.949  -7.647  32.260  1.00  0.00     0.158 HD
ATOM      5  H12 UNL     1      23.346  -7.986  33.188  1.00  0.00     0.158 HD
HETATM    6  O3  UNL     1      22.555  -9.132  30.205  1.00  0.00    -0.336 OA
HETATM    7  C6  UNL     1      22.354 -10.473  29.851  1.00  0.00     0.216 C 
HETATM    8  C7  UNL     1      22.875 -11.417  30.893  1.00  0.00     0.099 C 
HETATM    9  C8  UNL     1      22.756 -12.797  30.292  1.00  0.00     0.083 C 
HETATM   10  C9  UNL     1      23.896 -13.131  29.371  1.00  0.00     0.206 C 
HETATM   11  F1  UNL     1      23.914 -14.511  29.194  1.00  0.00    -0.244 F 
HETATM   12  C10 UNL     1      25.207 -12.736  29.906  1.00  0.00    -0.014 A 
HETATM   13  C11 UNL     1      26.336 -13.337  29.342  1.00  0.00     0.050 A 
HETATM   14  C12 UNL     1      27.596 -13.043  29.771  1.00  0.00     0.103 A 
HETATM   15  C16 UNL     1      27.743 -12.112  30.806  1.00  0.00     0.103 A 
HETATM   16  C20 UNL     1      26.605 -11.531  31.347  1.00  0.00     0.048 A 
HETATM   17  C21 UNL     1      25.322 -11.827  30.913  1.00  0.00    -0.029 A 
HETATM   18  C22 UNL     1      24.169 -11.130  31.541  1.00  0.00     0.058 C 
ENDROOT
BRANCH   1  19
HETATM   19  C3  UNL     1      25.419  -9.237  30.390  1.00  0.00     0.272 C 
HETATM   20  O2  UNL     1      25.309  -9.543  29.159  1.00  0.00    -0.264 OA
BRANCH  19  21
HETATM   21  O1  UNL     1      26.520  -8.440  30.606  1.00  0.00    -0.321 OA
BRANCH  21  22
HETATM   22  C2  UNL     1      26.781  -7.709  31.779  1.00  0.00     0.174 C 
HETATM   23  C1  UNL     1      28.038  -8.138  32.455  1.00  0.00     0.034 C 
ENDBRANCH  21  22
ENDBRANCH  19  21
ENDBRANCH   1  19
BRANCH  18  24
HETATM   24  C23 UNL     1      24.168 -11.409  33.017  1.00  0.00    -0.010 C 
HETATM   25  C24 UNL     1      23.742 -12.639  33.609  1.00  0.00    -0.004 C 
BRANCH  25  26
HETATM   26  C25 UNL     1      24.373 -13.953  33.385  1.00  0.00     0.191 C 
BRANCH  26  27
HETATM   27  O7  UNL     1      25.635 -14.139  33.925  1.00  0.00    -0.397 OA
ATOM     28  H7  UNL     1      26.193 -14.778  33.498  1.00  0.00     0.209 HD
ENDBRANCH  26  27
ENDBRANCH  25  26
ENDBRANCH  18  24
BRANCH   8  29
HETATM   29  O4  UNL     1      21.871 -11.359  31.904  1.00  0.00    -0.386 OA
ATOM     30  H4  UNL     1      21.065 -11.398  31.403  1.00  0.00     0.210 HD
ENDBRANCH   8  29
BRANCH  15  31
HETATM   31  O6  UNL     1      29.009 -11.820  31.232  1.00  0.00    -0.344 OA
BRANCH  31  32
HETATM   32  C17 UNL     1      30.018 -11.134  30.578  1.00  0.00     0.121 C 
HETATM   33  C18 UNL     1      30.808 -10.347  31.632  1.00  0.00     0.040 C 
HETATM   34  C19 UNL     1      29.344 -10.060  29.715  1.00  0.00     0.040 C 
ENDBRANCH  31  32
ENDBRANCH  15  31
BRANCH  14  35
HETATM   35  O5  UNL     1      28.721 -13.607  29.246  1.00  0.00    -0.344 OA
BRANCH  35  36
HETATM   36  C13 UNL     1      29.137 -14.926  29.349  1.00  0.00     0.121 C 
HETATM   37  C14 UNL     1      29.944 -15.260  28.096  1.00  0.00     0.040 C 
HETATM   38  C15 UNL     1      30.028 -15.129  30.563  1.00  0.00     0.040 C 
ENDBRANCH  35  36
ENDBRANCH  14  35
TORSDOF 11
ENDMDL
MODEL 2
REMARK VINA RESULT: -6.965666718      2.083      3.183
REMARK  11 active torsions:
REMARK  status: ('A' for Active; 'I' for Inactive)
REMARK    1  A    between atoms: C2_2  and  O1_3 
REMARK    2  A    between atoms: O1_3  and  C3_4 
REMARK    3  A    between atoms: C3_4  and  C4_6 
REMARK    4  A    between atoms: C7_13  and  O4_14 
REMARK    5  A    between atoms: C12_21  and  O5_22 
REMARK    6  A    between atoms: O5_22  and  C13_23 
REMARK    7  A    between atoms: C16_26  and  O6_27 
REMARK    8  A    between atoms: O6_27  and  C17_28 
REMARK    9  A    between atoms: C22_33  and  C23_34 
REMARK   10  A    between atoms: C24_35  and  C25_36 
REMARK   11  A    between atoms: C25_36  and  O7_37 
ROOT
HETATM    1  C4  UNL     1      26.112 -10.142  31.164  1.00  0.00     0.179 C 
HETATM    2  C5  UNL     1      25.783  -8.800  31.709  1.00  0.00     0.126 C 
HETATM    3  N1  UNL     1      26.260  -8.386  32.822  1.00  0.00    -0.383 N 
ATOM      4  H11 UNL     1      26.035  -7.465  33.197  1.00  0.00     0.158 HD
ATOM      5  H12 UNL     1      26.890  -8.930  33.411  1.00  0.00     0.158 HD
HETATM    6  O3  UNL     1      24.932  -8.064  30.911  1.00  0.00    -0.336 OA
HETATM    7  C6  UNL     1      23.751  -8.705  30.513  1.00  0.00     0.216 C 
HETATM    8  C7  UNL     1      23.616 -10.069  31.121  1.00  0.00     0.099 C 
HETATM    9  C8  UNL     1      22.411 -10.694  30.462  1.00  0.00     0.083 C 
HETATM   10  C9  UNL     1      22.726 -11.289  29.117  1.00  0.00     0.206 C 
HETATM   11  F1  UNL     1      21.697 -12.163  28.783  1.00  0.00    -0.244 F 
HETATM   12  C10 UNL     1      23.980 -12.056  29.104  1.00  0.00    -0.014 A 
HETATM   13  C11 UNL     1      24.166 -12.959  28.053  1.00  0.00     0.050 A 
HETATM   14  C12 UNL     1      25.292 -13.721  27.952  1.00  0.00     0.103 A 
HETATM   15  C16 UNL     1      26.277 -13.582  28.937  1.00  0.00     0.103 A 
HETATM   16  C20 UNL     1      26.065 -12.677  29.968  1.00  0.00     0.048 A 
HETATM   17  C21 UNL     1      24.922 -11.900  30.074  1.00  0.00    -0.029 A 
HETATM   18  C22 UNL     1      24.803 -10.941  31.203  1.00  0.00     0.058 C 
ENDROOT
BRANCH   1  19
HETATM   19  C3  UNL     1      26.767 -10.015  29.877  1.00  0.00     0.272 C 
HETATM   20  O2  UNL     1      26.215  -9.715  28.769  1.00  0.00    -0.264 OA
BRANCH  19  21
HETATM   21  O1  UNL     1      28.118 -10.220  29.718  1.00  0.00    -0.321 OA
BRANCH  21  22
HETATM   22  C2  UNL     1      29.117  -9.244  29.888  1.00  0.00     0.174 C 
HETATM   23  C1  UNL     1      29.828  -9.372  31.192  1.00  0.00     0.034 C 
ENDBRANCH  21  22
ENDBRANCH  19  21
ENDBRANCH   1  19
BRANCH  18  24
HETATM   24  C23 UNL     1      24.899 -11.692  32.501  1.00  0.00    -0.010 C 
HETATM   25  C24 UNL     1      23.903 -12.592  32.992  1.00  0.00    -0.004 C 
BRANCH  25  26
HETATM   26  C25 UNL     1      23.484 -13.841  32.327  1.00  0.00     0.191 C 
BRANCH  26  27
HETATM   27  O7  UNL     1      22.222 -13.849  31.755  1.00  0.00    -0.397 OA
ATOM     28  H7  UNL     1      21.587 -13.240  32.113  1.00  0.00     0.209 HD
ENDBRANCH  26  27
ENDBRANCH  25  26
ENDBRANCH  18  24
BRANCH   8  29
HETATM   29  O4  UNL     1      23.207  -9.781  32.457  1.00  0.00    -0.386 OA
ATOM     30  H4  UNL     1      23.831 -10.272  32.979  1.00  0.00     0.210 HD
ENDBRANCH   8  29
BRANCH  15  31
HETATM   31  O6  UNL     1      27.404 -14.348  28.831  1.00  0.00    -0.344 OA
BRANCH  31  32
HETATM   32  C17 UNL     1      28.732 -13.957  28.818  1.00  0.00     0.121 C 
HETATM   33  C18 UNL     1      29.374 -14.523  27.544  1.00  0.00     0.040 C 
HETATM   34  C19 UNL     1      29.430 -14.695  29.966  1.00  0.00     0.040 C 
ENDBRANCH  31  32
ENDBRANCH  15  31
BRANCH  14  35
HETATM   35  O5  UNL     1      25.510 -14.612  26.943  1.00  0.00    -0.344 OA
BRANCH  35  36
HETATM   36  C13 UNL     1      26.079 -14.368  25.703  1.00  0.00     0.121 C 
HETATM   37  C14 UNL     1      26.678 -15.680  25.198  1.00  0.00     0.040 C 
HETATM   38  C15 UNL     1      25.038 -13.897  24.702  1.00  0.00     0.040 C 
ENDBRANCH  35  36
ENDBRANCH  14  35
TORSDOF 11
ENDMDL
MODEL 3
REMARK VINA RESULT: -6.867310630      1.755      3.263
REMARK  11 active torsions:
REMARK  status: ('A' for Active; 'I' for Inactive)
REMARK    1  A    between atoms: C2_2  and  O1_3 
REMARK    2  A    between atoms: O1_3  and  C3_4 
REMARK    3  A    between atoms: C3_4  and  C4_6 
REMARK    4  A    between atoms: C7_13  and  O4_14 
REMARK    5  A    between atoms: C12_21  and  O5_22 
REMARK    6  A    between atoms: O5_22  and  C13_23 
REMARK    7  A    between atoms: C16_26  and  O6_27 
REMARK    8  A    between atoms: O6_27  and  C17_28 
REMARK    9  A    between atoms: C22_33  and  C23_34 
REMARK   10  A    between atoms: C24_35  and  C25_36 
REMARK   11  A    between atoms: C25_36  and  O7_37 
ROOT
HETATM    1  C4  UNL     1      24.138  -9.527  30.917  1.00  0.00     0.179 C 
HETATM    2  C5  UNL     1      22.676  -9.309  31.066  1.00  0.00     0.126 C 
HETATM    3  N1  UNL     1      22.174  -8.136  31.170  1.00  0.00    -0.383 N 
ATOM      4  H11 UNL     1      21.170  -7.986  31.272  1.00  0.00     0.158 HD
ATOM      5  H12 UNL     1      22.723  -7.277  31.159  1.00  0.00     0.158 HD
HETATM    6  O3  UNL     1      21.934 -10.472  31.080  1.00  0.00    -0.336 OA
HETATM    7  C6  UNL     1      22.351 -11.458  31.984  1.00  0.00     0.216 C 
HETATM    8  C7  UNL     1      23.502 -10.999  32.830  1.00  0.00     0.099 C 
HETATM    9  C8  UNL     1      23.949 -12.214  33.607  1.00  0.00     0.083 C 
HETATM   10  C9  UNL     1      24.851 -13.115  32.809  1.00  0.00     0.206 C 
HETATM   11  F1  UNL     1      25.512 -13.955  33.699  1.00  0.00    -0.244 F 
HETATM   12  C10 UNL     1      25.874 -12.382  32.049  1.00  0.00    -0.014 A 
HETATM   13  C11 UNL     1      26.983 -13.108  31.606  1.00  0.00     0.050 A 
HETATM   14  C12 UNL     1      27.989 -12.522  30.897  1.00  0.00     0.103 A 
HETATM   15  C16 UNL     1      27.890 -11.154  30.615  1.00  0.00     0.103 A 
HETATM   16  C20 UNL     1      26.777 -10.458  31.068  1.00  0.00     0.048 A 
HETATM   17  C21 UNL     1      25.752 -11.052  31.788  1.00  0.00    -0.029 A 
HETATM   18  C22 UNL     1      24.590 -10.225  32.205  1.00  0.00     0.058 C 
ENDROOT
BRANCH   1  19
HETATM   19  C3  UNL     1      24.420 -10.206  29.667  1.00  0.00     0.272 C 
HETATM   20  O2  UNL     1      24.987  -9.708  28.642  1.00  0.00    -0.264 OA
BRANCH  19  21
HETATM   21  O1  UNL     1      24.082 -11.523  29.456  1.00  0.00    -0.321 OA
BRANCH  21  22
HETATM   22  C2  UNL     1      24.250 -12.225  28.248  1.00  0.00     0.174 C 
HETATM   23  C1  UNL     1      25.440 -13.123  28.268  1.00  0.00     0.034 C 
ENDBRANCH  21  22
ENDBRANCH  19  21
ENDBRANCH   1  19
BRANCH  18  24
HETATM   24  C23 UNL     1      25.075  -9.087  33.059  1.00  0.00    -0.010 C 
HETATM   25  C24 UNL     1      25.994  -8.082  32.624  1.00  0.00    -0.004 C 
BRANCH  25  26
HETATM   26  C25 UNL     1      25.752  -7.126  31.527  1.00  0.00     0.191 C 
BRANCH  26  27
HETATM   27  O7  UNL     1      24.610  -6.347  31.620  1.00  0.00    -0.397 OA
ATOM     28  H7  UNL     1      23.897  -6.562  31.030  1.00  0.00     0.209 HD
ENDBRANCH  26  27
ENDBRANCH  25  26
ENDBRANCH  18  24
BRANCH   8  29
HETATM   29  O4  UNL     1      22.872 -10.151  33.788  1.00  0.00    -0.386 OA
ATOM     30  H4  UNL     1      23.610  -9.736  34.220  1.00  0.00     0.210 HD
ENDBRANCH   8  29
BRANCH  15  31
HETATM   31  O6  UNL     1      28.901 -10.570  29.904  1.00  0.00    -0.344 OA
BRANCH  31  32
HETATM   32  C17 UNL     1      29.793  -9.586  30.296  1.00  0.00     0.121 C 
HETATM   33  C18 UNL     1      30.029  -9.743  31.804  1.00  0.00     0.040 C 
HETATM   34  C19 UNL     1      29.071  -8.241  30.153  1.00  0.00     0.040 C 
ENDBRANCH  31  32
ENDBRANCH  15  31
BRANCH  14  35
HETATM   35  O5  UNL     1      29.086 -13.195  30.447  1.00  0.00    -0.344 OA
BRANCH  35  36
HETATM   36  C13 UNL     1      29.155 -14.508  30.007  1.00  0.00     0.121 C 
HETATM   37  C14 UNL     1      29.418 -14.482  28.502  1.00  0.00     0.040 C 
HETATM   38  C15 UNL     1      30.292 -15.256  30.681  1.00  0.00     0.040 C 
ENDBRANCH  35  36
ENDBRANCH  14  35
TORSDOF 11
ENDMDL
MODEL 4
REMARK VINA RESULT: -6.845262481      2.254      4.701
REMARK  11 active torsions:
REMARK  status: ('A' for Active; 'I' for Inactive)
REMARK    1  A    between atoms: C2_2  and  O1_3 
REMARK    2  A    between atoms: O1_3  and  C3_4 
REMARK    3  A    between atoms: C3_4  and  C4_6 
REMARK    4  A    between atoms: C7_13  and  O4_14 
REMARK    5  A    between atoms: C12_21  and  O5_22 
REMARK    6  A    between atoms: O5_22  and  C13_23 
REMARK    7  A    between atoms: C16_26  and  O6_27 
REMARK    8  A    between atoms: O6_27  and  C17_28 
REMARK    9  A    between atoms: C22_33  and  C23_34 
REMARK   10  A    between atoms: C24_35  and  C25_36 
REMARK   11  A    between atoms: C25_36  and  O7_37 
ROOT
HETATM    1  C4  UNL     1      24.214 -11.645  30.843  1.00  0.00     0.179 C 
HETATM    2  C5  UNL     1      23.358 -10.804  31.719  1.00  0.00     0.126 C 
HETATM    3  N1  UNL     1      22.130 -10.572  31.444  1.00  0.00    -0.383 N 
ATOM      4  H11 UNL     1      21.542  -9.994  32.045  1.00  0.00     0.158 HD
ATOM      5  H12 UNL     1      21.650 -10.937  30.621  1.00  0.00     0.158 HD
HETATM    6  O3  UNL     1      24.008 -10.310  32.831  1.00  0.00    -0.336 OA
HETATM    7  C6  UNL     1      25.221  -9.649  32.594  1.00  0.00     0.216 C 
HETATM    8  C7  UNL     1      25.529  -9.542  31.130  1.00  0.00     0.099 C 
HETATM    9  C8  UNL     1      26.930  -8.984  31.047  1.00  0.00     0.083 C 
HETATM   10  C9  UNL     1      27.987 -10.038  31.226  1.00  0.00     0.206 C 
HETATM   11  F1  UNL     1      29.188  -9.526  30.746  1.00  0.00    -0.244 F 
HETATM   12  C10 UNL     1      27.705 -11.274  30.482  1.00  0.00    -0.014 A 
HETATM   13  C11 UNL     1      28.775 -12.143  30.256  1.00  0.00     0.050 A 
HETATM   14  C12 UNL     1      28.619 -13.312  29.573  1.00  0.00     0.103 A 
HETATM   15  C16 UNL     1      27.344 -13.633  29.092  1.00  0.00     0.103 A 
HETATM   16  C20 UNL     1      26.300 -12.751  29.332  1.00  0.00     0.048 A 
HETATM   17  C21 UNL     1      26.455 -11.562  30.027  1.00  0.00    -0.029 A 
HETATM   18  C22 UNL     1      25.267 -10.698  30.253  1.00  0.00     0.058 C 
ENDROOT
BRANCH   1  19
HETATM   19  C3  UNL     1      24.703 -12.797  31.575  1.00  0.00     0.272 C 
HETATM   20  O2  UNL     1      25.628 -12.806  32.449  1.00  0.00    -0.264 OA
BRANCH  19  21
HETATM   21  O1  UNL     1      24.187 -14.059  31.385  1.00  0.00    -0.321 OA
BRANCH  21  22
HETATM   22  C2  UNL     1      23.141 -14.389  30.505  1.00  0.00     0.174 C 
HETATM   23  C1  UNL     1      23.580 -15.294  29.405  1.00  0.00     0.034 C 
ENDBRANCH  21  22
ENDBRANCH  19  21
ENDBRANCH   1  19
BRANCH  18  24
HETATM   24  C23 UNL     1      24.676 -10.313  28.926  1.00  0.00    -0.010 C 
HETATM   25  C24 UNL     1      23.986 -11.213  28.055  1.00  0.00    -0.004 C 
BRANCH  25  26
HETATM   26  C25 UNL     1      22.733 -11.920  28.382  1.00  0.00     0.191 C 
BRANCH  26  27
HETATM   27  O7  UNL     1      21.576 -11.160  28.402  1.00  0.00    -0.397 OA
ATOM     28  H7  UNL     1      20.780 -11.600  28.678  1.00  0.00     0.209 HD
ENDBRANCH  26  27
ENDBRANCH  25  26
ENDBRANCH  18  24
BRANCH   8  29
HETATM   29  O4  UNL     1      24.676  -8.482  30.704  1.00  0.00    -0.386 OA
ATOM     30  H4  UNL     1      24.005  -8.468  31.375  1.00  0.00     0.210 HD
ENDBRANCH   8  29
BRANCH  15  31
HETATM   31  O6  UNL     1      27.192 -14.807  28.407  1.00  0.00    -0.344 OA
BRANCH  31  32
HETATM   32  C17 UNL     1      26.811 -15.011  27.092  1.00  0.00     0.121 C 
HETATM   33  C18 UNL     1      26.512 -16.507  26.919  1.00  0.00     0.040 C 
HETATM   34  C19 UNL     1      28.047 -14.759  26.221  1.00  0.00     0.040 C 
ENDBRANCH  31  32
ENDBRANCH  15  31
BRANCH  14  35
HETATM   35  O5  UNL     1      29.638 -14.186  29.332  1.00  0.00    -0.344 OA
BRANCH  35  36
HETATM   36  C13 UNL     1      29.772 -15.484  29.802  1.00  0.00     0.121 C 
HETATM   37  C14 UNL     1      30.530 -16.287  28.746  1.00  0.00     0.040 C 
HETATM   38  C15 UNL     1      30.566 -15.522  31.097  1.00  0.00     0.040 C 
ENDBRANCH  35  36
ENDBRANCH  14  35
TORSDOF 11
ENDMDL
MODEL 5
REMARK VINA RESULT: -6.836573811      1.940      2.898
REMARK  11 active torsions:
REMARK  status: ('A' for Active; 'I' for Inactive)
REMARK    1  A    between atoms: C2_2  and  O1_3 
REMARK    2  A    between atoms: O1_3  and  C3_4 
REMARK    3  A    between atoms: C3_4  and  C4_6 
REMARK    4  A    between atoms: C7_13  and  O4_14 
REMARK    5  A    between atoms: C12_21  and  O5_22 
REMARK    6  A    between atoms: O5_22  and  C13_23 
REMARK    7  A    between atoms: C16_26  and  O6_27 
REMARK    8  A    between atoms: O6_27  and  C17_28 
REMARK    9  A    between atoms: C22_33  and  C23_34 
REMARK   10  A    between atoms: C24_35  and  C25_36 
REMARK   11  A    between atoms: C25_36  and  O7_37 
ROOT
HETATM    1  C4  UNL     1      26.116 -10.079  30.902  1.00  0.00     0.179 C 
HETATM    2  C5  UNL     1      25.523  -8.855  31.500  1.00  0.00     0.126 C 
HETATM    3  N1  UNL     1      25.966  -8.351  32.590  1.00  0.00    -0.383 N 
ATOM      4  H11 UNL     1      25.559  -7.511  33.000  1.00  0.00     0.158 HD
ATOM      5  H12 UNL     1      26.744  -8.738  33.123  1.00  0.00     0.158 HD
HETATM    6  O3  UNL     1      24.471  -8.330  30.778  1.00  0.00    -0.336 OA
HETATM    7  C6  UNL     1      23.447  -9.226  30.441  1.00  0.00     0.216 C 
HETATM    8  C7  UNL     1      23.675 -10.589  31.023  1.00  0.00     0.099 C 
HETATM    9  C8  UNL     1      22.605 -11.473  30.428  1.00  0.00     0.083 C 
HETATM   10  C9  UNL     1      22.957 -11.965  29.051  1.00  0.00     0.206 C 
HETATM   11  F1  UNL     1      22.138 -13.052  28.763  1.00  0.00    -0.244 F 
HETATM   12  C10 UNL     1      24.350 -12.418  28.937  1.00  0.00    -0.014 A 
HETATM   13  C11 UNL     1      24.668 -13.244  27.856  1.00  0.00     0.050 A 
HETATM   14  C12 UNL     1      25.930 -13.721  27.663  1.00  0.00     0.103 A 
HETATM   15  C16 UNL     1      26.921 -13.365  28.585  1.00  0.00     0.103 A 
HETATM   16  C20 UNL     1      26.577 -12.543  29.649  1.00  0.00     0.048 A 
HETATM   17  C21 UNL     1      25.295 -12.055  29.848  1.00  0.00    -0.029 A 
HETATM   18  C22 UNL     1      25.034 -11.161  31.006  1.00  0.00     0.058 C 
ENDROOT
BRANCH   1  19
HETATM   19  C3  UNL     1      26.633  -9.791  29.578  1.00  0.00     0.272 C 
HETATM   20  O2  UNL     1      25.952  -9.604  28.519  1.00  0.00    -0.264 OA
BRANCH  19  21
HETATM   21  O1  UNL     1      27.982  -9.688  29.324  1.00  0.00    -0.321 OA
BRANCH  21  22
HETATM   22  C2  UNL     1      28.987  -9.540  30.297  1.00  0.00     0.174 C 
HETATM   23  C1  UNL     1      29.766 -10.792  30.513  1.00  0.00     0.034 C 
ENDBRANCH  21  22
ENDBRANCH  19  21
ENDBRANCH   1  19
BRANCH  18  24
HETATM   24  C23 UNL     1      25.391 -11.880  32.276  1.00  0.00    -0.010 C 
HETATM   25  C24 UNL     1      24.503 -12.734  33.001  1.00  0.00    -0.004 C 
BRANCH  25  26
HETATM   26  C25 UNL     1      23.916 -13.985  32.485  1.00  0.00     0.191 C 
BRANCH  26  27
HETATM   27  O7  UNL     1      24.096 -15.122  33.255  1.00  0.00    -0.397 OA
ATOM     28  H7  UNL     1      23.589 -15.887  33.012  1.00  0.00     0.209 HD
ENDBRANCH  26  27
ENDBRANCH  25  26
ENDBRANCH  18  24
BRANCH   8  29
HETATM   29  O4  UNL     1      23.303 -10.417  32.389  1.00  0.00    -0.386 OA
ATOM     30  H4  UNL     1      22.560 -11.002  32.481  1.00  0.00     0.210 HD
ENDBRANCH   8  29
BRANCH  15  31
HETATM   31  O6  UNL     1      28.186 -13.846  28.387  1.00  0.00    -0.344 OA
BRANCH  31  32
HETATM   32  C17 UNL     1      28.766 -15.008  28.866  1.00  0.00     0.121 C 
HETATM   33  C18 UNL     1      29.520 -14.657  30.156  1.00  0.00     0.040 C 
HETATM   34  C19 UNL     1      29.862 -15.407  27.871  1.00  0.00     0.040 C 
ENDBRANCH  31  32
ENDBRANCH  15  31
BRANCH  14  35
HETATM   35  O5  UNL     1      26.280 -14.528  26.620  1.00  0.00    -0.344 OA
BRANCH  35  36
HETATM   36  C13 UNL     1      25.691 -15.723  26.237  1.00  0.00     0.121 C 
HETATM   37  C14 UNL     1      26.401 -16.209  24.974  1.00  0.00     0.040 C 
HETATM   38  C15 UNL     1      25.844 -16.784  27.314  1.00  0.00     0.040 C 
ENDBRANCH  35  36
ENDBRANCH  14  35
TORSDOF 11
ENDMDL
