MODEL 1
REMARK VINA RESULT: -7.852399844      0.000      0.000
REMARK  13 active torsions:
REMARK  status: ('A' for Active; 'I' for Inactive)
REMARK    1  A    between atoms: C2_2  and  C3_3 
REMARK    2  A    between atoms: C2_2  and  C12_26 
REMARK    3  A    between atoms: C3_3  and  C4_4 
REMARK       I    between atoms: C4_4  and  N1_6 
REMARK    4  A    between atoms: N1_6  and  C5_7 
REMARK    5  A    between atoms: C5_7  and  C8_10 
REMARK    6  A    between atoms: C8_10  and  O2_11 
REMARK    7  A    between atoms: C8_10  and  C9_13 
REMARK    8  A    between atoms: C10_16  and  N3_17 
REMARK    9  A    between atoms: C13_27  and  C14_28 
REMARK   10  A    between atoms: C15_29  and  C16_30 
REMARK   11  A    between atoms: C16_30  and  C17_31 
REMARK   12  A    between atoms: C17_31  and  C18_32 
REMARK   13  A    between atoms: C18_32  and  C19_33 
ROOT
HETATM    1  C4  UNL     1      45.939  17.974  36.891  1.00  0.00     0.291 C 
HETATM    2  O1  UNL     1      45.436  18.036  35.698  1.00  0.00    -0.257 OA
HETATM    3  N1  UNL     1      46.184  18.980  37.681  1.00  0.00    -0.401 NA
ENDROOT
BRANCH   1   4
HETATM    4  C3  UNL     1      46.239  16.533  37.356  1.00  0.00     0.157 C 
BRANCH   4   5
HETATM    5  C2  UNL     1      47.513  16.547  38.190  1.00  0.00    -0.051 C 
HETATM    6  C1  UNL     1      47.295  16.120  39.415  1.00  0.00     0.020 C 
BRANCH   5   7
HETATM    7  C12 UNL     1      48.706  16.963  37.499  1.00  0.00    -0.023 C 
HETATM    8  C13 UNL     1      49.058  16.570  36.144  1.00  0.00     0.140 C 
HETATM    9  C21 UNL     1      50.545  16.240  36.158  1.00  0.00     0.272 C 
HETATM   10  O4  UNL     1      51.172  15.436  35.423  1.00  0.00    -0.264 OA
HETATM   11  O5  UNL     1      51.010  17.043  37.176  1.00  0.00    -0.305 OA
HETATM   12  C22 UNL     1      50.027  16.846  38.251  1.00  0.00     0.088 C 
HETATM   13  C23 UNL     1      50.306  17.989  39.173  1.00  0.00     0.051 C 
HETATM   14  C24 UNL     1      50.348  15.492  38.771  1.00  0.00     0.051 C 
BRANCH   8  15
HETATM   15  C14 UNL     1      48.439  15.472  35.444  1.00  0.00    -0.012 C 
HETATM   16  C15 UNL     1      47.814  15.481  34.267  1.00  0.00    -0.029 C 
BRANCH  16  17
HETATM   17  C16 UNL     1      47.593  16.595  33.374  1.00  0.00     0.027 C 
BRANCH  17  18
HETATM   18  C17 UNL     1      48.493  16.873  32.244  1.00  0.00     0.004 C 
BRANCH  18  19
HETATM   19  C18 UNL     1      49.962  16.910  32.399  1.00  0.00    -0.000 C 
BRANCH  19  20
HETATM   20  C19 UNL     1      50.709  17.056  31.118  1.00  0.00    -0.005 C 
HETATM   21  C20 UNL     1      49.869  16.552  29.937  1.00  0.00     0.005 C 
ENDBRANCH  19  20
ENDBRANCH  18  19
ENDBRANCH  17  18
ENDBRANCH  16  17
ENDBRANCH   8  15
ENDBRANCH   5   7
ENDBRANCH   4   5
ENDBRANCH   1   4
BRANCH   3  22
HETATM   22  C5  UNL     1      46.453  20.086  38.550  1.00  0.00     0.122 C 
HETATM   23  C6  UNL     1      47.878  20.608  38.467  1.00  0.00     0.057 C 
HETATM   24  C7  UNL     1      46.235  19.684  40.002  1.00  0.00     0.057 C 
BRANCH  22  25
HETATM   25  C8  UNL     1      45.528  21.281  38.293  1.00  0.00     0.227 C 
BRANCH  25  26
HETATM   26  O2  UNL     1      45.764  22.265  39.258  1.00  0.00    -0.384 OA
ATOM     27  H2  UNL     1      45.201  22.112  40.007  1.00  0.00     0.210 HD
ENDBRANCH  25  26
BRANCH  25  28
HETATM   28  C9  UNL     1      45.519  21.762  36.929  1.00  0.00     0.134 A 
HETATM   29  N2  UNL     1      46.194  22.816  36.480  1.00  0.00    -0.178 N 
HETATM   30  C10 UNL     1      46.137  23.250  35.219  1.00  0.00     0.681 A 
ATOM     31  H2  UNL     1      46.788  23.321  37.137  1.00  0.00     0.185 HD
HETATM   32  N4  UNL     1      45.372  22.620  34.322  1.00  0.00    -0.141 N 
HETATM   33  C11 UNL     1      44.671  21.553  34.726  1.00  0.00     0.340 A 
ATOM     34  H4  UNL     1      45.323  22.945  33.356  1.00  0.00     0.189 HD
HETATM   35  O3  UNL     1      43.949  20.966  33.869  1.00  0.00    -0.246 OA
HETATM   36  N5  UNL     1      44.740  21.131  35.997  1.00  0.00    -0.295 N 
ATOM     37  H5  UNL     1      44.197  20.316  36.277  1.00  0.00     0.172 HD
BRANCH  30  38
HETATM   38  N3  UNL     1      46.823  24.274  34.859  1.00  0.00    -0.234 N 
ATOM     39  H32 UNL     1      47.338  24.806  35.560  1.00  0.00     0.174 HD
ATOM     40  H31 UNL     1      46.848  24.554  33.878  1.00  0.00     0.174 HD
ENDBRANCH  30  38
ENDBRANCH  25  28
ENDBRANCH  22  25
ENDBRANCH   3  22
TORSDOF 13
ENDMDL
MODEL 2
REMARK VINA RESULT: -7.660011771      1.655      4.177
REMARK  13 active torsions:
REMARK  status: ('A' for Active; 'I' for Inactive)
REMARK    1  A    between atoms: C2_2  and  C3_3 
REMARK    2  A    between atoms: C2_2  and  C12_26 
REMARK    3  A    between atoms: C3_3  and  C4_4 
REMARK       I    between atoms: C4_4  and  N1_6 
REMARK    4  A    between atoms: N1_6  and  C5_7 
REMARK    5  A    between atoms: C5_7  and  C8_10 
REMARK    6  A    between atoms: C8_10  and  O2_11 
REMARK    7  A    between atoms: C8_10  and  C9_13 
REMARK    8  A    between atoms: C10_16  and  N3_17 
REMARK    9  A    between atoms: C13_27  and  C14_28 
REMARK   10  A    between atoms: C15_29  and  C16_30 
REMARK   11  A    between atoms: C16_30  and  C17_31 
REMARK   12  A    between atoms: C17_31  and  C18_32 
REMARK   13  A    between atoms: C18_32  and  C19_33 
ROOT
HETATM    1  C4  UNL     1      46.091  17.951  36.879  1.00  0.00     0.291 C 
HETATM    2  O1  UNL     1      45.541  18.000  35.706  1.00  0.00    -0.257 OA
HETATM    3  N1  UNL     1      46.280  18.956  37.686  1.00  0.00    -0.401 NA
ENDROOT
BRANCH   1   4
HETATM    4  C3  UNL     1      46.526  16.530  37.295  1.00  0.00     0.157 C 
BRANCH   4   5
HETATM    5  C2  UNL     1      47.923  16.271  36.749  1.00  0.00    -0.051 C 
HETATM    6  C1  UNL     1      48.834  16.961  37.401  1.00  0.00     0.020 C 
BRANCH   5   7
HETATM    7  C12 UNL     1      48.009  15.307  35.683  1.00  0.00    -0.023 C 
HETATM    8  C13 UNL     1      48.434  13.926  35.847  1.00  0.00     0.140 C 
HETATM    9  C21 UNL     1      49.359  13.613  34.678  1.00  0.00     0.272 C 
HETATM   10  O4  UNL     1      50.309  12.791  34.633  1.00  0.00    -0.264 OA
HETATM   11  O5  UNL     1      48.886  14.460  33.700  1.00  0.00    -0.305 OA
HETATM   12  C22 UNL     1      48.713  15.740  34.403  1.00  0.00     0.088 C 
HETATM   13  C23 UNL     1      47.848  16.521  33.466  1.00  0.00     0.051 C 
HETATM   14  C24 UNL     1      50.104  16.232  34.573  1.00  0.00     0.051 C 
BRANCH   8  15
HETATM   15  C14 UNL     1      49.129  13.437  37.012  1.00  0.00    -0.012 C 
HETATM   16  C15 UNL     1      48.621  13.046  38.181  1.00  0.00    -0.029 C 
BRANCH  16  17
HETATM   17  C16 UNL     1      47.238  13.002  38.591  1.00  0.00     0.027 C 
BRANCH  17  18
HETATM   18  C17 UNL     1      46.723  13.852  39.676  1.00  0.00     0.004 C 
BRANCH  18  19
HETATM   19  C18 UNL     1      47.618  14.607  40.577  1.00  0.00    -0.000 C 
BRANCH  19  20
HETATM   20  C19 UNL     1      47.166  15.997  40.865  1.00  0.00    -0.005 C 
HETATM   21  C20 UNL     1      48.367  16.917  41.129  1.00  0.00     0.005 C 
ENDBRANCH  19  20
ENDBRANCH  18  19
ENDBRANCH  17  18
ENDBRANCH  16  17
ENDBRANCH   8  15
ENDBRANCH   5   7
ENDBRANCH   4   5
ENDBRANCH   1   4
BRANCH   3  22
HETATM   22  C5  UNL     1      46.489  20.059  38.575  1.00  0.00     0.122 C 
HETATM   23  C6  UNL     1      47.903  20.616  38.552  1.00  0.00     0.057 C 
HETATM   24  C7  UNL     1      46.226  19.638  40.014  1.00  0.00     0.057 C 
BRANCH  22  25
HETATM   25  C8  UNL     1      45.545  21.234  38.294  1.00  0.00     0.227 C 
BRANCH  25  26
HETATM   26  O2  UNL     1      45.729  22.220  39.268  1.00  0.00    -0.384 OA
ATOM     27  H2  UNL     1      45.621  23.076  38.873  1.00  0.00     0.210 HD
ENDBRANCH  25  26
BRANCH  25  28
HETATM   28  C9  UNL     1      45.566  21.719  36.931  1.00  0.00     0.134 A 
HETATM   29  N2  UNL     1      46.245  22.779  36.502  1.00  0.00    -0.178 N 
HETATM   30  C10 UNL     1      46.217  23.216  35.242  1.00  0.00     0.681 A 
ATOM     31  H2  UNL     1      46.820  23.285  37.175  1.00  0.00     0.185 HD
HETATM   32  N4  UNL     1      45.477  22.585  34.324  1.00  0.00    -0.141 N 
HETATM   33  C11 UNL     1      44.773  21.512  34.707  1.00  0.00     0.340 A 
ATOM     34  H4  UNL     1      45.450  22.912  33.358  1.00  0.00     0.189 HD
HETATM   35  O3  UNL     1      44.076  20.923  33.831  1.00  0.00    -0.246 OA
HETATM   36  N5  UNL     1      44.814  21.087  35.978  1.00  0.00    -0.295 N 
ATOM     37  H5  UNL     1      44.269  20.267  36.243  1.00  0.00     0.172 HD
BRANCH  30  38
HETATM   38  N3  UNL     1      46.905  24.245  34.901  1.00  0.00    -0.234 N 
ATOM     39  H32 UNL     1      47.592  24.628  35.550  1.00  0.00     0.174 HD
ATOM     40  H31 UNL     1      46.761  24.679  33.989  1.00  0.00     0.174 HD
ENDBRANCH  30  38
ENDBRANCH  25  28
ENDBRANCH  22  25
ENDBRANCH   3  22
TORSDOF 13
ENDMDL
MODEL 3
REMARK VINA RESULT: -7.623948737      1.197      1.320
REMARK  13 active torsions:
REMARK  status: ('A' for Active; 'I' for Inactive)
REMARK    1  A    between atoms: C2_2  and  C3_3 
REMARK    2  A    between atoms: C2_2  and  C12_26 
REMARK    3  A    between atoms: C3_3  and  C4_4 
REMARK       I    between atoms: C4_4  and  N1_6 
REMARK    4  A    between atoms: N1_6  and  C5_7 
REMARK    5  A    between atoms: C5_7  and  C8_10 
REMARK    6  A    between atoms: C8_10  and  O2_11 
REMARK    7  A    between atoms: C8_10  and  C9_13 
REMARK    8  A    between atoms: C10_16  and  N3_17 
REMARK    9  A    between atoms: C13_27  and  C14_28 
REMARK   10  A    between atoms: C15_29  and  C16_30 
REMARK   11  A    between atoms: C16_30  and  C17_31 
REMARK   12  A    between atoms: C17_31  and  C18_32 
REMARK   13  A    between atoms: C18_32  and  C19_33 
ROOT
HETATM    1  C4  UNL     1      45.691  18.148  37.820  1.00  0.00     0.291 C 
HETATM    2  O1  UNL     1      44.418  18.050  38.042  1.00  0.00    -0.257 OA
HETATM    3  N1  UNL     1      46.503  19.023  38.341  1.00  0.00    -0.401 NA
ENDROOT
BRANCH   1   4
HETATM    4  C3  UNL     1      46.227  17.080  36.842  1.00  0.00     0.157 C 
BRANCH   4   5
HETATM    5  C2  UNL     1      47.280  16.249  37.561  1.00  0.00    -0.051 C 
HETATM    6  C1  UNL     1      46.743  15.471  38.475  1.00  0.00     0.020 C 
BRANCH   5   7
HETATM    7  C12 UNL     1      48.633  16.416  37.094  1.00  0.00    -0.023 C 
HETATM    8  C13 UNL     1      49.089  16.102  35.749  1.00  0.00     0.140 C 
HETATM    9  C21 UNL     1      50.431  15.397  35.898  1.00  0.00     0.272 C 
HETATM   10  O4  UNL     1      50.954  14.547  35.134  1.00  0.00    -0.264 OA
HETATM   11  O5  UNL     1      50.909  15.929  37.075  1.00  0.00    -0.305 OA
HETATM   12  C22 UNL     1      49.750  15.873  37.978  1.00  0.00     0.088 C 
HETATM   13  C23 UNL     1      50.147  16.791  39.089  1.00  0.00     0.051 C 
HETATM   14  C24 UNL     1      49.649  14.432  38.323  1.00  0.00     0.051 C 
BRANCH   8  15
HETATM   15  C14 UNL     1      48.343  15.290  34.821  1.00  0.00    -0.012 C 
HETATM   16  C15 UNL     1      47.913  15.605  33.599  1.00  0.00    -0.029 C 
BRANCH  16  17
HETATM   17  C16 UNL     1      48.085  16.843  32.875  1.00  0.00     0.027 C 
BRANCH  17  18
HETATM   18  C17 UNL     1      48.771  16.892  31.575  1.00  0.00     0.004 C 
BRANCH  18  19
HETATM   19  C18 UNL     1      50.205  17.225  31.454  1.00  0.00    -0.000 C 
BRANCH  19  20
HETATM   20  C19 UNL     1      51.125  16.171  31.966  1.00  0.00    -0.005 C 
HETATM   21  C20 UNL     1      52.298  16.797  32.732  1.00  0.00     0.005 C 
ENDBRANCH  19  20
ENDBRANCH  18  19
ENDBRANCH  17  18
ENDBRANCH  16  17
ENDBRANCH   8  15
ENDBRANCH   5   7
ENDBRANCH   4   5
ENDBRANCH   1   4
BRANCH   3  22
HETATM   22  C5  UNL     1      47.395  19.985  38.913  1.00  0.00     0.122 C 
HETATM   23  C6  UNL     1      48.783  19.990  38.294  1.00  0.00     0.057 C 
HETATM   24  C7  UNL     1      47.597  19.706  40.396  1.00  0.00     0.057 C 
BRANCH  22  25
HETATM   25  C8  UNL     1      46.863  21.420  38.817  1.00  0.00     0.227 C 
BRANCH  25  26
HETATM   26  O2  UNL     1      47.852  22.311  39.242  1.00  0.00    -0.384 OA
ATOM     27  H2  UNL     1      48.689  22.049  38.876  1.00  0.00     0.210 HD
ENDBRANCH  25  26
BRANCH  25  28
HETATM   28  C9  UNL     1      46.248  21.757  37.551  1.00  0.00     0.134 A 
HETATM   29  N2  UNL     1      46.775  22.557  36.629  1.00  0.00    -0.178 N 
HETATM   30  C10 UNL     1      46.165  22.871  35.485  1.00  0.00     0.681 A 
ATOM     31  H2  UNL     1      47.698  22.952  36.807  1.00  0.00     0.185 HD
HETATM   32  N4  UNL     1      44.954  22.377  35.207  1.00  0.00    -0.141 N 
HETATM   33  C11 UNL     1      44.379  21.567  36.106  1.00  0.00     0.340 A 
ATOM     34  H4  UNL     1      44.480  22.611  34.334  1.00  0.00     0.189 HD
HETATM   35  O3  UNL     1      43.233  21.107  35.834  1.00  0.00    -0.246 OA
HETATM   36  N5  UNL     1      45.008  21.263  37.251  1.00  0.00    -0.295 N 
ATOM     37  H5  UNL     1      44.548  20.644  37.917  1.00  0.00     0.172 HD
BRANCH  30  38
HETATM   38  N3  UNL     1      46.741  23.646  34.639  1.00  0.00    -0.234 N 
ATOM     39  H32 UNL     1      47.708  23.466  34.368  1.00  0.00     0.174 HD
ATOM     40  H31 UNL     1      46.235  24.439  34.244  1.00  0.00     0.174 HD
ENDBRANCH  30  38
ENDBRANCH  25  28
ENDBRANCH  22  25
ENDBRANCH   3  22
TORSDOF 13
ENDMDL
MODEL 4
REMARK VINA RESULT: -7.556919322      2.310      4.354
REMARK  13 active torsions:
REMARK  status: ('A' for Active; 'I' for Inactive)
REMARK    1  A    between atoms: C2_2  and  C3_3 
REMARK    2  A    between atoms: C2_2  and  C12_26 
REMARK    3  A    between atoms: C3_3  and  C4_4 
REMARK       I    between atoms: C4_4  and  N1_6 
REMARK    4  A    between atoms: N1_6  and  C5_7 
REMARK    5  A    between atoms: C5_7  and  C8_10 
REMARK    6  A    between atoms: C8_10  and  O2_11 
REMARK    7  A    between atoms: C8_10  and  C9_13 
REMARK    8  A    between atoms: C10_16  and  N3_17 
REMARK    9  A    between atoms: C13_27  and  C14_28 
REMARK   10  A    between atoms: C15_29  and  C16_30 
REMARK   11  A    between atoms: C16_30  and  C17_31 
REMARK   12  A    between atoms: C17_31  and  C18_32 
REMARK   13  A    between atoms: C18_32  and  C19_33 
ROOT
HETATM    1  C4  UNL     1      46.148  17.944  36.935  1.00  0.00     0.291 C 
HETATM    2  O1  UNL     1      45.512  17.971  35.806  1.00  0.00    -0.257 OA
HETATM    3  N1  UNL     1      46.355  18.954  37.731  1.00  0.00    -0.401 NA
ENDROOT
BRANCH   1   4
HETATM    4  C3  UNL     1      46.670  16.541  37.311  1.00  0.00     0.157 C 
BRANCH   4   5
HETATM    5  C2  UNL     1      48.180  16.618  37.495  1.00  0.00    -0.051 C 
HETATM    6  C1  UNL     1      48.816  16.438  36.359  1.00  0.00     0.020 C 
BRANCH   5   7
HETATM    7  C12 UNL     1      48.632  16.917  38.829  1.00  0.00    -0.023 C 
HETATM    8  C13 UNL     1      49.953  17.428  39.161  1.00  0.00     0.140 C 
HETATM    9  C21 UNL     1      50.418  16.663  40.394  1.00  0.00     0.272 C 
HETATM   10  O4  UNL     1      51.594  16.394  40.746  1.00  0.00    -0.264 OA
HETATM   11  O5  UNL     1      49.225  16.351  41.008  1.00  0.00    -0.305 OA
HETATM   12  C22 UNL     1      48.383  15.866  39.904  1.00  0.00     0.088 C 
HETATM   13  C23 UNL     1      47.009  15.907  40.490  1.00  0.00     0.051 C 
HETATM   14  C24 UNL     1      48.932  14.516  39.617  1.00  0.00     0.051 C 
BRANCH   8  15
HETATM   15  C14 UNL     1      51.075  17.391  38.256  1.00  0.00    -0.012 C 
HETATM   16  C15 UNL     1      51.794  18.408  37.781  1.00  0.00    -0.029 C 
BRANCH  16  17
HETATM   17  C16 UNL     1      51.646  19.818  38.051  1.00  0.00     0.027 C 
BRANCH  17  18
HETATM   18  C17 UNL     1      52.495  20.513  39.032  1.00  0.00     0.004 C 
BRANCH  18  19
HETATM   19  C18 UNL     1      51.944  21.115  40.264  1.00  0.00    -0.000 C 
BRANCH  19  20
HETATM   20  C19 UNL     1      51.600  20.129  41.326  1.00  0.00    -0.005 C 
HETATM   21  C20 UNL     1      50.090  20.131  41.602  1.00  0.00     0.005 C 
ENDBRANCH  19  20
ENDBRANCH  18  19
ENDBRANCH  17  18
ENDBRANCH  16  17
ENDBRANCH   8  15
ENDBRANCH   5   7
ENDBRANCH   4   5
ENDBRANCH   1   4
BRANCH   3  22
HETATM   22  C5  UNL     1      46.583  20.064  38.606  1.00  0.00     0.122 C 
HETATM   23  C6  UNL     1      47.993  20.627  38.541  1.00  0.00     0.057 C 
HETATM   24  C7  UNL     1      46.361  19.650  40.055  1.00  0.00     0.057 C 
BRANCH  22  25
HETATM   25  C8  UNL     1      45.626  21.233  38.344  1.00  0.00     0.227 C 
BRANCH  25  26
HETATM   26  O2  UNL     1      45.825  22.221  39.312  1.00  0.00    -0.384 OA
ATOM     27  H2  UNL     1      45.388  23.020  39.041  1.00  0.00     0.210 HD
ENDBRANCH  25  26
BRANCH  25  28
HETATM   28  C9  UNL     1      45.616  21.717  36.980  1.00  0.00     0.134 A 
HETATM   29  N2  UNL     1      46.286  22.774  36.534  1.00  0.00    -0.178 N 
HETATM   30  C10 UNL     1      46.228  23.210  35.274  1.00  0.00     0.681 A 
ATOM     31  H2  UNL     1      46.877  23.281  37.192  1.00  0.00     0.185 HD
HETATM   32  N4  UNL     1      45.466  22.579  34.375  1.00  0.00    -0.141 N 
HETATM   33  C11 UNL     1      44.770  21.508  34.776  1.00  0.00     0.340 A 
ATOM     34  H4  UNL     1      45.416  22.905  33.409  1.00  0.00     0.189 HD
HETATM   35  O3  UNL     1      44.052  20.919  33.918  1.00  0.00    -0.246 OA
HETATM   36  N5  UNL     1      44.841  21.084  36.046  1.00  0.00    -0.295 N 
ATOM     37  H5  UNL     1      44.301  20.265  36.325  1.00  0.00     0.172 HD
BRANCH  30  38
HETATM   38  N3  UNL     1      46.909  24.238  34.916  1.00  0.00    -0.234 N 
ATOM     39  H32 UNL     1      46.966  25.046  35.537  1.00  0.00     0.174 HD
ATOM     40  H31 UNL     1      47.386  24.248  34.014  1.00  0.00     0.174 HD
ENDBRANCH  30  38
ENDBRANCH  25  28
ENDBRANCH  22  25
ENDBRANCH   3  22
TORSDOF 13
ENDMDL
MODEL 5
REMARK VINA RESULT: -7.454156804      2.248      3.704
REMARK  13 active torsions:
REMARK  status: ('A' for Active; 'I' for Inactive)
REMARK    1  A    between atoms: C2_2  and  C3_3 
REMARK    2  A    between atoms: C2_2  and  C12_26 
REMARK    3  A    between atoms: C3_3  and  C4_4 
REMARK       I    between atoms: C4_4  and  N1_6 
REMARK    4  A    between atoms: N1_6  and  C5_7 
REMARK    5  A    between atoms: C5_7  and  C8_10 
REMARK    6  A    between atoms: C8_10  and  O2_11 
REMARK    7  A    between atoms: C8_10  and  C9_13 
REMARK    8  A    between atoms: C10_16  and  N3_17 
REMARK    9  A    between atoms: C13_27  and  C14_28 
REMARK   10  A    between atoms: C15_29  and  C16_30 
REMARK   11  A    between atoms: C16_30  and  C17_31 
REMARK   12  A    between atoms: C17_31  and  C18_32 
REMARK   13  A    between atoms: C18_32  and  C19_33 
ROOT
HETATM    1  C4  UNL     1      46.156  17.874  36.849  1.00  0.00     0.291 C 
HETATM    2  O1  UNL     1      45.528  17.920  35.716  1.00  0.00    -0.257 OA
HETATM    3  N1  UNL     1      46.337  18.865  37.674  1.00  0.00    -0.401 NA
ENDROOT
BRANCH   1   4
HETATM    4  C3  UNL     1      46.703  16.472  37.191  1.00  0.00     0.157 C 
BRANCH   4   5
HETATM    5  C2  UNL     1      48.030  16.279  36.471  1.00  0.00    -0.051 C 
HETATM    6  C1  UNL     1      49.001  16.946  37.055  1.00  0.00     0.020 C 
BRANCH   5   7
HETATM    7  C12 UNL     1      48.003  15.387  35.340  1.00  0.00    -0.023 C 
HETATM    8  C13 UNL     1      48.386  13.985  35.383  1.00  0.00     0.140 C 
HETATM    9  C21 UNL     1      49.214  13.722  34.130  1.00  0.00     0.272 C 
HETATM   10  O4  UNL     1      50.125  12.873  33.963  1.00  0.00    -0.264 OA
HETATM   11  O5  UNL     1      48.704  14.648  33.247  1.00  0.00    -0.305 OA
HETATM   12  C22 UNL     1      48.631  15.882  34.043  1.00  0.00     0.088 C 
HETATM   13  C23 UNL     1      47.732  16.753  33.225  1.00  0.00     0.051 C 
HETATM   14  C24 UNL     1      50.048  16.315  34.143  1.00  0.00     0.051 C 
BRANCH   8  15
HETATM   15  C14 UNL     1      49.143  13.395  36.459  1.00  0.00    -0.012 C 
HETATM   16  C15 UNL     1      48.766  12.451  37.321  1.00  0.00    -0.029 C 
BRANCH  16  17
HETATM   17  C16 UNL     1      47.500  11.762  37.404  1.00  0.00     0.027 C 
BRANCH  17  18
HETATM   18  C17 UNL     1      47.262  10.491  36.702  1.00  0.00     0.004 C 
BRANCH  18  19
HETATM   19  C18 UNL     1      46.419  10.407  35.491  1.00  0.00    -0.000 C 
BRANCH  19  20
HETATM   20  C19 UNL     1      47.168  10.558  34.212  1.00  0.00    -0.005 C 
HETATM   21  C20 UNL     1      46.485  11.586  33.300  1.00  0.00     0.005 C 
ENDBRANCH  19  20
ENDBRANCH  18  19
ENDBRANCH  17  18
ENDBRANCH  16  17
ENDBRANCH   8  15
ENDBRANCH   5   7
ENDBRANCH   4   5
ENDBRANCH   1   4
BRANCH   3  22
HETATM   22  C5  UNL     1      46.536  19.955  38.582  1.00  0.00     0.122 C 
HETATM   23  C6  UNL     1      47.942  20.533  38.559  1.00  0.00     0.057 C 
HETATM   24  C7  UNL     1      46.289  19.503  40.015  1.00  0.00     0.057 C 
BRANCH  22  25
HETATM   25  C8  UNL     1      45.574  21.121  38.330  1.00  0.00     0.227 C 
BRANCH  25  26
HETATM   26  O2  UNL     1      45.744  22.086  39.326  1.00  0.00    -0.384 OA
ATOM     27  H2  UNL     1      45.165  21.893  40.053  1.00  0.00     0.210 HD
ENDBRANCH  25  26
BRANCH  25  28
HETATM   28  C9  UNL     1      45.585  21.638  36.978  1.00  0.00     0.134 A 
HETATM   29  N2  UNL     1      46.264  22.705  36.569  1.00  0.00    -0.178 N 
HETATM   30  C10 UNL     1      46.227  23.172  35.319  1.00  0.00     0.681 A 
ATOM     31  H2  UNL     1      46.847  23.194  37.248  1.00  0.00     0.185 HD
HETATM   32  N4  UNL     1      45.478  22.566  34.393  1.00  0.00    -0.141 N 
HETATM   33  C11 UNL     1      44.773  21.486  34.757  1.00  0.00     0.340 A 
ATOM     34  H4  UNL     1      45.444  22.915  33.435  1.00  0.00     0.189 HD
HETATM   35  O3  UNL     1      44.067  20.921  33.873  1.00  0.00    -0.246 OA
HETATM   36  N5  UNL     1      44.823  21.031  36.017  1.00  0.00    -0.295 N 
ATOM     37  H5  UNL     1      44.277  20.208  36.267  1.00  0.00     0.172 HD
BRANCH  30  38
HETATM   38  N3  UNL     1      46.916  24.207  34.997  1.00  0.00    -0.234 N 
ATOM     39  H32 UNL     1      47.918  24.224  35.190  1.00  0.00     0.174 HD
ATOM     40  H31 UNL     1      46.463  25.007  34.556  1.00  0.00     0.174 HD
ENDBRANCH  30  38
ENDBRANCH  25  28
ENDBRANCH  22  25
ENDBRANCH   3  22
TORSDOF 13
ENDMDL
