MODEL 1
REMARK VINA RESULT: -7.942332945      0.000      0.000
REMARK  11 active torsions:
REMARK  status: ('A' for Active; 'I' for Inactive)
REMARK    1  A    between atoms: C3_3  and  N1_4 
REMARK       I    between atoms: N1_4  and  C4_6 
REMARK    2  A    between atoms: C4_6  and  C5_8 
REMARK    3  A    between atoms: C5_8  and  C7_10 
REMARK    4  A    between atoms: N2_15  and  C11_16 
REMARK    5  A    between atoms: C11_16  and  C13_18 
REMARK    6  A    between atoms: C13_18  and  O3_19 
REMARK    7  A    between atoms: C19_26  and  O4_27 
REMARK    8  A    between atoms: C22_32  and  C23_33 
REMARK    9  A    between atoms: C23_33  and  N3_34 
REMARK   10  A    between atoms: N3_34  and  S1_36 
REMARK   11  A    between atoms: S1_36  and  C25_39 
ROOT
HETATM    1  C1  UNL     1      46.058  18.258  14.541  1.00  0.00     0.017 C 
HETATM    2  C2  UNL     1      45.098  18.171  13.649  1.00  0.00    -0.051 C 
HETATM    3  C3  UNL     1      44.727  16.810  13.183  1.00  0.00     0.206 C 
HETATM    4  C10 UNL     1      44.359  15.820  14.162  1.00  0.00     0.247 C 
HETATM    5  O2  UNL     1      45.219  15.427  15.029  1.00  0.00    -0.271 OA
HETATM    6  N2  UNL     1      43.063  15.172  14.298  1.00  0.00    -0.343 N 
HETATM    7  C14 UNL     1      41.939  15.843  13.754  1.00  0.00     0.131 C 
HETATM    8  C15 UNL     1      40.685  15.938  14.515  1.00  0.00     0.006 C 
HETATM    9  C16 UNL     1      39.539  16.147  13.502  1.00  0.00     0.012 C 
HETATM   10  C17 UNL     1      40.596  17.152  15.424  1.00  0.00     0.018 C 
HETATM   11  C18 UNL     1      39.155  17.158  15.952  1.00  0.00     0.013 C 
HETATM   12  C19 UNL     1      40.831  18.436  14.724  1.00  0.00     0.150 C 
HETATM   13  C20 UNL     1      42.156  19.093  15.172  1.00  0.00     0.147 C 
HETATM   14  C21 UNL     1      41.842  19.645  16.577  1.00  0.00     0.042 C 
HETATM   15  O5  UNL     1      42.441  20.044  14.272  1.00  0.00    -0.377 OA
HETATM   16  C22 UNL     1      43.718  20.309  13.889  1.00  0.00     0.144 C 
HETATM   17  C31 UNL     1      44.401  19.316  13.035  1.00  0.00     0.042 C 
HETATM   18  C32 UNL     1      45.313  19.998  11.996  1.00  0.00     0.017 C 
ENDROOT
BRANCH  16  19
HETATM   19  C23 UNL     1      44.565  21.022  14.917  1.00  0.00     0.139 C 
BRANCH  19  20
HETATM   20  N3  UNL     1      44.365  22.453  14.881  1.00  0.00    -0.208 NA
HETATM   21  C24 UNL     1      43.920  22.862  16.212  1.00  0.00     0.129 C 
BRANCH  20  22
HETATM   22  S1  UNL     1      45.782  23.362  14.556  1.00  0.00     0.243 S 
HETATM   23  O6  UNL     1      47.001  22.716  15.163  1.00  0.00    -0.206 OA
HETATM   24  O7  UNL     1      45.673  24.795  15.015  1.00  0.00    -0.206 OA
BRANCH  22  25
HETATM   25  C25 UNL     1      46.028  23.421  12.827  1.00  0.00     0.074 A 
HETATM   26  C26 UNL     1      47.249  23.235  12.214  1.00  0.00     0.026 A 
HETATM   27  C27 UNL     1      47.390  23.292  10.857  1.00  0.00     0.025 A 
HETATM   28  C28 UNL     1      46.271  23.544  10.089  1.00  0.00     0.034 A 
HETATM   29 CL1  UNL     1      46.438  23.621   8.361  1.00  0.00    -0.084 Cl
HETATM   30  C29 UNL     1      45.035  23.734  10.693  1.00  0.00     0.025 A 
HETATM   31  C30 UNL     1      44.897  23.676  12.050  1.00  0.00     0.026 A 
ENDBRANCH  22  25
ENDBRANCH  20  22
ENDBRANCH  19  20
ENDBRANCH  16  19
BRANCH  12  32
HETATM   32  O4  UNL     1      39.845  19.389  15.067  1.00  0.00    -0.393 OA
ATOM     33  H4  UNL     1      39.230  19.515  14.354  1.00  0.00     0.210 HD
ENDBRANCH  12  32
BRANCH   3  34
HETATM   34  N1  UNL     1      45.912  16.339  12.456  1.00  0.00    -0.344 N 
HETATM   35  C4  UNL     1      45.889  15.230  11.578  1.00  0.00     0.222 C 
HETATM   36  O1  UNL     1      44.802  14.627  11.418  1.00  0.00    -0.273 OA
ATOM     37  H1  UNL     1      46.793  16.835  12.590  1.00  0.00     0.163 HD
BRANCH  35  38
HETATM   38  C5  UNL     1      47.078  14.755  10.846  1.00  0.00     0.077 C 
HETATM   39  C6  UNL     1      48.354  15.429  11.340  1.00  0.00     0.020 C 
BRANCH  38  40
HETATM   40  C7  UNL     1      46.961  15.058   9.376  1.00  0.00    -0.010 C 
HETATM   41  C8  UNL     1      47.704  13.975   8.615  1.00  0.00     0.010 C 
HETATM   42  C9  UNL     1      47.558  16.386   8.993  1.00  0.00     0.010 C 
ENDBRANCH  38  40
ENDBRANCH  35  38
ENDBRANCH   3  34
BRANCH   6  43
HETATM   43  C11 UNL     1      43.046  13.875  14.951  1.00  0.00     0.106 C 
HETATM   44  C12 UNL     1      42.306  13.881  16.285  1.00  0.00     0.034 C 
BRANCH  43  45
HETATM   45  C13 UNL     1      42.585  12.762  14.066  1.00  0.00     0.189 C 
BRANCH  45  46
HETATM   46  O3  UNL     1      43.380  12.570  12.954  1.00  0.00    -0.399 OA
ATOM     47  H3  UNL     1      43.990  11.848  13.040  1.00  0.00     0.209 HD
ENDBRANCH  45  46
ENDBRANCH  43  45
ENDBRANCH   6  43
TORSDOF 11
ENDMDL
MODEL 2
REMARK VINA RESULT: -7.717420804      2.246      2.798
REMARK  11 active torsions:
REMARK  status: ('A' for Active; 'I' for Inactive)
REMARK    1  A    between atoms: C3_3  and  N1_4 
REMARK       I    between atoms: N1_4  and  C4_6 
REMARK    2  A    between atoms: C4_6  and  C5_8 
REMARK    3  A    between atoms: C5_8  and  C7_10 
REMARK    4  A    between atoms: N2_15  and  C11_16 
REMARK    5  A    between atoms: C11_16  and  C13_18 
REMARK    6  A    between atoms: C13_18  and  O3_19 
REMARK    7  A    between atoms: C19_26  and  O4_27 
REMARK    8  A    between atoms: C22_32  and  C23_33 
REMARK    9  A    between atoms: C23_33  and  N3_34 
REMARK   10  A    between atoms: N3_34  and  S1_36 
REMARK   11  A    between atoms: S1_36  and  C25_39 
ROOT
HETATM    1  C1  UNL     1      45.340  17.800  15.002  1.00  0.00     0.017 C 
HETATM    2  C2  UNL     1      44.429  17.546  14.091  1.00  0.00    -0.051 C 
HETATM    3  C3  UNL     1      44.583  16.294  13.307  1.00  0.00     0.206 C 
HETATM    4  C10 UNL     1      44.699  15.045  14.016  1.00  0.00     0.247 C 
HETATM    5  O2  UNL     1      45.704  14.838  14.787  1.00  0.00    -0.271 OA
HETATM    6  N2  UNL     1      43.770  13.926  13.962  1.00  0.00    -0.343 N 
HETATM    7  C14 UNL     1      42.438  14.204  13.564  1.00  0.00     0.131 C 
HETATM    8  C15 UNL     1      41.303  13.622  14.294  1.00  0.00     0.006 C 
HETATM    9  C16 UNL     1      40.097  13.586  13.330  1.00  0.00     0.012 C 
HETATM   10  C17 UNL     1      40.814  14.463  15.461  1.00  0.00     0.018 C 
HETATM   11  C18 UNL     1      39.525  13.780  15.940  1.00  0.00     0.013 C 
HETATM   12  C19 UNL     1      40.482  15.858  15.091  1.00  0.00     0.150 C 
HETATM   13  C20 UNL     1      41.475  16.863  15.714  1.00  0.00     0.147 C 
HETATM   14  C21 UNL     1      41.072  16.912  17.202  1.00  0.00     0.042 C 
HETATM   15  O5  UNL     1      41.304  18.027  15.071  1.00  0.00    -0.377 OA
HETATM   16  C22 UNL     1      42.347  18.853  14.794  1.00  0.00     0.144 C 
HETATM   17  C31 UNL     1      43.301  18.431  13.747  1.00  0.00     0.042 C 
HETATM   18  C32 UNL     1      43.800  19.633  12.921  1.00  0.00     0.017 C 
ENDROOT
BRANCH  16  19
HETATM   19  C23 UNL     1      42.921  19.589  15.982  1.00  0.00     0.139 C 
BRANCH  19  20
HETATM   20  N3  UNL     1      42.391  20.929  16.093  1.00  0.00    -0.208 NA
HETATM   21  C24 UNL     1      41.094  20.828  16.760  1.00  0.00     0.129 C 
BRANCH  20  22
HETATM   22  S1  UNL     1      43.334  21.991  17.053  1.00  0.00     0.243 S 
HETATM   23  O6  UNL     1      43.989  21.261  18.197  1.00  0.00    -0.206 OA
HETATM   24  O7  UNL     1      42.543  23.165  17.573  1.00  0.00    -0.206 OA
BRANCH  22  25
HETATM   25  C25 UNL     1      44.608  22.662  16.063  1.00  0.00     0.074 A 
HETATM   26  C26 UNL     1      44.774  24.010  15.828  1.00  0.00     0.026 A 
HETATM   27  C27 UNL     1      45.787  24.486  15.046  1.00  0.00     0.025 A 
HETATM   28  C28 UNL     1      46.662  23.581  14.479  1.00  0.00     0.034 A 
HETATM   29 CL1  UNL     1      47.953  24.174  13.479  1.00  0.00    -0.084 Cl
HETATM   30  C29 UNL     1      46.507  22.219  14.707  1.00  0.00     0.025 A 
HETATM   31  C30 UNL     1      45.493  21.747  15.491  1.00  0.00     0.026 A 
ENDBRANCH  22  25
ENDBRANCH  20  22
ENDBRANCH  19  20
ENDBRANCH  16  19
BRANCH  12  32
HETATM   32  O4  UNL     1      39.229  16.240  15.625  1.00  0.00    -0.393 OA
ATOM     33  H4  UNL     1      39.334  16.661  16.470  1.00  0.00     0.210 HD
ENDBRANCH  12  32
BRANCH   3  34
HETATM   34  N1  UNL     1      45.803  16.506  12.520  1.00  0.00    -0.344 N 
HETATM   35  C4  UNL     1      46.198  15.653  11.463  1.00  0.00     0.222 C 
HETATM   36  O1  UNL     1      45.467  14.672  11.192  1.00  0.00    -0.273 OA
ATOM     37  H1  UNL     1      46.395  17.306  12.745  1.00  0.00     0.163 HD
BRANCH  35  38
HETATM   38  C5  UNL     1      47.424  15.863  10.670  1.00  0.00     0.077 C 
HETATM   39  C6  UNL     1      48.364  16.864  11.335  1.00  0.00     0.020 C 
BRANCH  38  40
HETATM   40  C7  UNL     1      47.095  16.410   9.306  1.00  0.00    -0.010 C 
HETATM   41  C8  UNL     1      47.486  15.366   8.277  1.00  0.00     0.010 C 
HETATM   42  C9  UNL     1      47.833  17.681   8.980  1.00  0.00     0.010 C 
ENDBRANCH  38  40
ENDBRANCH  35  38
ENDBRANCH   3  34
BRANCH   6  43
HETATM   43  C11 UNL     1      44.305  12.616  14.290  1.00  0.00     0.106 C 
HETATM   44  C12 UNL     1      43.286  11.700  14.960  1.00  0.00     0.034 C 
BRANCH  43  45
HETATM   45  C13 UNL     1      44.988  11.942  13.144  1.00  0.00     0.189 C 
BRANCH  45  46
HETATM   46  O3  UNL     1      46.343  12.198  13.076  1.00  0.00    -0.399 OA
ATOM     47  H3  UNL     1      46.876  11.416  12.992  1.00  0.00     0.209 HD
ENDBRANCH  45  46
ENDBRANCH  43  45
ENDBRANCH   6  43
TORSDOF 11
ENDMDL
MODEL 3
REMARK VINA RESULT: -7.708144310      3.050      7.261
REMARK  11 active torsions:
REMARK  status: ('A' for Active; 'I' for Inactive)
REMARK    1  A    between atoms: C3_3  and  N1_4 
REMARK       I    between atoms: N1_4  and  C4_6 
REMARK    2  A    between atoms: C4_6  and  C5_8 
REMARK    3  A    between atoms: C5_8  and  C7_10 
REMARK    4  A    between atoms: N2_15  and  C11_16 
REMARK    5  A    between atoms: C11_16  and  C13_18 
REMARK    6  A    between atoms: C13_18  and  O3_19 
REMARK    7  A    between atoms: C19_26  and  O4_27 
REMARK    8  A    between atoms: C22_32  and  C23_33 
REMARK    9  A    between atoms: C23_33  and  N3_34 
REMARK   10  A    between atoms: N3_34  and  S1_36 
REMARK   11  A    between atoms: S1_36  and  C25_39 
ROOT
HETATM    1  C1  UNL     1      45.343  16.364  11.682  1.00  0.00     0.017 C 
HETATM    2  C2  UNL     1      45.464  15.926  12.914  1.00  0.00    -0.051 C 
HETATM    3  C3  UNL     1      44.626  16.580  13.952  1.00  0.00     0.206 C 
HETATM    4  C10 UNL     1      43.199  16.630  13.757  1.00  0.00     0.247 C 
HETATM    5  O2  UNL     1      42.711  17.285  12.768  1.00  0.00    -0.271 OA
HETATM    6  N2  UNL     1      42.186  15.998  14.589  1.00  0.00    -0.343 N 
HETATM    7  C14 UNL     1      42.589  14.892  15.378  1.00  0.00     0.131 C 
HETATM    8  C15 UNL     1      41.756  13.682  15.449  1.00  0.00     0.006 C 
HETATM    9  C16 UNL     1      42.095  12.959  16.770  1.00  0.00     0.012 C 
HETATM   10  C17 UNL     1      42.062  12.649  14.378  1.00  0.00     0.018 C 
HETATM   11  C18 UNL     1      41.236  11.413  14.759  1.00  0.00     0.013 C 
HETATM   12  C19 UNL     1      43.487  12.249  14.328  1.00  0.00     0.150 C 
HETATM   13  C20 UNL     1      44.170  12.742  13.033  1.00  0.00     0.147 C 
HETATM   14  C21 UNL     1      43.623  11.801  11.941  1.00  0.00     0.042 C 
HETATM   15  O5  UNL     1      45.493  12.631  13.226  1.00  0.00    -0.377 OA
HETATM   16  C22 UNL     1      46.369  13.542  12.727  1.00  0.00     0.144 C 
HETATM   17  C31 UNL     1      46.403  14.879  13.356  1.00  0.00     0.042 C 
HETATM   18  C32 UNL     1      47.838  15.441  13.409  1.00  0.00     0.017 C 
ENDROOT
BRANCH  16  19
HETATM   19  C23 UNL     1      46.578  13.486  11.233  1.00  0.00     0.139 C 
BRANCH  19  20
HETATM   20  N3  UNL     1      47.793  12.785  10.885  1.00  0.00    -0.208 NA
HETATM   21  C24 UNL     1      47.419  11.414  10.540  1.00  0.00     0.129 C 
BRANCH  20  22
HETATM   22  S1  UNL     1      48.610  13.412   9.514  1.00  0.00     0.243 S 
HETATM   23  O6  UNL     1      47.974  12.939   8.232  1.00  0.00    -0.206 OA
HETATM   24  O7  UNL     1      50.083  13.084   9.513  1.00  0.00    -0.206 OA
BRANCH  22  25
HETATM   25  C25 UNL     1      48.498  15.155   9.541  1.00  0.00     0.074 A 
HETATM   26  C26 UNL     1      47.578  15.881   8.816  1.00  0.00     0.026 A 
HETATM   27  C27 UNL     1      47.532  17.245   8.871  1.00  0.00     0.025 A 
HETATM   28  C28 UNL     1      48.437  17.903   9.678  1.00  0.00     0.034 A 
HETATM   29 CL1  UNL     1      48.390  19.638   9.754  1.00  0.00    -0.084 Cl
HETATM   30  C29 UNL     1      49.370  17.184  10.415  1.00  0.00     0.025 A 
HETATM   31  C30 UNL     1      49.413  15.821  10.358  1.00  0.00     0.026 A 
ENDBRANCH  22  25
ENDBRANCH  20  22
ENDBRANCH  19  20
ENDBRANCH  16  19
BRANCH  12  32
HETATM   32  O4  UNL     1      43.616  10.842  14.267  1.00  0.00    -0.393 OA
ATOM     33  H4  UNL     1      43.824  10.557  13.385  1.00  0.00     0.210 HD
ENDBRANCH  12  32
BRANCH   3  34
HETATM   34  N1  UNL     1      45.142  17.951  14.025  1.00  0.00    -0.344 N 
HETATM   35  C4  UNL     1      44.841  18.834  15.089  1.00  0.00     0.222 C 
HETATM   36  O1  UNL     1      44.098  18.418  16.008  1.00  0.00    -0.273 OA
ATOM     37  H1  UNL     1      45.746  18.284  13.273  1.00  0.00     0.163 HD
BRANCH  35  38
HETATM   38  C5  UNL     1      45.358  20.213  15.165  1.00  0.00     0.077 C 
HETATM   39  C6  UNL     1      44.681  21.012  16.275  1.00  0.00     0.020 C 
BRANCH  38  40
HETATM   40  C7  UNL     1      45.109  20.952  13.877  1.00  0.00    -0.010 C 
HETATM   41  C8  UNL     1      45.811  22.295  13.965  1.00  0.00     0.010 C 
HETATM   42  C9  UNL     1      43.649  21.210  13.612  1.00  0.00     0.010 C 
ENDBRANCH  38  40
ENDBRANCH  35  38
ENDBRANCH   3  34
BRANCH   6  43
HETATM   43  C11 UNL     1      40.857  16.585  14.560  1.00  0.00     0.106 C 
HETATM   44  C12 UNL     1      39.826  15.705  13.862  1.00  0.00     0.034 C 
BRANCH  43  45
HETATM   45  C13 UNL     1      40.376  17.049  15.896  1.00  0.00     0.189 C 
BRANCH  45  46
HETATM   46  O3  UNL     1      41.192  17.996  16.482  1.00  0.00    -0.399 OA
ATOM     47  H3  UNL     1      40.718  18.677  16.943  1.00  0.00     0.209 HD
ENDBRANCH  45  46
ENDBRANCH  43  45
ENDBRANCH   6  43
TORSDOF 11
ENDMDL
MODEL 4
REMARK VINA RESULT: -7.666264908      5.926     11.470
REMARK  11 active torsions:
REMARK  status: ('A' for Active; 'I' for Inactive)
REMARK    1  A    between atoms: C3_3  and  N1_4 
REMARK       I    between atoms: N1_4  and  C4_6 
REMARK    2  A    between atoms: C4_6  and  C5_8 
REMARK    3  A    between atoms: C5_8  and  C7_10 
REMARK    4  A    between atoms: N2_15  and  C11_16 
REMARK    5  A    between atoms: C11_16  and  C13_18 
REMARK    6  A    between atoms: C13_18  and  O3_19 
REMARK    7  A    between atoms: C19_26  and  O4_27 
REMARK    8  A    between atoms: C22_32  and  C23_33 
REMARK    9  A    between atoms: C23_33  and  N3_34 
REMARK   10  A    between atoms: N3_34  and  S1_36 
REMARK   11  A    between atoms: S1_36  and  C25_39 
ROOT
HETATM    1  C1  UNL     1      46.207  11.473  12.356  1.00  0.00     0.017 C 
HETATM    2  C2  UNL     1      45.849  12.209  11.329  1.00  0.00    -0.051 C 
HETATM    3  C3  UNL     1      45.125  13.473  11.620  1.00  0.00     0.206 C 
HETATM    4  C10 UNL     1      45.729  14.426  12.515  1.00  0.00     0.247 C 
HETATM    5  O2  UNL     1      45.934  14.111  13.742  1.00  0.00    -0.271 OA
HETATM    6  N2  UNL     1      46.159  15.777  12.185  1.00  0.00    -0.343 N 
HETATM    7  C14 UNL     1      46.435  16.058  10.823  1.00  0.00     0.131 C 
HETATM    8  C15 UNL     1      47.636  16.818  10.447  1.00  0.00     0.006 C 
HETATM    9  C16 UNL     1      47.365  17.466   9.071  1.00  0.00     0.012 C 
HETATM   10  C17 UNL     1      48.869  15.963  10.212  1.00  0.00     0.018 C 
HETATM   11  C18 UNL     1      49.925  16.921   9.643  1.00  0.00     0.013 C 
HETATM   12  C19 UNL     1      48.660  14.876   9.227  1.00  0.00     0.150 C 
HETATM   13  C20 UNL     1      48.704  13.485   9.898  1.00  0.00     0.147 C 
HETATM   14  C21 UNL     1      50.202  13.257  10.186  1.00  0.00     0.042 C 
HETATM   15  O5  UNL     1      48.186  12.614   9.020  1.00  0.00    -0.377 OA
HETATM   16  C22 UNL     1      47.421  11.565   9.419  1.00  0.00     0.144 C 
HETATM   17  C31 UNL     1      46.059  11.854   9.914  1.00  0.00     0.042 C 
HETATM   18  C32 UNL     1      45.059  10.761   9.486  1.00  0.00     0.017 C 
ENDROOT
BRANCH  16  19
HETATM   19  C23 UNL     1      48.169  10.441  10.097  1.00  0.00     0.139 C 
BRANCH  19  20
HETATM   20  N3  UNL     1      47.977   9.180   9.419  1.00  0.00    -0.208 NA
HETATM   21  C24 UNL     1      49.089   9.018   8.483  1.00  0.00     0.129 C 
BRANCH  20  22
HETATM   22  S1  UNL     1      48.018   7.806  10.444  1.00  0.00     0.243 S 
HETATM   23  O6  UNL     1      47.543   8.144  11.834  1.00  0.00    -0.206 OA
HETATM   24  O7  UNL     1      49.383   7.164  10.504  1.00  0.00    -0.206 OA
BRANCH  22  25
HETATM   25  C25 UNL     1      46.937   6.593   9.802  1.00  0.00     0.074 A 
HETATM   26  C26 UNL     1      47.157   5.906   8.627  1.00  0.00     0.026 A 
HETATM   27  C27 UNL     1      46.281   4.967   8.167  1.00  0.00     0.025 A 
HETATM   28  C28 UNL     1      45.146   4.705   8.908  1.00  0.00     0.034 A 
HETATM   29 CL1  UNL     1      44.021   3.513   8.332  1.00  0.00    -0.084 Cl
HETATM   30  C29 UNL     1      44.911   5.389  10.094  1.00  0.00     0.025 A 
HETATM   31  C30 UNL     1      45.790   6.329  10.552  1.00  0.00     0.026 A 
ENDBRANCH  22  25
ENDBRANCH  20  22
ENDBRANCH  19  20
ENDBRANCH  16  19
BRANCH  12  32
HETATM   32  O4  UNL     1      49.715  14.835   8.287  1.00  0.00    -0.393 OA
ATOM     33  H4  UNL     1      49.433  14.424   7.477  1.00  0.00     0.210 HD
ENDBRANCH  12  32
BRANCH   3  34
HETATM   34  N1  UNL     1      43.845  13.035  12.189  1.00  0.00    -0.344 N 
HETATM   35  C4  UNL     1      42.655  12.936  11.429  1.00  0.00     0.222 C 
HETATM   36  O1  UNL     1      42.705  13.238  10.215  1.00  0.00    -0.273 OA
ATOM     37  H1  UNL     1      43.811  12.791  13.179  1.00  0.00     0.163 HD
BRANCH  35  38
HETATM   38  C5  UNL     1      41.367  12.496  11.999  1.00  0.00     0.077 C 
HETATM   39  C6  UNL     1      40.975  13.323  13.219  1.00  0.00     0.020 C 
BRANCH  38  40
HETATM   40  C7  UNL     1      41.440  11.061  12.446  1.00  0.00    -0.010 C 
HETATM   41  C8  UNL     1      40.377  10.282  11.694  1.00  0.00     0.010 C 
HETATM   42  C9  UNL     1      41.188  10.883  13.920  1.00  0.00     0.010 C 
ENDBRANCH  38  40
ENDBRANCH  35  38
ENDBRANCH   3  34
BRANCH   6  43
HETATM   43  C11 UNL     1      46.231  16.726  13.282  1.00  0.00     0.106 C 
HETATM   44  C12 UNL     1      45.935  18.161  12.857  1.00  0.00     0.034 C 
BRANCH  43  45
HETATM   45  C13 UNL     1      45.428  16.325  14.477  1.00  0.00     0.189 C 
BRANCH  45  46
HETATM   46  O3  UNL     1      46.135  16.372  15.663  1.00  0.00    -0.399 OA
ATOM     47  H3  UNL     1      46.834  15.731  15.717  1.00  0.00     0.209 HD
ENDBRANCH  45  46
ENDBRANCH  43  45
ENDBRANCH   6  43
TORSDOF 11
ENDMDL
MODEL 5
REMARK VINA RESULT: -7.607926478      1.140      1.530
REMARK  11 active torsions:
REMARK  status: ('A' for Active; 'I' for Inactive)
REMARK    1  A    between atoms: C3_3  and  N1_4 
REMARK       I    between atoms: N1_4  and  C4_6 
REMARK    2  A    between atoms: C4_6  and  C5_8 
REMARK    3  A    between atoms: C5_8  and  C7_10 
REMARK    4  A    between atoms: N2_15  and  C11_16 
REMARK    5  A    between atoms: C11_16  and  C13_18 
REMARK    6  A    between atoms: C13_18  and  O3_19 
REMARK    7  A    between atoms: C19_26  and  O4_27 
REMARK    8  A    between atoms: C22_32  and  C23_33 
REMARK    9  A    between atoms: C23_33  and  N3_34 
REMARK   10  A    between atoms: N3_34  and  S1_36 
REMARK   11  A    between atoms: S1_36  and  C25_39 
ROOT
HETATM    1  C1  UNL     1      45.465  19.103  15.046  1.00  0.00     0.017 C 
HETATM    2  C2  UNL     1      44.435  18.834  14.277  1.00  0.00    -0.051 C 
HETATM    3  C3  UNL     1      44.081  17.403  14.093  1.00  0.00     0.206 C 
HETATM    4  C10 UNL     1      43.841  16.595  15.261  1.00  0.00     0.247 C 
HETATM    5  O2  UNL     1      44.789  16.384  16.100  1.00  0.00    -0.271 OA
HETATM    6  N2  UNL     1      42.589  15.949  15.629  1.00  0.00    -0.343 N 
HETATM    7  C14 UNL     1      41.396  16.484  15.083  1.00  0.00     0.131 C 
HETATM    8  C15 UNL     1      40.210  16.682  15.929  1.00  0.00     0.006 C 
HETATM    9  C16 UNL     1      38.972  16.677  15.006  1.00  0.00     0.012 C 
HETATM   10  C17 UNL     1      40.151  18.036  16.615  1.00  0.00     0.018 C 
HETATM   11  C18 UNL     1      38.762  18.100  17.266  1.00  0.00     0.013 C 
HETATM   12  C19 UNL     1      40.271  19.180  15.682  1.00  0.00     0.150 C 
HETATM   13  C20 UNL     1      41.601  19.939  15.882  1.00  0.00     0.147 C 
HETATM   14  C21 UNL     1      41.389  20.725  17.192  1.00  0.00     0.042 C 
HETATM   15  O5  UNL     1      41.768  20.721  14.806  1.00  0.00    -0.377 OA
HETATM   16  C22 UNL     1      42.994  20.946  14.266  1.00  0.00     0.144 C 
HETATM   17  C31 UNL     1      43.641  19.833  13.539  1.00  0.00     0.042 C 
HETATM   18  C32 UNL     1      44.429  20.341  12.316  1.00  0.00     0.017 C 
ENDROOT
BRANCH  16  19
HETATM   19  C23 UNL     1      43.898  21.852  15.069  1.00  0.00     0.139 C 
BRANCH  19  20
HETATM   20  N3  UNL     1      44.076  23.136  14.432  1.00  0.00    -0.208 NA
HETATM   21  C24 UNL     1      43.558  24.150  15.350  1.00  0.00     0.129 C 
BRANCH  20  22
HETATM   22  S1  UNL     1      45.709  23.562  14.131  1.00  0.00     0.243 S 
HETATM   23  O6  UNL     1      46.658  22.556  14.731  1.00  0.00    -0.206 OA
HETATM   24  O7  UNL     1      46.050  24.949  14.618  1.00  0.00    -0.206 OA
BRANCH  22  25
HETATM   25  C25 UNL     1      45.980  23.571  12.405  1.00  0.00     0.074 A 
HETATM   26  C26 UNL     1      45.017  23.902  11.475  1.00  0.00     0.026 A 
HETATM   27  C27 UNL     1      45.278  23.894  10.135  1.00  0.00     0.025 A 
HETATM   28  C28 UNL     1      46.544  23.542   9.712  1.00  0.00     0.034 A 
HETATM   29 CL1  UNL     1      46.888  23.525   8.009  1.00  0.00    -0.084 Cl
HETATM   30  C29 UNL     1      47.524  23.206  10.638  1.00  0.00     0.025 A 
HETATM   31  C30 UNL     1      47.260  23.216  11.978  1.00  0.00     0.026 A 
ENDBRANCH  22  25
ENDBRANCH  20  22
ENDBRANCH  19  20
ENDBRANCH  16  19
BRANCH  12  32
HETATM   32  O4  UNL     1      39.280  20.154  15.943  1.00  0.00    -0.393 OA
ATOM     33  H4  UNL     1      38.796  19.943  16.734  1.00  0.00     0.210 HD
ENDBRANCH  12  32
BRANCH   3  34
HETATM   34  N1  UNL     1      45.216  16.840  13.353  1.00  0.00    -0.344 N 
HETATM   35  C4  UNL     1      45.105  15.704  12.517  1.00  0.00     0.222 C 
HETATM   36  O1  UNL     1      43.983  15.159  12.408  1.00  0.00    -0.273 OA
ATOM     37  H1  UNL     1      46.128  17.288  13.446  1.00  0.00     0.163 HD
BRANCH  35  38
HETATM   38  C5  UNL     1      46.245  15.136  11.772  1.00  0.00     0.077 C 
HETATM   39  C6  UNL     1      47.365  14.689  12.705  1.00  0.00     0.020 C 
BRANCH  38  40
HETATM   40  C7  UNL     1      46.834  16.154  10.833  1.00  0.00    -0.010 C 
HETATM   41  C8  UNL     1      47.167  15.452   9.529  1.00  0.00     0.010 C 
HETATM   42  C9  UNL     1      48.099  16.783  11.355  1.00  0.00     0.010 C 
ENDBRANCH  38  40
ENDBRANCH  35  38
ENDBRANCH   3  34
BRANCH   6  43
HETATM   43  C11 UNL     1      42.683  14.789  16.498  1.00  0.00     0.106 C 
HETATM   44  C12 UNL     1      42.059  15.013  17.872  1.00  0.00     0.034 C 
BRANCH  43  45
HETATM   45  C13 UNL     1      42.196  13.525  15.868  1.00  0.00     0.189 C 
BRANCH  45  46
HETATM   46  O3  UNL     1      42.828  13.216  14.680  1.00  0.00    -0.399 OA
ATOM     47  H3  UNL     1      42.530  13.735  13.942  1.00  0.00     0.209 HD
ENDBRANCH  45  46
ENDBRANCH  43  45
ENDBRANCH   6  43
TORSDOF 11
ENDMDL
