MODEL 1
REMARK VINA RESULT: -9.017665341      0.000      0.000
REMARK  10 active torsions:
REMARK  status: ('A' for Active; 'I' for Inactive)
REMARK    1  A    between atoms: C2_2  and  C3_3 
REMARK    2  A    between atoms: C5_5  and  C6_6 
REMARK    3  A    between atoms: C8_8  and  C9_9 
REMARK    4  A    between atoms: C9_9  and  O1_10 
REMARK    5  A    between atoms: C12_14  and  C14_16 
REMARK    6  A    between atoms: C14_16  and  O2_17 
REMARK    7  A    between atoms: O2_17  and  C15_18 
REMARK    8  A    between atoms: C19_26  and  C20_27 
REMARK    9  A    between atoms: C21_29  and  O4_31 
REMARK   10  A    between atoms: C31_43  and  O6_44 
ROOT
HETATM    1  C15 UNL     1      43.655  18.413  14.171  1.00  0.00     0.318 C 
HETATM    2  C16 UNL     1      42.947  19.179  13.028  1.00  0.00     0.268 C 
HETATM    3  O3  UNL     1      42.109  18.472  12.463  1.00  0.00    -0.269 OA
HETATM    4  N1  UNL     1      43.126  20.501  12.581  1.00  0.00    -0.340 N 
ATOM      5  H1  UNL     1      42.402  20.798  11.926  1.00  0.00     0.164 HD
HETATM    6  C17 UNL     1      44.107  21.536  12.841  1.00  0.00     0.200 C 
HETATM    7  C18 UNL     1      44.040  22.547  11.770  1.00  0.00     0.085 C 
HETATM    8  N2  UNL     1      44.002  23.343  10.902  1.00  0.00    -0.195 NA
HETATM    9  C19 UNL     1      43.944  22.240  14.140  1.00  0.00     0.076 C 
HETATM   10  C21 UNL     1      44.661  21.626  15.310  1.00  0.00     0.142 C 
HETATM   11  C22 UNL     1      46.130  21.411  15.086  1.00  0.00     0.057 C 
HETATM   12  C23 UNL     1      43.982  20.433  15.873  1.00  0.00     0.256 C 
HETATM   13  O5  UNL     1      43.880  20.429  17.149  1.00  0.00    -0.270 OA
HETATM   14  N3  UNL     1      43.381  19.230  15.383  1.00  0.00    -0.319 N 
HETATM   15  C24 UNL     1      42.296  18.712  16.187  1.00  0.00     0.155 C 
ENDROOT
BRANCH   9  16
HETATM   16  C20 UNL     1      42.494  22.402  14.492  1.00  0.00     0.096 C 
HETATM   17 BR1  UNL     1      41.946  24.254  14.446  1.00  0.00    -0.096 Br
ENDBRANCH   9  16
BRANCH  10  18
HETATM   18  O4  UNL     1      44.589  22.611  16.332  1.00  0.00    -0.380 OA
ATOM     19  H4  UNL     1      44.061  22.211  17.013  1.00  0.00     0.211 HD
ENDBRANCH  10  18
BRANCH   1  20
HETATM   20  O2  UNL     1      44.936  18.274  13.897  1.00  0.00    -0.357 OA
BRANCH  20  21
HETATM   21  C14 UNL     1      45.599  17.575  13.015  1.00  0.00     0.181 C 
BRANCH  21  22
HETATM   22  C12 UNL     1      45.618  16.071  13.011  1.00  0.00    -0.012 C 
HETATM   23  C11 UNL     1      46.704  15.584  12.105  1.00  0.00     0.053 C 
HETATM   24  C10 UNL     1      46.626  16.358  10.810  1.00  0.00    -0.013 C 
HETATM   25  C31 UNL     1      46.627  14.150  11.661  1.00  0.00     0.073 C 
HETATM   26  C8  UNL     1      47.703  16.459   9.984  1.00  0.00    -0.059 C 
HETATM   27  C7  UNL     1      49.048  15.848  10.231  1.00  0.00     0.044 C 
HETATM   28  C6  UNL     1      48.868  14.311  10.416  1.00  0.00     0.015 C 
HETATM   29  C33 UNL     1      47.469  13.918  10.394  1.00  0.00     0.048 C 
HETATM   30  C27 UNL     1      45.202  14.079  11.120  1.00  0.00     0.034 A 
HETATM   31  C26 UNL     1      44.422  14.065  12.458  1.00  0.00     0.002 A 
HETATM   32  C28 UNL     1      44.134  13.208  11.377  1.00  0.00    -0.037 A 
HETATM   33  C25 UNL     1      44.264  15.529  12.704  1.00  0.00     0.018 C 
HETATM   34  C29 UNL     1      44.427  11.720  11.498  1.00  0.00     0.015 C 
HETATM   35  C30 UNL     1      42.825  13.440  10.619  1.00  0.00     0.015 C 
HETATM   36  C13 UNL     1      45.935  15.706  14.481  1.00  0.00     0.018 C 
BRANCH  26  37
HETATM   37  C9  UNL     1      47.594  17.218   8.733  1.00  0.00     0.198 C 
BRANCH  37  38
HETATM   38  O1  UNL     1      48.330  18.404   8.742  1.00  0.00    -0.397 OA
ATOM     39  H1  UNL     1      48.618  18.673   7.878  1.00  0.00     0.209 HD
ENDBRANCH  37  38
ENDBRANCH  26  37
BRANCH  28  40
HETATM   40  C5  UNL     1      49.651  13.675   9.340  1.00  0.00    -0.015 C 
HETATM   41  C3  UNL     1      49.767  12.514   8.834  1.00  0.00    -0.066 C 
HETATM   42  C4  UNL     1      50.796  12.422   7.684  1.00  0.00     0.048 C 
BRANCH  41  43
HETATM   43  C2  UNL     1      49.122  11.265   9.131  1.00  0.00    -0.004 C 
HETATM   44  C1  UNL     1      48.105  10.835   8.346  1.00  0.00     0.012 C 
ENDBRANCH  41  43
ENDBRANCH  28  40
BRANCH  25  45
HETATM   45  O6  UNL     1      46.733  13.176  12.562  1.00  0.00    -0.384 OA
HETATM   46  C32 UNL     1      47.516  12.111  12.482  1.00  0.00     0.202 C 
ENDBRANCH  25  45
ENDBRANCH  21  22
ENDBRANCH  20  21
ENDBRANCH   1  20
TORSDOF 10
ENDMDL
MODEL 2
REMARK VINA RESULT: -8.782528046      1.915      3.733
REMARK  10 active torsions:
REMARK  status: ('A' for Active; 'I' for Inactive)
REMARK    1  A    between atoms: C2_2  and  C3_3 
REMARK    2  A    between atoms: C5_5  and  C6_6 
REMARK    3  A    between atoms: C8_8  and  C9_9 
REMARK    4  A    between atoms: C9_9  and  O1_10 
REMARK    5  A    between atoms: C12_14  and  C14_16 
REMARK    6  A    between atoms: C14_16  and  O2_17 
REMARK    7  A    between atoms: O2_17  and  C15_18 
REMARK    8  A    between atoms: C19_26  and  C20_27 
REMARK    9  A    between atoms: C21_29  and  O4_31 
REMARK   10  A    between atoms: C31_43  and  O6_44 
ROOT
HETATM    1  C15 UNL     1      44.249  18.948  13.868  1.00  0.00     0.318 C 
HETATM    2  C16 UNL     1      44.461  18.592  15.359  1.00  0.00     0.268 C 
HETATM    3  O3  UNL     1      45.382  19.248  15.852  1.00  0.00    -0.269 OA
HETATM    4  N1  UNL     1      43.777  17.672  16.174  1.00  0.00    -0.340 N 
ATOM      5  H1  UNL     1      44.010  17.770  17.162  1.00  0.00     0.164 HD
HETATM    6  C17 UNL     1      42.814  16.617  15.926  1.00  0.00     0.200 C 
HETATM    7  C18 UNL     1      42.784  15.707  17.085  1.00  0.00     0.085 C 
HETATM    8  N2  UNL     1      42.775  14.967  18.002  1.00  0.00    -0.195 NA
HETATM    9  C19 UNL     1      41.425  17.083  15.679  1.00  0.00     0.076 C 
HETATM   10  C21 UNL     1      41.082  17.380  14.245  1.00  0.00     0.142 C 
HETATM   11  C22 UNL     1      41.361  16.249  13.299  1.00  0.00     0.057 C 
HETATM   12  C23 UNL     1      41.603  18.681  13.759  1.00  0.00     0.256 C 
HETATM   13  O5  UNL     1      40.753  19.392  13.117  1.00  0.00    -0.270 OA
HETATM   14  N3  UNL     1      42.837  19.407  13.799  1.00  0.00    -0.319 N 
HETATM   15  C24 UNL     1      42.704  20.847  13.794  1.00  0.00     0.155 C 
ENDROOT
BRANCH   9  16
HETATM   16  C20 UNL     1      41.099  18.287  16.513  1.00  0.00     0.096 C 
HETATM   17 BR1  UNL     1      39.776  17.887  17.864  1.00  0.00    -0.096 Br
ENDBRANCH   9  16
BRANCH  10  18
HETATM   18  O4  UNL     1      39.668  17.521  14.237  1.00  0.00    -0.380 OA
ATOM     19  H4  UNL     1      39.487  18.077  13.488  1.00  0.00     0.211 HD
ENDBRANCH  10  18
BRANCH   1  20
HETATM   20  O2  UNL     1      44.510  17.901  13.111  1.00  0.00    -0.357 OA
BRANCH  20  21
HETATM   21  C14 UNL     1      45.593  17.217  12.861  1.00  0.00     0.181 C 
BRANCH  21  22
HETATM   22  C12 UNL     1      45.622  15.712  12.836  1.00  0.00    -0.012 C 
HETATM   23  C11 UNL     1      46.722  15.245  11.936  1.00  0.00     0.053 C 
HETATM   24  C10 UNL     1      46.653  16.037  10.651  1.00  0.00    -0.013 C 
HETATM   25  C31 UNL     1      46.659  13.817  11.470  1.00  0.00     0.073 C 
HETATM   26  C8  UNL     1      47.739  16.157   9.839  1.00  0.00    -0.059 C 
HETATM   27  C7  UNL     1      49.085  15.551  10.093  1.00  0.00     0.044 C 
HETATM   28  C6  UNL     1      48.912  14.010  10.254  1.00  0.00     0.015 C 
HETATM   29  C33 UNL     1      47.516  13.609  10.210  1.00  0.00     0.048 C 
HETATM   30  C27 UNL     1      45.241  13.745  10.912  1.00  0.00     0.034 A 
HETATM   31  C26 UNL     1      44.445  13.708  12.240  1.00  0.00     0.002 A 
HETATM   32  C28 UNL     1      44.175  12.865  11.144  1.00  0.00    -0.037 A 
HETATM   33  C25 UNL     1      44.275  15.167  12.505  1.00  0.00     0.018 C 
HETATM   34  C29 UNL     1      44.476  11.376  11.248  1.00  0.00     0.015 C 
HETATM   35  C30 UNL     1      42.874  13.099  10.374  1.00  0.00     0.015 C 
HETATM   36  C13 UNL     1      45.925  15.329  14.304  1.00  0.00     0.018 C 
BRANCH  26  37
HETATM   37  C9  UNL     1      47.640  16.933   8.598  1.00  0.00     0.198 C 
BRANCH  37  38
HETATM   38  O1  UNL     1      48.189  18.211   8.702  1.00  0.00    -0.397 OA
ATOM     39  H1  UNL     1      48.033  18.619   9.546  1.00  0.00     0.209 HD
ENDBRANCH  37  38
ENDBRANCH  26  37
BRANCH  28  40
HETATM   40  C5  UNL     1      49.712  13.394   9.178  1.00  0.00    -0.015 C 
HETATM   41  C3  UNL     1      49.838  12.242   8.654  1.00  0.00    -0.066 C 
HETATM   42  C4  UNL     1      50.883  12.172   7.517  1.00  0.00     0.048 C 
BRANCH  41  43
HETATM   43  C2  UNL     1      49.192  10.987   8.921  1.00  0.00    -0.004 C 
HETATM   44  C1  UNL     1      48.188  10.567   8.113  1.00  0.00     0.012 C 
ENDBRANCH  41  43
ENDBRANCH  28  40
BRANCH  25  45
HETATM   45  O6  UNL     1      46.760  12.831  12.359  1.00  0.00    -0.384 OA
HETATM   46  C32 UNL     1      47.615  11.820  12.319  1.00  0.00     0.202 C 
ENDBRANCH  25  45
ENDBRANCH  21  22
ENDBRANCH  20  21
ENDBRANCH   1  20
TORSDOF 10
ENDMDL
MODEL 3
REMARK VINA RESULT: -8.596487027      4.972      7.200
REMARK  10 active torsions:
REMARK  status: ('A' for Active; 'I' for Inactive)
REMARK    1  A    between atoms: C2_2  and  C3_3 
REMARK    2  A    between atoms: C5_5  and  C6_6 
REMARK    3  A    between atoms: C8_8  and  C9_9 
REMARK    4  A    between atoms: C9_9  and  O1_10 
REMARK    5  A    between atoms: C12_14  and  C14_16 
REMARK    6  A    between atoms: C14_16  and  O2_17 
REMARK    7  A    between atoms: O2_17  and  C15_18 
REMARK    8  A    between atoms: C19_26  and  C20_27 
REMARK    9  A    between atoms: C21_29  and  O4_31 
REMARK   10  A    between atoms: C31_43  and  O6_44 
ROOT
HETATM    1  C15 UNL     1      40.889  10.753  12.275  1.00  0.00     0.318 C 
HETATM    2  C16 UNL     1      39.963  11.908  11.824  1.00  0.00     0.268 C 
HETATM    3  O3  UNL     1      39.447  11.670  10.729  1.00  0.00    -0.269 OA
HETATM    4  N1  UNL     1      39.653  13.120  12.467  1.00  0.00    -0.340 N 
ATOM      5  H1  UNL     1      38.878  13.614  12.025  1.00  0.00     0.164 HD
HETATM    6  C17 UNL     1      40.186  13.825  13.616  1.00  0.00     0.200 C 
HETATM    7  C18 UNL     1      39.767  15.237  13.556  1.00  0.00     0.085 C 
HETATM    8  N2  UNL     1      39.452  16.370  13.497  1.00  0.00    -0.195 NA
HETATM    9  C19 UNL     1      39.764  13.282  14.934  1.00  0.00     0.076 C 
HETATM   10  C21 UNL     1      40.643  12.206  15.509  1.00  0.00     0.142 C 
HETATM   11  C22 UNL     1      42.091  12.586  15.613  1.00  0.00     0.057 C 
HETATM   12  C23 UNL     1      40.440  10.871  14.896  1.00  0.00     0.256 C 
HETATM   13  O5  UNL     1      40.332   9.909  15.734  1.00  0.00    -0.270 OA
HETATM   14  N3  UNL     1      40.324  10.319  13.580  1.00  0.00    -0.319 N 
HETATM   15  C24 UNL     1      39.493   9.139  13.477  1.00  0.00     0.155 C 
ENDROOT
BRANCH   9  16
HETATM   16  C20 UNL     1      38.351  12.778  14.886  1.00  0.00     0.096 C 
HETATM   17 BR1  UNL     1      37.174  13.835  15.994  1.00  0.00    -0.096 Br
ENDBRANCH   9  16
BRANCH  10  18
HETATM   18  O4  UNL     1      40.206  12.067  16.854  1.00  0.00    -0.380 OA
ATOM     19  H4  UNL     1      39.720  11.250  16.865  1.00  0.00     0.211 HD
ENDBRANCH  10  18
BRANCH   1  20
HETATM   20  O2  UNL     1      42.137  11.173  12.345  1.00  0.00    -0.357 OA
BRANCH  20  21
HETATM   21  C14 UNL     1      43.149  11.132  11.522  1.00  0.00     0.181 C 
BRANCH  21  22
HETATM   22  C12 UNL     1      43.925  12.357  11.119  1.00  0.00    -0.012 C 
HETATM   23  C11 UNL     1      45.190  11.947  10.433  1.00  0.00     0.053 C 
HETATM   24  C10 UNL     1      45.842  10.856  11.249  1.00  0.00    -0.013 C 
HETATM   25  C31 UNL     1      46.268  12.989  10.317  1.00  0.00     0.073 C 
HETATM   26  C8  UNL     1      46.739   9.999  10.690  1.00  0.00    -0.059 C 
HETATM   27  C7  UNL     1      47.183  10.017   9.260  1.00  0.00     0.044 C 
HETATM   28  C6  UNL     1      47.769  11.426   8.940  1.00  0.00     0.015 C 
HETATM   29  C33 UNL     1      47.639  12.339  10.063  1.00  0.00     0.048 C 
HETATM   30  C27 UNL     1      46.394  13.453  11.765  1.00  0.00     0.034 A 
HETATM   31  C26 UNL     1      45.105  14.305  11.873  1.00  0.00     0.002 A 
HETATM   32  C28 UNL     1      46.360  14.722  12.359  1.00  0.00    -0.037 A 
HETATM   33  C25 UNL     1      44.116  13.265  12.284  1.00  0.00     0.018 C 
HETATM   34  C29 UNL     1      47.092  15.864  11.669  1.00  0.00     0.015 C 
HETATM   35  C30 UNL     1      46.539  14.807  13.877  1.00  0.00     0.015 C 
HETATM   36  C13 UNL     1      42.980  13.076  10.127  1.00  0.00     0.018 C 
BRANCH  26  37
HETATM   37  C9  UNL     1      47.355   8.949  11.510  1.00  0.00     0.198 C 
BRANCH  37  38
HETATM   38  O1  UNL     1      46.434   8.021  11.998  1.00  0.00    -0.397 OA
ATOM     39  H1  UNL     1      46.843   7.246  12.366  1.00  0.00     0.209 HD
ENDBRANCH  37  38
ENDBRANCH  26  37
BRANCH  28  40
HETATM   40  C5  UNL     1      49.175  11.204   8.551  1.00  0.00    -0.015 C 
HETATM   41  C3  UNL     1      50.157  11.914   8.165  1.00  0.00    -0.066 C 
HETATM   42  C4  UNL     1      51.445  11.111   7.873  1.00  0.00     0.048 C 
BRANCH  41  43
HETATM   43  C2  UNL     1      50.296  13.327   7.944  1.00  0.00    -0.004 C 
HETATM   44  C1  UNL     1      50.658  14.131   8.972  1.00  0.00     0.012 C 
ENDBRANCH  41  43
ENDBRANCH  28  40
BRANCH  25  45
HETATM   45  O6  UNL     1      46.049  14.083   9.593  1.00  0.00    -0.384 OA
HETATM   46  C32 UNL     1      46.813  14.546   8.615  1.00  0.00     0.202 C 
ENDBRANCH  25  45
ENDBRANCH  21  22
ENDBRANCH  20  21
ENDBRANCH   1  20
TORSDOF 10
ENDMDL
MODEL 4
REMARK VINA RESULT: -8.557972390      1.479      2.178
REMARK  10 active torsions:
REMARK  status: ('A' for Active; 'I' for Inactive)
REMARK    1  A    between atoms: C2_2  and  C3_3 
REMARK    2  A    between atoms: C5_5  and  C6_6 
REMARK    3  A    between atoms: C8_8  and  C9_9 
REMARK    4  A    between atoms: C9_9  and  O1_10 
REMARK    5  A    between atoms: C12_14  and  C14_16 
REMARK    6  A    between atoms: C14_16  and  O2_17 
REMARK    7  A    between atoms: O2_17  and  C15_18 
REMARK    8  A    between atoms: C19_26  and  C20_27 
REMARK    9  A    between atoms: C21_29  and  O4_31 
REMARK   10  A    between atoms: C31_43  and  O6_44 
ROOT
HETATM    1  C15 UNL     1      44.783  18.412  14.886  1.00  0.00     0.318 C 
HETATM    2  C16 UNL     1      43.354  18.248  15.457  1.00  0.00     0.268 C 
HETATM    3  O3  UNL     1      43.340  17.485  16.426  1.00  0.00    -0.269 OA
HETATM    4  N1  UNL     1      42.142  18.826  15.037  1.00  0.00    -0.340 N 
ATOM      5  H1  UNL     1      41.384  18.681  15.704  1.00  0.00     0.164 HD
HETATM    6  C17 UNL     1      41.728  19.581  13.870  1.00  0.00     0.200 C 
HETATM    7  C18 UNL     1      40.259  19.541  13.763  1.00  0.00     0.085 C 
HETATM    8  N2  UNL     1      39.086  19.491  13.665  1.00  0.00    -0.195 NA
HETATM    9  C19 UNL     1      42.145  21.008  13.869  1.00  0.00     0.076 C 
HETATM   10  C21 UNL     1      43.489  21.294  13.259  1.00  0.00     0.142 C 
HETATM   11  C22 UNL     1      43.657  20.767  11.864  1.00  0.00     0.057 C 
HETATM   12  C23 UNL     1      44.634  20.963  14.143  1.00  0.00     0.256 C 
HETATM   13  O5  UNL     1      45.532  21.873  14.218  1.00  0.00    -0.270 OA
HETATM   14  N3  UNL     1      45.046  19.872  14.974  1.00  0.00    -0.319 N 
HETATM   15  C24 UNL     1      45.845  20.241  16.121  1.00  0.00     0.155 C 
ENDROOT
BRANCH   9  16
HETATM   16  C20 UNL     1      42.109  21.586  15.253  1.00  0.00     0.096 C 
HETATM   17 BR1  UNL     1      40.739  22.937  15.431  1.00  0.00    -0.096 Br
ENDBRANCH   9  16
BRANCH  10  18
HETATM   18  O4  UNL     1      43.525  22.708  13.120  1.00  0.00    -0.380 OA
ATOM     19  H4  UNL     1      44.102  22.862  12.381  1.00  0.00     0.211 HD
ENDBRANCH  10  18
BRANCH   1  20
HETATM   20  O2  UNL     1      44.840  17.929  13.661  1.00  0.00    -0.357 OA
BRANCH  20  21
HETATM   21  C14 UNL     1      45.737  17.249  13.001  1.00  0.00     0.181 C 
BRANCH  21  22
HETATM   22  C12 UNL     1      45.725  15.747  12.916  1.00  0.00    -0.012 C 
HETATM   23  C11 UNL     1      46.786  15.289  11.965  1.00  0.00     0.053 C 
HETATM   24  C10 UNL     1      46.701  16.133  10.715  1.00  0.00    -0.013 C 
HETATM   25  C31 UNL     1      46.671  13.882  11.446  1.00  0.00     0.073 C 
HETATM   26  C8  UNL     1      47.765  16.257   9.876  1.00  0.00    -0.059 C 
HETATM   27  C7  UNL     1      49.101  15.607  10.065  1.00  0.00     0.044 C 
HETATM   28  C6  UNL     1      48.893  14.066  10.171  1.00  0.00     0.015 C 
HETATM   29  C33 UNL     1      47.486  13.703  10.153  1.00  0.00     0.048 C 
HETATM   30  C27 UNL     1      45.236  13.869  10.929  1.00  0.00     0.034 A 
HETATM   31  C26 UNL     1      44.479  13.799  12.278  1.00  0.00     0.002 A 
HETATM   32  C28 UNL     1      44.155  13.007  11.158  1.00  0.00    -0.037 A 
HETATM   33  C25 UNL     1      44.355  15.250  12.605  1.00  0.00     0.018 C 
HETATM   34  C29 UNL     1      44.419  11.509  11.194  1.00  0.00     0.015 C 
HETATM   35  C30 UNL     1      42.838  13.305  10.437  1.00  0.00     0.015 C 
HETATM   36  C13 UNL     1      46.061  15.298  14.358  1.00  0.00     0.018 C 
BRANCH  26  37
HETATM   37  C9  UNL     1      47.651  17.084   8.670  1.00  0.00     0.198 C 
BRANCH  37  38
HETATM   38  O1  UNL     1      48.367  18.279   8.751  1.00  0.00    -0.397 OA
ATOM     39  H1  UNL     1      48.748  18.546   7.922  1.00  0.00     0.209 HD
ENDBRANCH  37  38
ENDBRANCH  26  37
BRANCH  28  40
HETATM   40  C5  UNL     1      49.644  13.474   9.048  1.00  0.00    -0.015 C 
HETATM   41  C3  UNL     1      49.785  12.323   8.526  1.00  0.00    -0.066 C 
HETATM   42  C4  UNL     1      50.752  12.286   7.321  1.00  0.00     0.048 C 
BRANCH  41  43
HETATM   43  C2  UNL     1      49.214  11.044   8.847  1.00  0.00    -0.004 C 
HETATM   44  C1  UNL     1      48.121  10.612   8.173  1.00  0.00     0.012 C 
ENDBRANCH  41  43
ENDBRANCH  28  40
BRANCH  25  45
HETATM   45  O6  UNL     1      46.772  12.860  12.292  1.00  0.00    -0.384 OA
HETATM   46  C32 UNL     1      47.662  11.880  12.240  1.00  0.00     0.202 C 
ENDBRANCH  25  45
ENDBRANCH  21  22
ENDBRANCH  20  21
ENDBRANCH   1  20
TORSDOF 10
ENDMDL
MODEL 5
REMARK VINA RESULT: -8.341560501      5.266      8.010
REMARK  10 active torsions:
REMARK  status: ('A' for Active; 'I' for Inactive)
REMARK    1  A    between atoms: C2_2  and  C3_3 
REMARK    2  A    between atoms: C5_5  and  C6_6 
REMARK    3  A    between atoms: C8_8  and  C9_9 
REMARK    4  A    between atoms: C9_9  and  O1_10 
REMARK    5  A    between atoms: C12_14  and  C14_16 
REMARK    6  A    between atoms: C14_16  and  O2_17 
REMARK    7  A    between atoms: O2_17  and  C15_18 
REMARK    8  A    between atoms: C19_26  and  C20_27 
REMARK    9  A    between atoms: C21_29  and  O4_31 
REMARK   10  A    between atoms: C31_43  and  O6_44 
ROOT
HETATM    1  C15 UNL     1      42.516  11.947  13.861  1.00  0.00     0.318 C 
HETATM    2  C16 UNL     1      42.281  10.771  14.840  1.00  0.00     0.268 C 
HETATM    3  O3  UNL     1      43.285  10.542  15.518  1.00  0.00    -0.269 OA
HETATM    4  N1  UNL     1      41.135   9.980  15.041  1.00  0.00    -0.340 N 
ATOM      5  H1  UNL     1      41.203   9.392  15.873  1.00  0.00     0.164 HD
HETATM    6  C17 UNL     1      39.880   9.812  14.335  1.00  0.00     0.200 C 
HETATM    7  C18 UNL     1      39.256   8.543  14.751  1.00  0.00     0.085 C 
HETATM    8  N2  UNL     1      38.768   7.518  15.067  1.00  0.00    -0.195 NA
HETATM    9  C19 UNL     1      38.889  10.898  14.554  1.00  0.00     0.076 C 
HETATM   10  C21 UNL     1      38.973  12.059  13.602  1.00  0.00     0.142 C 
HETATM   11  C22 UNL     1      38.916  11.672  12.153  1.00  0.00     0.057 C 
HETATM   12  C23 UNL     1      40.075  13.006  13.904  1.00  0.00     0.256 C 
HETATM   13  O5  UNL     1      39.737  14.241  13.887  1.00  0.00    -0.270 OA
HETATM   14  N3  UNL     1      41.469  12.938  14.223  1.00  0.00    -0.319 N 
HETATM   15  C24 UNL     1      41.961  14.006  15.065  1.00  0.00     0.155 C 
ENDROOT
BRANCH   9  16
HETATM   16  C20 UNL     1      38.955  11.419  15.959  1.00  0.00     0.096 C 
HETATM   17 BR1  UNL     1      37.360  10.988  16.961  1.00  0.00    -0.096 Br
ENDBRANCH   9  16
BRANCH  10  18
HETATM   18  O4  UNL     1      37.779  12.796  13.830  1.00  0.00    -0.380 OA
ATOM     19  H4  UNL     1      37.424  12.949  12.962  1.00  0.00     0.211 HD
ENDBRANCH  10  18
BRANCH   1  20
HETATM   20  O2  UNL     1      42.444  11.521  12.616  1.00  0.00    -0.357 OA
BRANCH  20  21
HETATM   21  C14 UNL     1      43.315  11.408  11.650  1.00  0.00     0.181 C 
BRANCH  21  22
HETATM   22  C12 UNL     1      44.109  12.574  11.125  1.00  0.00    -0.012 C 
HETATM   23  C11 UNL     1      45.322  12.074  10.407  1.00  0.00     0.053 C 
HETATM   24  C10 UNL     1      45.979  11.016  11.263  1.00  0.00    -0.013 C 
HETATM   25  C31 UNL     1      46.427  13.065  10.167  1.00  0.00     0.073 C 
HETATM   26  C8  UNL     1      46.816  10.091  10.720  1.00  0.00    -0.059 C 
HETATM   27  C7  UNL     1      47.186   9.998   9.271  1.00  0.00     0.044 C 
HETATM   28  C6  UNL     1      47.801  11.359   8.827  1.00  0.00     0.015 C 
HETATM   29  C33 UNL     1      47.760  12.349   9.890  1.00  0.00     0.048 C 
HETATM   30  C27 UNL     1      46.643  13.620  11.571  1.00  0.00     0.034 A 
HETATM   31  C26 UNL     1      45.390  14.524  11.684  1.00  0.00     0.002 A 
HETATM   32  C28 UNL     1      46.682  14.927  12.078  1.00  0.00    -0.037 A 
HETATM   33  C25 UNL     1      44.391  13.551  12.215  1.00  0.00     0.018 C 
HETATM   34  C29 UNL     1      47.415  15.992  11.274  1.00  0.00     0.015 C 
HETATM   35  C30 UNL     1      46.944  15.106  13.575  1.00  0.00     0.015 C 
HETATM   36  C13 UNL     1      43.138  13.259  10.134  1.00  0.00     0.018 C 
BRANCH  26  37
HETATM   37  C9  UNL     1      47.439   9.077  11.578  1.00  0.00     0.198 C 
BRANCH  37  38
HETATM   38  O1  UNL     1      46.534   8.127  12.054  1.00  0.00    -0.397 OA
ATOM     39  H1  UNL     1      45.728   8.508  12.381  1.00  0.00     0.209 HD
ENDBRANCH  37  38
ENDBRANCH  26  37
BRANCH  28  40
HETATM   40  C5  UNL     1      49.177  11.061   8.384  1.00  0.00    -0.015 C 
HETATM   41  C3  UNL     1      50.209  11.720   8.043  1.00  0.00    -0.066 C 
HETATM   42  C4  UNL     1      51.420  10.846   7.645  1.00  0.00     0.048 C 
BRANCH  41  43
HETATM   43  C2  UNL     1      50.463  13.132   7.954  1.00  0.00    -0.004 C 
HETATM   44  C1  UNL     1      51.048  13.772   8.995  1.00  0.00     0.012 C 
ENDBRANCH  41  43
ENDBRANCH  28  40
BRANCH  25  45
HETATM   45  O6  UNL     1      46.207  14.116   9.380  1.00  0.00    -0.384 OA
HETATM   46  C32 UNL     1      46.996  14.552   8.410  1.00  0.00     0.202 C 
ENDBRANCH  25  45
ENDBRANCH  21  22
ENDBRANCH  20  21
ENDBRANCH   1  20
TORSDOF 10
ENDMDL
