MODEL 1
REMARK VINA RESULT: -11.301211235      0.000      0.000
REMARK  14 active torsions:
REMARK  status: ('A' for Active; 'I' for Inactive)
REMARK    1  A    between atoms: C2_2  and  O1_3 
REMARK    2  A    between atoms: C2_2  and  C26_46 
REMARK    3  A    between atoms: O1_3  and  C3_4 
REMARK    4  A    between atoms: C8_9  and  C9_10 
REMARK    5  A    between atoms: C11_12  and  C12_13 
REMARK    6  A    between atoms: N2_19  and  C13_20 
REMARK    7  A    between atoms: C13_20  and  C14_22 
REMARK    8  A    between atoms: C14_22  and  C15_23 
REMARK    9  A    between atoms: N4_26  and  C16_27 
REMARK   10  A    between atoms: C16_27  and  N5_28 
REMARK   11  A    between atoms: N5_28  and  N6_30 
REMARK   12  A    between atoms: C18_36  and  C19_37 
REMARK   13  A    between atoms: C19_37  and  N8_38 
REMARK   14  A    between atoms: N8_38  and  C20_40 
ROOT
HETATM    1  C13 UNL     1     -88.190 165.429 -15.132  1.00  0.00     0.120 C 
HETATM    2  S1  UNL     1     -87.409 166.283 -16.272  1.00  0.00    -0.059 SA
ENDROOT
BRANCH   1   3
HETATM    3  N2  UNL     1     -87.473 164.601 -14.253  1.00  0.00    -0.272 N 
HETATM    4  C9  UNL     1     -86.057 164.442 -13.873  1.00  0.00     0.150 C 
HETATM    5  C10 UNL     1     -86.420 164.761 -12.424  1.00  0.00     0.095 C 
HETATM    6  C11 UNL     1     -87.461 163.736 -12.178  1.00  0.00     0.112 C 
HETATM    7  N1  UNL     1     -88.079 163.673 -13.301  1.00  0.00    -0.296 N 
ATOM      8  H1  UNL     1     -88.876 163.067 -13.499  1.00  0.00     0.186 HD
BRANCH   4   9
HETATM    9  C8  UNL     1     -85.824 163.020 -14.213  1.00  0.00     0.000 A 
HETATM   10  C3  UNL     1     -84.912 162.165 -13.651  1.00  0.00     0.078 A 
HETATM   11  C4  UNL     1     -84.664 160.922 -14.134  1.00  0.00     0.037 A 
HETATM   12  C5  UNL     1     -85.383 160.465 -15.276  1.00  0.00     0.003 A 
HETATM   13  C6  UNL     1     -86.264 161.232 -15.854  1.00  0.00     0.001 A 
HETATM   14  C7  UNL     1     -86.538 162.539 -15.362  1.00  0.00     0.012 A 
BRANCH  10  15
HETATM   15  O1  UNL     1     -84.226 162.703 -12.567  1.00  0.00    -0.337 OA
BRANCH  15  16
HETATM   16  C2  UNL     1     -83.152 162.452 -11.828  1.00  0.00     0.232 C 
HETATM   17  C1  UNL     1     -81.836 162.255 -12.575  1.00  0.00     0.049 C 
BRANCH  16  18
HETATM   18  C26 UNL     1     -83.219 161.484 -10.704  1.00  0.00     0.413 C 
HETATM   19  F4  UNL     1     -81.917 161.329 -10.237  1.00  0.00    -0.168 F 
HETATM   20  F5  UNL     1     -83.497 160.165 -11.209  1.00  0.00    -0.168 F 
HETATM   21  F6  UNL     1     -84.046 161.808  -9.686  1.00  0.00    -0.168 F 
ENDBRANCH  16  18
ENDBRANCH  15  16
ENDBRANCH  10  15
ENDBRANCH   4   9
BRANCH   6  22
HETATM   22  C12 UNL     1     -87.592 163.112 -10.845  1.00  0.00     0.430 C 
HETATM   23  F1  UNL     1     -86.327 163.256 -10.212  1.00  0.00    -0.165 F 
HETATM   24  F2  UNL     1     -87.815 161.735 -11.000  1.00  0.00    -0.165 F 
HETATM   25  F3  UNL     1     -88.566 163.664 -10.059  1.00  0.00    -0.165 F 
ENDBRANCH   6  22
ENDBRANCH   1   3
BRANCH   1  26
HETATM   26  C14 UNL     1     -89.622 165.477 -14.908  1.00  0.00     0.075 C 
BRANCH  26  27
HETATM   27  C15 UNL     1     -90.603 165.838 -15.878  1.00  0.00     0.064 A 
HETATM   28  N3  UNL     1     -90.907 165.355 -17.084  1.00  0.00    -0.296 N 
HETATM   29  N4  UNL     1     -92.002 165.929 -17.528  1.00  0.00    -0.283 N 
ATOM     30  H3  UNL     1     -90.370 164.648 -17.586  1.00  0.00     0.187 HD
HETATM   31  C17 UNL     1     -92.457 166.809 -16.634  1.00  0.00     0.127 A 
HETATM   32  C18 UNL     1     -91.614 166.792 -15.583  1.00  0.00     0.024 A 
BRANCH  29  33
HETATM   33  C16 UNL     1     -92.616 165.599 -18.810  1.00  0.00     0.288 C 
BRANCH  33  34
HETATM   34  N5  UNL     1     -92.805 166.768 -19.596  1.00  0.00    -0.303 N 
ATOM     35  H5  UNL     1     -92.111 167.512 -19.527  1.00  0.00     0.183 HD
BRANCH  34  36
HETATM   36  N6  UNL     1     -93.762 166.934 -20.360  1.00  0.00    -0.252 N 
HETATM   37  N7  UNL     1     -94.945 167.088 -20.743  1.00  0.00    -0.331 N 
ATOM     38  H72 UNL     1     -95.381 167.048 -19.822  1.00  0.00     0.178 HD
ATOM     39  H71 UNL     1     -95.735 167.224 -21.373  1.00  0.00     0.178 HD
ATOM     40  H6  UNL     1     -93.276 166.967 -21.256  1.00  0.00     0.207 HD
ENDBRANCH  34  36
ENDBRANCH  33  34
ENDBRANCH  29  33
BRANCH  32  41
HETATM   41  C19 UNL     1     -91.615 167.742 -14.400  1.00  0.00     0.098 C 
BRANCH  41  42
HETATM   42  N8  UNL     1     -92.896 168.311 -14.392  1.00  0.00    -0.393 N 
ATOM     43  H8  UNL     1     -93.690 167.676 -14.479  1.00  0.00     0.159 HD
BRANCH  42  44
HETATM   44  C20 UNL     1     -93.176 169.665 -14.277  1.00  0.00     0.081 C 
HETATM   45  C21 UNL     1     -92.239 170.449 -13.403  1.00  0.00     0.025 C 
HETATM   46  C22 UNL     1     -91.717 171.668 -14.172  1.00  0.00     0.002 C 
HETATM   47  C23 UNL     1     -92.866 172.500 -14.687  1.00  0.00     0.000 C 
HETATM   48  C24 UNL     1     -93.848 171.693 -15.493  1.00  0.00     0.002 C 
HETATM   49  C25 UNL     1     -93.373 170.263 -15.645  1.00  0.00     0.025 C 
ENDBRANCH  42  44
ENDBRANCH  41  42
ENDBRANCH  32  41
ENDBRANCH  26  27
ENDBRANCH   1  26
TORSDOF 14
ENDMDL
MODEL 2
REMARK VINA RESULT: -11.241417624      0.230      1.001
REMARK  14 active torsions:
REMARK  status: ('A' for Active; 'I' for Inactive)
REMARK    1  A    between atoms: C2_2  and  O1_3 
REMARK    2  A    between atoms: C2_2  and  C26_46 
REMARK    3  A    between atoms: O1_3  and  C3_4 
REMARK    4  A    between atoms: C8_9  and  C9_10 
REMARK    5  A    between atoms: C11_12  and  C12_13 
REMARK    6  A    between atoms: N2_19  and  C13_20 
REMARK    7  A    between atoms: C13_20  and  C14_22 
REMARK    8  A    between atoms: C14_22  and  C15_23 
REMARK    9  A    between atoms: N4_26  and  C16_27 
REMARK   10  A    between atoms: C16_27  and  N5_28 
REMARK   11  A    between atoms: N5_28  and  N6_30 
REMARK   12  A    between atoms: C18_36  and  C19_37 
REMARK   13  A    between atoms: C19_37  and  N8_38 
REMARK   14  A    between atoms: N8_38  and  C20_40 
ROOT
HETATM    1  C13 UNL     1     -88.203 165.380 -14.990  1.00  0.00     0.120 C 
HETATM    2  S1  UNL     1     -87.448 166.369 -16.035  1.00  0.00    -0.059 SA
ENDROOT
BRANCH   1   3
HETATM    3  N2  UNL     1     -87.457 164.546 -14.140  1.00  0.00    -0.272 N 
HETATM    4  C9  UNL     1     -86.031 164.395 -13.797  1.00  0.00     0.150 C 
HETATM    5  C10 UNL     1     -86.360 164.690 -12.336  1.00  0.00     0.095 C 
HETATM    6  C11 UNL     1     -87.387 163.653 -12.079  1.00  0.00     0.112 C 
HETATM    7  N1  UNL     1     -88.032 163.601 -13.186  1.00  0.00    -0.296 N 
ATOM      8  H1  UNL     1     -88.828 162.990 -13.373  1.00  0.00     0.186 HD
BRANCH   4   9
HETATM    9  C8  UNL     1     -85.795 162.979 -14.163  1.00  0.00     0.000 A 
HETATM   10  C3  UNL     1     -84.857 162.126 -13.641  1.00  0.00     0.078 A 
HETATM   11  C4  UNL     1     -84.612 160.892 -14.147  1.00  0.00     0.037 A 
HETATM   12  C5  UNL     1     -85.363 160.443 -15.272  1.00  0.00     0.003 A 
HETATM   13  C6  UNL     1     -86.268 161.208 -15.812  1.00  0.00     0.001 A 
HETATM   14  C7  UNL     1     -86.540 162.505 -15.295  1.00  0.00     0.012 A 
BRANCH  10  15
HETATM   15  O1  UNL     1     -84.143 162.658 -12.573  1.00  0.00    -0.337 OA
BRANCH  15  16
HETATM   16  C2  UNL     1     -83.052 162.400 -11.861  1.00  0.00     0.232 C 
HETATM   17  C1  UNL     1     -81.734 162.324 -12.628  1.00  0.00     0.049 C 
BRANCH  16  18
HETATM   18  C26 UNL     1     -83.064 161.345 -10.817  1.00  0.00     0.413 C 
HETATM   19  F4  UNL     1     -83.857 161.822  -9.778  1.00  0.00    -0.168 F 
HETATM   20  F5  UNL     1     -81.775 161.273 -10.178  1.00  0.00    -0.168 F 
HETATM   21  F6  UNL     1     -83.489 160.123 -11.207  1.00  0.00    -0.168 F 
ENDBRANCH  16  18
ENDBRANCH  15  16
ENDBRANCH  10  15
ENDBRANCH   4   9
BRANCH   6  22
HETATM   22  C12 UNL     1     -87.479 163.010 -10.751  1.00  0.00     0.430 C 
HETATM   23  F1  UNL     1     -86.228 163.234 -10.113  1.00  0.00    -0.165 F 
HETATM   24  F2  UNL     1     -87.608 161.623 -10.920  1.00  0.00    -0.165 F 
HETATM   25  F3  UNL     1     -88.490 163.488  -9.964  1.00  0.00    -0.165 F 
ENDBRANCH   6  22
ENDBRANCH   1   3
BRANCH   1  26
HETATM   26  C14 UNL     1     -89.642 165.306 -14.823  1.00  0.00     0.075 C 
BRANCH  26  27
HETATM   27  C15 UNL     1     -90.611 165.701 -15.791  1.00  0.00     0.064 A 
HETATM   28  N3  UNL     1     -90.872 165.291 -17.034  1.00  0.00    -0.296 N 
HETATM   29  N4  UNL     1     -91.974 165.858 -17.466  1.00  0.00    -0.283 N 
ATOM     30  H3  UNL     1     -90.300 164.636 -17.568  1.00  0.00     0.187 HD
HETATM   31  C17 UNL     1     -92.478 166.662 -16.527  1.00  0.00     0.127 A 
HETATM   32  C18 UNL     1     -91.659 166.601 -15.459  1.00  0.00     0.024 A 
BRANCH  29  33
HETATM   33  C16 UNL     1     -92.548 165.596 -18.782  1.00  0.00     0.288 C 
BRANCH  33  34
HETATM   34  N5  UNL     1     -92.805 166.811 -19.473  1.00  0.00    -0.303 N 
ATOM     35  H5  UNL     1     -92.206 167.613 -19.277  1.00  0.00     0.183 HD
BRANCH  34  36
HETATM   36  N6  UNL     1     -93.714 166.952 -20.299  1.00  0.00    -0.252 N 
HETATM   37  N7  UNL     1     -94.871 167.090 -20.758  1.00  0.00    -0.331 N 
ATOM     38  H72 UNL     1     -95.363 167.075 -19.865  1.00  0.00     0.178 HD
ATOM     39  H71 UNL     1     -95.621 167.205 -21.439  1.00  0.00     0.178 HD
ATOM     40  H6  UNL     1     -93.173 166.961 -21.164  1.00  0.00     0.207 HD
ENDBRANCH  34  36
ENDBRANCH  33  34
ENDBRANCH  29  33
BRANCH  32  41
HETATM   41  C19 UNL     1     -91.719 167.470 -14.217  1.00  0.00     0.098 C 
BRANCH  41  42
HETATM   42  N8  UNL     1     -92.703 168.430 -14.491  1.00  0.00    -0.393 N 
ATOM     43  H8  UNL     1     -93.676 168.143 -14.394  1.00  0.00     0.159 HD
BRANCH  42  44
HETATM   44  C20 UNL     1     -92.463 169.739 -14.885  1.00  0.00     0.081 C 
HETATM   45  C21 UNL     1     -93.501 170.344 -15.787  1.00  0.00     0.025 C 
HETATM   46  C22 UNL     1     -93.966 171.686 -15.209  1.00  0.00     0.002 C 
HETATM   47  C23 UNL     1     -92.787 172.600 -14.981  1.00  0.00     0.000 C 
HETATM   48  C24 UNL     1     -91.712 171.959 -14.146  1.00  0.00     0.002 C 
HETATM   49  C25 UNL     1     -92.139 170.583 -13.681  1.00  0.00     0.025 C 
ENDBRANCH  42  44
ENDBRANCH  41  42
ENDBRANCH  32  41
ENDBRANCH  26  27
ENDBRANCH   1  26
TORSDOF 14
ENDMDL
MODEL 3
REMARK VINA RESULT: -10.525437848      1.913      3.121
REMARK  14 active torsions:
REMARK  status: ('A' for Active; 'I' for Inactive)
REMARK    1  A    between atoms: C2_2  and  O1_3 
REMARK    2  A    between atoms: C2_2  and  C26_46 
REMARK    3  A    between atoms: O1_3  and  C3_4 
REMARK    4  A    between atoms: C8_9  and  C9_10 
REMARK    5  A    between atoms: C11_12  and  C12_13 
REMARK    6  A    between atoms: N2_19  and  C13_20 
REMARK    7  A    between atoms: C13_20  and  C14_22 
REMARK    8  A    between atoms: C14_22  and  C15_23 
REMARK    9  A    between atoms: N4_26  and  C16_27 
REMARK   10  A    between atoms: C16_27  and  N5_28 
REMARK   11  A    between atoms: N5_28  and  N6_30 
REMARK   12  A    between atoms: C18_36  and  C19_37 
REMARK   13  A    between atoms: C19_37  and  N8_38 
REMARK   14  A    between atoms: N8_38  and  C20_40 
ROOT
HETATM    1  C13 UNL     1     -88.374 164.812 -15.912  1.00  0.00     0.120 C 
HETATM    2  S1  UNL     1     -87.716 166.101 -16.651  1.00  0.00    -0.059 SA
ENDROOT
BRANCH   1   3
HETATM    3  N2  UNL     1     -87.554 163.869 -15.271  1.00  0.00    -0.272 N 
HETATM    4  C9  UNL     1     -87.708 162.475 -14.813  1.00  0.00     0.150 C 
HETATM    5  C10 UNL     1     -86.560 162.057 -15.729  1.00  0.00     0.095 C 
HETATM    6  C11 UNL     1     -85.493 162.970 -15.254  1.00  0.00     0.112 C 
HETATM    7  N1  UNL     1     -86.131 164.053 -14.996  1.00  0.00    -0.296 N 
ATOM      8  H1  UNL     1     -85.707 164.914 -14.650  1.00  0.00     0.186 HD
BRANCH   4   9
HETATM    9  C8  UNL     1     -87.404 162.610 -13.370  1.00  0.00     0.000 A 
HETATM   10  C3  UNL     1     -86.743 161.717 -12.568  1.00  0.00     0.078 A 
HETATM   11  C4  UNL     1     -86.648 161.857 -11.222  1.00  0.00     0.037 A 
HETATM   12  C5  UNL     1     -87.254 162.986 -10.597  1.00  0.00     0.003 A 
HETATM   13  C6  UNL     1     -87.896 163.869 -11.307  1.00  0.00     0.001 A 
HETATM   14  C7  UNL     1     -88.007 163.740 -12.719  1.00  0.00     0.012 A 
BRANCH  10  15
HETATM   15  O1  UNL     1     -86.217 160.627 -13.251  1.00  0.00    -0.337 OA
BRANCH  15  16
HETATM   16  C2  UNL     1     -85.093 159.922 -13.314  1.00  0.00     0.232 C 
HETATM   17  C1  UNL     1     -85.033 158.816 -14.364  1.00  0.00     0.049 C 
BRANCH  16  18
HETATM   18  C26 UNL     1     -84.431 159.446 -12.074  1.00  0.00     0.413 C 
HETATM   19  F4  UNL     1     -83.592 160.473 -11.651  1.00  0.00    -0.168 F 
HETATM   20  F5  UNL     1     -83.476 158.416 -12.393  1.00  0.00    -0.168 F 
HETATM   21  F6  UNL     1     -85.249 159.065 -11.068  1.00  0.00    -0.168 F 
ENDBRANCH  16  18
ENDBRANCH  15  16
ENDBRANCH  10  15
ENDBRANCH   4   9
BRANCH   6  22
HETATM   22  C12 UNL     1     -84.085 162.521 -15.229  1.00  0.00     0.430 C 
HETATM   23  F1  UNL     1     -83.367 163.418 -16.066  1.00  0.00    -0.165 F 
HETATM   24  F2  UNL     1     -83.996 161.252 -15.821  1.00  0.00    -0.165 F 
HETATM   25  F3  UNL     1     -83.523 162.504 -13.982  1.00  0.00    -0.165 F 
ENDBRANCH   6  22
ENDBRANCH   1   3
BRANCH   1  26
HETATM   26  C14 UNL     1     -89.799 164.559 -15.818  1.00  0.00     0.075 C 
BRANCH  26  27
HETATM   27  C15 UNL     1     -90.804 165.162 -16.630  1.00  0.00     0.064 A 
HETATM   28  N3  UNL     1     -91.413 164.780 -17.754  1.00  0.00    -0.296 N 
HETATM   29  N4  UNL     1     -92.388 165.613 -18.035  1.00  0.00    -0.283 N 
ATOM     30  H3  UNL     1     -91.159 163.964 -18.311  1.00  0.00     0.187 HD
HETATM   31  C17 UNL     1     -92.457 166.573 -17.110  1.00  0.00     0.127 A 
HETATM   32  C18 UNL     1     -91.484 166.337 -16.209  1.00  0.00     0.024 A 
BRANCH  29  33
HETATM   33  C16 UNL     1     -93.267 165.458 -19.189  1.00  0.00     0.288 C 
BRANCH  33  34
HETATM   34  N5  UNL     1     -93.248 166.625 -20.001  1.00  0.00    -0.303 N 
ATOM     35  H5  UNL     1     -92.405 167.198 -19.998  1.00  0.00     0.183 HD
BRANCH  34  36
HETATM   36  N6  UNL     1     -94.195 166.983 -20.709  1.00  0.00    -0.252 N 
HETATM   37  N7  UNL     1     -95.351 167.344 -21.027  1.00  0.00    -0.331 N 
ATOM     38  H72 UNL     1     -95.752 167.324 -20.090  1.00  0.00     0.178 HD
ATOM     39  H71 UNL     1     -96.133 167.640 -21.612  1.00  0.00     0.178 HD
ATOM     40  H6  UNL     1     -93.745 166.987 -21.625  1.00  0.00     0.207 HD
ENDBRANCH  34  36
ENDBRANCH  33  34
ENDBRANCH  29  33
BRANCH  32  41
HETATM   41  C19 UNL     1     -91.054 167.248 -15.074  1.00  0.00     0.098 C 
BRANCH  41  42
HETATM   42  N8  UNL     1     -92.152 168.090 -14.848  1.00  0.00    -0.393 N 
ATOM     43  H8  UNL     1     -92.992 167.666 -14.453  1.00  0.00     0.159 HD
BRANCH  42  44
HETATM   44  C20 UNL     1     -92.194 169.450 -15.117  1.00  0.00     0.081 C 
HETATM   45  C21 UNL     1     -93.423 169.932 -15.834  1.00  0.00     0.025 C 
HETATM   46  C22 UNL     1     -94.040 171.106 -15.065  1.00  0.00     0.002 C 
HETATM   47  C23 UNL     1     -93.019 172.198 -14.860  1.00  0.00     0.000 C 
HETATM   48  C24 UNL     1     -91.756 171.695 -14.217  1.00  0.00     0.002 C 
HETATM   49  C25 UNL     1     -91.877 170.227 -13.866  1.00  0.00     0.025 C 
ENDBRANCH  42  44
ENDBRANCH  41  42
ENDBRANCH  32  41
ENDBRANCH  26  27
ENDBRANCH   1  26
TORSDOF 14
ENDMDL
MODEL 4
REMARK VINA RESULT: -10.309945788      4.492     10.267
REMARK  14 active torsions:
REMARK  status: ('A' for Active; 'I' for Inactive)
REMARK    1  A    between atoms: C2_2  and  O1_3 
REMARK    2  A    between atoms: C2_2  and  C26_46 
REMARK    3  A    between atoms: O1_3  and  C3_4 
REMARK    4  A    between atoms: C8_9  and  C9_10 
REMARK    5  A    between atoms: C11_12  and  C12_13 
REMARK    6  A    between atoms: N2_19  and  C13_20 
REMARK    7  A    between atoms: C13_20  and  C14_22 
REMARK    8  A    between atoms: C14_22  and  C15_23 
REMARK    9  A    between atoms: N4_26  and  C16_27 
REMARK   10  A    between atoms: C16_27  and  N5_28 
REMARK   11  A    between atoms: N5_28  and  N6_30 
REMARK   12  A    between atoms: C18_36  and  C19_37 
REMARK   13  A    between atoms: C19_37  and  N8_38 
REMARK   14  A    between atoms: N8_38  and  C20_40 
ROOT
HETATM    1  C13 UNL     1     -85.316 161.584 -15.107  1.00  0.00     0.120 C 
HETATM    2  S1  UNL     1     -84.060 162.052 -16.025  1.00  0.00    -0.059 SA
ENDROOT
BRANCH   1   3
HETATM    3  N2  UNL     1     -86.252 162.527 -14.655  1.00  0.00    -0.272 N 
HETATM    4  C9  UNL     1     -87.600 162.959 -15.071  1.00  0.00     0.150 C 
HETATM    5  C10 UNL     1     -88.142 162.559 -13.701  1.00  0.00     0.095 C 
HETATM    6  C11 UNL     1     -87.254 163.356 -12.821  1.00  0.00     0.112 C 
HETATM    7  N1  UNL     1     -86.124 163.306 -13.426  1.00  0.00    -0.296 N 
ATOM      8  H1  UNL     1     -85.263 163.745 -13.097  1.00  0.00     0.186 HD
BRANCH   4   9
HETATM    9  C8  UNL     1     -87.379 164.403 -15.315  1.00  0.00     0.000 A 
HETATM   10  C3  UNL     1     -88.324 165.393 -15.382  1.00  0.00     0.078 A 
HETATM   11  C4  UNL     1     -88.042 166.664 -15.764  1.00  0.00     0.037 A 
HETATM   12  C5  UNL     1     -86.700 167.003 -16.107  1.00  0.00     0.003 A 
HETATM   13  C6  UNL     1     -85.758 166.105 -16.061  1.00  0.00     0.001 A 
HETATM   14  C7  UNL     1     -86.034 164.767 -15.664  1.00  0.00     0.012 A 
BRANCH  10  15
HETATM   15  O1  UNL     1     -89.611 164.968 -15.071  1.00  0.00    -0.337 OA
BRANCH  15  16
HETATM   16  C2  UNL     1     -90.863 165.178 -15.459  1.00  0.00     0.232 C 
HETATM   17  C1  UNL     1     -91.131 165.147 -16.962  1.00  0.00     0.049 C 
BRANCH  16  18
HETATM   18  C26 UNL     1     -91.671 166.263 -14.848  1.00  0.00     0.413 C 
HETATM   19  F4  UNL     1     -92.878 166.298 -15.540  1.00  0.00    -0.168 F 
HETATM   20  F5  UNL     1     -91.111 167.544 -15.191  1.00  0.00    -0.168 F 
HETATM   21  F6  UNL     1     -91.897 166.163 -13.519  1.00  0.00    -0.168 F 
ENDBRANCH  16  18
ENDBRANCH  15  16
ENDBRANCH  10  15
ENDBRANCH   4   9
BRANCH   6  22
HETATM   22  C12 UNL     1     -87.773 163.927 -11.560  1.00  0.00     0.430 C 
HETATM   23  F1  UNL     1     -89.082 164.404 -11.848  1.00  0.00    -0.165 F 
HETATM   24  F2  UNL     1     -87.001 165.044 -11.209  1.00  0.00    -0.165 F 
HETATM   25  F3  UNL     1     -87.825 163.040 -10.520  1.00  0.00    -0.165 F 
ENDBRANCH   6  22
ENDBRANCH   1   3
BRANCH   1  26
HETATM   26  C14 UNL     1     -85.587 160.211 -14.727  1.00  0.00     0.075 C 
BRANCH  26  27
HETATM   27  C15 UNL     1     -84.607 159.237 -14.374  1.00  0.00     0.064 A 
HETATM   28  N3  UNL     1     -83.925 158.337 -15.084  1.00  0.00    -0.296 N 
HETATM   29  N4  UNL     1     -83.016 157.771 -14.325  1.00  0.00    -0.283 N 
ATOM     30  H3  UNL     1     -84.086 158.122 -16.068  1.00  0.00     0.187 HD
HETATM   31  C17 UNL     1     -83.065 158.274 -13.090  1.00  0.00     0.127 A 
HETATM   32  C18 UNL     1     -84.048 159.195 -13.068  1.00  0.00     0.024 A 
BRANCH  29  33
HETATM   33  C16 UNL     1     -82.082 156.759 -14.812  1.00  0.00     0.288 C 
BRANCH  33  34
HETATM   34  N5  UNL     1     -82.779 155.668 -15.398  1.00  0.00    -0.303 N 
ATOM     35  H5  UNL     1     -83.734 155.824 -15.720  1.00  0.00     0.183 HD
BRANCH  34  36
HETATM   36  N6  UNL     1     -82.293 154.541 -15.540  1.00  0.00    -0.252 N 
HETATM   37  N7  UNL     1     -82.232 153.294 -15.642  1.00  0.00    -0.331 N 
ATOM     38  H72 UNL     1     -83.230 153.110 -15.540  1.00  0.00     0.178 HD
ATOM     39  H71 UNL     1     -81.830 152.364 -15.758  1.00  0.00     0.178 HD
ATOM     40  H6  UNL     1     -81.306 154.780 -15.637  1.00  0.00     0.207 HD
ENDBRANCH  34  36
ENDBRANCH  33  34
ENDBRANCH  29  33
BRANCH  32  41
HETATM   41  C19 UNL     1     -84.598 159.909 -11.847  1.00  0.00     0.098 C 
BRANCH  41  42
HETATM   42  N8  UNL     1     -84.200 161.245 -11.997  1.00  0.00    -0.393 N 
ATOM     43  H8  UNL     1     -84.895 161.902 -12.350  1.00  0.00     0.159 HD
BRANCH  42  44
HETATM   44  C20 UNL     1     -82.940 161.747 -11.705  1.00  0.00     0.081 C 
HETATM   45  C21 UNL     1     -82.168 160.994 -10.660  1.00  0.00     0.025 C 
HETATM   46  C22 UNL     1     -80.778 160.642 -11.202  1.00  0.00     0.002 C 
HETATM   47  C23 UNL     1     -80.063 161.885 -11.671  1.00  0.00     0.000 C 
HETATM   48  C24 UNL     1     -80.875 162.682 -12.655  1.00  0.00     0.002 C 
HETATM   49  C25 UNL     1     -82.173 161.973 -12.981  1.00  0.00     0.025 C 
ENDBRANCH  42  44
ENDBRANCH  41  42
ENDBRANCH  32  41
ENDBRANCH  26  27
ENDBRANCH   1  26
TORSDOF 14
ENDMDL
MODEL 5
REMARK VINA RESULT: -10.307778473      2.410      3.489
REMARK  14 active torsions:
REMARK  status: ('A' for Active; 'I' for Inactive)
REMARK    1  A    between atoms: C2_2  and  O1_3 
REMARK    2  A    between atoms: C2_2  and  C26_46 
REMARK    3  A    between atoms: O1_3  and  C3_4 
REMARK    4  A    between atoms: C8_9  and  C9_10 
REMARK    5  A    between atoms: C11_12  and  C12_13 
REMARK    6  A    between atoms: N2_19  and  C13_20 
REMARK    7  A    between atoms: C13_20  and  C14_22 
REMARK    8  A    between atoms: C14_22  and  C15_23 
REMARK    9  A    between atoms: N4_26  and  C16_27 
REMARK   10  A    between atoms: C16_27  and  N5_28 
REMARK   11  A    between atoms: N5_28  and  N6_30 
REMARK   12  A    between atoms: C18_36  and  C19_37 
REMARK   13  A    between atoms: C19_37  and  N8_38 
REMARK   14  A    between atoms: N8_38  and  C20_40 
ROOT
HETATM    1  C13 UNL     1     -88.002 164.498 -15.903  1.00  0.00     0.120 C 
HETATM    2  S1  UNL     1     -87.418 165.863 -16.561  1.00  0.00    -0.059 SA
ENDROOT
BRANCH   1   3
HETATM    3  N2  UNL     1     -87.134 163.583 -15.286  1.00  0.00    -0.272 N 
HETATM    4  C9  UNL     1     -87.239 162.196 -14.794  1.00  0.00     0.150 C 
HETATM    5  C10 UNL     1     -86.129 161.780 -15.757  1.00  0.00     0.095 C 
HETATM    6  C11 UNL     1     -85.059 162.721 -15.353  1.00  0.00     0.112 C 
HETATM    7  N1  UNL     1     -85.703 163.798 -15.084  1.00  0.00    -0.296 N 
ATOM      8  H1  UNL     1     -85.280 164.673 -14.775  1.00  0.00     0.186 HD
BRANCH   4   9
HETATM    9  C8  UNL     1     -86.868 162.365 -13.371  1.00  0.00     0.000 A 
HETATM   10  C3  UNL     1     -86.176 161.487 -12.577  1.00  0.00     0.078 A 
HETATM   11  C4  UNL     1     -86.018 161.660 -11.241  1.00  0.00     0.037 A 
HETATM   12  C5  UNL     1     -86.587 162.809 -10.618  1.00  0.00     0.003 A 
HETATM   13  C6  UNL     1     -87.256 163.679 -11.320  1.00  0.00     0.001 A 
HETATM   14  C7  UNL     1     -87.433 163.515 -12.722  1.00  0.00     0.012 A 
BRANCH  10  15
HETATM   15  O1  UNL     1     -85.688 160.376 -13.256  1.00  0.00    -0.337 OA
BRANCH  15  16
HETATM   16  C2  UNL     1     -84.882 159.342 -13.049  1.00  0.00     0.232 C 
HETATM   17  C1  UNL     1     -83.641 159.599 -12.198  1.00  0.00     0.049 C 
BRANCH  16  18
HETATM   18  C26 UNL     1     -84.522 158.430 -14.164  1.00  0.00     0.413 C 
HETATM   19  F4  UNL     1     -84.606 157.135 -13.660  1.00  0.00    -0.168 F 
HETATM   20  F5  UNL     1     -83.114 158.532 -14.445  1.00  0.00    -0.168 F 
HETATM   21  F6  UNL     1     -85.260 158.543 -15.290  1.00  0.00    -0.168 F 
ENDBRANCH  16  18
ENDBRANCH  15  16
ENDBRANCH  10  15
ENDBRANCH   4   9
BRANCH   6  22
HETATM   22  C12 UNL     1     -83.642 162.299 -15.388  1.00  0.00     0.430 C 
HETATM   23  F1  UNL     1     -83.639 160.961 -15.871  1.00  0.00    -0.165 F 
HETATM   24  F2  UNL     1     -83.142 162.259 -14.078  1.00  0.00    -0.165 F 
HETATM   25  F3  UNL     1     -82.843 163.077 -16.178  1.00  0.00    -0.165 F 
ENDBRANCH   6  22
ENDBRANCH   1   3
BRANCH   1  26
HETATM   26  C14 UNL     1     -89.407 164.143 -15.861  1.00  0.00     0.075 C 
BRANCH  26  27
HETATM   27  C15 UNL     1     -90.451 164.796 -16.582  1.00  0.00     0.064 A 
HETATM   28  N3  UNL     1     -91.001 164.579 -17.778  1.00  0.00    -0.296 N 
HETATM   29  N4  UNL     1     -92.044 165.360 -17.933  1.00  0.00    -0.283 N 
ATOM     30  H3  UNL     1     -90.662 163.907 -18.466  1.00  0.00     0.187 HD
HETATM   31  C17 UNL     1     -92.219 166.120 -16.850  1.00  0.00     0.127 A 
HETATM   32  C18 UNL     1     -91.244 165.807 -15.975  1.00  0.00     0.024 A 
BRANCH  29  33
HETATM   33  C16 UNL     1     -92.885 165.346 -19.127  1.00  0.00     0.288 C 
BRANCH  33  34
HETATM   34  N5  UNL     1     -92.935 166.635 -19.725  1.00  0.00    -0.303 N 
ATOM     35  H5  UNL     1     -92.141 167.260 -19.589  1.00  0.00     0.183 HD
BRANCH  34  36
HETATM   36  N6  UNL     1     -93.887 167.040 -20.401  1.00  0.00    -0.252 N 
HETATM   37  N7  UNL     1     -95.044 167.110 -20.875  1.00  0.00    -0.331 N 
ATOM     38  H72 UNL     1     -95.437 166.319 -20.364  1.00  0.00     0.178 HD
ATOM     39  H71 UNL     1     -95.829 167.445 -21.433  1.00  0.00     0.178 HD
ATOM     40  H6  UNL     1     -93.445 167.822 -20.886  1.00  0.00     0.207 HD
ENDBRANCH  34  36
ENDBRANCH  33  34
ENDBRANCH  29  33
BRANCH  32  41
HETATM   41  C19 UNL     1     -90.921 166.524 -14.677  1.00  0.00     0.098 C 
BRANCH  41  42
HETATM   42  N8  UNL     1     -92.166 166.884 -14.142  1.00  0.00    -0.393 N 
ATOM     43  H8  UNL     1     -92.803 166.128 -13.893  1.00  0.00     0.159 HD
BRANCH  42  44
HETATM   44  C20 UNL     1     -92.604 168.182 -13.923  1.00  0.00     0.081 C 
HETATM   45  C21 UNL     1     -91.765 169.263 -14.543  1.00  0.00     0.025 C 
HETATM   46  C22 UNL     1     -92.656 170.193 -15.373  1.00  0.00     0.002 C 
HETATM   47  C23 UNL     1     -93.780 170.741 -14.529  1.00  0.00     0.000 C 
HETATM   48  C24 UNL     1     -94.567 169.658 -13.841  1.00  0.00     0.002 C 
HETATM   49  C25 UNL     1     -94.070 168.288 -14.251  1.00  0.00     0.025 C 
ENDBRANCH  42  44
ENDBRANCH  41  42
ENDBRANCH  32  41
ENDBRANCH  26  27
ENDBRANCH   1  26
TORSDOF 14
ENDMDL
