MODEL 1
REMARK VINA RESULT: -5.623861198      0.000      0.000
REMARK  2 active torsions:
REMARK  status: ('A' for Active; 'I' for Inactive)
REMARK    1  A    between atoms: C2_2  and  N1_4 
REMARK    2  A    between atoms: N1_4  and  C4_6 
ROOT
HETATM    1  C4  UNL     1      27.454  -3.524  -7.388  1.00  0.00     0.261 A 
HETATM    2  N2  UNL     1      27.222  -4.495  -6.504  1.00  0.00    -0.243 N 
ATOM      3  H2  UNL     1      27.493  -5.477  -6.439  1.00  0.00     0.192 HD
HETATM    4  N3  UNL     1      26.506  -3.687  -5.746  1.00  0.00    -0.195 N 
ATOM      5  H3  UNL     1      25.995  -3.765  -4.867  1.00  0.00     0.216 HD
HETATM    6  O1  UNL     1      26.737  -2.747  -6.613  1.00  0.00    -0.184 OA
ENDROOT
BRANCH   1   7
HETATM    7  N1  UNL     1      28.072  -3.330  -8.503  1.00  0.00    -0.350 N 
ATOM      8  H1  UNL     1      27.669  -2.678  -9.176  1.00  0.00     0.163 HD
BRANCH   7   9
HETATM    9  C2  UNL     1      29.311  -3.996  -8.843  1.00  0.00     0.077 C 
HETATM   10  C1  UNL     1      30.200  -3.145  -9.724  1.00  0.00     0.032 C 
HETATM   11  C3  UNL     1      29.079  -5.311  -9.559  1.00  0.00     0.032 C 
ENDBRANCH   7   9
ENDBRANCH   1   7
TORSDOF 2
ENDMDL
MODEL 2
REMARK VINA RESULT: -5.561178951      0.922      1.318
REMARK  2 active torsions:
REMARK  status: ('A' for Active; 'I' for Inactive)
REMARK    1  A    between atoms: C2_2  and  N1_4 
REMARK    2  A    between atoms: N1_4  and  C4_6 
ROOT
HETATM    1  C4  UNL     1      27.252  -4.085  -7.038  1.00  0.00     0.261 A 
HETATM    2  N2  UNL     1      26.739  -4.490  -5.875  1.00  0.00    -0.243 N 
ATOM      3  H2  UNL     1      26.676  -5.392  -5.402  1.00  0.00     0.192 HD
HETATM    4  N3  UNL     1      26.348  -3.265  -5.577  1.00  0.00    -0.195 N 
ATOM      5  H3  UNL     1      25.865  -2.818  -4.798  1.00  0.00     0.216 HD
HETATM    6  O1  UNL     1      26.850  -2.881  -6.712  1.00  0.00    -0.184 OA
ENDROOT
BRANCH   1   7
HETATM    7  N1  UNL     1      27.868  -4.561  -8.065  1.00  0.00    -0.350 N 
ATOM      8  H1  UNL     1      27.602  -5.486  -8.406  1.00  0.00     0.163 HD
BRANCH   7   9
HETATM    9  C2  UNL     1      28.918  -3.846  -8.756  1.00  0.00     0.077 C 
HETATM   10  C1  UNL     1      29.611  -4.701  -9.796  1.00  0.00     0.032 C 
HETATM   11  C3  UNL     1      29.980  -3.326  -7.809  1.00  0.00     0.032 C 
ENDBRANCH   7   9
ENDBRANCH   1   7
TORSDOF 2
ENDMDL
MODEL 3
REMARK VINA RESULT: -5.350206103      0.599      1.360
REMARK  2 active torsions:
REMARK  status: ('A' for Active; 'I' for Inactive)
REMARK    1  A    between atoms: C2_2  and  N1_4 
REMARK    2  A    between atoms: N1_4  and  C4_6 
ROOT
HETATM    1  C4  UNL     1      27.937  -3.596  -6.899  1.00  0.00     0.261 A 
HETATM    2  N2  UNL     1      27.055  -4.502  -6.475  1.00  0.00    -0.243 N 
ATOM      3  H2  UNL     1      26.949  -5.508  -6.610  1.00  0.00     0.192 HD
HETATM    4  N3  UNL     1      26.375  -3.587  -5.812  1.00  0.00    -0.195 N 
ATOM      5  H3  UNL     1      25.539  -3.573  -5.228  1.00  0.00     0.216 HD
HETATM    6  O1  UNL     1      27.238  -2.711  -6.231  1.00  0.00    -0.184 OA
ENDROOT
BRANCH   1   7
HETATM    7  N1  UNL     1      29.001  -3.517  -7.622  1.00  0.00    -0.350 N 
ATOM      8  H1  UNL     1      29.886  -3.302  -7.164  1.00  0.00     0.163 HD
BRANCH   7   9
HETATM    9  C2  UNL     1      28.997  -3.718  -9.055  1.00  0.00     0.077 C 
HETATM   10  C1  UNL     1      29.011  -5.184  -9.432  1.00  0.00     0.032 C 
HETATM   11  C3  UNL     1      30.182  -3.059  -9.732  1.00  0.00     0.032 C 
ENDBRANCH   7   9
ENDBRANCH   1   7
TORSDOF 2
ENDMDL
MODEL 4
REMARK VINA RESULT: -4.711758837      1.397      1.579
REMARK  2 active torsions:
REMARK  status: ('A' for Active; 'I' for Inactive)
REMARK    1  A    between atoms: C2_2  and  N1_4 
REMARK    2  A    between atoms: N1_4  and  C4_6 
ROOT
HETATM    1  C4  UNL     1      28.634  -3.502  -8.243  1.00  0.00     0.261 A 
HETATM    2  N2  UNL     1      28.654  -3.411  -6.913  1.00  0.00    -0.243 N 
ATOM      3  H2  UNL     1      29.326  -3.050  -6.235  1.00  0.00     0.192 HD
HETATM    4  N3  UNL     1      27.462  -3.970  -6.818  1.00  0.00    -0.195 N 
ATOM      5  H3  UNL     1      26.828  -4.223  -6.061  1.00  0.00     0.216 HD
HETATM    6  O1  UNL     1      27.453  -4.055  -8.115  1.00  0.00    -0.184 OA
ENDROOT
BRANCH   1   7
HETATM    7  N1  UNL     1      29.369  -3.217  -9.263  1.00  0.00    -0.350 N 
ATOM      8  H1  UNL     1      29.244  -2.310  -9.715  1.00  0.00     0.163 HD
BRANCH   7   9
HETATM    9  C2  UNL     1      30.362  -4.123  -9.797  1.00  0.00     0.077 C 
HETATM   10  C1  UNL     1      31.137  -3.517 -10.948  1.00  0.00     0.032 C 
HETATM   11  C3  UNL     1      29.753  -5.421 -10.287  1.00  0.00     0.032 C 
ENDBRANCH   7   9
ENDBRANCH   1   7
TORSDOF 2
ENDMDL
MODEL 5
REMARK VINA RESULT: -4.701480839      1.291      1.912
REMARK  2 active torsions:
REMARK  status: ('A' for Active; 'I' for Inactive)
REMARK    1  A    between atoms: C2_2  and  N1_4 
REMARK    2  A    between atoms: N1_4  and  C4_6 
ROOT
HETATM    1  C4  UNL     1      28.766  -3.802  -7.848  1.00  0.00     0.261 A 
HETATM    2  N2  UNL     1      27.715  -4.617  -7.949  1.00  0.00    -0.243 N 
ATOM      3  H2  UNL     1      27.407  -5.297  -8.644  1.00  0.00     0.192 HD
HETATM    4  N3  UNL     1      27.231  -4.198  -6.795  1.00  0.00    -0.195 N 
ATOM      5  H3  UNL     1      26.411  -4.404  -6.224  1.00  0.00     0.216 HD
HETATM    6  O1  UNL     1      28.258  -3.407  -6.707  1.00  0.00    -0.184 OA
ENDROOT
BRANCH   1   7
HETATM    7  N1  UNL     1      29.829  -3.477  -8.500  1.00  0.00    -0.350 N 
ATOM      8  H1  UNL     1      30.627  -3.112  -7.980  1.00  0.00     0.163 HD
BRANCH   7   9
HETATM    9  C2  UNL     1      29.943  -3.605  -9.937  1.00  0.00     0.077 C 
HETATM   10  C1  UNL     1      30.232  -5.028 -10.368  1.00  0.00     0.032 C 
HETATM   11  C3  UNL     1      31.032  -2.722 -10.509  1.00  0.00     0.032 C 
ENDBRANCH   7   9
ENDBRANCH   1   7
TORSDOF 2
ENDMDL
