MODEL 1
REMARK VINA RESULT: -7.475862813      0.000      0.000
REMARK  11 active torsions:
REMARK  status: ('A' for Active; 'I' for Inactive)
REMARK       I    between atoms: N1_2  and  C2_4 
REMARK       I    between atoms: C2_4  and  N5_33 
REMARK    1  A    between atoms: N2_5  and  C3_7 
REMARK    2  A    between atoms: C5_9  and  O1_10 
REMARK    3  A    between atoms: O1_10  and  C6_11 
REMARK    4  A    between atoms: C8_14  and  C9_15 
REMARK    5  A    between atoms: C8_14  and  C10_18 
REMARK    6  A    between atoms: C9_15  and  O3_16 
REMARK    7  A    between atoms: C11_24  and  O6_25 
REMARK    8  A    between atoms: C11_24  and  C12_27 
REMARK    9  A    between atoms: C12_27  and  O7_28 
REMARK   10  A    between atoms: C12_27  and  C13_30 
REMARK   11  A    between atoms: N5_33  and  N6_35 
ROOT
HETATM    1  C3  UNL     1      -2.514 -36.806  20.775  1.00  0.00     0.200 C 
HETATM    2  C4  UNL     1      -3.837 -36.049  21.124  1.00  0.00     0.019 C 
HETATM    3  C5  UNL     1      -4.950 -36.655  21.041  1.00  0.00     0.154 C 
HETATM    4  C8  UNL     1      -3.403 -34.674  21.468  1.00  0.00     0.264 C 
HETATM    5  N3  UNL     1      -2.474 -34.459  20.339  1.00  0.00    -0.012 N 
ATOM      6  H31 UNL     1      -1.777 -33.741  20.537  1.00  0.00     0.283 HD
ATOM      7  H32 UNL     1      -2.922 -34.002  19.544  1.00  0.00     0.283 HD
HETATM    8  C11 UNL     1      -1.885 -35.711  19.990  1.00  0.00     0.285 C 
ENDROOT
BRANCH   1   9
HETATM    9  N2  UNL     1      -1.978 -37.399  21.871  1.00  0.00    -0.211 N 
HETATM   10  C2  UNL     1      -2.263 -38.435  22.550  1.00  0.00     0.693 C 
HETATM   11  N1  UNL     1      -3.327 -39.329  22.270  1.00  0.00    -0.229 N 
HETATM   12  N5  UNL     1      -1.463 -38.750  23.733  1.00  0.00    -0.072 N 
HETATM   13  C1  UNL     1      -4.389 -39.453  23.242  1.00  0.00     0.165 C 
ATOM     14  H1  UNL     1      -3.343 -39.871  21.405  1.00  0.00     0.177 HD
ATOM     15  H5  UNL     1      -0.895 -39.597  23.759  1.00  0.00     0.212 HD
ATOM     16  H2  UNL     1      -1.164 -36.901  22.231  1.00  0.00     0.178 HD
BRANCH  12  17
HETATM   17  N6  UNL     1      -1.484 -37.884  24.827  1.00  0.00    -0.024 N 
HETATM   18  O9  UNL     1      -2.254 -38.062  25.796  1.00  0.00    -0.516 OA
HETATM   19  O10 UNL     1      -0.619 -36.841  24.865  1.00  0.00    -0.516 OA
ENDBRANCH  12  17
ENDBRANCH   1   9
BRANCH   8  20
HETATM   20  O6  UNL     1      -2.256 -35.922  18.604  1.00  0.00    -0.361 OA
ATOM     21  H6  UNL     1      -1.551 -35.568  18.074  1.00  0.00     0.212 HD
ENDBRANCH   8  20
BRANCH   8  22
HETATM   22  C12 UNL     1      -0.374 -35.663  19.950  1.00  0.00     0.272 C 
BRANCH  22  23
HETATM   23  O7  UNL     1       0.047 -36.972  19.653  1.00  0.00    -0.382 OA
ATOM     24  H7  UNL     1       0.842 -37.112  20.155  1.00  0.00     0.210 HD
ENDBRANCH  22  23
BRANCH  22  25
HETATM   25  C13 UNL     1      -0.046 -34.770  18.807  1.00  0.00     0.264 C 
HETATM   26  N4  UNL     1      -0.207 -33.366  18.953  1.00  0.00    -0.060 NA
HETATM   27  O8  UNL     1       0.379 -35.222  17.709  1.00  0.00    -0.274 OA
ENDBRANCH  22  25
ENDBRANCH   8  22
BRANCH   3  28
HETATM   28  O1  UNL     1      -6.248 -36.160  21.294  1.00  0.00    -0.291 OA
BRANCH  28  29
HETATM   29  C6  UNL     1      -7.338 -36.914  20.810  1.00  0.00     0.259 C 
HETATM   30  C7  UNL     1      -7.182 -38.032  19.926  1.00  0.00     0.126 C 
HETATM   31  O2  UNL     1      -8.519 -36.539  21.193  1.00  0.00    -0.265 OA
ENDBRANCH  28  29
ENDBRANCH   3  28
BRANCH   4  32
HETATM   32  C9  UNL     1      -4.531 -33.738  21.584  1.00  0.00     0.220 C 
BRANCH  32  33
HETATM   33  O3  UNL     1      -4.224 -32.552  22.286  1.00  0.00    -0.397 OA
ATOM     34  H3  UNL     1      -4.499 -31.758  21.842  1.00  0.00     0.209 HD
ENDBRANCH  32  33
ENDBRANCH   4  32
BRANCH   4  35
HETATM   35  C10 UNL     1      -2.549 -34.525  22.669  1.00  0.00     0.218 C 
HETATM   36  O4  UNL     1      -1.497 -34.035  22.851  1.00  0.00    -0.646 OA
HETATM   37  O5  UNL     1      -3.157 -35.062  23.892  1.00  0.00    -0.646 OA
ENDBRANCH   4  35
TORSDOF 11
ENDMDL
MODEL 2
REMARK VINA RESULT: -7.388862629      1.179      1.480
REMARK  11 active torsions:
REMARK  status: ('A' for Active; 'I' for Inactive)
REMARK       I    between atoms: N1_2  and  C2_4 
REMARK       I    between atoms: C2_4  and  N5_33 
REMARK    1  A    between atoms: N2_5  and  C3_7 
REMARK    2  A    between atoms: C5_9  and  O1_10 
REMARK    3  A    between atoms: O1_10  and  C6_11 
REMARK    4  A    between atoms: C8_14  and  C9_15 
REMARK    5  A    between atoms: C8_14  and  C10_18 
REMARK    6  A    between atoms: C9_15  and  O3_16 
REMARK    7  A    between atoms: C11_24  and  O6_25 
REMARK    8  A    between atoms: C11_24  and  C12_27 
REMARK    9  A    between atoms: C12_27  and  O7_28 
REMARK   10  A    between atoms: C12_27  and  C13_30 
REMARK   11  A    between atoms: N5_33  and  N6_35 
ROOT
HETATM    1  C3  UNL     1      -2.484 -36.437  20.917  1.00  0.00     0.200 C 
HETATM    2  C4  UNL     1      -3.738 -35.512  21.036  1.00  0.00     0.019 C 
HETATM    3  C5  UNL     1      -4.899 -36.026  21.069  1.00  0.00     0.154 C 
HETATM    4  C8  UNL     1      -3.189 -34.136  21.054  1.00  0.00     0.264 C 
HETATM    5  N3  UNL     1      -2.235 -34.276  19.932  1.00  0.00    -0.012 N 
ATOM      6  H31 UNL     1      -1.480 -33.592  19.973  1.00  0.00     0.283 HD
ATOM      7  H32 UNL     1      -2.636 -33.989  19.039  1.00  0.00     0.283 HD
HETATM    8  C11 UNL     1      -1.756 -35.620  19.911  1.00  0.00     0.285 C 
ENDROOT
BRANCH   1   9
HETATM    9  N2  UNL     1      -2.010 -36.791  22.137  1.00  0.00    -0.211 N 
HETATM   10  C2  UNL     1      -2.074 -37.845  22.845  1.00  0.00     0.693 C 
HETATM   11  N1  UNL     1      -2.719 -39.049  22.462  1.00  0.00    -0.229 N 
HETATM   12  N5  UNL     1      -1.462 -37.847  24.173  1.00  0.00    -0.072 N 
HETATM   13  C1  UNL     1      -3.853 -39.493  23.240  1.00  0.00     0.165 C 
ATOM     14  H1  UNL     1      -2.392 -39.587  21.659  1.00  0.00     0.177 HD
ATOM     15  H5  UNL     1      -0.669 -38.456  24.373  1.00  0.00     0.212 HD
ATOM     16  H2  UNL     1      -1.485 -36.042  22.590  1.00  0.00     0.178 HD
BRANCH  12  17
HETATM   17  N6  UNL     1      -1.973 -37.009  25.165  1.00  0.00    -0.024 N 
HETATM   18  O9  UNL     1      -1.253 -36.554  26.080  1.00  0.00    -0.516 OA
HETATM   19  O10 UNL     1      -3.276 -36.641  25.117  1.00  0.00    -0.516 OA
ENDBRANCH  12  17
ENDBRANCH   1   9
BRANCH   8  20
HETATM   20  O6  UNL     1      -2.132 -36.128  18.605  1.00  0.00    -0.361 OA
ATOM     21  H6  UNL     1      -1.847 -35.484  17.967  1.00  0.00     0.212 HD
ENDBRANCH   8  20
BRANCH   8  22
HETATM   22  C12 UNL     1      -0.245 -35.708  19.904  1.00  0.00     0.272 C 
BRANCH  22  23
HETATM   23  O7  UNL     1       0.064 -37.001  19.442  1.00  0.00    -0.382 OA
ATOM     24  H7  UNL     1       0.583 -36.880  18.655  1.00  0.00     0.210 HD
ENDBRANCH  22  23
BRANCH  22  25
HETATM   25  C13 UNL     1       0.195 -34.707  18.896  1.00  0.00     0.264 C 
HETATM   26  N4  UNL     1       0.781 -33.491  19.334  1.00  0.00    -0.060 NA
HETATM   27  O8  UNL     1       0.069 -34.910  17.657  1.00  0.00    -0.274 OA
ENDBRANCH  22  25
ENDBRANCH   8  22
BRANCH   3  28
HETATM   28  O1  UNL     1      -6.152 -35.379  21.159  1.00  0.00    -0.291 OA
BRANCH  28  29
HETATM   29  C6  UNL     1      -6.751 -35.297  22.434  1.00  0.00     0.259 C 
HETATM   30  C7  UNL     1      -6.697 -36.361  23.391  1.00  0.00     0.126 C 
HETATM   31  O2  UNL     1      -7.381 -34.197  22.708  1.00  0.00    -0.265 OA
ENDBRANCH  28  29
ENDBRANCH   3  28
BRANCH   4  32
HETATM   32  C9  UNL     1      -4.232 -33.109  20.910  1.00  0.00     0.220 C 
BRANCH  32  33
HETATM   33  O3  UNL     1      -4.776 -32.665  22.135  1.00  0.00    -0.397 OA
ATOM     34  H3  UNL     1      -5.134 -31.786  22.104  1.00  0.00     0.209 HD
ENDBRANCH  32  33
ENDBRANCH   4  32
BRANCH   4  35
HETATM   35  C10 UNL     1      -2.335 -33.773  22.207  1.00  0.00     0.218 C 
HETATM   36  O4  UNL     1      -2.320 -34.107  23.334  1.00  0.00    -0.646 OA
HETATM   37  O5  UNL     1      -1.260 -32.833  21.869  1.00  0.00    -0.646 OA
ENDBRANCH   4  35
TORSDOF 11
ENDMDL
MODEL 3
REMARK VINA RESULT: -7.319402589      1.897      5.398
REMARK  11 active torsions:
REMARK  status: ('A' for Active; 'I' for Inactive)
REMARK       I    between atoms: N1_2  and  C2_4 
REMARK       I    between atoms: C2_4  and  N5_33 
REMARK    1  A    between atoms: N2_5  and  C3_7 
REMARK    2  A    between atoms: C5_9  and  O1_10 
REMARK    3  A    between atoms: O1_10  and  C6_11 
REMARK    4  A    between atoms: C8_14  and  C9_15 
REMARK    5  A    between atoms: C8_14  and  C10_18 
REMARK    6  A    between atoms: C9_15  and  O3_16 
REMARK    7  A    between atoms: C11_24  and  O6_25 
REMARK    8  A    between atoms: C11_24  and  C12_27 
REMARK    9  A    between atoms: C12_27  and  O7_28 
REMARK   10  A    between atoms: C12_27  and  C13_30 
REMARK   11  A    between atoms: N5_33  and  N6_35 
ROOT
HETATM    1  C3  UNL     1      -2.165 -34.870  22.284  1.00  0.00     0.200 C 
HETATM    2  C4  UNL     1      -3.631 -34.773  21.748  1.00  0.00     0.019 C 
HETATM    3  C5  UNL     1      -4.155 -33.632  21.553  1.00  0.00     0.154 C 
HETATM    4  C8  UNL     1      -4.078 -36.180  21.620  1.00  0.00     0.264 C 
HETATM    5  N3  UNL     1      -3.593 -36.673  22.927  1.00  0.00    -0.012 N 
ATOM      6  H31 UNL     1      -3.452 -37.684  22.936  1.00  0.00     0.283 HD
ATOM      7  H32 UNL     1      -4.307 -36.625  23.653  1.00  0.00     0.283 HD
HETATM    8  C11 UNL     1      -2.410 -35.953  23.273  1.00  0.00     0.285 C 
ENDROOT
BRANCH   1   9
HETATM    9  N2  UNL     1      -1.267 -34.918  21.269  1.00  0.00    -0.211 N 
HETATM   10  C2  UNL     1      -0.061 -34.541  21.130  1.00  0.00     0.693 C 
HETATM   11  N1  UNL     1       0.725 -33.926  22.138  1.00  0.00    -0.229 N 
HETATM   12  N5  UNL     1       0.595 -34.722  19.835  1.00  0.00    -0.072 N 
HETATM   13  C1  UNL     1       1.181 -32.574  21.918  1.00  0.00     0.165 C 
ATOM     14  H1  UNL     1       0.961 -34.426  22.996  1.00  0.00     0.177 HD
ATOM     15  H5  UNL     1       1.390 -35.355  19.746  1.00  0.00     0.212 HD
ATOM     16  H2  UNL     1      -1.645 -35.353  20.428  1.00  0.00     0.178 HD
BRANCH  12  17
HETATM   17  N6  UNL     1       0.124 -34.022  18.724  1.00  0.00    -0.024 N 
HETATM   18  O9  UNL     1       0.598 -34.202  17.581  1.00  0.00    -0.516 OA
HETATM   19  O10 UNL     1      -0.903 -33.151  18.874  1.00  0.00    -0.516 OA
ENDBRANCH  12  17
ENDBRANCH   1   9
BRANCH   8  20
HETATM   20  O6  UNL     1      -2.725 -35.307  24.533  1.00  0.00    -0.361 OA
ATOM     21  H6  UNL     1      -2.153 -35.690  25.188  1.00  0.00     0.212 HD
ENDBRANCH   8  20
BRANCH   8  22
HETATM   22  C12 UNL     1      -1.247 -36.857  23.618  1.00  0.00     0.272 C 
BRANCH  22  23
HETATM   23  O7  UNL     1      -0.364 -36.075  24.385  1.00  0.00    -0.382 OA
ATOM     24  H7  UNL     1      -0.545 -35.172  24.152  1.00  0.00     0.210 HD
ENDBRANCH  22  23
BRANCH  22  25
HETATM   25  C13 UNL     1      -1.829 -37.925  24.474  1.00  0.00     0.264 C 
HETATM   26  N4  UNL     1      -2.019 -39.224  23.933  1.00  0.00    -0.060 NA
HETATM   27  O8  UNL     1      -2.154 -37.713  25.673  1.00  0.00    -0.274 OA
ENDBRANCH  22  25
ENDBRANCH   8  22
BRANCH   3  28
HETATM   28  O1  UNL     1      -5.454 -33.324  21.091  1.00  0.00    -0.291 OA
BRANCH  28  29
HETATM   29  C6  UNL     1      -6.444 -33.062  22.062  1.00  0.00     0.259 C 
HETATM   30  C7  UNL     1      -7.363 -34.058  22.527  1.00  0.00     0.126 C 
HETATM   31  O2  UNL     1      -6.501 -31.850  22.520  1.00  0.00    -0.265 OA
ENDBRANCH  28  29
ENDBRANCH   3  28
BRANCH   4  32
HETATM   32  C9  UNL     1      -5.522 -36.293  21.365  1.00  0.00     0.220 C 
BRANCH  32  33
HETATM   33  O3  UNL     1      -5.868 -36.270  19.997  1.00  0.00    -0.397 OA
ATOM     34  H3  UNL     1      -6.785 -36.450  19.826  1.00  0.00     0.209 HD
ENDBRANCH  32  33
ENDBRANCH   4  32
BRANCH   4  35
HETATM   35  C10 UNL     1      -3.364 -37.020  20.632  1.00  0.00     0.218 C 
HETATM   36  O4  UNL     1      -2.680 -36.771  19.709  1.00  0.00    -0.646 OA
HETATM   37  O5  UNL     1      -3.503 -38.460  20.876  1.00  0.00    -0.646 OA
ENDBRANCH   4  35
TORSDOF 11
ENDMDL
MODEL 4
REMARK VINA RESULT: -7.153638627      2.459      5.716
REMARK  11 active torsions:
REMARK  status: ('A' for Active; 'I' for Inactive)
REMARK       I    between atoms: N1_2  and  C2_4 
REMARK       I    between atoms: C2_4  and  N5_33 
REMARK    1  A    between atoms: N2_5  and  C3_7 
REMARK    2  A    between atoms: C5_9  and  O1_10 
REMARK    3  A    between atoms: O1_10  and  C6_11 
REMARK    4  A    between atoms: C8_14  and  C9_15 
REMARK    5  A    between atoms: C8_14  and  C10_18 
REMARK    6  A    between atoms: C9_15  and  O3_16 
REMARK    7  A    between atoms: C11_24  and  O6_25 
REMARK    8  A    between atoms: C11_24  and  C12_27 
REMARK    9  A    between atoms: C12_27  and  O7_28 
REMARK   10  A    between atoms: C12_27  and  C13_30 
REMARK   11  A    between atoms: N5_33  and  N6_35 
ROOT
HETATM    1  C3  UNL     1      -3.945 -36.590  21.286  1.00  0.00     0.200 C 
HETATM    2  C4  UNL     1      -2.530 -36.017  20.949  1.00  0.00     0.019 C 
HETATM    3  C5  UNL     1      -2.309 -35.519  19.802  1.00  0.00     0.154 C 
HETATM    4  C8  UNL     1      -1.729 -36.255  22.173  1.00  0.00     0.264 C 
HETATM    5  N3  UNL     1      -2.135 -37.655  22.421  1.00  0.00    -0.012 N 
ATOM      6  H31 UNL     1      -2.010 -37.932  23.394  1.00  0.00     0.283 HD
ATOM      7  H32 UNL     1      -1.495 -38.329  22.000  1.00  0.00     0.283 HD
HETATM    8  C11 UNL     1      -3.479 -37.824  21.972  1.00  0.00     0.285 C 
ENDROOT
BRANCH   1   9
HETATM    9  N2  UNL     1      -4.748 -35.641  21.829  1.00  0.00    -0.211 N 
HETATM   10  C2  UNL     1      -5.984 -35.583  22.123  1.00  0.00     0.693 C 
HETATM   11  N1  UNL     1      -6.917 -36.637  21.946  1.00  0.00    -0.229 N 
HETATM   12  N5  UNL     1      -6.526 -34.340  22.671  1.00  0.00    -0.072 N 
HETATM   13  C1  UNL     1      -8.009 -36.434  21.024  1.00  0.00     0.165 C 
ATOM     14  H1  UNL     1      -6.818 -37.515  22.456  1.00  0.00     0.177 HD
ATOM     15  H5  UNL     1      -6.891 -34.314  23.623  1.00  0.00     0.212 HD
ATOM     16  H2  UNL     1      -4.248 -34.780  22.050  1.00  0.00     0.178 HD
BRANCH  12  17
HETATM   17  N6  UNL     1      -6.539 -33.190  21.880  1.00  0.00    -0.024 N 
HETATM   18  O9  UNL     1      -6.645 -33.246  20.635  1.00  0.00    -0.516 OA
HETATM   19  O10 UNL     1      -6.478 -31.974  22.475  1.00  0.00    -0.516 OA
ENDBRANCH  12  17
ENDBRANCH   1   9
BRANCH   8  20
HETATM   20  O6  UNL     1      -3.406 -38.863  20.963  1.00  0.00    -0.361 OA
ATOM     21  H6  UNL     1      -2.487 -38.972  20.747  1.00  0.00     0.212 HD
ENDBRANCH   8  20
BRANCH   8  22
HETATM   22  C12 UNL     1      -4.385 -38.417  23.028  1.00  0.00     0.272 C 
BRANCH  22  23
HETATM   23  O7  UNL     1      -5.344 -39.176  22.333  1.00  0.00    -0.382 OA
ATOM     24  H7  UNL     1      -5.568 -38.670  21.561  1.00  0.00     0.210 HD
ENDBRANCH  22  23
BRANCH  22  25
HETATM   25  C13 UNL     1      -3.513 -39.328  23.816  1.00  0.00     0.264 C 
HETATM   26  N4  UNL     1      -3.138 -38.964  25.137  1.00  0.00    -0.060 NA
HETATM   27  O8  UNL     1      -3.099 -40.424  23.348  1.00  0.00    -0.274 OA
ENDBRANCH  22  25
ENDBRANCH   8  22
BRANCH   3  28
HETATM   28  O1  UNL     1      -1.113 -34.966  19.293  1.00  0.00    -0.291 OA
BRANCH  28  29
HETATM   29  C6  UNL     1      -0.863 -33.602  19.559  1.00  0.00     0.259 C 
HETATM   30  C7  UNL     1       0.424 -33.106  19.945  1.00  0.00     0.126 C 
HETATM   31  O2  UNL     1      -1.873 -32.797  19.450  1.00  0.00    -0.265 OA
ENDBRANCH  28  29
ENDBRANCH   3  28
BRANCH   4  32
HETATM   32  C9  UNL     1      -0.294 -36.010  21.965  1.00  0.00     0.220 C 
BRANCH  32  33
HETATM   33  O3  UNL     1       0.272 -35.095  22.879  1.00  0.00    -0.397 OA
ATOM     34  H3  UNL     1       0.911 -34.507  22.493  1.00  0.00     0.209 HD
ENDBRANCH  32  33
ENDBRANCH   4  32
BRANCH   4  35
HETATM   35  C10 UNL     1      -2.150 -35.537  23.397  1.00  0.00     0.218 C 
HETATM   36  O4  UNL     1      -2.173 -35.832  24.534  1.00  0.00    -0.646 OA
HETATM   37  O5  UNL     1      -2.593 -34.160  23.148  1.00  0.00    -0.646 OA
ENDBRANCH   4  35
TORSDOF 11
ENDMDL
MODEL 5
REMARK VINA RESULT: -7.113766773      2.307      5.437
REMARK  11 active torsions:
REMARK  status: ('A' for Active; 'I' for Inactive)
REMARK       I    between atoms: N1_2  and  C2_4 
REMARK       I    between atoms: C2_4  and  N5_33 
REMARK    1  A    between atoms: N2_5  and  C3_7 
REMARK    2  A    between atoms: C5_9  and  O1_10 
REMARK    3  A    between atoms: O1_10  and  C6_11 
REMARK    4  A    between atoms: C8_14  and  C9_15 
REMARK    5  A    between atoms: C8_14  and  C10_18 
REMARK    6  A    between atoms: C9_15  and  O3_16 
REMARK    7  A    between atoms: C11_24  and  O6_25 
REMARK    8  A    between atoms: C11_24  and  C12_27 
REMARK    9  A    between atoms: C12_27  and  O7_28 
REMARK   10  A    between atoms: C12_27  and  C13_30 
REMARK   11  A    between atoms: N5_33  and  N6_35 
ROOT
HETATM    1  C3  UNL     1      -3.747 -36.003  22.099  1.00  0.00     0.200 C 
HETATM    2  C4  UNL     1      -2.454 -36.867  22.258  1.00  0.00     0.019 C 
HETATM    3  C5  UNL     1      -2.419 -37.796  23.124  1.00  0.00     0.154 C 
HETATM    4  C8  UNL     1      -1.501 -36.302  21.274  1.00  0.00     0.264 C 
HETATM    5  N3  UNL     1      -1.711 -34.870  21.578  1.00  0.00    -0.012 N 
ATOM      6  H31 UNL     1      -1.448 -34.262  20.802  1.00  0.00     0.283 HD
ATOM      7  H32 UNL     1      -1.045 -34.514  22.265  1.00  0.00     0.283 HD
HETATM    8  C11 UNL     1      -3.066 -34.686  21.984  1.00  0.00     0.285 C 
ENDROOT
BRANCH   1   9
HETATM    9  N2  UNL     1      -4.592 -36.537  21.183  1.00  0.00    -0.211 N 
HETATM   10  C2  UNL     1      -5.826 -36.386  20.916  1.00  0.00     0.693 C 
HETATM   11  N1  UNL     1      -6.704 -35.498  21.587  1.00  0.00    -0.229 N 
HETATM   12  N5  UNL     1      -6.425 -37.189  19.851  1.00  0.00    -0.072 N 
HETATM   13  C1  UNL     1      -7.816 -36.061  22.318  1.00  0.00     0.165 C 
ATOM     14  H1  UNL     1      -6.556 -34.489  21.554  1.00  0.00     0.177 HD
ATOM     15  H5  UNL     1      -6.782 -36.741  19.007  1.00  0.00     0.212 HD
ATOM     16  H2  UNL     1      -4.134 -37.213  20.571  1.00  0.00     0.178 HD
BRANCH  12  17
HETATM   17  N6  UNL     1      -6.506 -38.575  19.999  1.00  0.00    -0.024 N 
HETATM   18  O9  UNL     1      -6.162 -39.147  21.057  1.00  0.00    -0.516 OA
HETATM   19  O10 UNL     1      -7.009 -39.323  18.988  1.00  0.00    -0.516 OA
ENDBRANCH  12  17
ENDBRANCH   1   9
BRANCH   8  20
HETATM   20  O6  UNL     1      -2.982 -34.138  23.324  1.00  0.00    -0.361 OA
ATOM     21  H6  UNL     1      -2.093 -34.284  23.625  1.00  0.00     0.212 HD
ENDBRANCH   8  20
BRANCH   8  22
HETATM   22  C12 UNL     1      -3.776 -33.603  21.201  1.00  0.00     0.272 C 
BRANCH  22  23
HETATM   23  O7  UNL     1      -4.689 -33.015  22.095  1.00  0.00    -0.382 OA
ATOM     24  H7  UNL     1      -4.621 -32.077  21.960  1.00  0.00     0.210 HD
ENDBRANCH  22  23
BRANCH  22  25
HETATM   25  C13 UNL     1      -2.716 -32.616  20.861  1.00  0.00     0.264 C 
HETATM   26  N4  UNL     1      -2.270 -32.510  19.517  1.00  0.00    -0.060 NA
HETATM   27  O8  UNL     1      -2.204 -31.863  21.733  1.00  0.00    -0.274 OA
ENDBRANCH  22  25
ENDBRANCH   8  22
BRANCH   3  28
HETATM   28  O1  UNL     1      -1.359 -38.675  23.436  1.00  0.00    -0.291 OA
BRANCH  28  29
HETATM   29  C6  UNL     1      -0.742 -38.528  24.698  1.00  0.00     0.259 C 
HETATM   30  C7  UNL     1       0.632 -38.153  24.856  1.00  0.00     0.126 C 
HETATM   31  O2  UNL     1      -1.483 -38.766  25.735  1.00  0.00    -0.265 OA
ENDBRANCH  28  29
ENDBRANCH   3  28
BRANCH   4  32
HETATM   32  C9  UNL     1      -0.136 -36.822  21.445  1.00  0.00     0.220 C 
BRANCH  32  33
HETATM   33  O3  UNL     1       0.523 -37.116  20.232  1.00  0.00    -0.397 OA
ATOM     34  H3  UNL     1       1.467 -37.194  20.313  1.00  0.00     0.209 HD
ENDBRANCH  32  33
ENDBRANCH   4  32
BRANCH   4  35
HETATM   35  C10 UNL     1      -1.869 -36.421  19.844  1.00  0.00     0.218 C 
HETATM   36  O4  UNL     1      -1.702 -35.729  18.910  1.00  0.00    -0.646 OA
HETATM   37  O5  UNL     1      -2.545 -37.682  19.515  1.00  0.00    -0.646 OA
ENDBRANCH   4  35
TORSDOF 11
ENDMDL
