MODEL 1
REMARK VINA RESULT: -3.231183373      0.000      0.000
REMARK  1 active torsions:
REMARK  status: ('A' for Active; 'I' for Inactive)
REMARK    1  A    between atoms: O1_1  and  N1_3 
ROOT
HETATM    1  N1  UNL     1     -27.828  10.522 -16.725  1.00  0.00    -0.200 NA
HETATM    2  C1  UNL     1     -28.209   9.880 -15.501  1.00  0.00     0.120 C 
HETATM    3  C2  UNL     1     -29.720   9.637 -15.594  1.00  0.00     0.018 C 
HETATM    4  C3  UNL     1     -30.125  10.846 -16.438  1.00  0.00     0.018 C 
HETATM    5  C4  UNL     1     -29.001  10.814 -17.481  1.00  0.00     0.120 C 
ENDROOT
BRANCH   1   6
HETATM    6  O1  UNL     1     -27.026   9.686 -17.418  1.00  0.00    -0.313 OA
ATOM      7  H1  UNL     1     -27.566   9.149 -17.985  1.00  0.00     0.237 HD
ENDBRANCH   1   6
TORSDOF 1
ENDMDL
MODEL 2
REMARK VINA RESULT: -3.171274194      1.143      1.626
REMARK  1 active torsions:
REMARK  status: ('A' for Active; 'I' for Inactive)
REMARK    1  A    between atoms: O1_1  and  N1_3 
ROOT
HETATM    1  N1  UNL     1     -27.775  10.642 -16.921  1.00  0.00    -0.200 NA
HETATM    2  C1  UNL     1     -29.083  10.055 -16.876  1.00  0.00     0.120 C 
HETATM    3  C2  UNL     1     -29.965  10.896 -17.807  1.00  0.00     0.018 C 
HETATM    4  C3  UNL     1     -29.305  12.263 -17.622  1.00  0.00     0.018 C 
HETATM    5  C4  UNL     1     -27.831  11.844 -17.684  1.00  0.00     0.120 C 
ENDROOT
BRANCH   1   6
HETATM    6  O1  UNL     1     -26.929   9.763 -17.501  1.00  0.00    -0.313 OA
ATOM      7  H1  UNL     1     -27.387   9.322 -18.207  1.00  0.00     0.237 HD
ENDBRANCH   1   6
TORSDOF 1
ENDMDL
MODEL 3
REMARK VINA RESULT: -3.123960725      1.001      1.001
REMARK  1 active torsions:
REMARK  status: ('A' for Active; 'I' for Inactive)
REMARK    1  A    between atoms: O1_1  and  N1_3 
ROOT
HETATM    1  N1  UNL     1     -27.602  10.326 -16.054  1.00  0.00    -0.200 NA
HETATM    2  C1  UNL     1     -28.303   9.406 -15.207  1.00  0.00     0.120 C 
HETATM    3  C2  UNL     1     -29.726   9.957 -15.056  1.00  0.00     0.018 C 
HETATM    4  C3  UNL     1     -29.432  11.455 -15.140  1.00  0.00     0.018 C 
HETATM    5  C4  UNL     1     -28.436  11.453 -16.306  1.00  0.00     0.120 C 
ENDROOT
BRANCH   1   6
HETATM    6  O1  UNL     1     -27.302   9.701 -17.213  1.00  0.00    -0.313 OA
ATOM      7  H1  UNL     1     -26.999  10.350 -17.837  1.00  0.00     0.237 HD
ENDBRANCH   1   6
TORSDOF 1
ENDMDL
MODEL 4
REMARK VINA RESULT: -3.101931879      1.136      1.925
REMARK  1 active torsions:
REMARK  status: ('A' for Active; 'I' for Inactive)
REMARK    1  A    between atoms: O1_1  and  N1_3 
ROOT
HETATM    1  N1  UNL     1     -28.160  10.047 -17.002  1.00  0.00    -0.200 NA
HETATM    2  C1  UNL     1     -28.432  11.421 -17.309  1.00  0.00     0.120 C 
HETATM    3  C2  UNL     1     -28.498  12.159 -15.967  1.00  0.00     0.018 C 
HETATM    4  C3  UNL     1     -29.054  11.041 -15.085  1.00  0.00     0.018 C 
HETATM    5  C4  UNL     1     -28.199   9.871 -15.588  1.00  0.00     0.120 C 
ENDROOT
BRANCH   1   6
HETATM    6  O1  UNL     1     -26.934   9.735 -17.475  1.00  0.00    -0.313 OA
ATOM      7  H1  UNL     1     -26.942   8.831 -17.763  1.00  0.00     0.237 HD
ENDBRANCH   1   6
TORSDOF 1
ENDMDL
MODEL 5
REMARK VINA RESULT: -2.955084733      1.035      1.035
REMARK  1 active torsions:
REMARK  status: ('A' for Active; 'I' for Inactive)
REMARK    1  A    between atoms: O1_1  and  N1_3 
ROOT
HETATM    1  N1  UNL     1     -28.396  10.350 -15.939  1.00  0.00    -0.200 NA
HETATM    2  C1  UNL     1     -29.070   9.848 -14.778  1.00  0.00     0.120 C 
HETATM    3  C2  UNL     1     -30.336   9.146 -15.283  1.00  0.00     0.018 C 
HETATM    4  C3  UNL     1     -30.636  10.006 -16.511  1.00  0.00     0.018 C 
HETATM    5  C4  UNL     1     -29.218  10.135 -17.083  1.00  0.00     0.120 C 
ENDROOT
BRANCH   1   6
HETATM    6  O1  UNL     1     -27.226   9.688 -16.077  1.00  0.00    -0.313 OA
ATOM      7  H1  UNL     1     -26.723   9.794 -15.279  1.00  0.00     0.237 HD
ENDBRANCH   1   6
TORSDOF 1
ENDMDL
