MODEL 1
REMARK VINA RESULT: -4.803878486      0.000      0.000
REMARK  6 active torsions:
REMARK  status: ('A' for Active; 'I' for Inactive)
REMARK    1  A    between atoms: C2_2  and  C3_3 
REMARK    2  A    between atoms: C5_5  and  N1_6 
REMARK    3  A    between atoms: N1_6  and  C6_8 
REMARK    4  A    between atoms: C6_8  and  O1_9 
REMARK    5  A    between atoms: N2_11  and  N3_13 
REMARK    6  A    between atoms: C7_18  and  N5_19 
ROOT
HETATM    1  C3  UNL     1     -22.571  61.501  46.118  1.00  0.00     0.052 A 
HETATM    2  C4  UNL     1     -22.661  62.468  45.106  1.00  0.00     0.079 A 
HETATM    3  C5  UNL     1     -23.855  62.703  44.465  1.00  0.00     0.126 A 
HETATM    4  N4  UNL     1     -24.969  62.025  44.778  1.00  0.00    -0.177 N 
ATOM      5  H4  UNL     1     -25.849  62.208  44.297  1.00  0.00     0.185 HD
HETATM    6  C7  UNL     1     -24.888  61.099  45.745  1.00  0.00     0.677 A 
HETATM    7  N6  UNL     1     -23.714  60.860  46.383  1.00  0.00    -0.192 N 
ATOM      8  H6  UNL     1     -23.704  60.147  47.112  1.00  0.00     0.184 HD
ENDROOT
BRANCH   3   9
HETATM    9  N1  UNL     1     -23.935  63.589  43.539  1.00  0.00    -0.307 N 
ATOM     10  H1  UNL     1     -23.638  64.544  43.741  1.00  0.00     0.171 HD
BRANCH   9  11
HETATM   11  C6  UNL     1     -24.421  63.280  42.246  1.00  0.00     0.237 C 
HETATM   12  N2  UNL     1     -23.571  62.996  41.329  1.00  0.00    -0.272 N 
ATOM     13  H2  UNL     1     -22.584  63.009  41.585  1.00  0.00     0.190 HD
BRANCH  11  14
HETATM   14  O1  UNL     1     -25.769  63.268  41.921  1.00  0.00    -0.331 OA
ATOM     15  H1  UNL     1     -26.313  64.047  41.917  1.00  0.00     0.221 HD
ENDBRANCH  11  14
BRANCH  12  16
HETATM   16  N3  UNL     1     -23.880  62.676  40.032  1.00  0.00    -0.342 N 
ATOM     17  H32 UNL     1     -24.451  61.842  39.897  1.00  0.00     0.176 HD
ATOM     18  H31 UNL     1     -23.587  63.202  39.209  1.00  0.00     0.176 HD
ENDBRANCH  12  16
ENDBRANCH   9  11
ENDBRANCH   3   9
BRANCH   1  19
HETATM   19  C2  UNL     1     -21.308  61.255  46.792  1.00  0.00     0.020 C 
HETATM   20  C1  UNL     1     -20.655  60.135  46.716  1.00  0.00     0.013 C 
ENDBRANCH   1  19
BRANCH   6  21
HETATM   21  N5  UNL     1     -25.948  60.440  46.058  1.00  0.00    -0.234 N 
ATOM     22  H52 UNL     1     -26.790  60.513  45.488  1.00  0.00     0.174 HD
ATOM     23  H51 UNL     1     -25.926  59.843  46.886  1.00  0.00     0.174 HD
ENDBRANCH   6  21
TORSDOF 6
ENDMDL
MODEL 2
REMARK VINA RESULT: -4.347771217      2.586      5.539
REMARK  6 active torsions:
REMARK  status: ('A' for Active; 'I' for Inactive)
REMARK    1  A    between atoms: C2_2  and  C3_3 
REMARK    2  A    between atoms: C5_5  and  N1_6 
REMARK    3  A    between atoms: N1_6  and  C6_8 
REMARK    4  A    between atoms: C6_8  and  O1_9 
REMARK    5  A    between atoms: N2_11  and  N3_13 
REMARK    6  A    between atoms: C7_18  and  N5_19 
ROOT
HETATM    1  C3  UNL     1     -23.842  62.743  39.943  1.00  0.00     0.052 A 
HETATM    2  C4  UNL     1     -23.606  62.922  41.315  1.00  0.00     0.079 A 
HETATM    3  C5  UNL     1     -24.625  63.297  42.158  1.00  0.00     0.126 A 
HETATM    4  N4  UNL     1     -25.872  63.504  41.709  1.00  0.00    -0.177 N 
ATOM      5  H4  UNL     1     -26.620  63.782  42.344  1.00  0.00     0.185 HD
HETATM    6  C7  UNL     1     -26.103  63.334  40.400  1.00  0.00     0.677 A 
HETATM    7  N6  UNL     1     -25.103  62.964  39.559  1.00  0.00    -0.192 N 
ATOM      8  H6  UNL     1     -25.329  62.846  38.572  1.00  0.00     0.184 HD
ENDROOT
BRANCH   3   9
HETATM    9  N1  UNL     1     -24.406  63.461  43.413  1.00  0.00    -0.307 N 
ATOM     10  H1  UNL     1     -25.032  64.060  43.951  1.00  0.00     0.171 HD
BRANCH   9  11
HETATM   11  C6  UNL     1     -23.321  62.834  44.072  1.00  0.00     0.237 C 
HETATM   12  N2  UNL     1     -23.517  61.684  44.605  1.00  0.00    -0.272 N 
ATOM     13  H2  UNL     1     -24.451  61.283  44.523  1.00  0.00     0.190 HD
BRANCH  11  14
HETATM   14  O1  UNL     1     -22.059  63.399  44.171  1.00  0.00    -0.331 OA
ATOM     15  H1  UNL     1     -21.495  63.291  44.928  1.00  0.00     0.221 HD
ENDBRANCH  11  14
BRANCH  12  16
HETATM   16  N3  UNL     1     -22.573  60.950  45.276  1.00  0.00    -0.342 N 
ATOM     17  H32 UNL     1     -21.824  61.478  45.723  1.00  0.00     0.176 HD
ATOM     18  H31 UNL     1     -22.566  59.934  45.358  1.00  0.00     0.176 HD
ENDBRANCH  12  16
ENDBRANCH   9  11
ENDBRANCH   3   9
BRANCH   1  19
HETATM   19  C2  UNL     1     -22.763  62.347  39.055  1.00  0.00     0.020 C 
HETATM   20  C1  UNL     1     -22.309  63.093  38.093  1.00  0.00     0.013 C 
ENDBRANCH   1  19
BRANCH   6  21
HETATM   21  N5  UNL     1     -27.294  63.528  39.952  1.00  0.00    -0.234 N 
ATOM     22  H52 UNL     1     -27.688  62.908  39.245  1.00  0.00     0.174 HD
ATOM     23  H51 UNL     1     -27.833  64.312  40.320  1.00  0.00     0.174 HD
ENDBRANCH   6  21
TORSDOF 6
ENDMDL
MODEL 3
REMARK VINA RESULT: -4.130429853      1.407      1.572
REMARK  6 active torsions:
REMARK  status: ('A' for Active; 'I' for Inactive)
REMARK    1  A    between atoms: C2_2  and  C3_3 
REMARK    2  A    between atoms: C5_5  and  N1_6 
REMARK    3  A    between atoms: N1_6  and  C6_8 
REMARK    4  A    between atoms: C6_8  and  O1_9 
REMARK    5  A    between atoms: N2_11  and  N3_13 
REMARK    6  A    between atoms: C7_18  and  N5_19 
ROOT
HETATM    1  C3  UNL     1     -22.813  62.631  45.380  1.00  0.00     0.052 A 
HETATM    2  C4  UNL     1     -23.332  63.273  44.245  1.00  0.00     0.079 A 
HETATM    3  C5  UNL     1     -24.591  62.966  43.782  1.00  0.00     0.126 A 
HETATM    4  N4  UNL     1     -25.362  62.052  44.389  1.00  0.00    -0.177 N 
ATOM      5  H4  UNL     1     -26.294  61.833  44.037  1.00  0.00     0.185 HD
HETATM    6  C7  UNL     1     -24.870  61.437  45.473  1.00  0.00     0.677 A 
HETATM    7  N6  UNL     1     -23.629  61.733  45.938  1.00  0.00    -0.192 N 
ATOM      8  H6  UNL     1     -23.300  61.238  46.767  1.00  0.00     0.184 HD
ENDROOT
BRANCH   3   9
HETATM    9  N1  UNL     1     -25.064  63.554  42.743  1.00  0.00    -0.307 N 
ATOM     10  H1  UNL     1     -26.035  63.866  42.751  1.00  0.00     0.171 HD
BRANCH   9  11
HETATM   11  C6  UNL     1     -24.279  63.783  41.588  1.00  0.00     0.237 C 
HETATM   12  N2  UNL     1     -23.543  62.826  41.156  1.00  0.00    -0.272 N 
ATOM     13  H2  UNL     1     -23.565  61.947  41.673  1.00  0.00     0.190 HD
BRANCH  11  14
HETATM   14  O1  UNL     1     -24.265  64.986  40.900  1.00  0.00    -0.331 OA
ATOM     15  H1  UNL     1     -25.044  65.384  40.527  1.00  0.00     0.221 HD
ENDBRANCH  11  14
BRANCH  12  16
HETATM   16  N3  UNL     1     -22.728  62.887  40.054  1.00  0.00    -0.342 N 
ATOM     17  H32 UNL     1     -21.862  63.414  40.162  1.00  0.00     0.176 HD
ATOM     18  H31 UNL     1     -22.922  62.452  39.153  1.00  0.00     0.176 HD
ENDBRANCH  12  16
ENDBRANCH   9  11
ENDBRANCH   3   9
BRANCH   1  19
HETATM   19  C2  UNL     1     -21.483  62.958  45.866  1.00  0.00     0.020 C 
HETATM   20  C1  UNL     1     -21.249  63.841  46.790  1.00  0.00     0.013 C 
ENDBRANCH   1  19
BRANCH   6  21
HETATM   21  N5  UNL     1     -25.597  60.558  46.068  1.00  0.00    -0.234 N 
ATOM     22  H52 UNL     1     -25.166  59.824  46.630  1.00  0.00     0.174 HD
ATOM     23  H51 UNL     1     -26.611  60.611  45.966  1.00  0.00     0.174 HD
ENDBRANCH   6  21
TORSDOF 6
ENDMDL
MODEL 4
REMARK VINA RESULT: -3.907871006      1.678      2.167
REMARK  6 active torsions:
REMARK  status: ('A' for Active; 'I' for Inactive)
REMARK    1  A    between atoms: C2_2  and  C3_3 
REMARK    2  A    between atoms: C5_5  and  N1_6 
REMARK    3  A    between atoms: N1_6  and  C6_8 
REMARK    4  A    between atoms: C6_8  and  O1_9 
REMARK    5  A    between atoms: N2_11  and  N3_13 
REMARK    6  A    between atoms: C7_18  and  N5_19 
ROOT
HETATM    1  C3  UNL     1     -23.111  62.785  45.217  1.00  0.00     0.052 A 
HETATM    2  C4  UNL     1     -22.762  62.761  43.858  1.00  0.00     0.079 A 
HETATM    3  C5  UNL     1     -23.664  63.149  42.895  1.00  0.00     0.126 A 
HETATM    4  N4  UNL     1     -24.900  63.563  43.213  1.00  0.00    -0.177 N 
ATOM      5  H4  UNL     1     -25.561  63.849  42.491  1.00  0.00     0.185 HD
HETATM    6  C7  UNL     1     -25.238  63.589  44.510  1.00  0.00     0.677 A 
HETATM    7  N6  UNL     1     -24.355  63.207  45.467  1.00  0.00    -0.192 N 
ATOM      8  H6  UNL     1     -24.659  63.245  46.440  1.00  0.00     0.184 HD
ENDROOT
BRANCH   3   9
HETATM    9  N1  UNL     1     -23.342  63.126  41.652  1.00  0.00    -0.307 N 
ATOM     10  H1  UNL     1     -22.380  62.905  41.395  1.00  0.00     0.171 HD
BRANCH   9  11
HETATM   11  C6  UNL     1     -24.283  63.396  40.629  1.00  0.00     0.237 C 
HETATM   12  N2  UNL     1     -24.734  62.411  39.944  1.00  0.00    -0.272 N 
ATOM     13  H2  UNL     1     -24.388  61.480  40.177  1.00  0.00     0.190 HD
BRANCH  11  14
HETATM   14  O1  UNL     1     -24.740  64.670  40.331  1.00  0.00    -0.331 OA
ATOM     15  H1  UNL     1     -25.657  64.916  40.360  1.00  0.00     0.221 HD
ENDBRANCH  11  14
BRANCH  12  16
HETATM   16  N3  UNL     1     -25.646  62.506  38.924  1.00  0.00    -0.342 N 
ATOM     17  H32 UNL     1     -26.391  63.191  39.047  1.00  0.00     0.176 HD
ATOM     18  H31 UNL     1     -25.633  61.951  38.069  1.00  0.00     0.176 HD
ENDBRANCH  12  16
ENDBRANCH   9  11
ENDBRANCH   3   9
BRANCH   1  19
HETATM   19  C2  UNL     1     -22.156  62.374  46.230  1.00  0.00     0.020 C 
HETATM   20  C1  UNL     1     -21.762  61.147  46.397  1.00  0.00     0.013 C 
ENDBRANCH   1  19
BRANCH   6  21
HETATM   21  N5  UNL     1     -26.420  63.983  44.832  1.00  0.00    -0.234 N 
ATOM     22  H52 UNL     1     -27.204  63.842  44.196  1.00  0.00     0.174 HD
ATOM     23  H51 UNL     1     -26.554  64.438  45.736  1.00  0.00     0.174 HD
ENDBRANCH   6  21
TORSDOF 6
ENDMDL
MODEL 5
REMARK VINA RESULT: -3.512291203      2.482      6.111
REMARK  6 active torsions:
REMARK  status: ('A' for Active; 'I' for Inactive)
REMARK    1  A    between atoms: C2_2  and  C3_3 
REMARK    2  A    between atoms: C5_5  and  N1_6 
REMARK    3  A    between atoms: N1_6  and  C6_8 
REMARK    4  A    between atoms: C6_8  and  O1_9 
REMARK    5  A    between atoms: N2_11  and  N3_13 
REMARK    6  A    between atoms: C7_18  and  N5_19 
ROOT
HETATM    1  C3  UNL     1     -25.289  63.550  40.044  1.00  0.00     0.052 A 
HETATM    2  C4  UNL     1     -25.291  63.559  41.447  1.00  0.00     0.079 A 
HETATM    3  C5  UNL     1     -24.143  63.280  42.151  1.00  0.00     0.126 A 
HETATM    4  N4  UNL     1     -22.989  62.992  41.533  1.00  0.00    -0.177 N 
ATOM      5  H4  UNL     1     -22.143  62.787  42.065  1.00  0.00     0.185 HD
HETATM    6  C7  UNL     1     -22.981  62.982  40.192  1.00  0.00     0.677 A 
HETATM    7  N6  UNL     1     -24.109  63.256  39.488  1.00  0.00    -0.192 N 
ATOM      8  H6  UNL     1     -24.052  63.237  38.470  1.00  0.00     0.184 HD
ENDROOT
BRANCH   3   9
HETATM    9  N1  UNL     1     -24.148  63.288  43.435  1.00  0.00    -0.307 N 
ATOM     10  H1  UNL     1     -24.955  63.677  43.925  1.00  0.00     0.171 HD
BRANCH   9  11
HETATM   11  C6  UNL     1     -23.068  62.775  44.193  1.00  0.00     0.237 C 
HETATM   12  N2  UNL     1     -23.219  61.641  44.773  1.00  0.00    -0.272 N 
ATOM     13  H2  UNL     1     -24.116  61.170  44.656  1.00  0.00     0.190 HD
BRANCH  11  14
HETATM   14  O1  UNL     1     -21.857  63.432  44.337  1.00  0.00    -0.331 OA
ATOM     15  H1  UNL     1     -21.760  64.251  44.809  1.00  0.00     0.221 HD
ENDBRANCH  11  14
BRANCH  12  16
HETATM   16  N3  UNL     1     -22.272  61.010  45.539  1.00  0.00    -0.342 N 
ATOM     17  H32 UNL     1     -22.369  61.111  46.549  1.00  0.00     0.176 HD
ATOM     18  H31 UNL     1     -21.495  60.458  45.178  1.00  0.00     0.176 HD
ENDBRANCH  12  16
ENDBRANCH   9  11
ENDBRANCH   3   9
BRANCH   1  19
HETATM   19  C2  UNL     1     -26.503  63.845  39.303  1.00  0.00     0.020 C 
HETATM   20  C1  UNL     1     -27.696  63.559  39.729  1.00  0.00     0.013 C 
ENDBRANCH   1  19
BRANCH   6  21
HETATM   21  N5  UNL     1     -21.882  62.708  39.583  1.00  0.00    -0.234 N 
ATOM     22  H52 UNL     1     -21.751  62.972  38.606  1.00  0.00     0.174 HD
ATOM     23  H51 UNL     1     -21.145  62.224  40.096  1.00  0.00     0.174 HD
ENDBRANCH   6  21
TORSDOF 6
ENDMDL
