MODEL 1
REMARK VINA RESULT: -6.714067046      0.000      0.000
REMARK  1 active torsions:
REMARK  status: ('A' for Active; 'I' for Inactive)
REMARK    1  A    between atoms: C3_11  and  N5_12 
ROOT
HETATM    1  N1  UNL     1      18.773  -8.997 -22.745  1.00  0.00    -0.235 N 
ATOM      2  H11 UNL     1      19.165  -8.094 -22.477  1.00  0.00     0.174 HD
ATOM      3  H12 UNL     1      18.214  -9.555 -22.101  1.00  0.00     0.174 HD
HETATM    4  C1  UNL     1      19.030  -9.387 -23.951  1.00  0.00     0.677 A 
HETATM    5  N2  UNL     1      18.480 -10.653 -24.328  1.00  0.00    -0.164 N 
ATOM      6  H2  UNL     1      17.926 -11.186 -23.659  1.00  0.00     0.187 HD
HETATM    7  C2  UNL     1      18.685 -11.124 -25.515  1.00  0.00     0.205 A 
HETATM    8  N3  UNL     1      18.159 -12.371 -25.930  1.00  0.00    -0.063 NA
HETATM    9  N4  UNL     1      19.451 -10.369 -26.416  1.00  0.00    -0.318 N 
ATOM     10  H4  UNL     1      19.540 -10.736 -27.363  1.00  0.00     0.166 HD
HETATM   11  C3  UNL     1      20.127  -9.122 -26.131  1.00  0.00     0.444 A 
HETATM   12  N6  UNL     1      19.808  -8.611 -24.846  1.00  0.00    -0.177 N 
ATOM     13  H6  UNL     1      20.137  -7.687 -24.567  1.00  0.00     0.181 HD
ENDROOT
BRANCH  11  14
HETATM   14  N5  UNL     1      19.886  -8.224 -27.222  1.00  0.00     0.135 N 
HETATM   15  C4  UNL     1      19.648  -6.872 -26.848  1.00  0.00     0.303 C 
HETATM   16  C5  UNL     1      18.842  -6.250 -27.995  1.00  0.00     0.198 C 
HETATM   17  O1  UNL     1      19.230  -6.738 -29.216  1.00  0.00    -0.388 OA
HETATM   18  C6  UNL     1      20.532  -7.194 -29.270  1.00  0.00     0.198 C 
HETATM   19  C7  UNL     1      20.819  -8.305 -28.290  1.00  0.00     0.303 C 
ENDBRANCH  11  14
TORSDOF 1
ENDMDL
MODEL 2
REMARK VINA RESULT: -6.670759836      2.521      3.231
REMARK  1 active torsions:
REMARK  status: ('A' for Active; 'I' for Inactive)
REMARK    1  A    between atoms: C3_11  and  N5_12 
ROOT
HETATM    1  N1  UNL     1      16.200  -8.366 -23.784  1.00  0.00    -0.235 N 
ATOM      2  H11 UNL     1      16.297  -7.558 -23.168  1.00  0.00     0.174 HD
ATOM      3  H12 UNL     1      15.296  -8.653 -24.159  1.00  0.00     0.174 HD
HETATM    4  C1  UNL     1      17.292  -9.002 -24.057  1.00  0.00     0.677 A 
HETATM    5  N2  UNL     1      17.156 -10.134 -24.921  1.00  0.00    -0.164 N 
ATOM      6  H2  UNL     1      16.237 -10.394 -25.278  1.00  0.00     0.187 HD
HETATM    7  C2  UNL     1      18.195 -10.830 -25.250  1.00  0.00     0.205 A 
HETATM    8  N3  UNL     1      18.107 -11.958 -26.102  1.00  0.00    -0.063 NA
HETATM    9  N4  UNL     1      19.447 -10.451 -24.745  1.00  0.00    -0.318 N 
ATOM     10  H4  UNL     1      20.256 -10.979 -25.073  1.00  0.00     0.166 HD
HETATM   11  C3  UNL     1      19.703  -9.383 -23.803  1.00  0.00     0.444 A 
HETATM   12  N6  UNL     1      18.548  -8.603 -23.536  1.00  0.00    -0.177 N 
ATOM     13  H6  UNL     1      18.621  -7.758 -22.970  1.00  0.00     0.181 HD
ENDROOT
BRANCH  11  14
HETATM   14  N5  UNL     1      20.844  -8.646 -24.262  1.00  0.00     0.135 N 
HETATM   15  C4  UNL     1      22.085  -9.337 -24.173  1.00  0.00     0.303 C 
HETATM   16  C5  UNL     1      23.169  -8.254 -24.105  1.00  0.00     0.198 C 
HETATM   17  O1  UNL     1      22.856  -7.167 -24.879  1.00  0.00    -0.388 OA
HETATM   18  C6  UNL     1      22.019  -7.435 -25.944  1.00  0.00     0.198 C 
HETATM   19  C7  UNL     1      20.692  -8.023 -25.529  1.00  0.00     0.303 C 
ENDBRANCH  11  14
TORSDOF 1
ENDMDL
MODEL 3
REMARK VINA RESULT: -6.622214169      0.689      1.390
REMARK  1 active torsions:
REMARK  status: ('A' for Active; 'I' for Inactive)
REMARK    1  A    between atoms: C3_11  and  N5_12 
ROOT
HETATM    1  N1  UNL     1      19.289  -9.321 -22.499  1.00  0.00    -0.235 N 
ATOM      2  H11 UNL     1      19.836  -8.556 -22.104  1.00  0.00     0.174 HD
ATOM      3  H12 UNL     1      18.656  -9.882 -21.929  1.00  0.00     0.174 HD
HETATM    4  C1  UNL     1      19.447  -9.534 -23.764  1.00  0.00     0.677 A 
HETATM    5  N2  UNL     1      18.678 -10.606 -24.318  1.00  0.00    -0.164 N 
ATOM      6  H2  UNL     1      18.056 -11.148 -23.720  1.00  0.00     0.187 HD
HETATM    7  C2  UNL     1      18.772 -10.891 -25.576  1.00  0.00     0.205 A 
HETATM    8  N3  UNL     1      18.030 -11.943 -26.167  1.00  0.00    -0.063 NA
HETATM    9  N4  UNL     1      19.635 -10.129 -26.377  1.00  0.00    -0.318 N 
ATOM     10  H4  UNL     1      19.638 -10.335 -27.376  1.00  0.00     0.166 HD
HETATM   11  C3  UNL     1      20.522  -9.080 -25.924  1.00  0.00     0.444 A 
HETATM   12  N6  UNL     1      20.325  -8.753 -24.556  1.00  0.00    -0.177 N 
ATOM     13  H6  UNL     1      20.816  -7.959 -24.144  1.00  0.00     0.181 HD
ENDROOT
BRANCH  11  14
HETATM   14  N5  UNL     1      20.415  -7.979 -26.835  1.00  0.00     0.135 N 
HETATM   15  C4  UNL     1      20.906  -8.231 -28.147  1.00  0.00     0.303 C 
HETATM   16  C5  UNL     1      21.271  -6.861 -28.733  1.00  0.00     0.198 C 
HETATM   17  O1  UNL     1      20.403  -5.883 -28.325  1.00  0.00    -0.388 OA
HETATM   18  C6  UNL     1      19.141  -6.330 -27.990  1.00  0.00     0.198 C 
HETATM   19  C7  UNL     1      19.144  -7.347 -26.875  1.00  0.00     0.303 C 
ENDBRANCH  11  14
TORSDOF 1
ENDMDL
MODEL 4
REMARK VINA RESULT: -6.595796818      1.346      1.891
REMARK  1 active torsions:
REMARK  status: ('A' for Active; 'I' for Inactive)
REMARK    1  A    between atoms: C3_11  and  N5_12 
ROOT
HETATM    1  N1  UNL     1      19.517  -9.557 -22.588  1.00  0.00    -0.235 N 
ATOM      2  H11 UNL     1      19.884  -8.792 -22.021  1.00  0.00     0.174 HD
ATOM      3  H12 UNL     1      19.102 -10.388 -22.168  1.00  0.00     0.174 HD
HETATM    4  C1  UNL     1      19.611  -9.406 -23.868  1.00  0.00     0.677 A 
HETATM    5  N2  UNL     1      19.097 -10.478 -24.664  1.00  0.00    -0.164 N 
ATOM      6  H2  UNL     1      18.689 -11.296 -24.211  1.00  0.00     0.187 HD
HETATM    7  C2  UNL     1      19.147 -10.414 -25.954  1.00  0.00     0.205 A 
HETATM    8  N3  UNL     1      18.650 -11.452 -26.779  1.00  0.00    -0.063 NA
HETATM    9  N4  UNL     1      19.713  -9.277 -26.550  1.00  0.00    -0.318 N 
ATOM     10  H4  UNL     1      19.680  -9.227 -27.568  1.00  0.00     0.166 HD
HETATM   11  C3  UNL     1      20.339  -8.170 -25.861  1.00  0.00     0.444 A 
HETATM   12  N6  UNL     1      20.188  -8.250 -24.451  1.00  0.00    -0.177 N 
ATOM     13  H6  UNL     1      20.493  -7.477 -23.860  1.00  0.00     0.181 HD
ENDROOT
BRANCH  11  14
HETATM   14  N5  UNL     1      19.874  -6.952 -26.456  1.00  0.00     0.135 N 
HETATM   15  C4  UNL     1      19.336  -7.088 -27.766  1.00  0.00     0.303 C 
HETATM   16  C5  UNL     1      19.479  -5.712 -28.428  1.00  0.00     0.198 C 
HETATM   17  O1  UNL     1      19.289  -4.692 -27.534  1.00  0.00    -0.388 OA
HETATM   18  C6  UNL     1      18.494  -5.010 -26.451  1.00  0.00     0.198 C 
HETATM   19  C7  UNL     1      19.030  -6.160 -25.633  1.00  0.00     0.303 C 
ENDBRANCH  11  14
TORSDOF 1
ENDMDL
MODEL 5
REMARK VINA RESULT: -6.565483835      1.575      1.872
REMARK  1 active torsions:
REMARK  status: ('A' for Active; 'I' for Inactive)
REMARK    1  A    between atoms: C3_11  and  N5_12 
ROOT
HETATM    1  N1  UNL     1      19.535  -9.508 -22.604  1.00  0.00    -0.235 N 
ATOM      2  H11 UNL     1      19.833  -8.711 -22.042  1.00  0.00     0.174 HD
ATOM      3  H12 UNL     1      19.308 -10.409 -22.185  1.00  0.00     0.174 HD
HETATM    4  C1  UNL     1      19.466  -9.305 -23.879  1.00  0.00     0.677 A 
HETATM    5  N2  UNL     1      19.048 -10.423 -24.668  1.00  0.00    -0.164 N 
ATOM      6  H2  UNL     1      18.828 -11.310 -24.217  1.00  0.00     0.187 HD
HETATM    7  C2  UNL     1      18.949 -10.312 -25.953  1.00  0.00     0.205 A 
HETATM    8  N3  UNL     1      18.539 -11.392 -26.772  1.00  0.00    -0.063 NA
HETATM    9  N4  UNL     1      19.257  -9.080 -26.548  1.00  0.00    -0.318 N 
ATOM     10  H4  UNL     1      19.107  -9.004 -27.554  1.00  0.00     0.166 HD
HETATM   11  C3  UNL     1      19.767  -7.906 -25.874  1.00  0.00     0.444 A 
HETATM   12  N6  UNL     1      19.783  -8.052 -24.462  1.00  0.00    -0.177 N 
ATOM     13  H6  UNL     1      20.022  -7.258 -23.868  1.00  0.00     0.181 HD
ENDROOT
BRANCH  11  14
HETATM   14  N5  UNL     1      19.051  -6.764 -26.360  1.00  0.00     0.135 N 
HETATM   15  C4  UNL     1      19.232  -5.571 -25.605  1.00  0.00     0.303 C 
HETATM   16  C5  UNL     1      17.993  -4.708 -25.871  1.00  0.00     0.198 C 
HETATM   17  O1  UNL     1      17.547  -4.837 -27.161  1.00  0.00    -0.388 OA
HETATM   18  C6  UNL     1      18.516  -5.199 -28.075  1.00  0.00     0.198 C 
HETATM   19  C7  UNL     1      19.181  -6.515 -27.752  1.00  0.00     0.303 C 
ENDBRANCH  11  14
TORSDOF 1
ENDMDL
