MODEL 1
REMARK VINA RESULT: -6.503113474      0.000      0.000
REMARK  5 active torsions:
REMARK  status: ('A' for Active; 'I' for Inactive)
REMARK    1  A    between atoms: C2_2  and  N1_3 
REMARK    2  A    between atoms: C2_2  and  C10_18 
REMARK    3  A    between atoms: C10_18  and  C11_20 
REMARK    4  A    between atoms: C11_20  and  C12_22 
REMARK    5  A    between atoms: C12_22  and  C15_25 
ROOT
HETATM    1  N1  UNL     1      34.513  29.221  21.165  1.00  0.00    -0.374 N 
ATOM      2  H1  UNL     1      35.025  30.098  21.264  1.00  0.00     0.161 HD
HETATM    3  C3  UNL     1      35.185  28.214  20.790  1.00  0.00     0.074 C 
HETATM    4  C4  UNL     1      36.646  28.392  20.528  1.00  0.00     0.093 C 
HETATM    5  C5  UNL     1      37.309  27.110  21.042  1.00  0.00     0.079 C 
HETATM    6  S1  UNL     1      39.096  27.381  21.028  1.00  0.00    -0.152 SA
HETATM    7  C6  UNL     1      39.659  27.283  19.318  1.00  0.00     0.177 C 
HETATM    8  C7  UNL     1      38.746  26.361  18.596  1.00  0.00     0.227 C 
HETATM    9  O1  UNL     1      38.869  26.328  17.332  1.00  0.00    -0.273 OA
HETATM   10  N2  UNL     1      37.778  25.543  19.197  1.00  0.00    -0.353 N 
ATOM     11  H2  UNL     1      37.694  24.592  18.836  1.00  0.00     0.163 HD
HETATM   12  C8  UNL     1      36.894  25.903  20.270  1.00  0.00     0.116 C 
HETATM   13  C9  UNL     1      35.448  25.993  19.802  1.00  0.00     0.147 C 
HETATM   14  N3  UNL     1      34.667  26.904  20.590  1.00  0.00    -0.378 N 
ATOM     15  H3  UNL     1      33.772  26.622  20.993  1.00  0.00     0.160 HD
ENDROOT
BRANCH   1  16
HETATM   16  C2  UNL     1      33.116  29.263  21.465  1.00  0.00     0.100 C 
HETATM   17  C1  UNL     1      32.330  29.426  20.203  1.00  0.00     0.034 C 
BRANCH  16  18
HETATM   18  C10 UNL     1      32.887  30.464  22.416  1.00  0.00     0.150 C 
HETATM   19 BR1  UNL     1      33.262  32.057  21.295  1.00  0.00    -0.081 Br
BRANCH  18  20
HETATM   20  C11 UNL     1      33.924  30.447  23.432  1.00  0.00     0.151 C 
HETATM   21  O2  UNL     1      34.942  31.139  23.114  1.00  0.00    -0.296 OA
BRANCH  20  22
HETATM   22  C12 UNL     1      34.049  29.815  24.724  1.00  0.00     0.023 C 
HETATM   23  C13 UNL     1      34.862  30.706  25.662  1.00  0.00     0.024 C 
HETATM   24  C14 UNL     1      34.889  28.518  24.631  1.00  0.00     0.024 C 
BRANCH  22  25
HETATM   25  C15 UNL     1      32.756  29.425  25.346  1.00  0.00     0.101 C 
HETATM   26 BR2  UNL     1      32.528  30.268  27.046  1.00  0.00    -0.095 Br
ENDBRANCH  22  25
ENDBRANCH  20  22
ENDBRANCH  18  20
ENDBRANCH  16  18
ENDBRANCH   1  16
TORSDOF 5
ENDMDL
MODEL 2
REMARK VINA RESULT: -6.447773964      4.861      7.149
REMARK  5 active torsions:
REMARK  status: ('A' for Active; 'I' for Inactive)
REMARK    1  A    between atoms: C2_2  and  N1_3 
REMARK    2  A    between atoms: C2_2  and  C10_18 
REMARK    3  A    between atoms: C10_18  and  C11_20 
REMARK    4  A    between atoms: C11_20  and  C12_22 
REMARK    5  A    between atoms: C12_22  and  C15_25 
ROOT
HETATM    1  N1  UNL     1      35.064  28.969  26.584  1.00  0.00    -0.374 N 
ATOM      2  H1  UNL     1      34.124  28.589  26.700  1.00  0.00     0.161 HD
HETATM    3  C3  UNL     1      36.019  28.254  27.008  1.00  0.00     0.074 C 
HETATM    4  C4  UNL     1      35.697  26.934  27.633  1.00  0.00     0.093 C 
HETATM    5  C5  UNL     1      36.806  25.984  27.170  1.00  0.00     0.079 C 
HETATM    6  S1  UNL     1      36.317  24.310  27.645  1.00  0.00    -0.152 SA
HETATM    7  C6  UNL     1      36.571  24.139  29.421  1.00  0.00     0.177 C 
HETATM    8  C7  UNL     1      37.688  25.040  29.804  1.00  0.00     0.227 C 
HETATM    9  O1  UNL     1      37.874  25.202  31.051  1.00  0.00    -0.273 OA
HETATM   10  N2  UNL     1      38.534  25.709  28.907  1.00  0.00    -0.353 N 
ATOM     11  H2  UNL     1      39.527  25.727  29.141  1.00  0.00     0.163 HD
HETATM   12  C8  UNL     1      38.147  26.373  27.693  1.00  0.00     0.116 C 
HETATM   13  C9  UNL     1      38.302  27.884  27.804  1.00  0.00     0.147 C 
HETATM   14  N3  UNL     1      37.399  28.597  26.944  1.00  0.00    -0.378 N 
ATOM     15  H3  UNL     1      37.734  29.323  26.311  1.00  0.00     0.160 HD
ENDROOT
BRANCH   1  16
HETATM   16  C2  UNL     1      35.157  30.251  25.960  1.00  0.00     0.100 C 
HETATM   17  C1  UNL     1      35.474  31.294  26.984  1.00  0.00     0.034 C 
BRANCH  16  18
HETATM   18  C10 UNL     1      33.790  30.536  25.289  1.00  0.00     0.150 C 
HETATM   19 BR1  UNL     1      32.454  30.065  26.678  1.00  0.00    -0.081 Br
BRANCH  18  20
HETATM   20  C11 UNL     1      33.597  29.575  24.219  1.00  0.00     0.151 C 
HETATM   21  O2  UNL     1      32.903  28.569  24.573  1.00  0.00    -0.296 OA
BRANCH  20  22
HETATM   22  C12 UNL     1      34.021  29.513  22.840  1.00  0.00     0.023 C 
HETATM   23  C13 UNL     1      34.267  30.925  22.308  1.00  0.00     0.024 C 
HETATM   24  C14 UNL     1      32.890  28.971  21.932  1.00  0.00     0.024 C 
BRANCH  22  25
HETATM   25  C15 UNL     1      35.199  28.638  22.598  1.00  0.00     0.101 C 
HETATM   26 BR2  UNL     1      35.251  28.043  20.782  1.00  0.00    -0.095 Br
ENDBRANCH  22  25
ENDBRANCH  20  22
ENDBRANCH  18  20
ENDBRANCH  16  18
ENDBRANCH   1  16
TORSDOF 5
ENDMDL
MODEL 3
REMARK VINA RESULT: -6.323082932      4.328      5.901
REMARK  5 active torsions:
REMARK  status: ('A' for Active; 'I' for Inactive)
REMARK    1  A    between atoms: C2_2  and  N1_3 
REMARK    2  A    between atoms: C2_2  and  C10_18 
REMARK    3  A    between atoms: C10_18  and  C11_20 
REMARK    4  A    between atoms: C11_20  and  C12_22 
REMARK    5  A    between atoms: C12_22  and  C15_25 
ROOT
HETATM    1  N1  UNL     1      32.706  30.406  24.113  1.00  0.00    -0.374 N 
ATOM      2  H1  UNL     1      32.598  31.353  24.476  1.00  0.00     0.161 HD
HETATM    3  C3  UNL     1      32.611  30.268  22.857  1.00  0.00     0.074 C 
HETATM    4  C4  UNL     1      32.354  31.484  22.026  1.00  0.00     0.093 C 
HETATM    5  C5  UNL     1      33.188  31.290  20.755  1.00  0.00     0.079 C 
HETATM    6  S1  UNL     1      33.156  32.851  19.844  1.00  0.00    -0.152 SA
HETATM    7  C6  UNL     1      31.541  33.004  19.059  1.00  0.00     0.177 C 
HETATM    8  C7  UNL     1      31.044  31.632  18.781  1.00  0.00     0.227 C 
HETATM    9  O1  UNL     1      29.832  31.540  18.412  1.00  0.00    -0.273 OA
HETATM   10  N2  UNL     1      31.803  30.458  18.893  1.00  0.00    -0.353 N 
ATOM     11  H2  UNL     1      31.686  29.765  18.153  1.00  0.00     0.163 HD
HETATM   12  C8  UNL     1      32.728  30.129  19.942  1.00  0.00     0.116 C 
HETATM   13  C9  UNL     1      32.212  28.990  20.811  1.00  0.00     0.147 C 
HETATM   14  N3  UNL     1      32.728  29.039  22.150  1.00  0.00    -0.378 N 
ATOM     15  H3  UNL     1      33.162  28.222  22.579  1.00  0.00     0.160 HD
ENDROOT
BRANCH   1  16
HETATM   16  C2  UNL     1      32.947  29.379  25.078  1.00  0.00     0.100 C 
HETATM   17  C1  UNL     1      32.510  29.841  26.431  1.00  0.00     0.034 C 
BRANCH  16  18
HETATM   18  C10 UNL     1      34.467  29.082  25.061  1.00  0.00     0.150 C 
HETATM   19 BR1  UNL     1      34.864  28.453  26.900  1.00  0.00    -0.081 Br
BRANCH  18  20
HETATM   20  C11 UNL     1      35.177  30.339  24.915  1.00  0.00     0.151 C 
HETATM   21  O2  UNL     1      34.875  31.188  25.812  1.00  0.00    -0.296 OA
BRANCH  20  22
HETATM   22  C12 UNL     1      36.153  30.834  23.972  1.00  0.00     0.023 C 
HETATM   23  C13 UNL     1      35.702  32.186  23.419  1.00  0.00     0.024 C 
HETATM   24  C14 UNL     1      36.223  29.930  22.717  1.00  0.00     0.024 C 
BRANCH  22  25
HETATM   25  C15 UNL     1      37.540  30.910  24.504  1.00  0.00     0.101 C 
HETATM   26 BR2  UNL     1      38.443  32.462  23.849  1.00  0.00    -0.095 Br
ENDBRANCH  22  25
ENDBRANCH  20  22
ENDBRANCH  18  20
ENDBRANCH  16  18
ENDBRANCH   1  16
TORSDOF 5
ENDMDL
MODEL 4
REMARK VINA RESULT: -6.308854359      4.790      7.116
REMARK  5 active torsions:
REMARK  status: ('A' for Active; 'I' for Inactive)
REMARK    1  A    between atoms: C2_2  and  N1_3 
REMARK    2  A    between atoms: C2_2  and  C10_18 
REMARK    3  A    between atoms: C10_18  and  C11_20 
REMARK    4  A    between atoms: C11_20  and  C12_22 
REMARK    5  A    between atoms: C12_22  and  C15_25 
ROOT
HETATM    1  N1  UNL     1      35.033  28.954  26.586  1.00  0.00    -0.374 N 
ATOM      2  H1  UNL     1      34.096  28.567  26.695  1.00  0.00     0.161 HD
HETATM    3  C3  UNL     1      35.991  28.240  27.009  1.00  0.00     0.074 C 
HETATM    4  C4  UNL     1      35.674  26.913  27.620  1.00  0.00     0.093 C 
HETATM    5  C5  UNL     1      36.790  25.973  27.153  1.00  0.00     0.079 C 
HETATM    6  S1  UNL     1      36.309  24.292  27.610  1.00  0.00    -0.152 SA
HETATM    7  C6  UNL     1      36.556  24.106  29.386  1.00  0.00     0.177 C 
HETATM    8  C7  UNL     1      37.666  25.010  29.783  1.00  0.00     0.227 C 
HETATM    9  O1  UNL     1      37.845  25.161  31.032  1.00  0.00    -0.273 OA
HETATM   10  N2  UNL     1      38.512  25.692  28.896  1.00  0.00    -0.353 N 
ATOM     11  H2  UNL     1      39.503  25.713  29.134  1.00  0.00     0.163 HD
HETATM   12  C8  UNL     1      38.126  26.365  27.686  1.00  0.00     0.116 C 
HETATM   13  C9  UNL     1      38.272  27.876  27.811  1.00  0.00     0.147 C 
HETATM   14  N3  UNL     1      37.369  28.591  26.954  1.00  0.00    -0.378 N 
ATOM     15  H3  UNL     1      37.703  29.325  26.329  1.00  0.00     0.160 HD
ENDROOT
BRANCH   1  16
HETATM   16  C2  UNL     1      35.122  30.242  25.975  1.00  0.00     0.100 C 
HETATM   17  C1  UNL     1      35.425  31.277  27.011  1.00  0.00     0.034 C 
BRANCH  16  18
HETATM   18  C10 UNL     1      33.758  30.523  25.297  1.00  0.00     0.150 C 
HETATM   19 BR1  UNL     1      32.417  30.074  26.688  1.00  0.00    -0.081 Br
BRANCH  18  20
HETATM   20  C11 UNL     1      33.564  29.549  24.238  1.00  0.00     0.151 C 
HETATM   21  O2  UNL     1      32.870  28.548  24.604  1.00  0.00    -0.296 OA
BRANCH  20  22
HETATM   22  C12 UNL     1      33.989  29.471  22.860  1.00  0.00     0.023 C 
HETATM   23  C13 UNL     1      35.307  28.703  22.765  1.00  0.00     0.024 C 
HETATM   24  C14 UNL     1      34.340  30.873  22.304  1.00  0.00     0.024 C 
BRANCH  22  25
HETATM   25  C15 UNL     1      32.972  28.904  21.934  1.00  0.00     0.101 C 
HETATM   26 BR2  UNL     1      32.702  30.048  20.426  1.00  0.00    -0.095 Br
ENDBRANCH  22  25
ENDBRANCH  20  22
ENDBRANCH  18  20
ENDBRANCH  16  18
ENDBRANCH   1  16
TORSDOF 5
ENDMDL
MODEL 5
REMARK VINA RESULT: -6.286818500      1.592      1.874
REMARK  5 active torsions:
REMARK  status: ('A' for Active; 'I' for Inactive)
REMARK    1  A    between atoms: C2_2  and  N1_3 
REMARK    2  A    between atoms: C2_2  and  C10_18 
REMARK    3  A    between atoms: C10_18  and  C11_20 
REMARK    4  A    between atoms: C11_20  and  C12_22 
REMARK    5  A    between atoms: C12_22  and  C15_25 
ROOT
HETATM    1  N1  UNL     1      35.130  29.122  21.865  1.00  0.00    -0.374 N 
ATOM      2  H1  UNL     1      35.746  29.919  22.029  1.00  0.00     0.161 HD
HETATM    3  C3  UNL     1      35.592  28.192  21.139  1.00  0.00     0.074 C 
HETATM    4  C4  UNL     1      36.976  28.335  20.594  1.00  0.00     0.093 C 
HETATM    5  C5  UNL     1      37.584  26.930  20.656  1.00  0.00     0.079 C 
HETATM    6  S1  UNL     1      39.347  27.086  20.291  1.00  0.00    -0.152 SA
HETATM    7  C6  UNL     1      39.526  27.355  18.517  1.00  0.00     0.177 C 
HETATM    8  C7  UNL     1      38.384  26.685  17.843  1.00  0.00     0.227 C 
HETATM    9  O1  UNL     1      38.236  26.941  16.607  1.00  0.00    -0.273 OA
HETATM   10  N2  UNL     1      37.479  25.811  18.461  1.00  0.00    -0.353 N 
ATOM     11  H2  UNL     1      37.215  24.978  17.934  1.00  0.00     0.163 HD
HETATM   12  C8  UNL     1      36.885  25.965  19.760  1.00  0.00     0.116 C 
HETATM   13  C9  UNL     1      35.392  26.250  19.666  1.00  0.00     0.147 C 
HETATM   14  N3  UNL     1      34.900  26.998  20.788  1.00  0.00    -0.378 N 
ATOM     15  H3  UNL     1      34.084  26.687  21.315  1.00  0.00     0.160 HD
ENDROOT
BRANCH   1  16
HETATM   16  C2  UNL     1      33.841  29.179  22.478  1.00  0.00     0.100 C 
HETATM   17  C1  UNL     1      32.829  29.670  21.492  1.00  0.00     0.034 C 
BRANCH  16  18
HETATM   18  C10 UNL     1      33.949  30.145  23.684  1.00  0.00     0.150 C 
HETATM   19 BR1  UNL     1      35.506  31.296  23.252  1.00  0.00    -0.081 Br
BRANCH  18  20
HETATM   20  C11 UNL     1      34.342  29.378  24.852  1.00  0.00     0.151 C 
HETATM   21  O2  UNL     1      34.931  28.290  24.557  1.00  0.00    -0.296 OA
BRANCH  20  22
HETATM   22  C12 UNL     1      34.207  29.581  26.275  1.00  0.00     0.023 C 
HETATM   23  C13 UNL     1      32.751  29.894  26.620  1.00  0.00     0.024 C 
HETATM   24  C14 UNL     1      34.972  30.847  26.732  1.00  0.00     0.024 C 
BRANCH  22  25
HETATM   25  C15 UNL     1      34.725  28.463  27.108  1.00  0.00     0.101 C 
HETATM   26 BR2  UNL     1      36.572  28.721  27.531  1.00  0.00    -0.095 Br
ENDBRANCH  22  25
ENDBRANCH  20  22
ENDBRANCH  18  20
ENDBRANCH  16  18
ENDBRANCH   1  16
TORSDOF 5
ENDMDL
