MODEL 1
REMARK VINA RESULT: -8.567439054      0.000      0.000
REMARK  5 active torsions:
REMARK  status: ('A' for Active; 'I' for Inactive)
REMARK    1  A    between atoms: C2_2  and  C3_3 
REMARK       I    between atoms: C3_3  and  N1_5 
REMARK    2  A    between atoms: C4_7  and  C5_8 
REMARK    3  A    between atoms: C4_7  and  C11_18 
REMARK    4  A    between atoms: C5_8  and  C6_9 
REMARK       I    between atoms: C11_18  and  N4_20 
REMARK    5  A    between atoms: N4_20  and  C12_22 
ROOT
HETATM    1  C6  UNL     1      32.344  29.554  20.481  1.00  0.00     0.037 A 
HETATM    2  N2  UNL     1      31.703  29.261  19.337  1.00  0.00    -0.366 N 
ATOM      3  H2  UNL     1      31.415  28.320  19.071  1.00  0.00     0.165 HD
HETATM    4  C7  UNL     1      31.486  30.347  18.587  1.00  0.00     0.108 A 
HETATM    5  C8  UNL     1      32.022  31.399  19.299  1.00  0.00     0.049 A 
HETATM    6 BR1  UNL     1      32.042  33.238  18.774  1.00  0.00    -0.048 Br
HETATM    7  C9  UNL     1      32.558  30.939  20.468  1.00  0.00     0.086 A 
HETATM    8  C10 UNL     1      33.220  31.686  21.514  1.00  0.00     0.103 C 
HETATM    9  N3  UNL     1      33.741  32.303  22.350  1.00  0.00    -0.191 NA
ENDROOT
BRANCH   1  10
HETATM   10  C5  UNL     1      32.757  28.644  21.578  1.00  0.00     0.121 C 
BRANCH  10  11
HETATM   11  C4  UNL     1      34.223  28.297  21.510  1.00  0.00     0.086 C 
HETATM   12  N1  UNL     1      34.619  27.530  20.566  1.00  0.00    -0.322 N 
HETATM   13  C3  UNL     1      35.932  27.107  20.349  1.00  0.00     0.244 C 
ATOM     14  H1  UNL     1      33.911  27.197  19.911  1.00  0.00     0.169 HD
HETATM   15  O1  UNL     1      36.309  26.046  20.917  1.00  0.00    -0.268 OA
BRANCH  13  16
HETATM   16  C2  UNL     1      36.892  27.812  19.508  1.00  0.00     0.064 C 
HETATM   17  C1  UNL     1      37.586  27.192  18.567  1.00  0.00     0.017 C 
ENDBRANCH  13  16
BRANCH  11  18
HETATM   18  C11 UNL     1      35.118  28.837  22.515  1.00  0.00     0.270 C 
HETATM   19  O2  UNL     1      35.992  29.690  22.134  1.00  0.00    -0.266 OA
HETATM   20  N4  UNL     1      35.138  28.528  23.876  1.00  0.00    -0.308 N 
ATOM     21  H4  UNL     1      35.189  27.539  24.119  1.00  0.00     0.170 HD
BRANCH  20  22
HETATM   22  C12 UNL     1      35.100  29.363  24.861  1.00  0.00     0.108 A 
HETATM   23  C13 UNL     1      36.150  30.114  25.290  1.00  0.00     0.049 A 
HETATM   24  C14 UNL     1      36.003  30.985  26.370  1.00  0.00     0.007 A 
HETATM   25  C15 UNL     1      34.777  31.083  27.007  1.00  0.00     0.037 A 
HETATM   26  C16 UNL     1      33.729  30.310  26.551  1.00  0.00     0.081 A 
HETATM   27 BR2  UNL     1      32.032  30.448  27.434  1.00  0.00    -0.031 Br
HETATM   28  N5  UNL     1      33.921  29.490  25.511  1.00  0.00    -0.337 N 
ATOM     29  H5  UNL     1      33.132  28.929  25.190  1.00  0.00     0.168 HD
ENDBRANCH  20  22
ENDBRANCH  11  18
ENDBRANCH  10  11
ENDBRANCH   1  10
TORSDOF 5
ENDMDL
MODEL 2
REMARK VINA RESULT: -8.370538297      1.763      1.997
REMARK  5 active torsions:
REMARK  status: ('A' for Active; 'I' for Inactive)
REMARK    1  A    between atoms: C2_2  and  C3_3 
REMARK       I    between atoms: C3_3  and  N1_5 
REMARK    2  A    between atoms: C4_7  and  C5_8 
REMARK    3  A    between atoms: C4_7  and  C11_18 
REMARK    4  A    between atoms: C5_8  and  C6_9 
REMARK       I    between atoms: C11_18  and  N4_20 
REMARK    5  A    between atoms: N4_20  and  C12_22 
ROOT
HETATM    1  C6  UNL     1      32.479  29.545  20.595  1.00  0.00     0.037 A 
HETATM    2  N2  UNL     1      31.707  29.309  19.520  1.00  0.00    -0.366 N 
ATOM      3  H2  UNL     1      31.352  28.387  19.266  1.00  0.00     0.165 HD
HETATM    4  C7  UNL     1      31.460  30.423  18.823  1.00  0.00     0.108 A 
HETATM    5  C8  UNL     1      32.114  31.432  19.495  1.00  0.00     0.049 A 
HETATM    6 BR1  UNL     1      32.158  33.282  19.012  1.00  0.00    -0.048 Br
HETATM    7  C9  UNL     1      32.750  30.920  20.590  1.00  0.00     0.086 A 
HETATM    8  C10 UNL     1      33.552  31.611  21.575  1.00  0.00     0.103 C 
HETATM    9  N3  UNL     1      34.185  32.183  22.363  1.00  0.00    -0.191 NA
ENDROOT
BRANCH   1  10
HETATM   10  C5  UNL     1      32.966  28.589  21.621  1.00  0.00     0.121 C 
BRANCH  10  11
HETATM   11  C4  UNL     1      34.383  28.144  21.358  1.00  0.00     0.086 C 
HETATM   12  N1  UNL     1      34.592  27.339  20.387  1.00  0.00    -0.322 N 
HETATM   13  C3  UNL     1      35.832  26.825  20.000  1.00  0.00     0.244 C 
ATOM     14  H1  UNL     1      33.780  27.045  19.845  1.00  0.00     0.169 HD
HETATM   15  O1  UNL     1      36.215  25.750  20.535  1.00  0.00    -0.268 OA
BRANCH  13  16
HETATM   16  C2  UNL     1      36.709  27.452  19.018  1.00  0.00     0.064 C 
HETATM   17  C1  UNL     1      38.014  27.236  19.007  1.00  0.00     0.017 C 
ENDBRANCH  13  16
BRANCH  11  18
HETATM   18  C11 UNL     1      35.443  28.636  22.217  1.00  0.00     0.270 C 
HETATM   19  O2  UNL     1      36.519  29.042  21.657  1.00  0.00    -0.266 OA
HETATM   20  N4  UNL     1      35.425  28.723  23.610  1.00  0.00    -0.308 N 
ATOM     21  H4  UNL     1      35.180  27.872  24.116  1.00  0.00     0.170 HD
BRANCH  20  22
HETATM   22  C12 UNL     1      35.688  29.765  24.325  1.00  0.00     0.108 A 
HETATM   23  C13 UNL     1      35.048  30.103  25.478  1.00  0.00     0.049 A 
HETATM   24  C14 UNL     1      35.408  31.258  26.174  1.00  0.00     0.007 A 
HETATM   25  C15 UNL     1      36.423  32.064  25.685  1.00  0.00     0.037 A 
HETATM   26  C16 UNL     1      37.054  31.696  24.514  1.00  0.00     0.081 A 
HETATM   27 BR2  UNL     1      38.460  32.813  23.839  1.00  0.00    -0.031 Br
HETATM   28  N5  UNL     1      36.674  30.580  23.883  1.00  0.00    -0.337 N 
ATOM     29  H5  UNL     1      37.155  30.327  23.020  1.00  0.00     0.168 HD
ENDBRANCH  20  22
ENDBRANCH  11  18
ENDBRANCH  10  11
ENDBRANCH   1  10
TORSDOF 5
ENDMDL
MODEL 3
REMARK VINA RESULT: -8.242651320      2.580      5.748
REMARK  5 active torsions:
REMARK  status: ('A' for Active; 'I' for Inactive)
REMARK    1  A    between atoms: C2_2  and  C3_3 
REMARK       I    between atoms: C3_3  and  N1_5 
REMARK    2  A    between atoms: C4_7  and  C5_8 
REMARK    3  A    between atoms: C4_7  and  C11_18 
REMARK    4  A    between atoms: C5_8  and  C6_9 
REMARK       I    between atoms: C11_18  and  N4_20 
REMARK    5  A    between atoms: N4_20  and  C12_22 
ROOT
HETATM    1  C6  UNL     1      35.940  30.477  23.637  1.00  0.00     0.037 A 
HETATM    2  N2  UNL     1      35.409  31.672  23.329  1.00  0.00    -0.366 N 
ATOM      3  H2  UNL     1      34.440  31.806  23.040  1.00  0.00     0.165 HD
HETATM    4  C7  UNL     1      36.298  32.664  23.444  1.00  0.00     0.108 A 
HETATM    5  C8  UNL     1      37.469  32.064  23.852  1.00  0.00     0.049 A 
HETATM    6 BR1  UNL     1      39.136  32.936  24.201  1.00  0.00    -0.048 Br
HETATM    7  C9  UNL     1      37.278  30.717  23.979  1.00  0.00     0.086 A 
HETATM    8  C10 UNL     1      38.228  29.704  24.380  1.00  0.00     0.103 C 
HETATM    9  N3  UNL     1      39.000  28.903  24.714  1.00  0.00    -0.191 NA
ENDROOT
BRANCH   1  10
HETATM   10  C5  UNL     1      35.292  29.142  23.647  1.00  0.00     0.121 C 
BRANCH  10  11
HETATM   11  C4  UNL     1      35.037  28.622  22.254  1.00  0.00     0.086 C 
HETATM   12  N1  UNL     1      35.983  27.999  21.660  1.00  0.00    -0.322 N 
HETATM   13  C3  UNL     1      35.925  27.452  20.376  1.00  0.00     0.244 C 
ATOM     14  H1  UNL     1      36.859  27.892  22.170  1.00  0.00     0.169 HD
HETATM   15  O1  UNL     1      36.253  28.190  19.408  1.00  0.00    -0.268 OA
BRANCH  13  16
HETATM   16  C2  UNL     1      35.511  26.084  20.086  1.00  0.00     0.064 C 
HETATM   17  C1  UNL     1      36.357  25.184  19.612  1.00  0.00     0.017 C 
ENDBRANCH  13  16
BRANCH  11  18
HETATM   18  C11 UNL     1      33.741  28.854  21.646  1.00  0.00     0.270 C 
HETATM   19  O2  UNL     1      32.718  28.867  22.414  1.00  0.00    -0.266 OA
HETATM   20  N4  UNL     1      33.474  29.069  20.292  1.00  0.00    -0.308 N 
ATOM     21  H4  UNL     1      33.847  28.381  19.639  1.00  0.00     0.170 HD
BRANCH  20  22
HETATM   22  C12 UNL     1      32.804  30.048  19.781  1.00  0.00     0.108 A 
HETATM   23  C13 UNL     1      31.878  29.929  18.792  1.00  0.00     0.049 A 
HETATM   24  C14 UNL     1      31.212  31.054  18.306  1.00  0.00     0.007 A 
HETATM   25  C15 UNL     1      31.500  32.302  18.837  1.00  0.00     0.037 A 
HETATM   26  C16 UNL     1      32.444  32.393  19.839  1.00  0.00     0.081 A 
HETATM   27 BR2  UNL     1      32.841  34.120  20.573  1.00  0.00    -0.031 Br
HETATM   28  N5  UNL     1      33.055  31.284  20.271  1.00  0.00    -0.337 N 
ATOM     29  H5  UNL     1      33.748  31.376  21.014  1.00  0.00     0.168 HD
ENDBRANCH  20  22
ENDBRANCH  11  18
ENDBRANCH  10  11
ENDBRANCH   1  10
TORSDOF 5
ENDMDL
MODEL 4
REMARK VINA RESULT: -8.124253153      2.805      6.284
REMARK  5 active torsions:
REMARK  status: ('A' for Active; 'I' for Inactive)
REMARK    1  A    between atoms: C2_2  and  C3_3 
REMARK       I    between atoms: C3_3  and  N1_5 
REMARK    2  A    between atoms: C4_7  and  C5_8 
REMARK    3  A    between atoms: C4_7  and  C11_18 
REMARK    4  A    between atoms: C5_8  and  C6_9 
REMARK       I    between atoms: C11_18  and  N4_20 
REMARK    5  A    between atoms: N4_20  and  C12_22 
ROOT
HETATM    1  C6  UNL     1      36.010  27.168  20.001  1.00  0.00     0.037 A 
HETATM    2  N2  UNL     1      36.052  27.629  18.739  1.00  0.00    -0.366 N 
ATOM      3  H2  UNL     1      35.227  27.904  18.207  1.00  0.00     0.165 HD
HETATM    4  C7  UNL     1      37.301  27.687  18.264  1.00  0.00     0.108 A 
HETATM    5  C8  UNL     1      38.106  27.235  19.287  1.00  0.00     0.049 A 
HETATM    6 BR1  UNL     1      40.011  27.069  19.252  1.00  0.00    -0.048 Br
HETATM    7  C9  UNL     1      37.338  26.908  20.369  1.00  0.00     0.086 A 
HETATM    8  C10 UNL     1      37.757  26.395  21.654  1.00  0.00     0.103 C 
HETATM    9  N3  UNL     1      38.112  25.992  22.684  1.00  0.00    -0.191 NA
ENDROOT
BRANCH   1  10
HETATM   10  C5  UNL     1      34.833  26.966  20.882  1.00  0.00     0.121 C 
BRANCH  10  11
HETATM   11  C4  UNL     1      34.388  28.249  21.540  1.00  0.00     0.086 C 
HETATM   12  N1  UNL     1      35.124  28.740  22.464  1.00  0.00    -0.322 N 
HETATM   13  C3  UNL     1      34.869  29.913  23.179  1.00  0.00     0.244 C 
ATOM     14  H1  UNL     1      35.974  28.229  22.700  1.00  0.00     0.169 HD
HETATM   15  O1  UNL     1      34.186  29.821  24.234  1.00  0.00    -0.268 OA
BRANCH  13  16
HETATM   16  C2  UNL     1      35.344  31.233  22.783  1.00  0.00     0.064 C 
HETATM   17  C1  UNL     1      35.962  32.037  23.632  1.00  0.00     0.017 C 
ENDBRANCH  13  16
BRANCH  11  18
HETATM   18  C11 UNL     1      33.148  28.864  21.109  1.00  0.00     0.270 C 
HETATM   19  O2  UNL     1      32.238  29.047  21.990  1.00  0.00    -0.266 OA
HETATM   20  N4  UNL     1      32.825  29.291  19.820  1.00  0.00    -0.308 N 
ATOM     21  H4  UNL     1      32.944  28.609  19.070  1.00  0.00     0.170 HD
BRANCH  20  22
HETATM   22  C12 UNL     1      32.390  30.458  19.475  1.00  0.00     0.108 A 
HETATM   23  C13 UNL     1      31.467  30.692  18.504  1.00  0.00     0.049 A 
HETATM   24  C14 UNL     1      31.068  31.995  18.206  1.00  0.00     0.007 A 
HETATM   25  C15 UNL     1      31.620  33.056  18.907  1.00  0.00     0.037 A 
HETATM   26  C16 UNL     1      32.554  32.789  19.886  1.00  0.00     0.081 A 
HETATM   27 BR2  UNL     1      33.315  34.259  20.855  1.00  0.00    -0.031 Br
HETATM   28  N5  UNL     1      32.903  31.522  20.135  1.00  0.00    -0.337 N 
ATOM     29  H5  UNL     1      33.595  31.348  20.864  1.00  0.00     0.168 HD
ENDBRANCH  20  22
ENDBRANCH  11  18
ENDBRANCH  10  11
ENDBRANCH   1  10
TORSDOF 5
ENDMDL
MODEL 5
REMARK VINA RESULT: -7.995713483      2.693      4.702
REMARK  5 active torsions:
REMARK  status: ('A' for Active; 'I' for Inactive)
REMARK    1  A    between atoms: C2_2  and  C3_3 
REMARK       I    between atoms: C3_3  and  N1_5 
REMARK    2  A    between atoms: C4_7  and  C5_8 
REMARK    3  A    between atoms: C4_7  and  C11_18 
REMARK    4  A    between atoms: C5_8  and  C6_9 
REMARK       I    between atoms: C11_18  and  N4_20 
REMARK    5  A    between atoms: N4_20  and  C12_22 
ROOT
HETATM    1  C6  UNL     1      35.184  27.893  20.359  1.00  0.00     0.037 A 
HETATM    2  N2  UNL     1      35.460  27.704  19.058  1.00  0.00    -0.366 N 
ATOM      3  H2  UNL     1      34.748  27.611  18.333  1.00  0.00     0.165 HD
HETATM    4  C7  UNL     1      36.775  27.653  18.823  1.00  0.00     0.108 A 
HETATM    5  C8  UNL     1      37.376  27.820  20.053  1.00  0.00     0.049 A 
HETATM    6 BR1  UNL     1      39.255  27.845  20.410  1.00  0.00    -0.048 Br
HETATM    7  C9  UNL     1      36.419  27.970  21.017  1.00  0.00     0.086 A 
HETATM    8  C10 UNL     1      36.592  28.169  22.438  1.00  0.00     0.103 C 
HETATM    9  N3  UNL     1      36.749  28.340  23.576  1.00  0.00    -0.191 NA
ENDROOT
BRANCH   1  10
HETATM   10  C5  UNL     1      33.862  28.017  21.024  1.00  0.00     0.121 C 
BRANCH  10  11
HETATM   11  C4  UNL     1      33.215  29.354  20.760  1.00  0.00     0.086 C 
HETATM   12  N1  UNL     1      32.644  29.536  19.630  1.00  0.00    -0.322 N 
HETATM   13  C3  UNL     1      31.997  30.703  19.216  1.00  0.00     0.244 C 
ATOM     14  H1  UNL     1      32.661  28.758  18.972  1.00  0.00     0.169 HD
HETATM   15  O1  UNL     1      32.687  31.580  18.631  1.00  0.00    -0.268 OA
BRANCH  13  16
HETATM   16  C2  UNL     1      30.578  30.969  19.418  1.00  0.00     0.064 C 
HETATM   17  C1  UNL     1      29.830  31.520  18.476  1.00  0.00     0.017 C 
ENDBRANCH  13  16
BRANCH  11  18
HETATM   18  C11 UNL     1      33.274  30.376  21.787  1.00  0.00     0.270 C 
HETATM   19  O2  UNL     1      32.238  30.542  22.519  1.00  0.00    -0.266 OA
HETATM   20  N4  UNL     1      34.351  31.216  22.078  1.00  0.00    -0.308 N 
ATOM     21  H4  UNL     1      34.744  31.740  21.296  1.00  0.00     0.170 HD
BRANCH  20  22
HETATM   22  C12 UNL     1      34.901  31.401  23.232  1.00  0.00     0.108 A 
HETATM   23  C13 UNL     1      35.834  32.351  23.509  1.00  0.00     0.049 A 
HETATM   24  C14 UNL     1      36.370  32.463  24.793  1.00  0.00     0.007 A 
HETATM   25  C15 UNL     1      35.947  31.597  25.789  1.00  0.00     0.037 A 
HETATM   26  C16 UNL     1      34.999  30.643  25.479  1.00  0.00     0.081 A 
HETATM   27 BR2  UNL     1      34.414  29.447  26.859  1.00  0.00    -0.031 Br
HETATM   28  N5  UNL     1      34.515  30.577  24.233  1.00  0.00    -0.337 N 
ATOM     29  H5  UNL     1      33.815  29.864  24.027  1.00  0.00     0.168 HD
ENDBRANCH  20  22
ENDBRANCH  11  18
ENDBRANCH  10  11
ENDBRANCH   1  10
TORSDOF 5
ENDMDL
