MODEL 1
REMARK VINA RESULT: -7.353318218      0.000      0.000
REMARK  4 active torsions:
REMARK  status: ('A' for Active; 'I' for Inactive)
REMARK    1  A    between atoms: C9_9  and  C10_10 
REMARK    2  A    between atoms: C9_9  and  C13_18 
REMARK    3  A    between atoms: C10_10  and  C11_11 
REMARK    4  A    between atoms: C11_11  and  N1_12 
REMARK       I    between atoms: C13_18  and  N3_20 
ROOT
HETATM    1  C11 UNL     1      34.578  30.125  26.501  1.00  0.00     0.290 C 
HETATM    2  C12 UNL     1      33.248  30.493  27.041  1.00  0.00     0.092 C 
HETATM    3  N2  UNL     1      32.201  30.786  27.488  1.00  0.00    -0.195 NA
ENDROOT
BRANCH   1   4
HETATM    4  C10 UNL     1      34.620  29.931  25.064  1.00  0.00     0.068 C 
BRANCH   4   5
HETATM    5  C9  UNL     1      35.714  30.410  24.189  1.00  0.00     0.052 C 
HETATM    6  C5  UNL     1      36.711  29.336  23.779  1.00  0.00    -0.014 C 
HETATM    7  C4  UNL     1      37.538  29.659  22.590  1.00  0.00     0.051 C 
HETATM    8  C6  UNL     1      37.689  29.365  24.957  1.00  0.00     0.011 C 
HETATM    9  C20 UNL     1      36.117  28.010  23.553  1.00  0.00     0.095 C 
HETATM   10  C3  UNL     1      37.487  28.481  21.703  1.00  0.00    -0.013 C 
HETATM   11  C2  UNL     1      37.850  28.423  20.410  1.00  0.00    -0.022 C 
HETATM   12  C21 UNL     1      36.970  27.343  22.459  1.00  0.00     0.268 C 
HETATM   13  C1  UNL     1      37.748  27.176  19.638  1.00  0.00     0.036 C 
HETATM   14  F1  UNL     1      36.170  26.575  21.639  1.00  0.00    -0.201 F 
HETATM   15  F2  UNL     1      37.957  26.561  23.023  1.00  0.00    -0.201 F 
HETATM   16  C7  UNL     1      37.899  30.822  25.208  1.00  0.00     0.002 C 
HETATM   17  C8  UNL     1      36.602  31.463  24.713  1.00  0.00     0.020 C 
BRANCH   5  18
HETATM   18  C13 UNL     1      35.009  30.917  22.974  1.00  0.00     0.230 C 
HETATM   19  O1  UNL     1      35.239  32.096  22.550  1.00  0.00    -0.272 OA
HETATM   20  N3  UNL     1      34.085  30.160  22.240  1.00  0.00    -0.342 N 
HETATM   21  C14 UNL     1      33.343  30.643  21.033  1.00  0.00     0.087 C 
HETATM   22  C17 UNL     1      33.542  28.834  22.288  1.00  0.00     0.087 C 
HETATM   23  C15 UNL     1      31.937  30.424  21.481  1.00  0.00     0.027 C 
HETATM   24  C19 UNL     1      33.718  29.582  20.054  1.00  0.00     0.027 C 
HETATM   25  C16 UNL     1      32.051  29.139  22.278  1.00  0.00     0.027 C 
HETATM   26  C18 UNL     1      33.846  28.322  20.885  1.00  0.00     0.027 C 
ENDBRANCH   5  18
ENDBRANCH   4   5
ENDBRANCH   1   4
BRANCH   1  27
HETATM   27  N1  UNL     1      34.759  28.754  27.093  1.00  0.00    -0.063 N 
ATOM     28  H13 UNL     1      33.893  28.221  27.169  1.00  0.00     0.275 HD
ATOM     29  H12 UNL     1      35.247  28.102  26.479  1.00  0.00     0.275 HD
ATOM     30  H11 UNL     1      35.228  28.906  27.987  1.00  0.00     0.275 HD
ENDBRANCH   1  27
TORSDOF 4
ENDMDL
MODEL 2
REMARK VINA RESULT: -6.965572356      1.870      4.741
REMARK  4 active torsions:
REMARK  status: ('A' for Active; 'I' for Inactive)
REMARK    1  A    between atoms: C9_9  and  C10_10 
REMARK    2  A    between atoms: C9_9  and  C13_18 
REMARK    3  A    between atoms: C10_10  and  C11_11 
REMARK    4  A    between atoms: C11_11  and  N1_12 
REMARK       I    between atoms: C13_18  and  N3_20 
ROOT
HETATM    1  C11 UNL     1      33.025  32.164  21.343  1.00  0.00     0.290 C 
HETATM    2  C12 UNL     1      33.129  33.611  21.039  1.00  0.00     0.092 C 
HETATM    3  N2  UNL     1      33.191  34.759  20.794  1.00  0.00    -0.195 NA
ENDROOT
BRANCH   1   4
HETATM    4  C10 UNL     1      34.260  31.545  21.788  1.00  0.00     0.068 C 
BRANCH   4   5
HETATM    5  C9  UNL     1      34.327  30.368  22.683  1.00  0.00     0.052 C 
HETATM    6  C5  UNL     1      34.964  29.134  22.060  1.00  0.00    -0.014 C 
HETATM    7  C4  UNL     1      35.439  28.110  23.023  1.00  0.00     0.051 C 
HETATM    8  C6  UNL     1      33.762  28.491  21.364  1.00  0.00     0.011 C 
HETATM    9  C20 UNL     1      36.077  29.424  21.144  1.00  0.00     0.095 C 
HETATM   10  C3  UNL     1      36.810  27.746  22.616  1.00  0.00    -0.013 C 
HETATM   11  C2  UNL     1      37.721  27.075  23.342  1.00  0.00    -0.022 C 
HETATM   12  C21 UNL     1      37.043  28.232  21.258  1.00  0.00     0.268 C 
HETATM   13  C1  UNL     1      39.058  26.775  22.811  1.00  0.00     0.036 C 
HETATM   14  F1  UNL     1      38.347  28.668  21.146  1.00  0.00    -0.201 F 
HETATM   15  F2  UNL     1      36.773  27.293  20.282  1.00  0.00    -0.201 F 
HETATM   16  C7  UNL     1      32.668  28.596  22.375  1.00  0.00     0.002 C 
HETATM   17  C8  UNL     1      33.058  29.824  23.200  1.00  0.00     0.020 C 
BRANCH   5  18
HETATM   18  C13 UNL     1      35.167  30.831  23.828  1.00  0.00     0.230 C 
HETATM   19  O1  UNL     1      36.131  31.639  23.624  1.00  0.00    -0.272 OA
HETATM   20  N3  UNL     1      34.959  30.431  25.155  1.00  0.00    -0.342 N 
HETATM   21  C14 UNL     1      35.795  30.856  26.323  1.00  0.00     0.087 C 
HETATM   22  C17 UNL     1      34.030  29.605  25.868  1.00  0.00     0.087 C 
HETATM   23  C15 UNL     1      36.220  29.524  26.843  1.00  0.00     0.027 C 
HETATM   24  C19 UNL     1      34.737  31.415  27.212  1.00  0.00     0.027 C 
HETATM   25  C16 UNL     1      34.983  28.678  26.607  1.00  0.00     0.027 C 
HETATM   26  C18 UNL     1      33.514  30.565  26.934  1.00  0.00     0.027 C 
ENDBRANCH   5  18
ENDBRANCH   4   5
ENDBRANCH   1   4
BRANCH   1  27
HETATM   27  N1  UNL     1      32.769  31.600  19.972  1.00  0.00    -0.063 N 
ATOM     28  H13 UNL     1      33.337  30.782  19.751  1.00  0.00     0.275 HD
ATOM     29  H12 UNL     1      31.861  31.144  19.879  1.00  0.00     0.275 HD
ATOM     30  H11 UNL     1      32.906  32.381  19.330  1.00  0.00     0.275 HD
ENDBRANCH   1  27
TORSDOF 4
ENDMDL
MODEL 3
REMARK VINA RESULT: -6.934274256      2.939      5.088
REMARK  4 active torsions:
REMARK  status: ('A' for Active; 'I' for Inactive)
REMARK    1  A    between atoms: C9_9  and  C10_10 
REMARK    2  A    between atoms: C9_9  and  C13_18 
REMARK    3  A    between atoms: C10_10  and  C11_11 
REMARK    4  A    between atoms: C11_11  and  N1_12 
REMARK       I    between atoms: C13_18  and  N3_20 
ROOT
HETATM    1  C11 UNL     1      39.451  29.617  24.811  1.00  0.00     0.290 C 
HETATM    2  C12 UNL     1      40.465  29.095  23.864  1.00  0.00     0.092 C 
HETATM    3  N2  UNL     1      41.282  28.679  23.129  1.00  0.00    -0.195 NA
ENDROOT
BRANCH   1   4
HETATM    4  C10 UNL     1      38.162  29.918  24.218  1.00  0.00     0.068 C 
BRANCH   4   5
HETATM    5  C9  UNL     1      36.890  29.270  24.612  1.00  0.00     0.052 C 
HETATM    6  C5  UNL     1      35.639  30.047  24.229  1.00  0.00    -0.014 C 
HETATM    7  C4  UNL     1      34.384  29.256  24.206  1.00  0.00     0.051 C 
HETATM    8  C6  UNL     1      35.489  30.988  25.427  1.00  0.00     0.011 C 
HETATM    9  C20 UNL     1      35.735  30.755  22.944  1.00  0.00     0.095 C 
HETATM   10  C3  UNL     1      33.707  29.568  22.932  1.00  0.00    -0.013 C 
HETATM   11  C2  UNL     1      32.696  28.889  22.362  1.00  0.00    -0.022 C 
HETATM   12  C21 UNL     1      34.311  30.768  22.359  1.00  0.00     0.268 C 
HETATM   13  C1  UNL     1      32.110  29.313  21.084  1.00  0.00     0.036 C 
HETATM   14  F1  UNL     1      34.364  30.643  20.986  1.00  0.00    -0.201 F 
HETATM   15  F2  UNL     1      33.656  31.934  22.702  1.00  0.00    -0.201 F 
HETATM   16  C7  UNL     1      35.745  30.107  26.605  1.00  0.00     0.002 C 
HETATM   17  C8  UNL     1      36.663  29.018  26.047  1.00  0.00     0.020 C 
BRANCH   5  18
HETATM   18  C13 UNL     1      36.906  27.968  23.879  1.00  0.00     0.230 C 
HETATM   19  O1  UNL     1      36.706  26.880  24.509  1.00  0.00    -0.272 OA
HETATM   20  N3  UNL     1      37.128  27.858  22.499  1.00  0.00    -0.342 N 
HETATM   21  C14 UNL     1      37.174  26.571  21.736  1.00  0.00     0.087 C 
HETATM   22  C17 UNL     1      37.355  28.748  21.399  1.00  0.00     0.087 C 
HETATM   23  C15 UNL     1      38.529  26.675  21.122  1.00  0.00     0.027 C 
HETATM   24  C19 UNL     1      36.141  26.847  20.696  1.00  0.00     0.027 C 
HETATM   25  C16 UNL     1      38.629  28.157  20.815  1.00  0.00     0.027 C 
HETATM   26  C18 UNL     1      36.252  28.335  20.431  1.00  0.00     0.027 C 
ENDBRANCH   5  18
ENDBRANCH   4   5
ENDBRANCH   1   4
BRANCH   1  27
HETATM   27  N1  UNL     1      40.048  30.952  25.164  1.00  0.00    -0.063 N 
ATOM     28  H13 UNL     1      39.697  31.340  26.040  1.00  0.00     0.275 HD
ATOM     29  H12 UNL     1      41.029  30.903  25.439  1.00  0.00     0.275 HD
ATOM     30  H11 UNL     1      39.877  31.547  24.353  1.00  0.00     0.275 HD
ENDBRANCH   1  27
TORSDOF 4
ENDMDL
MODEL 4
REMARK VINA RESULT: -6.718509352      2.654      4.883
REMARK  4 active torsions:
REMARK  status: ('A' for Active; 'I' for Inactive)
REMARK    1  A    between atoms: C9_9  and  C10_10 
REMARK    2  A    between atoms: C9_9  and  C13_18 
REMARK    3  A    between atoms: C10_10  and  C11_11 
REMARK    4  A    between atoms: C11_11  and  N1_12 
REMARK       I    between atoms: C13_18  and  N3_20 
ROOT
HETATM    1  C11 UNL     1      38.753  30.556  23.492  1.00  0.00     0.290 C 
HETATM    2  C12 UNL     1      39.612  29.762  22.582  1.00  0.00     0.092 C 
HETATM    3  N2  UNL     1      40.308  29.133  21.874  1.00  0.00    -0.195 NA
ENDROOT
BRANCH   1   4
HETATM    4  C10 UNL     1      37.450  30.899  22.955  1.00  0.00     0.068 C 
BRANCH   4   5
HETATM    5  C9  UNL     1      36.233  30.073  23.128  1.00  0.00     0.052 C 
HETATM    6  C5  UNL     1      35.916  29.709  24.572  1.00  0.00    -0.014 C 
HETATM    7  C4  UNL     1      34.519  29.277  24.825  1.00  0.00     0.051 C 
HETATM    8  C6  UNL     1      36.758  28.444  24.757  1.00  0.00     0.011 C 
HETATM    9  C20 UNL     1      36.232  30.764  25.547  1.00  0.00     0.095 C 
HETATM   10  C3  UNL     1      34.047  30.029  26.003  1.00  0.00    -0.013 C 
HETATM   11  C2  UNL     1      32.778  30.170  26.422  1.00  0.00    -0.022 C 
HETATM   12  C21 UNL     1      35.201  30.618  26.679  1.00  0.00     0.268 C 
HETATM   13  C1  UNL     1      32.446  30.951  27.622  1.00  0.00     0.036 C 
HETATM   14  F1  UNL     1      34.859  31.861  27.169  1.00  0.00    -0.201 F 
HETATM   15  F2  UNL     1      35.705  29.832  27.697  1.00  0.00    -0.201 F 
HETATM   16  C7  UNL     1      36.521  27.672  23.501  1.00  0.00     0.002 C 
HETATM   17  C8  UNL     1      36.198  28.754  22.470  1.00  0.00     0.020 C 
BRANCH   5  18
HETATM   18  C13 UNL     1      35.136  30.926  22.583  1.00  0.00     0.230 C 
HETATM   19  O1  UNL     1      35.158  32.187  22.765  1.00  0.00    -0.272 OA
HETATM   20  N3  UNL     1      34.048  30.421  21.856  1.00  0.00    -0.342 N 
HETATM   21  C14 UNL     1      32.919  31.243  21.316  1.00  0.00     0.087 C 
HETATM   22  C17 UNL     1      33.608  29.143  21.379  1.00  0.00     0.087 C 
HETATM   23  C15 UNL     1      31.761  30.558  21.961  1.00  0.00     0.027 C 
HETATM   24  C19 UNL     1      32.979  30.855  19.877  1.00  0.00     0.027 C 
HETATM   25  C16 UNL     1      32.193  29.105  21.936  1.00  0.00     0.027 C 
HETATM   26  C18 UNL     1      33.436  29.410  19.888  1.00  0.00     0.027 C 
ENDBRANCH   5  18
ENDBRANCH   4   5
ENDBRANCH   1   4
BRANCH   1  27
HETATM   27  N1  UNL     1      39.513  31.853  23.547  1.00  0.00    -0.063 N 
ATOM     28  H13 UNL     1      39.339  32.396  24.393  1.00  0.00     0.275 HD
ATOM     29  H12 UNL     1      40.517  31.735  23.686  1.00  0.00     0.275 HD
ATOM     30  H11 UNL     1      39.271  32.344  22.687  1.00  0.00     0.275 HD
ENDBRANCH   1  27
TORSDOF 4
ENDMDL
MODEL 5
REMARK VINA RESULT: -6.706171390      2.434      4.842
REMARK  4 active torsions:
REMARK  status: ('A' for Active; 'I' for Inactive)
REMARK    1  A    between atoms: C9_9  and  C10_10 
REMARK    2  A    between atoms: C9_9  and  C13_18 
REMARK    3  A    between atoms: C10_10  and  C11_11 
REMARK    4  A    between atoms: C11_11  and  N1_12 
REMARK       I    between atoms: C13_18  and  N3_20 
ROOT
HETATM    1  C11 UNL     1      33.926  30.342  22.850  1.00  0.00     0.290 C 
HETATM    2  C12 UNL     1      33.750  29.889  21.450  1.00  0.00     0.092 C 
HETATM    3  N2  UNL     1      33.600  29.548  20.335  1.00  0.00    -0.195 NA
ENDROOT
BRANCH   1   4
HETATM    4  C10 UNL     1      34.684  29.435  23.692  1.00  0.00     0.068 C 
BRANCH   4   5
HETATM    5  C9  UNL     1      35.600  29.870  24.772  1.00  0.00     0.052 C 
HETATM    6  C5  UNL     1      35.626  28.952  25.986  1.00  0.00    -0.014 C 
HETATM    7  C4  UNL     1      36.810  29.099  26.867  1.00  0.00     0.051 C 
HETATM    8  C6  UNL     1      34.456  29.501  26.806  1.00  0.00     0.011 C 
HETATM    9  C20 UNL     1      35.490  27.522  25.668  1.00  0.00     0.095 C 
HETATM   10  C3  UNL     1      37.320  27.739  27.127  1.00  0.00    -0.013 C 
HETATM   11  C2  UNL     1      38.518  27.404  27.635  1.00  0.00    -0.022 C 
HETATM   12  C21 UNL     1      36.295  26.770  26.743  1.00  0.00     0.268 C 
HETATM   13  C1  UNL     1      38.899  26.000  27.845  1.00  0.00     0.036 C 
HETATM   14  F1  UNL     1      36.899  25.660  26.190  1.00  0.00    -0.201 F 
HETATM   15  F2  UNL     1      35.475  26.391  27.787  1.00  0.00    -0.201 F 
HETATM   16  C7  UNL     1      34.627  30.982  26.721  1.00  0.00     0.002 C 
HETATM   17  C8  UNL     1      35.356  31.184  25.392  1.00  0.00     0.020 C 
BRANCH   5  18
HETATM   18  C13 UNL     1      36.946  29.870  24.126  1.00  0.00     0.230 C 
HETATM   19  O1  UNL     1      37.733  30.858  24.293  1.00  0.00    -0.272 OA
HETATM   20  N3  UNL     1      37.424  28.822  23.326  1.00  0.00    -0.342 N 
HETATM   21  C14 UNL     1      38.757  28.799  22.645  1.00  0.00     0.087 C 
HETATM   22  C17 UNL     1      36.956  27.539  22.889  1.00  0.00     0.087 C 
HETATM   23  C15 UNL     1      38.327  28.598  21.230  1.00  0.00     0.027 C 
HETATM   24  C19 UNL     1      39.301  27.518  23.179  1.00  0.00     0.027 C 
HETATM   25  C16 UNL     1      37.138  27.669  21.385  1.00  0.00     0.027 C 
HETATM   26  C18 UNL     1      38.088  26.624  23.343  1.00  0.00     0.027 C 
ENDBRANCH   5  18
ENDBRANCH   4   5
ENDBRANCH   1   4
BRANCH   1  27
HETATM   27  N1  UNL     1      32.512  30.265  23.357  1.00  0.00    -0.063 N 
ATOM     28  H13 UNL     1      31.808  30.441  22.640  1.00  0.00     0.275 HD
ATOM     29  H12 UNL     1      32.210  29.319  23.591  1.00  0.00     0.275 HD
ATOM     30  H11 UNL     1      32.471  30.916  24.142  1.00  0.00     0.275 HD
ENDBRANCH   1  27
TORSDOF 4
ENDMDL
