MODEL 1
REMARK VINA RESULT: -5.362759432      0.000      0.000
REMARK  4 active torsions:
REMARK  status: ('A' for Active; 'I' for Inactive)
REMARK    1  A    between atoms: C4_5  and  N1_6 
REMARK    2  A    between atoms: C5_8  and  O1_9 
REMARK    3  A    between atoms: C5_8  and  C6_11 
REMARK    4  A    between atoms: N2_15  and  C10_16 
ROOT
HETATM    1  C1  UNL     1     -10.913  23.525   2.562  1.00  0.00     0.069 C 
HETATM    2  C2  UNL     1     -10.792  25.024   2.867  1.00  0.00     0.017 A 
HETATM    3  C3  UNL     1     -11.294  25.473   4.062  1.00  0.00     0.078 A 
HETATM    4  S1  UNL     1     -10.965  27.139   3.984  1.00  0.00    -0.064 SA
HETATM    5  C4  UNL     1     -10.220  27.188   2.467  1.00  0.00     0.153 A 
HETATM    6  N2  UNL     1     -10.247  25.908   2.065  1.00  0.00    -0.327 N 
ENDROOT
BRANCH   5   7
HETATM    7  N1  UNL     1      -9.750  28.194   1.852  1.00  0.00    -0.320 N 
HETATM    8  C5  UNL     1      -8.633  28.955   1.928  1.00  0.00     0.125 C 
ATOM      9  H1  UNL     1     -10.373  28.510   1.110  1.00  0.00     0.169 HD
BRANCH   8  10
HETATM   10  O1  UNL     1      -8.693  30.076   1.263  1.00  0.00    -0.349 OA
ATOM     11  H1  UNL     1      -8.280  30.814   1.695  1.00  0.00     0.219 HD
ENDBRANCH   8  10
BRANCH   8  12
HETATM   12  C6  UNL     1      -7.347  28.745   2.636  1.00  0.00     0.014 C 
HETATM   13  C7  UNL     1      -6.176  28.593   1.670  1.00  0.00     0.023 C 
HETATM   14  C8  UNL     1      -7.390  27.603   3.628  1.00  0.00     0.023 C 
HETATM   15  C9  UNL     1      -7.006  29.986   3.466  1.00  0.00     0.023 C 
ENDBRANCH   8  12
ENDBRANCH   5   7
BRANCH   6  16
HETATM   16  C10 UNL     1      -9.680  25.474   0.758  1.00  0.00     0.084 C 
HETATM   17  C11 UNL     1      -8.203  25.546   0.757  1.00  0.00     0.032 C 
HETATM   18  C12 UNL     1     -10.205  26.348  -0.361  1.00  0.00     0.032 C 
ENDBRANCH   6  16
TORSDOF 4
ENDMDL
MODEL 2
REMARK VINA RESULT: -5.354445558      2.600      4.888
REMARK  4 active torsions:
REMARK  status: ('A' for Active; 'I' for Inactive)
REMARK    1  A    between atoms: C4_5  and  N1_6 
REMARK    2  A    between atoms: C5_8  and  O1_9 
REMARK    3  A    between atoms: C5_8  and  C6_11 
REMARK    4  A    between atoms: N2_15  and  C10_16 
ROOT
HETATM    1  C1  UNL     1      -6.237  27.851   1.769  1.00  0.00     0.069 C 
HETATM    2  C2  UNL     1      -6.987  26.746   2.526  1.00  0.00     0.017 A 
HETATM    3  C3  UNL     1      -6.455  26.317   3.716  1.00  0.00     0.078 A 
HETATM    4  S1  UNL     1      -7.567  25.122   4.192  1.00  0.00    -0.064 SA
HETATM    5  C4  UNL     1      -8.634  25.221   2.884  1.00  0.00     0.153 A 
HETATM    6  N2  UNL     1      -8.096  26.180   2.115  1.00  0.00    -0.327 N 
ENDROOT
BRANCH   5   7
HETATM    7  N1  UNL     1      -9.689  24.546   2.675  1.00  0.00    -0.320 N 
HETATM    8  C5  UNL     1     -10.868  24.350   3.310  1.00  0.00     0.125 C 
ATOM      9  H1  UNL     1      -9.635  24.017   1.805  1.00  0.00     0.169 HD
BRANCH   8  10
HETATM   10  O1  UNL     1     -11.565  23.343   2.863  1.00  0.00    -0.349 OA
ATOM     11  H1  UNL     1     -11.794  22.697   3.521  1.00  0.00     0.219 HD
ENDBRANCH   8  10
BRANCH   8  12
HETATM   12  C6  UNL     1     -11.514  25.077   4.431  1.00  0.00     0.014 C 
HETATM   13  C7  UNL     1     -11.404  26.590   4.275  1.00  0.00     0.023 C 
HETATM   14  C8  UNL     1     -11.029  24.629   5.792  1.00  0.00     0.023 C 
HETATM   15  C9  UNL     1     -13.020  24.795   4.428  1.00  0.00     0.023 C 
ENDBRANCH   8  12
ENDBRANCH   5   7
BRANCH   6  16
HETATM   16  C10 UNL     1      -8.720  26.613   0.834  1.00  0.00     0.084 C 
HETATM   17  C11 UNL     1      -9.916  27.450   1.068  1.00  0.00     0.032 C 
HETATM   18  C12 UNL     1      -9.128  25.409   0.013  1.00  0.00     0.032 C 
ENDBRANCH   6  16
TORSDOF 4
ENDMDL
MODEL 3
REMARK VINA RESULT: -5.331765368      1.602      4.457
REMARK  4 active torsions:
REMARK  status: ('A' for Active; 'I' for Inactive)
REMARK    1  A    between atoms: C4_5  and  N1_6 
REMARK    2  A    between atoms: C5_8  and  O1_9 
REMARK    3  A    between atoms: C5_8  and  C6_11 
REMARK    4  A    between atoms: N2_15  and  C10_16 
ROOT
HETATM    1  C1  UNL     1      -6.157  28.941   5.177  1.00  0.00     0.069 C 
HETATM    2  C2  UNL     1      -7.427  28.257   4.654  1.00  0.00     0.017 A 
HETATM    3  C3  UNL     1      -8.076  27.391   5.497  1.00  0.00     0.078 A 
HETATM    4  S1  UNL     1      -9.382  26.873   4.539  1.00  0.00    -0.064 SA
HETATM    5  C4  UNL     1      -9.050  27.762   3.140  1.00  0.00     0.153 A 
HETATM    6  N2  UNL     1      -7.934  28.437   3.457  1.00  0.00    -0.327 N 
ENDROOT
BRANCH   5   7
HETATM    7  N1  UNL     1      -9.697  27.785   2.048  1.00  0.00    -0.320 N 
HETATM    8  C5  UNL     1      -9.834  26.972   0.974  1.00  0.00     0.125 C 
ATOM      9  H1  UNL     1     -10.256  28.632   1.956  1.00  0.00     0.169 HD
BRANCH   8  10
HETATM   10  O1  UNL     1     -10.400  27.530  -0.060  1.00  0.00    -0.349 OA
ATOM     11  H1  UNL     1     -10.173  27.138  -0.895  1.00  0.00     0.219 HD
ENDBRANCH   8  10
BRANCH   8  12
HETATM   12  C6  UNL     1      -9.453  25.555   0.758  1.00  0.00     0.014 C 
HETATM   13  C7  UNL     1     -10.224  24.606   1.671  1.00  0.00     0.023 C 
HETATM   14  C8  UNL     1      -7.962  25.315   0.853  1.00  0.00     0.023 C 
HETATM   15  C9  UNL     1      -9.840  25.128  -0.661  1.00  0.00     0.023 C 
ENDBRANCH   8  12
ENDBRANCH   5   7
BRANCH   6  16
HETATM   16  C10 UNL     1      -7.273  29.372   2.505  1.00  0.00     0.084 C 
HETATM   17  C11 UNL     1      -8.257  30.252   1.837  1.00  0.00     0.032 C 
HETATM   18  C12 UNL     1      -6.521  28.598   1.443  1.00  0.00     0.032 C 
ENDBRANCH   6  16
TORSDOF 4
ENDMDL
MODEL 4
REMARK VINA RESULT: -5.323540768      1.875      4.479
REMARK  4 active torsions:
REMARK  status: ('A' for Active; 'I' for Inactive)
REMARK    1  A    between atoms: C4_5  and  N1_6 
REMARK    2  A    between atoms: C5_8  and  O1_9 
REMARK    3  A    between atoms: C5_8  and  C6_11 
REMARK    4  A    between atoms: N2_15  and  C10_16 
ROOT
HETATM    1  C1  UNL     1      -5.209  27.032   5.444  1.00  0.00     0.069 C 
HETATM    2  C2  UNL     1      -6.615  26.666   4.949  1.00  0.00     0.017 A 
HETATM    3  C3  UNL     1      -7.253  25.619   5.564  1.00  0.00     0.078 A 
HETATM    4  S1  UNL     1      -8.730  25.559   4.723  1.00  0.00    -0.064 SA
HETATM    5  C4  UNL     1      -8.473  26.841   3.652  1.00  0.00     0.153 A 
HETATM    6  N2  UNL     1      -7.247  27.280   3.978  1.00  0.00    -0.327 N 
ENDROOT
BRANCH   5   7
HETATM    7  N1  UNL     1      -9.251  27.283   2.750  1.00  0.00    -0.320 N 
HETATM    8  C5  UNL     1      -9.638  26.891   1.514  1.00  0.00     0.125 C 
ATOM      9  H1  UNL     1      -9.697  28.156   3.028  1.00  0.00     0.169 HD
BRANCH   8  10
HETATM   10  O1  UNL     1     -10.256  27.809   0.823  1.00  0.00    -0.349 OA
ATOM     11  H1  UNL     1     -11.076  28.103   1.201  1.00  0.00     0.219 HD
ENDBRANCH   8  10
BRANCH   8  12
HETATM   12  C6  UNL     1      -9.486  25.601   0.798  1.00  0.00     0.014 C 
HETATM   13  C7  UNL     1     -10.307  24.487   1.438  1.00  0.00     0.023 C 
HETATM   14  C8  UNL     1      -8.043  25.184   0.618  1.00  0.00     0.023 C 
HETATM   15  C9  UNL     1     -10.047  25.730  -0.622  1.00  0.00     0.023 C 
ENDBRANCH   8  12
ENDBRANCH   5   7
BRANCH   6  16
HETATM   16  C10 UNL     1      -6.603  28.428   3.282  1.00  0.00     0.084 C 
HETATM   17  C11 UNL     1      -7.533  29.570   3.143  1.00  0.00     0.032 C 
HETATM   18  C12 UNL     1      -6.140  28.014   1.901  1.00  0.00     0.032 C 
ENDBRANCH   6  16
TORSDOF 4
ENDMDL
MODEL 5
REMARK VINA RESULT: -5.253257238      6.612      8.125
REMARK  4 active torsions:
REMARK  status: ('A' for Active; 'I' for Inactive)
REMARK    1  A    between atoms: C4_5  and  N1_6 
REMARK    2  A    between atoms: C5_8  and  O1_9 
REMARK    3  A    between atoms: C5_8  and  C6_11 
REMARK    4  A    between atoms: N2_15  and  C10_16 
ROOT
HETATM    1  C1  UNL     1     -17.152  28.203   3.566  1.00  0.00     0.069 C 
HETATM    2  C2  UNL     1     -15.883  27.547   4.126  1.00  0.00     0.017 A 
HETATM    3  C3  UNL     1     -14.850  28.372   4.493  1.00  0.00     0.078 A 
HETATM    4  S1  UNL     1     -13.681  27.260   5.033  1.00  0.00    -0.064 SA
HETATM    5  C4  UNL     1     -14.542  25.828   4.773  1.00  0.00     0.153 A 
HETATM    6  N2  UNL     1     -15.713  26.254   4.275  1.00  0.00    -0.327 N 
ENDROOT
BRANCH   5   7
HETATM    7  N1  UNL     1     -14.170  24.634   4.992  1.00  0.00    -0.320 N 
HETATM    8  C5  UNL     1     -13.910  23.873   6.080  1.00  0.00     0.125 C 
ATOM      9  H1  UNL     1     -14.032  24.115   4.125  1.00  0.00     0.169 HD
BRANCH   8  10
HETATM   10  O1  UNL     1     -13.279  22.760   5.826  1.00  0.00    -0.349 OA
ATOM     11  H1  UNL     1     -12.345  22.788   5.993  1.00  0.00     0.219 HD
ENDBRANCH   8  10
BRANCH   8  12
HETATM   12  C6  UNL     1     -14.212  24.078   7.518  1.00  0.00     0.014 C 
HETATM   13  C7  UNL     1     -15.680  24.418   7.755  1.00  0.00     0.023 C 
HETATM   14  C8  UNL     1     -13.301  25.087   8.182  1.00  0.00     0.023 C 
HETATM   15  C9  UNL     1     -13.988  22.770   8.283  1.00  0.00     0.023 C 
ENDBRANCH   8  12
ENDBRANCH   5   7
BRANCH   6  16
HETATM   16  C10 UNL     1     -16.805  25.314   3.899  1.00  0.00     0.084 C 
HETATM   17  C11 UNL     1     -17.456  25.715   2.633  1.00  0.00     0.032 C 
HETATM   18  C12 UNL     1     -17.857  25.268   4.987  1.00  0.00     0.032 C 
ENDBRANCH   6  16
TORSDOF 4
ENDMDL
