MODEL 1
REMARK VINA RESULT: -4.992028087      0.000      0.000
REMARK  2 active torsions:
REMARK  status: ('A' for Active; 'I' for Inactive)
REMARK    1  A    between atoms: C3_6  and  O1_7 
REMARK    2  A    between atoms: O1_7  and  C4_8 
ROOT
HETATM    1  C1  UNL     1      -7.107  29.291   4.667  1.00  0.00     0.152 C 
HETATM    2  N1  UNL     1      -7.339  28.853   3.283  1.00  0.00    -0.359 N 
HETATM    3  C2  UNL     1      -8.023  29.580   2.266  1.00  0.00     0.139 C 
HETATM    4  S1  UNL     1      -8.112  31.184   2.118  1.00  0.00    -0.053 SA
HETATM    5  S2  UNL     1      -8.749  28.324   1.212  1.00  0.00    -0.066 SA
HETATM    6  C3  UNL     1      -8.066  26.877   2.145  1.00  0.00     0.218 C 
HETATM    7  C8  UNL     1      -6.886  27.592   2.759  1.00  0.00     0.061 C 
HETATM    8  C9  UNL     1      -5.905  27.809   1.593  1.00  0.00     0.041 C 
HETATM    9  C10 UNL     1      -6.140  26.790   3.777  1.00  0.00     0.041 C 
ENDROOT
BRANCH   6  10
HETATM   10  O1  UNL     1      -9.044  26.488   2.995  1.00  0.00    -0.363 OA
BRANCH  10  11
HETATM   11  C4  UNL     1      -9.500  25.210   2.821  1.00  0.00     0.051 C 
HETATM   12  C5  UNL     1     -10.265  25.004   1.537  1.00  0.00     0.045 C 
HETATM   13  C6  UNL     1     -10.470  24.852   3.949  1.00  0.00     0.045 C 
HETATM   14  C7  UNL     1      -8.390  24.207   2.868  1.00  0.00     0.045 C 
ENDBRANCH  10  11
ENDBRANCH   6  10
TORSDOF 2
ENDMDL
MODEL 2
REMARK VINA RESULT: -4.798566493      5.688      7.128
REMARK  2 active torsions:
REMARK  status: ('A' for Active; 'I' for Inactive)
REMARK    1  A    between atoms: C3_6  and  O1_7 
REMARK    2  A    between atoms: O1_7  and  C4_8 
ROOT
HETATM    1  C1  UNL     1     -12.204  29.308   3.989  1.00  0.00     0.152 C 
HETATM    2  N1  UNL     1     -12.578  28.127   4.781  1.00  0.00    -0.359 N 
HETATM    3  C2  UNL     1     -11.889  26.881   4.824  1.00  0.00     0.139 C 
HETATM    4  S1  UNL     1     -10.307  26.642   4.614  1.00  0.00    -0.053 SA
HETATM    5  S2  UNL     1     -13.162  25.662   5.157  1.00  0.00    -0.066 SA
HETATM    6  C3  UNL     1     -14.557  26.876   5.275  1.00  0.00     0.218 C 
HETATM    7  C8  UNL     1     -13.725  28.079   5.648  1.00  0.00     0.061 C 
HETATM    8  C9  UNL     1     -13.295  27.827   7.104  1.00  0.00     0.041 C 
HETATM    9  C10 UNL     1     -14.479  29.371   5.662  1.00  0.00     0.041 C 
ENDROOT
BRANCH   6  10
HETATM   10  O1  UNL     1     -15.136  26.898   4.052  1.00  0.00    -0.363 OA
BRANCH  10  11
HETATM   11  C4  UNL     1     -16.489  26.704   4.039  1.00  0.00     0.051 C 
HETATM   12  C5  UNL     1     -16.929  25.515   3.222  1.00  0.00     0.045 C 
HETATM   13  C6  UNL     1     -17.176  27.921   3.412  1.00  0.00     0.045 C 
HETATM   14  C7  UNL     1     -17.048  26.554   5.419  1.00  0.00     0.045 C 
ENDBRANCH  10  11
ENDBRANCH   6  10
TORSDOF 2
ENDMDL
MODEL 3
REMARK VINA RESULT: -4.797770510      5.948      7.172
REMARK  2 active torsions:
REMARK  status: ('A' for Active; 'I' for Inactive)
REMARK    1  A    between atoms: C3_6  and  O1_7 
REMARK    2  A    between atoms: O1_7  and  C4_8 
ROOT
HETATM    1  C1  UNL     1     -12.071  29.303   3.656  1.00  0.00     0.152 C 
HETATM    2  N1  UNL     1     -12.660  28.721   4.871  1.00  0.00    -0.359 N 
HETATM    3  C2  UNL     1     -12.026  27.821   5.775  1.00  0.00     0.139 C 
HETATM    4  S1  UNL     1     -10.450  27.734   6.107  1.00  0.00    -0.053 SA
HETATM    5  S2  UNL     1     -13.360  26.826   6.444  1.00  0.00    -0.066 SA
HETATM    6  C3  UNL     1     -14.718  27.687   5.524  1.00  0.00     0.218 C 
HETATM    7  C8  UNL     1     -13.999  28.999   5.319  1.00  0.00     0.061 C 
HETATM    8  C9  UNL     1     -13.980  29.662   6.708  1.00  0.00     0.041 C 
HETATM    9  C10 UNL     1     -14.710  29.958   4.419  1.00  0.00     0.041 C 
ENDROOT
BRANCH   6  10
HETATM   10  O1  UNL     1     -14.946  26.945   4.417  1.00  0.00    -0.363 OA
BRANCH  10  11
HETATM   11  C4  UNL     1     -16.241  26.547   4.233  1.00  0.00     0.051 C 
HETATM   12  C5  UNL     1     -17.035  27.449   3.321  1.00  0.00     0.045 C 
HETATM   13  C6  UNL     1     -16.977  26.556   5.576  1.00  0.00     0.045 C 
HETATM   14  C7  UNL     1     -16.329  25.151   3.700  1.00  0.00     0.045 C 
ENDBRANCH  10  11
ENDBRANCH   6  10
TORSDOF 2
ENDMDL
MODEL 4
REMARK VINA RESULT: -4.792387091      1.757      2.495
REMARK  2 active torsions:
REMARK  status: ('A' for Active; 'I' for Inactive)
REMARK    1  A    between atoms: C3_6  and  O1_7 
REMARK    2  A    between atoms: O1_7  and  C4_8 
ROOT
HETATM    1  C1  UNL     1      -6.221  28.292   4.564  1.00  0.00     0.152 C 
HETATM    2  N1  UNL     1      -7.392  28.843   3.868  1.00  0.00    -0.359 N 
HETATM    3  C2  UNL     1      -8.545  29.422   4.473  1.00  0.00     0.139 C 
HETATM    4  S1  UNL     1      -8.607  30.206   5.882  1.00  0.00    -0.053 SA
HETATM    5  S2  UNL     1      -9.885  29.082   3.330  1.00  0.00    -0.066 SA
HETATM    6  C3  UNL     1      -8.839  28.223   2.065  1.00  0.00     0.218 C 
HETATM    7  C8  UNL     1      -7.528  28.873   2.436  1.00  0.00     0.061 C 
HETATM    8  C9  UNL     1      -7.648  30.322   1.932  1.00  0.00     0.041 C 
HETATM    9  C10 UNL     1      -6.335  28.296   1.742  1.00  0.00     0.041 C 
ENDROOT
BRANCH   6  10
HETATM   10  O1  UNL     1      -8.952  26.900   2.326  1.00  0.00    -0.363 OA
BRANCH  10  11
HETATM   11  C4  UNL     1      -9.374  26.129   1.278  1.00  0.00     0.051 C 
HETATM   12  C5  UNL     1     -10.339  25.039   1.672  1.00  0.00     0.045 C 
HETATM   13  C6  UNL     1      -8.174  25.419   0.647  1.00  0.00     0.045 C 
HETATM   14  C7  UNL     1     -10.010  26.948   0.199  1.00  0.00     0.045 C 
ENDBRANCH  10  11
ENDBRANCH   6  10
TORSDOF 2
ENDMDL
MODEL 5
REMARK VINA RESULT: -4.788438708      1.761      2.247
REMARK  2 active torsions:
REMARK  status: ('A' for Active; 'I' for Inactive)
REMARK    1  A    between atoms: C3_6  and  O1_7 
REMARK    2  A    between atoms: O1_7  and  C4_8 
ROOT
HETATM    1  C1  UNL     1      -6.230  28.264   4.562  1.00  0.00     0.152 C 
HETATM    2  N1  UNL     1      -7.397  28.821   3.863  1.00  0.00    -0.359 N 
HETATM    3  C2  UNL     1      -8.553  29.396   4.464  1.00  0.00     0.139 C 
HETATM    4  S1  UNL     1      -8.624  30.169   5.879  1.00  0.00    -0.053 SA
HETATM    5  S2  UNL     1      -9.885  29.066   3.310  1.00  0.00    -0.066 SA
HETATM    6  C3  UNL     1      -8.832  28.216   2.045  1.00  0.00     0.218 C 
HETATM    7  C8  UNL     1      -7.523  28.862   2.430  1.00  0.00     0.061 C 
HETATM    8  C9  UNL     1      -7.639  30.316   1.937  1.00  0.00     0.041 C 
HETATM    9  C10 UNL     1      -6.326  28.290   1.739  1.00  0.00     0.041 C 
ENDROOT
BRANCH   6  10
HETATM   10  O1  UNL     1      -8.947  26.891   2.295  1.00  0.00    -0.363 OA
BRANCH  10  11
HETATM   11  C4  UNL     1      -9.329  26.124   1.229  1.00  0.00     0.051 C 
HETATM   12  C5  UNL     1     -10.035  26.896   0.142  1.00  0.00     0.045 C 
HETATM   13  C6  UNL     1     -10.321  25.055   1.695  1.00  0.00     0.045 C 
HETATM   14  C7  UNL     1      -8.171  25.403   0.613  1.00  0.00     0.045 C 
ENDBRANCH  10  11
ENDBRANCH   6  10
TORSDOF 2
ENDMDL
