MODEL 1
REMARK VINA RESULT: -7.885389092      0.000      0.000
REMARK  13 active torsions:
REMARK  status: ('A' for Active; 'I' for Inactive)
REMARK    1  A    between atoms: C5_8  and  N2_9 
REMARK    2  A    between atoms: C6_10  and  C7_11 
REMARK    3  A    between atoms: C7_11  and  N3_12 
REMARK    4  A    between atoms: N3_12  and  C8_13 
REMARK    5  A    between atoms: N3_12  and  C13_19 
REMARK    6  A    between atoms: C8_13  and  C9_14 
REMARK    7  A    between atoms: C9_14  and  C10_15 
REMARK    8  A    between atoms: C10_15  and  N4_16 
REMARK    9  A    between atoms: C19_25  and  C20_26 
REMARK   10  A    between atoms: C20_26  and  O2_27 
REMARK   11  A    between atoms: C20_26  and  C21_29 
REMARK   12  A    between atoms: C21_29  and  N5_30 
REMARK   13  A    between atoms: N5_30  and  C22_33 
ROOT
HETATM    1  N2  UNL     1     123.302  58.567  18.032  1.00  0.00    -0.351 N 
HETATM    2  C6  UNL     1     123.003  57.277  17.355  1.00  0.00     0.121 C 
HETATM    3  C19 UNL     1     124.267  57.021  16.701  1.00  0.00     0.043 C 
HETATM    4  C25 UNL     1     125.366  57.623  17.598  1.00  0.00     0.040 C 
HETATM    5  C26 UNL     1     124.659  58.623  18.466  1.00  0.00     0.035 C 
HETATM    6  C27 UNL     1     124.831  58.324  19.939  1.00  0.00     0.031 C 
HETATM    7  C28 UNL     1     126.181  58.837  20.391  1.00  0.00     0.002 C 
HETATM    8  C29 UNL     1     126.117  60.334  20.571  1.00  0.00     0.000 C 
HETATM    9  C30 UNL     1     125.296  60.871  19.422  1.00  0.00     0.002 C 
HETATM   10  C31 UNL     1     125.339  59.962  18.224  1.00  0.00     0.031 C 
ENDROOT
BRANCH   2  11
HETATM   11  C7  UNL     1     122.362  56.368  18.306  1.00  0.00     0.298 C 
BRANCH  11  12
HETATM   12  N3  UNL     1     121.198  55.626  17.811  1.00  0.00     0.095 N 
BRANCH  12  13
HETATM   13  C8  UNL     1     121.239  55.478  16.395  1.00  0.00     0.274 C 
BRANCH  13  14
HETATM   14  C9  UNL     1     121.160  54.019  16.014  1.00  0.00     0.050 C 
BRANCH  14  15
HETATM   15  C10 UNL     1     120.583  53.867  14.608  1.00  0.00     0.117 C 
BRANCH  15  16
HETATM   16  N4  UNL     1     119.280  53.287  14.722  1.00  0.00    -0.421 N 
HETATM   17  C11 UNL     1     119.216  52.156  15.596  1.00  0.00     0.142 C 
HETATM   18  C12 UNL     1     118.184  54.181  14.828  1.00  0.00     0.142 C 
ENDBRANCH  15  16
ENDBRANCH  14  15
ENDBRANCH  13  14
ENDBRANCH  12  13
BRANCH  12  19
HETATM   19  C13 UNL     1     120.034  56.386  18.201  1.00  0.00     0.223 C 
HETATM   20  C14 UNL     1     119.292  57.051  17.090  1.00  0.00     0.036 C 
HETATM   21  C15 UNL     1     117.919  57.467  17.645  1.00  0.00     0.002 C 
HETATM   22  C16 UNL     1     118.043  58.335  18.858  1.00  0.00     0.000 C 
HETATM   23  C17 UNL     1     119.011  57.788  19.893  1.00  0.00     0.002 C 
HETATM   24  C18 UNL     1     120.346  57.485  19.211  1.00  0.00     0.036 C 
ENDBRANCH  12  19
ENDBRANCH  11  12
ENDBRANCH   2  11
BRANCH   1  25
HETATM   25  C5  UNL     1     122.330  59.581  18.197  1.00  0.00     0.111 A 
HETATM   26  C4  UNL     1     122.318  60.374  19.323  1.00  0.00     0.122 A 
HETATM   27  C3  UNL     1     121.337  61.350  19.446  1.00  0.00     0.250 A 
HETATM   28  N1  UNL     1     120.429  61.487  18.457  1.00  0.00    -0.313 N 
HETATM   29  O1  UNL     1     121.306  62.088  20.468  1.00  0.00    -0.268 OA
HETATM   30  C2  UNL     1     120.425  60.723  17.353  1.00  0.00     0.081 A 
ATOM     31  H1  UNL     1     119.712  62.206  18.553  1.00  0.00     0.170 HD
HETATM   32  C1  UNL     1     119.386  60.939  16.317  1.00  0.00     0.089 C 
HETATM   33  N6  UNL     1     121.389  59.783  17.257  1.00  0.00    -0.332 N 
ATOM     34  H6  UNL     1     121.405  59.192  16.425  1.00  0.00     0.168 HD
ENDBRANCH   1  25
BRANCH   3  35
HETATM   35  C20 UNL     1     124.681  55.695  16.219  1.00  0.00     0.150 C 
BRANCH  35  36
HETATM   36  O2  UNL     1     126.009  55.391  16.213  1.00  0.00    -0.393 OA
ATOM     37  H2  UNL     1     126.488  55.465  15.396  1.00  0.00     0.210 HD
ENDBRANCH  35  36
BRANCH  35  38
HETATM   38  C21 UNL     1     124.209  55.605  14.760  1.00  0.00     0.264 C 
BRANCH  38  39
HETATM   39  N5  UNL     1     125.010  54.730  13.969  1.00  0.00    -0.064 N 
ATOM     40  H52 UNL     1     125.243  55.109  13.052  1.00  0.00     0.277 HD
ATOM     41  H51 UNL     1     125.966  54.634  14.309  1.00  0.00     0.277 HD
BRANCH  39  42
HETATM   42  C22 UNL     1     124.274  53.455  13.912  1.00  0.00     0.233 C 
HETATM   43  C23 UNL     1     124.665  52.601  12.724  1.00  0.00     0.202 C 
HETATM   44  O3  UNL     1     124.954  51.512  13.552  1.00  0.00    -0.387 OA
HETATM   45  C24 UNL     1     124.862  52.328  14.686  1.00  0.00     0.202 C 
ENDBRANCH  39  42
ENDBRANCH  38  39
ENDBRANCH  35  38
ENDBRANCH   3  35
TORSDOF 13
ENDMDL
MODEL 2
REMARK VINA RESULT: -7.866628958      1.531      2.188
REMARK  13 active torsions:
REMARK  status: ('A' for Active; 'I' for Inactive)
REMARK    1  A    between atoms: C5_8  and  N2_9 
REMARK    2  A    between atoms: C6_10  and  C7_11 
REMARK    3  A    between atoms: C7_11  and  N3_12 
REMARK    4  A    between atoms: N3_12  and  C8_13 
REMARK    5  A    between atoms: N3_12  and  C13_19 
REMARK    6  A    between atoms: C8_13  and  C9_14 
REMARK    7  A    between atoms: C9_14  and  C10_15 
REMARK    8  A    between atoms: C10_15  and  N4_16 
REMARK    9  A    between atoms: C19_25  and  C20_26 
REMARK   10  A    between atoms: C20_26  and  O2_27 
REMARK   11  A    between atoms: C20_26  and  C21_29 
REMARK   12  A    between atoms: C21_29  and  N5_30 
REMARK   13  A    between atoms: N5_30  and  C22_33 
ROOT
HETATM    1  N2  UNL     1     123.237  59.083  18.708  1.00  0.00    -0.351 N 
HETATM    2  C6  UNL     1     122.823  58.053  17.719  1.00  0.00     0.121 C 
HETATM    3  C19 UNL     1     123.841  58.230  16.708  1.00  0.00     0.043 C 
HETATM    4  C25 UNL     1     125.123  58.678  17.437  1.00  0.00     0.040 C 
HETATM    5  C26 UNL     1     124.655  59.213  18.758  1.00  0.00     0.035 C 
HETATM    6  C27 UNL     1     125.285  58.485  19.925  1.00  0.00     0.031 C 
HETATM    7  C28 UNL     1     126.676  59.034  20.157  1.00  0.00     0.002 C 
HETATM    8  C29 UNL     1     126.581  60.360  20.871  1.00  0.00     0.000 C 
HETATM    9  C30 UNL     1     125.420  61.101  20.251  1.00  0.00     0.002 C 
HETATM   10  C31 UNL     1     125.150  60.650  18.841  1.00  0.00     0.031 C 
ENDROOT
BRANCH   2  11
HETATM   11  C7  UNL     1     122.556  56.793  18.414  1.00  0.00     0.298 C 
BRANCH  11  12
HETATM   12  N3  UNL     1     121.223  56.213  18.218  1.00  0.00     0.095 N 
BRANCH  12  13
HETATM   13  C8  UNL     1     121.104  55.606  16.935  1.00  0.00     0.274 C 
BRANCH  13  14
HETATM   14  C9  UNL     1     121.377  54.124  17.025  1.00  0.00     0.050 C 
BRANCH  14  15
HETATM   15  C10 UNL     1     120.265  53.336  16.334  1.00  0.00     0.117 C 
BRANCH  15  16
HETATM   16  N4  UNL     1     119.969  53.980  15.092  1.00  0.00    -0.421 N 
HETATM   17  C11 UNL     1     120.755  53.518  13.989  1.00  0.00     0.142 C 
HETATM   18  C12 UNL     1     118.600  54.202  14.792  1.00  0.00     0.142 C 
ENDBRANCH  15  16
ENDBRANCH  14  15
ENDBRANCH  13  14
ENDBRANCH  12  13
BRANCH  12  19
HETATM   19  C13 UNL     1     120.282  57.299  18.347  1.00  0.00     0.223 C 
HETATM   20  C14 UNL     1     119.278  57.161  19.442  1.00  0.00     0.036 C 
HETATM   21  C15 UNL     1     118.642  58.546  19.654  1.00  0.00     0.002 C 
HETATM   22  C16 UNL     1     118.051  59.092  18.392  1.00  0.00     0.000 C 
HETATM   23  C17 UNL     1     118.985  58.995  17.198  1.00  0.00     0.002 C 
HETATM   24  C18 UNL     1     119.481  57.553  17.074  1.00  0.00     0.036 C 
ENDBRANCH  12  19
ENDBRANCH  11  12
ENDBRANCH   2  11
BRANCH   1  25
HETATM   25  C5  UNL     1     122.303  59.817  19.476  1.00  0.00     0.111 A 
HETATM   26  C4  UNL     1     121.545  60.815  18.904  1.00  0.00     0.122 A 
HETATM   27  C3  UNL     1     120.647  61.515  19.701  1.00  0.00     0.250 A 
HETATM   28  N1  UNL     1     120.549  61.192  21.007  1.00  0.00    -0.313 N 
HETATM   29  O1  UNL     1     119.943  62.432  19.200  1.00  0.00    -0.268 OA
HETATM   30  C2  UNL     1     121.280  60.223  21.581  1.00  0.00     0.081 A 
ATOM     31  H1  UNL     1     119.888  61.709  21.587  1.00  0.00     0.170 HD
HETATM   32  C1  UNL     1     121.111  59.937  23.027  1.00  0.00     0.089 C 
HETATM   33  N6  UNL     1     122.144  59.557  20.786  1.00  0.00    -0.332 N 
ATOM     34  H6  UNL     1     122.708  58.815  21.202  1.00  0.00     0.168 HD
ENDBRANCH   1  25
BRANCH   3  35
HETATM   35  C20 UNL     1     124.167  57.219  15.692  1.00  0.00     0.150 C 
BRANCH  35  36
HETATM   36  O2  UNL     1     123.157  56.714  14.929  1.00  0.00    -0.393 OA
ATOM     37  H2  UNL     1     122.451  56.247  15.362  1.00  0.00     0.210 HD
ENDBRANCH  35  36
BRANCH  35  38
HETATM   38  C21 UNL     1     124.771  56.029  16.453  1.00  0.00     0.264 C 
BRANCH  38  39
HETATM   39  N5  UNL     1     126.051  55.644  15.958  1.00  0.00    -0.064 N 
ATOM     40  H52 UNL     1     126.409  56.262  15.230  1.00  0.00     0.277 HD
ATOM     41  H51 UNL     1     126.808  55.789  16.626  1.00  0.00     0.277 HD
BRANCH  39  42
HETATM   42  C22 UNL     1     125.908  54.243  15.525  1.00  0.00     0.233 C 
HETATM   43  C23 UNL     1     124.601  53.618  15.968  1.00  0.00     0.202 C 
HETATM   44  O3  UNL     1     124.286  53.250  14.657  1.00  0.00    -0.387 OA
HETATM   45  C24 UNL     1     125.336  54.036  14.166  1.00  0.00     0.202 C 
ENDBRANCH  39  42
ENDBRANCH  38  39
ENDBRANCH  35  38
ENDBRANCH   3  35
TORSDOF 13
ENDMDL
MODEL 3
REMARK VINA RESULT: -7.777191511      0.977      1.353
REMARK  13 active torsions:
REMARK  status: ('A' for Active; 'I' for Inactive)
REMARK    1  A    between atoms: C5_8  and  N2_9 
REMARK    2  A    between atoms: C6_10  and  C7_11 
REMARK    3  A    between atoms: C7_11  and  N3_12 
REMARK    4  A    between atoms: N3_12  and  C8_13 
REMARK    5  A    between atoms: N3_12  and  C13_19 
REMARK    6  A    between atoms: C8_13  and  C9_14 
REMARK    7  A    between atoms: C9_14  and  C10_15 
REMARK    8  A    between atoms: C10_15  and  N4_16 
REMARK    9  A    between atoms: C19_25  and  C20_26 
REMARK   10  A    between atoms: C20_26  and  O2_27 
REMARK   11  A    between atoms: C20_26  and  C21_29 
REMARK   12  A    between atoms: C21_29  and  N5_30 
REMARK   13  A    between atoms: N5_30  and  C22_33 
ROOT
HETATM    1  N2  UNL     1     123.221  58.232  17.783  1.00  0.00    -0.351 N 
HETATM    2  C6  UNL     1     122.968  56.921  17.127  1.00  0.00     0.121 C 
HETATM    3  C19 UNL     1     124.266  56.659  16.546  1.00  0.00     0.043 C 
HETATM    4  C25 UNL     1     125.312  57.296  17.482  1.00  0.00     0.040 C 
HETATM    5  C26 UNL     1     124.553  58.312  18.284  1.00  0.00     0.035 C 
HETATM    6  C27 UNL     1     124.652  58.056  19.772  1.00  0.00     0.031 C 
HETATM    7  C28 UNL     1     125.972  58.593  20.278  1.00  0.00     0.002 C 
HETATM    8  C29 UNL     1     125.887  60.094  20.413  1.00  0.00     0.000 C 
HETATM    9  C30 UNL     1     125.122  60.591  19.209  1.00  0.00     0.002 C 
HETATM   10  C31 UNL     1     125.234  59.651  18.040  1.00  0.00     0.031 C 
ENDROOT
BRANCH   2  11
HETATM   11  C7  UNL     1     122.286  56.032  18.069  1.00  0.00     0.298 C 
BRANCH  11  12
HETATM   12  N3  UNL     1     121.086  55.352  17.568  1.00  0.00     0.095 N 
BRANCH  12  13
HETATM   13  C8  UNL     1     121.114  55.226  16.150  1.00  0.00     0.274 C 
BRANCH  13  14
HETATM   14  C9  UNL     1     121.201  53.773  15.751  1.00  0.00     0.050 C 
BRANCH  14  15
HETATM   15  C10 UNL     1     120.566  53.559  14.378  1.00  0.00     0.117 C 
BRANCH  15  16
HETATM   16  N4  UNL     1     119.284  52.953  14.571  1.00  0.00    -0.421 N 
HETATM   17  C11 UNL     1     119.224  52.044  15.674  1.00  0.00     0.142 C 
HETATM   18  C12 UNL     1     118.148  53.792  14.430  1.00  0.00     0.142 C 
ENDBRANCH  15  16
ENDBRANCH  14  15
ENDBRANCH  13  14
ENDBRANCH  12  13
BRANCH  12  19
HETATM   19  C13 UNL     1     119.961  56.159  17.976  1.00  0.00     0.223 C 
HETATM   20  C14 UNL     1     119.212  56.832  16.876  1.00  0.00     0.036 C 
HETATM   21  C15 UNL     1     117.870  57.305  17.460  1.00  0.00     0.002 C 
HETATM   22  C16 UNL     1     118.058  58.187  18.655  1.00  0.00     0.000 C 
HETATM   23  C17 UNL     1     119.034  57.622  19.673  1.00  0.00     0.002 C 
HETATM   24  C18 UNL     1     120.339  57.262  18.960  1.00  0.00     0.036 C 
ENDBRANCH  12  19
ENDBRANCH  11  12
ENDBRANCH   2  11
BRANCH   1  25
HETATM   25  C5  UNL     1     122.233  59.240  17.870  1.00  0.00     0.111 A 
HETATM   26  C4  UNL     1     121.404  59.513  16.805  1.00  0.00     0.122 A 
HETATM   27  C3  UNL     1     120.455  60.519  16.934  1.00  0.00     0.250 A 
HETATM   28  N1  UNL     1     120.378  61.194  18.099  1.00  0.00    -0.313 N 
HETATM   29  O1  UNL     1     119.685  60.786  15.972  1.00  0.00    -0.268 OA
HETATM   30  C2  UNL     1     121.178  60.943  19.148  1.00  0.00     0.081 A 
ATOM     31  H1  UNL     1     119.679  61.932  18.188  1.00  0.00     0.170 HD
HETATM   32  C1  UNL     1     121.028  61.738  20.391  1.00  0.00     0.089 C 
HETATM   33  N6  UNL     1     122.091  59.960  18.998  1.00  0.00    -0.332 N 
ATOM     34  H6  UNL     1     122.708  59.751  19.783  1.00  0.00     0.168 HD
ENDBRANCH   1  25
BRANCH   3  35
HETATM   35  C20 UNL     1     124.715  55.325  16.123  1.00  0.00     0.150 C 
BRANCH  35  36
HETATM   36  O2  UNL     1     126.029  55.001  16.279  1.00  0.00    -0.393 OA
ATOM     37  H2  UNL     1     126.433  55.140  17.129  1.00  0.00     0.210 HD
ENDBRANCH  35  36
BRANCH  35  38
HETATM   38  C21 UNL     1     124.422  55.234  14.617  1.00  0.00     0.264 C 
BRANCH  38  39
HETATM   39  N5  UNL     1     125.222  54.259  13.953  1.00  0.00    -0.064 N 
ATOM     40  H52 UNL     1     125.626  54.591  13.077  1.00  0.00     0.277 HD
ATOM     41  H51 UNL     1     126.103  54.062  14.427  1.00  0.00     0.277 HD
BRANCH  39  42
HETATM   42  C22 UNL     1     124.361  53.074  13.794  1.00  0.00     0.233 C 
HETATM   43  C23 UNL     1     124.469  52.445  12.421  1.00  0.00     0.202 C 
HETATM   44  O3  UNL     1     124.774  51.198  12.972  1.00  0.00    -0.387 OA
HETATM   45  C24 UNL     1     124.948  51.778  14.234  1.00  0.00     0.202 C 
ENDBRANCH  39  42
ENDBRANCH  38  39
ENDBRANCH  35  38
ENDBRANCH   3  35
TORSDOF 13
ENDMDL
MODEL 4
REMARK VINA RESULT: -7.716142117      1.898      8.465
REMARK  13 active torsions:
REMARK  status: ('A' for Active; 'I' for Inactive)
REMARK    1  A    between atoms: C5_8  and  N2_9 
REMARK    2  A    between atoms: C6_10  and  C7_11 
REMARK    3  A    between atoms: C7_11  and  N3_12 
REMARK    4  A    between atoms: N3_12  and  C8_13 
REMARK    5  A    between atoms: N3_12  and  C13_19 
REMARK    6  A    between atoms: C8_13  and  C9_14 
REMARK    7  A    between atoms: C9_14  and  C10_15 
REMARK    8  A    between atoms: C10_15  and  N4_16 
REMARK    9  A    between atoms: C19_25  and  C20_26 
REMARK   10  A    between atoms: C20_26  and  O2_27 
REMARK   11  A    between atoms: C20_26  and  C21_29 
REMARK   12  A    between atoms: C21_29  and  N5_30 
REMARK   13  A    between atoms: N5_30  and  C22_33 
ROOT
HETATM    1  N2  UNL     1     121.653  54.673  15.624  1.00  0.00    -0.351 N 
HETATM    2  C6  UNL     1     121.778  55.797  16.590  1.00  0.00     0.121 C 
HETATM    3  C19 UNL     1     120.488  56.430  16.429  1.00  0.00     0.043 C 
HETATM    4  C25 UNL     1     119.482  55.315  16.082  1.00  0.00     0.040 C 
HETATM    5  C26 UNL     1     120.318  54.177  15.575  1.00  0.00     0.035 C 
HETATM    6  C27 UNL     1     120.115  52.915  16.383  1.00  0.00     0.031 C 
HETATM    7  C28 UNL     1     118.846  52.232  15.921  1.00  0.00     0.002 C 
HETATM    8  C29 UNL     1     119.107  51.511  14.620  1.00  0.00     0.000 C 
HETATM    9  C30 UNL     1     119.985  52.420  13.793  1.00  0.00     0.002 C 
HETATM   10  C31 UNL     1     119.818  53.866  14.172  1.00  0.00     0.031 C 
ENDROOT
BRANCH   2  11
HETATM   11  C7  UNL     1     122.299  55.290  17.860  1.00  0.00     0.298 C 
BRANCH  11  12
HETATM   12  N3  UNL     1     123.329  56.105  18.512  1.00  0.00     0.095 N 
BRANCH  12  13
HETATM   13  C8  UNL     1     123.036  57.495  18.405  1.00  0.00     0.274 C 
BRANCH  13  14
HETATM   14  C9  UNL     1     123.734  58.267  19.499  1.00  0.00     0.050 C 
BRANCH  14  15
HETATM   15  C10 UNL     1     124.042  59.689  19.032  1.00  0.00     0.117 C 
BRANCH  15  16
HETATM   16  N4  UNL     1     125.317  60.065  19.562  1.00  0.00    -0.421 N 
HETATM   17  C11 UNL     1     126.430  59.448  18.907  1.00  0.00     0.142 C 
HETATM   18  C12 UNL     1     125.501  61.434  19.883  1.00  0.00     0.142 C 
ENDBRANCH  15  16
ENDBRANCH  14  15
ENDBRANCH  13  14
ENDBRANCH  12  13
BRANCH  12  19
HETATM   19  C13 UNL     1     124.572  55.804  17.843  1.00  0.00     0.223 C 
HETATM   20  C14 UNL     1     124.968  56.743  16.754  1.00  0.00     0.036 C 
HETATM   21  C15 UNL     1     126.451  56.484  16.445  1.00  0.00     0.002 C 
HETATM   22  C16 UNL     1     126.711  55.052  16.095  1.00  0.00     0.000 C 
HETATM   23  C17 UNL     1     126.080  54.071  17.069  1.00  0.00     0.002 C 
HETATM   24  C18 UNL     1     124.597  54.411  17.223  1.00  0.00     0.036 C 
ENDBRANCH  12  19
ENDBRANCH  11  12
ENDBRANCH   2  11
BRANCH   1  25
HETATM   25  C5  UNL     1     122.751  54.195  14.871  1.00  0.00     0.111 A 
HETATM   26  C4  UNL     1     123.548  55.059  14.155  1.00  0.00     0.122 A 
HETATM   27  C3  UNL     1     124.610  54.542  13.422  1.00  0.00     0.250 A 
HETATM   28  N1  UNL     1     124.821  53.210  13.438  1.00  0.00    -0.313 N 
HETATM   29  O1  UNL     1     125.353  55.314  12.758  1.00  0.00    -0.268 OA
HETATM   30  C2  UNL     1     124.054  52.352  14.130  1.00  0.00     0.081 A 
ATOM     31  H1  UNL     1     125.603  52.835  12.898  1.00  0.00     0.170 HD
HETATM   32  C1  UNL     1     124.357  50.901  14.088  1.00  0.00     0.089 C 
HETATM   33  N6  UNL     1     123.031  52.880  14.834  1.00  0.00    -0.332 N 
ATOM     34  H6  UNL     1     122.437  52.246  15.369  1.00  0.00     0.168 HD
ENDBRANCH   1  25
BRANCH   3  35
HETATM   35  C20 UNL     1     119.901  57.348  17.416  1.00  0.00     0.150 C 
BRANCH  35  36
HETATM   36  O2  UNL     1     118.629  57.117  17.844  1.00  0.00    -0.393 OA
ATOM     37  H2  UNL     1     118.503  56.659  18.667  1.00  0.00     0.210 HD
ENDBRANCH  35  36
BRANCH  35  38
HETATM   38  C21 UNL     1     119.891  58.736  16.755  1.00  0.00     0.264 C 
BRANCH  38  39
HETATM   39  N5  UNL     1     120.777  59.658  17.384  1.00  0.00    -0.064 N 
ATOM     40  H52 UNL     1     121.609  59.220  17.779  1.00  0.00     0.277 HD
ATOM     41  H51 UNL     1     121.262  60.270  16.728  1.00  0.00     0.277 HD
BRANCH  39  42
HETATM   42  C22 UNL     1     119.964  60.383  18.375  1.00  0.00     0.233 C 
HETATM   43  C23 UNL     1     120.386  60.103  19.803  1.00  0.00     0.202 C 
HETATM   44  O3  UNL     1     120.537  61.468  20.067  1.00  0.00    -0.387 OA
HETATM   45  C24 UNL     1     120.415  61.763  18.705  1.00  0.00     0.202 C 
ENDBRANCH  39  42
ENDBRANCH  38  39
ENDBRANCH  35  38
ENDBRANCH   3  35
TORSDOF 13
ENDMDL
MODEL 5
REMARK VINA RESULT: -7.694733239      2.176      6.967
REMARK  13 active torsions:
REMARK  status: ('A' for Active; 'I' for Inactive)
REMARK    1  A    between atoms: C5_8  and  N2_9 
REMARK    2  A    between atoms: C6_10  and  C7_11 
REMARK    3  A    between atoms: C7_11  and  N3_12 
REMARK    4  A    between atoms: N3_12  and  C8_13 
REMARK    5  A    between atoms: N3_12  and  C13_19 
REMARK    6  A    between atoms: C8_13  and  C9_14 
REMARK    7  A    between atoms: C9_14  and  C10_15 
REMARK    8  A    between atoms: C10_15  and  N4_16 
REMARK    9  A    between atoms: C19_25  and  C20_26 
REMARK   10  A    between atoms: C20_26  and  O2_27 
REMARK   11  A    between atoms: C20_26  and  C21_29 
REMARK   12  A    between atoms: C21_29  and  N5_30 
REMARK   13  A    between atoms: N5_30  and  C22_33 
ROOT
HETATM    1  N2  UNL     1     122.805  54.414  16.183  1.00  0.00    -0.351 N 
HETATM    2  C6  UNL     1     122.598  55.525  17.150  1.00  0.00     0.121 C 
HETATM    3  C19 UNL     1     123.889  55.556  17.800  1.00  0.00     0.043 C 
HETATM    4  C25 UNL     1     124.930  55.122  16.750  1.00  0.00     0.040 C 
HETATM    5  C26 UNL     1     124.146  54.391  15.700  1.00  0.00     0.035 C 
HETATM    6  C27 UNL     1     124.303  55.015  14.331  1.00  0.00     0.031 C 
HETATM    7  C28 UNL     1     125.610  54.552  13.725  1.00  0.00     0.002 C 
HETATM    8  C29 UNL     1     125.453  53.143  13.205  1.00  0.00     0.000 C 
HETATM    9  C30 UNL     1     124.629  52.398  14.228  1.00  0.00     0.002 C 
HETATM   10  C31 UNL     1     124.752  52.998  15.601  1.00  0.00     0.031 C 
ENDROOT
BRANCH   2  11
HETATM   11  C7  UNL     1     121.991  56.663  16.459  1.00  0.00     0.298 C 
BRANCH  11  12
HETATM   12  N3  UNL     1     120.732  57.167  17.018  1.00  0.00     0.095 N 
BRANCH  12  13
HETATM   13  C8  UNL     1     120.726  57.085  18.441  1.00  0.00     0.274 C 
BRANCH  13  14
HETATM   14  C9  UNL     1     120.254  58.387  19.041  1.00  0.00     0.050 C 
BRANCH  14  15
HETATM   15  C10 UNL     1     120.805  59.569  18.246  1.00  0.00     0.117 C 
BRANCH  15  16
HETATM   16  N4  UNL     1     120.986  60.666  19.147  1.00  0.00    -0.421 N 
HETATM   17  C11 UNL     1     122.323  60.810  19.636  1.00  0.00     0.142 C 
HETATM   18  C12 UNL     1     120.342  61.886  18.814  1.00  0.00     0.142 C 
ENDBRANCH  15  16
ENDBRANCH  14  15
ENDBRANCH  13  14
ENDBRANCH  12  13
BRANCH  12  19
HETATM   19  C13 UNL     1     119.683  56.344  16.466  1.00  0.00     0.223 C 
HETATM   20  C14 UNL     1     119.629  56.274  14.977  1.00  0.00     0.036 C 
HETATM   21  C15 UNL     1     118.725  55.085  14.609  1.00  0.00     0.002 C 
HETATM   22  C16 UNL     1     117.368  55.198  15.231  1.00  0.00     0.000 C 
HETATM   23  C17 UNL     1     117.411  55.533  16.713  1.00  0.00     0.002 C 
HETATM   24  C18 UNL     1     118.288  56.770  16.914  1.00  0.00     0.036 C 
ENDBRANCH  12  19
ENDBRANCH  11  12
ENDBRANCH   2  11
BRANCH   1  25
HETATM   25  C5  UNL     1     121.771  53.520  15.822  1.00  0.00     0.111 A 
HETATM   26  C4  UNL     1     120.891  53.038  16.765  1.00  0.00     0.122 A 
HETATM   27  C3  UNL     1     119.896  52.154  16.364  1.00  0.00     0.250 A 
HETATM   28  N1  UNL     1     119.829  51.797  15.065  1.00  0.00    -0.313 N 
HETATM   29  O1  UNL     1     119.079  51.700  17.210  1.00  0.00    -0.268 OA
HETATM   30  C2  UNL     1     120.680  52.255  14.132  1.00  0.00     0.081 A 
ATOM     31  H1  UNL     1     119.097  51.147  14.777  1.00  0.00     0.170 HD
HETATM   32  C1  UNL     1     120.536  51.806  12.726  1.00  0.00     0.089 C 
HETATM   33  N6  UNL     1     121.635  53.114  14.546  1.00  0.00    -0.332 N 
ATOM     34  H6  UNL     1     122.290  53.476  13.853  1.00  0.00     0.168 HD
ENDBRANCH   1  25
BRANCH   3  35
HETATM   35  C20 UNL     1     124.392  56.709  18.561  1.00  0.00     0.150 C 
BRANCH  35  36
HETATM   36  O2  UNL     1     123.494  57.499  19.213  1.00  0.00    -0.393 OA
ATOM     37  H2  UNL     1     123.586  57.612  20.153  1.00  0.00     0.210 HD
ENDBRANCH  35  36
BRANCH  35  38
HETATM   38  C21 UNL     1     125.106  57.613  17.544  1.00  0.00     0.264 C 
BRANCH  38  39
HETATM   39  N5  UNL     1     125.025  58.996  17.876  1.00  0.00    -0.064 N 
ATOM     40  H52 UNL     1     125.116  59.615  17.070  1.00  0.00     0.277 HD
ATOM     41  H51 UNL     1     124.091  59.295  18.154  1.00  0.00     0.277 HD
BRANCH  39  42
HETATM   42  C22 UNL     1     126.048  59.220  18.912  1.00  0.00     0.233 C 
HETATM   43  C23 UNL     1     127.446  59.352  18.343  1.00  0.00     0.202 C 
HETATM   44  O3  UNL     1     127.632  60.582  18.981  1.00  0.00    -0.387 OA
HETATM   45  C24 UNL     1     126.273  60.637  19.310  1.00  0.00     0.202 C 
ENDBRANCH  39  42
ENDBRANCH  38  39
ENDBRANCH  35  38
ENDBRANCH   3  35
TORSDOF 13
ENDMDL
