MODEL 1
REMARK VINA RESULT: -9.806107795      0.000      0.000
REMARK  14 active torsions:
REMARK  status: ('A' for Active; 'I' for Inactive)
REMARK    1  A    between atoms: N1_2  and  C2_5 
REMARK    2  A    between atoms: C2_5  and  C3_6 
REMARK    3  A    between atoms: C3_6  and  N2_7 
REMARK    4  A    between atoms: N3_10  and  C6_11 
REMARK    5  A    between atoms: C6_11  and  C7_12 
REMARK    6  A    between atoms: C7_12  and  C8_13 
REMARK    7  A    between atoms: C8_13  and  O1_14 
REMARK    8  A    between atoms: O1_14  and  C9_15 
REMARK    9  A    between atoms: C11_17  and  N4_18 
REMARK   10  A    between atoms: N4_18  and  C12_20 
REMARK   11  A    between atoms: C13_23  and  C14_24 
REMARK   12  A    between atoms: C15_25  and  C16_26 
REMARK   13  A    between atoms: C28_42  and  O2_43 
REMARK   14  A    between atoms: C30_45  and  O3_46 
ROOT
HETATM    1  C9  UNL     1     124.394  59.549  18.958  1.00  0.00     0.107 A 
HETATM    2  C10 UNL     1     123.252  58.862  19.304  1.00  0.00     0.070 A 
HETATM    3  C11 UNL     1     122.312  59.314  20.210  1.00  0.00     0.060 A 
HETATM    4  C26 UNL     1     122.529  60.534  20.807  1.00  0.00     0.002 A 
HETATM    5  C27 UNL     1     121.555  61.047  21.772  1.00  0.00     0.054 C 
HETATM    6  C28 UNL     1     123.655  61.292  20.512  1.00  0.00     0.112 A 
HETATM    7  C30 UNL     1     124.553  60.788  19.604  1.00  0.00     0.135 A 
ENDROOT
BRANCH   3   8
HETATM    8  N4  UNL     1     121.158  58.577  20.541  1.00  0.00    -0.191 N 
ATOM      9  H4  UNL     1     121.045  58.288  21.513  1.00  0.00     0.184 HD
BRANCH   8  10
HETATM   10  C12 UNL     1     120.224  58.237  19.699  1.00  0.00     0.682 A 
HETATM   11  N5  UNL     1     120.423  57.231  18.830  1.00  0.00    -0.192 N 
HETATM   12  C13 UNL     1     119.440  56.884  17.960  1.00  0.00     0.050 A 
ATOM     13  H5  UNL     1     121.312  56.731  18.824  1.00  0.00     0.184 HD
HETATM   14  C24 UNL     1     118.255  57.564  17.980  1.00  0.00     0.047 A 
HETATM   15  C25 UNL     1     118.033  58.615  18.880  1.00  0.00     0.108 A 
HETATM   16  N7  UNL     1     119.047  58.905  19.711  1.00  0.00    -0.202 N 
ATOM     17  H7  UNL     1     118.925  59.664  20.381  1.00  0.00     0.183 HD
BRANCH  12  18
HETATM   18  C14 UNL     1     119.691  55.794  17.025  1.00  0.00     0.031 C 
HETATM   19  C15 UNL     1     118.828  55.417  16.109  1.00  0.00     0.013 C 
BRANCH  19  20
HETATM   20  C16 UNL     1     119.036  54.350  15.166  1.00  0.00    -0.035 A 
HETATM   21  C17 UNL     1     120.245  54.064  14.582  1.00  0.00     0.013 A 
HETATM   22  C18 UNL     1     120.389  53.011  13.672  1.00  0.00     0.031 A 
HETATM   23  C19 UNL     1     119.320  52.218  13.329  1.00  0.00     0.042 A 
HETATM   24  N6  UNL     1     119.171  51.153  12.495  1.00  0.00    -0.365 N 
HETATM   25  C22 UNL     1     118.100  52.488  13.904  1.00  0.00    -0.007 A 
HETATM   26  C20 UNL     1     117.913  50.721  12.503  1.00  0.00     0.089 A 
ATOM     27  H6  UNL     1     119.921  50.742  11.939  1.00  0.00     0.165 HD
HETATM   28  C21 UNL     1     117.237  51.541  13.374  1.00  0.00     0.030 A 
HETATM   29  C23 UNL     1     117.969  53.522  14.792  1.00  0.00     0.025 A 
ENDBRANCH  19  20
ENDBRANCH  12  18
ENDBRANCH   8  10
ENDBRANCH   3   8
BRANCH   1  30
HETATM   30  O1  UNL     1     125.346  59.176  18.097  1.00  0.00    -0.348 OA
BRANCH  30  31
HETATM   31  C8  UNL     1     126.220  58.160  17.918  1.00  0.00     0.181 C 
BRANCH  31  32
HETATM   32  C7  UNL     1     125.796  57.151  16.884  1.00  0.00     0.071 C 
BRANCH  32  33
HETATM   33  C6  UNL     1     124.896  56.112  17.427  1.00  0.00     0.065 C 
BRANCH  33  34
HETATM   34  N3  UNL     1     124.552  54.982  16.723  1.00  0.00    -0.367 N 
HETATM   35  C5  UNL     1     123.608  54.873  15.724  1.00  0.00     0.107 C 
HETATM   36  C4  UNL     1     124.030  54.159  14.451  1.00  0.00     0.102 C 
HETATM   37  N2  UNL     1     125.060  53.217  14.566  1.00  0.00    -0.386 N 
HETATM   38  C33 UNL     1     126.135  53.706  15.356  1.00  0.00     0.142 C 
HETATM   39  C32 UNL     1     125.598  53.994  16.737  1.00  0.00     0.147 C 
BRANCH  37  40
HETATM   40  C3  UNL     1     124.726  51.847  14.691  1.00  0.00     0.149 C 
BRANCH  40  41
HETATM   41  C2  UNL     1     123.718  51.425  13.673  1.00  0.00     0.251 C 
BRANCH  41  42
HETATM   42  N1  UNL     1     123.188  50.104  14.043  1.00  0.00    -0.077 N 
HETATM   43  C1  UNL     1     124.317  49.181  14.124  1.00  0.00     0.267 C 
ATOM     44  H12 UNL     1     122.454  49.780  13.412  1.00  0.00     0.276 HD
ATOM     45  H11 UNL     1     122.630  50.125  14.896  1.00  0.00     0.276 HD
ENDBRANCH  41  42
ENDBRANCH  40  41
ENDBRANCH  37  40
ENDBRANCH  33  34
ENDBRANCH  32  33
ENDBRANCH  31  32
ENDBRANCH  30  31
ENDBRANCH   1  30
BRANCH   6  46
HETATM   46  O2  UNL     1     123.856  62.523  21.126  1.00  0.00    -0.352 OA
HETATM   47  C29 UNL     1     124.561  62.535  22.358  1.00  0.00     0.210 C 
ENDBRANCH   6  46
BRANCH   7  48
HETATM   48  O3  UNL     1     125.676  61.536  19.306  1.00  0.00    -0.351 OA
HETATM   49  C31 UNL     1     126.935  61.360  19.916  1.00  0.00     0.210 C 
ENDBRANCH   7  48
TORSDOF 14
ENDMDL
MODEL 2
REMARK VINA RESULT: -9.318618786      1.490      1.926
REMARK  14 active torsions:
REMARK  status: ('A' for Active; 'I' for Inactive)
REMARK    1  A    between atoms: N1_2  and  C2_5 
REMARK    2  A    between atoms: C2_5  and  C3_6 
REMARK    3  A    between atoms: C3_6  and  N2_7 
REMARK    4  A    between atoms: N3_10  and  C6_11 
REMARK    5  A    between atoms: C6_11  and  C7_12 
REMARK    6  A    between atoms: C7_12  and  C8_13 
REMARK    7  A    between atoms: C8_13  and  O1_14 
REMARK    8  A    between atoms: O1_14  and  C9_15 
REMARK    9  A    between atoms: C11_17  and  N4_18 
REMARK   10  A    between atoms: N4_18  and  C12_20 
REMARK   11  A    between atoms: C13_23  and  C14_24 
REMARK   12  A    between atoms: C15_25  and  C16_26 
REMARK   13  A    between atoms: C28_42  and  O2_43 
REMARK   14  A    between atoms: C30_45  and  O3_46 
ROOT
HETATM    1  C9  UNL     1     124.399  58.244  18.158  1.00  0.00     0.107 A 
HETATM    2  C10 UNL     1     123.205  58.331  17.479  1.00  0.00     0.070 A 
HETATM    3  C11 UNL     1     122.156  59.154  17.842  1.00  0.00     0.060 A 
HETATM    4  C26 UNL     1     122.316  59.944  18.958  1.00  0.00     0.002 A 
HETATM    5  C27 UNL     1     121.228  60.830  19.374  1.00  0.00     0.054 C 
HETATM    6  C28 UNL     1     123.491  59.918  19.698  1.00  0.00     0.112 A 
HETATM    7  C30 UNL     1     124.495  59.078  19.287  1.00  0.00     0.135 A 
ENDROOT
BRANCH   3   8
HETATM    8  N4  UNL     1     120.947  59.210  17.122  1.00  0.00    -0.191 N 
ATOM      9  H4  UNL     1     120.805  60.005  16.499  1.00  0.00     0.184 HD
BRANCH   8  10
HETATM   10  C12 UNL     1     119.996  58.323  17.194  1.00  0.00     0.682 A 
HETATM   11  N5  UNL     1     119.936  57.316  16.306  1.00  0.00    -0.192 N 
HETATM   12  C13 UNL     1     118.942  56.394  16.394  1.00  0.00     0.050 A 
ATOM     13  H5  UNL     1     120.636  57.243  15.568  1.00  0.00     0.184 HD
HETATM   14  C24 UNL     1     118.011  56.504  17.388  1.00  0.00     0.047 A 
HETATM   15  C25 UNL     1     118.061  57.550  18.320  1.00  0.00     0.108 A 
HETATM   16  N7  UNL     1     119.069  58.424  18.175  1.00  0.00    -0.202 N 
ATOM     17  H7  UNL     1     119.140  59.199  18.834  1.00  0.00     0.183 HD
BRANCH  12  18
HETATM   18  C14 UNL     1     118.901  55.319  15.411  1.00  0.00     0.031 C 
HETATM   19  C15 UNL     1     118.594  54.077  15.713  1.00  0.00     0.013 C 
BRANCH  19  20
HETATM   20  C16 UNL     1     118.540  52.988  14.774  1.00  0.00    -0.035 A 
HETATM   21  C17 UNL     1     117.877  53.039  13.573  1.00  0.00     0.013 A 
HETATM   22  C18 UNL     1     117.860  51.947  12.698  1.00  0.00     0.031 A 
HETATM   23  C19 UNL     1     118.510  50.778  13.009  1.00  0.00     0.042 A 
HETATM   24  N6  UNL     1     118.659  49.586  12.368  1.00  0.00    -0.365 N 
HETATM   25  C22 UNL     1     119.180  50.706  14.209  1.00  0.00    -0.007 A 
HETATM   26  C20 UNL     1     119.394  48.748  13.094  1.00  0.00     0.089 A 
ATOM     27  H6  UNL     1     118.262  49.366  11.454  1.00  0.00     0.165 HD
HETATM   28  C21 UNL     1     119.724  49.431  14.240  1.00  0.00     0.030 A 
HETATM   29  C23 UNL     1     119.191  51.780  15.059  1.00  0.00     0.025 A 
ENDBRANCH  19  20
ENDBRANCH  12  18
ENDBRANCH   8  10
ENDBRANCH   3   8
BRANCH   1  30
HETATM   30  O1  UNL     1     125.452  57.473  17.870  1.00  0.00    -0.348 OA
BRANCH  30  31
HETATM   31  C8  UNL     1     126.305  57.249  16.845  1.00  0.00     0.181 C 
BRANCH  31  32
HETATM   32  C7  UNL     1     126.487  55.797  16.494  1.00  0.00     0.071 C 
BRANCH  32  33
HETATM   33  C6  UNL     1     125.331  54.960  16.878  1.00  0.00     0.065 C 
BRANCH  33  34
HETATM   34  N3  UNL     1     124.845  53.949  16.083  1.00  0.00    -0.367 N 
HETATM   35  C5  UNL     1     123.525  53.612  15.871  1.00  0.00     0.107 C 
HETATM   36  C4  UNL     1     123.086  53.416  14.429  1.00  0.00     0.102 C 
HETATM   37  N2  UNL     1     124.077  53.040  13.512  1.00  0.00    -0.386 N 
HETATM   38  C33 UNL     1     125.262  53.807  13.672  1.00  0.00     0.142 C 
HETATM   39  C32 UNL     1     125.786  53.559  15.067  1.00  0.00     0.147 C 
BRANCH  37  40
HETATM   40  C3  UNL     1     124.222  51.671  13.183  1.00  0.00     0.149 C 
BRANCH  40  41
HETATM   41  C2  UNL     1     122.976  50.895  13.463  1.00  0.00     0.251 C 
BRANCH  41  42
HETATM   42  N1  UNL     1     123.341  49.597  14.048  1.00  0.00    -0.077 N 
HETATM   43  C1  UNL     1     124.799  49.501  14.038  1.00  0.00     0.267 C 
ATOM     44  H12 UNL     1     122.888  48.810  13.582  1.00  0.00     0.276 HD
ATOM     45  H11 UNL     1     122.940  49.452  14.974  1.00  0.00     0.276 HD
ENDBRANCH  41  42
ENDBRANCH  40  41
ENDBRANCH  37  40
ENDBRANCH  33  34
ENDBRANCH  32  33
ENDBRANCH  31  32
ENDBRANCH  30  31
ENDBRANCH   1  30
BRANCH   6  46
HETATM   46  O2  UNL     1     123.632  60.724  20.822  1.00  0.00    -0.352 OA
HETATM   47  C29 UNL     1     124.209  62.009  20.641  1.00  0.00     0.210 C 
ENDBRANCH   6  46
BRANCH   7  48
HETATM   48  O3  UNL     1     125.667  59.046  20.019  1.00  0.00    -0.351 OA
HETATM   49  C31 UNL     1     126.843  59.742  19.671  1.00  0.00     0.210 C 
ENDBRANCH   7  48
TORSDOF 14
ENDMDL
MODEL 3
REMARK VINA RESULT: -9.186649081      1.321      1.554
REMARK  14 active torsions:
REMARK  status: ('A' for Active; 'I' for Inactive)
REMARK    1  A    between atoms: N1_2  and  C2_5 
REMARK    2  A    between atoms: C2_5  and  C3_6 
REMARK    3  A    between atoms: C3_6  and  N2_7 
REMARK    4  A    between atoms: N3_10  and  C6_11 
REMARK    5  A    between atoms: C6_11  and  C7_12 
REMARK    6  A    between atoms: C7_12  and  C8_13 
REMARK    7  A    between atoms: C8_13  and  O1_14 
REMARK    8  A    between atoms: O1_14  and  C9_15 
REMARK    9  A    between atoms: C11_17  and  N4_18 
REMARK   10  A    between atoms: N4_18  and  C12_20 
REMARK   11  A    between atoms: C13_23  and  C14_24 
REMARK   12  A    between atoms: C15_25  and  C16_26 
REMARK   13  A    between atoms: C28_42  and  O2_43 
REMARK   14  A    between atoms: C30_45  and  O3_46 
ROOT
HETATM    1  C9  UNL     1     124.381  58.450  18.446  1.00  0.00     0.107 A 
HETATM    2  C10 UNL     1     123.140  58.647  17.883  1.00  0.00     0.070 A 
HETATM    3  C11 UNL     1     122.226  59.588  18.315  1.00  0.00     0.060 A 
HETATM    4  C26 UNL     1     122.578  60.385  19.380  1.00  0.00     0.002 A 
HETATM    5  C27 UNL     1     121.635  61.394  19.865  1.00  0.00     0.054 C 
HETATM    6  C28 UNL     1     123.812  60.252  20.004  1.00  0.00     0.112 A 
HETATM    7  C30 UNL     1     124.676  59.298  19.529  1.00  0.00     0.135 A 
ENDROOT
BRANCH   3   8
HETATM    8  N4  UNL     1     120.962  59.755  17.713  1.00  0.00    -0.191 N 
ATOM      9  H4  UNL     1     120.793  60.624  17.206  1.00  0.00     0.184 HD
BRANCH   8  10
HETATM   10  C12 UNL     1     119.995  58.883  17.757  1.00  0.00     0.682 A 
HETATM   11  N5  UNL     1     119.902  57.923  16.822  1.00  0.00    -0.192 N 
HETATM   12  C13 UNL     1     118.892  57.017  16.881  1.00  0.00     0.050 A 
ATOM     13  H5  UNL     1     120.588  57.875  16.069  1.00  0.00     0.184 HD
HETATM   14  C24 UNL     1     117.979  57.095  17.896  1.00  0.00     0.047 A 
HETATM   15  C25 UNL     1     118.064  58.092  18.877  1.00  0.00     0.108 A 
HETATM   16  N7  UNL     1     119.087  58.953  18.758  1.00  0.00    -0.202 N 
ATOM     17  H7  UNL     1     119.184  59.692  19.453  1.00  0.00     0.183 HD
BRANCH  12  18
HETATM   18  C14 UNL     1     118.813  55.993  15.847  1.00  0.00     0.031 C 
HETATM   19  C15 UNL     1     119.332  54.794  15.978  1.00  0.00     0.013 C 
BRANCH  19  20
HETATM   20  C16 UNL     1     119.275  53.755  14.984  1.00  0.00    -0.035 A 
HETATM   21  C17 UNL     1     120.353  53.339  14.243  1.00  0.00     0.013 A 
HETATM   22  C18 UNL     1     120.239  52.320  13.290  1.00  0.00     0.031 A 
HETATM   23  C19 UNL     1     119.038  51.695  13.060  1.00  0.00     0.042 A 
HETATM   24  N6  UNL     1     118.643  50.700  12.219  1.00  0.00    -0.365 N 
HETATM   25  C22 UNL     1     117.945  52.097  13.793  1.00  0.00    -0.007 A 
HETATM   26  C20 UNL     1     117.347  50.439  12.373  1.00  0.00     0.089 A 
ATOM     27  H6  UNL     1     119.256  50.220  11.561  1.00  0.00     0.165 HD
HETATM   28  C21 UNL     1     116.902  51.300  13.347  1.00  0.00     0.030 A 
HETATM   29  C23 UNL     1     118.066  53.095  14.723  1.00  0.00     0.025 A 
ENDBRANCH  19  20
ENDBRANCH  12  18
ENDBRANCH   8  10
ENDBRANCH   3   8
BRANCH   1  30
HETATM   30  O1  UNL     1     125.313  57.561  18.087  1.00  0.00    -0.348 OA
BRANCH  30  31
HETATM   31  C8  UNL     1     125.927  57.123  16.965  1.00  0.00     0.181 C 
BRANCH  31  32
HETATM   32  C7  UNL     1     125.600  55.702  16.592  1.00  0.00     0.071 C 
BRANCH  32  33
HETATM   33  C6  UNL     1     124.321  55.577  15.861  1.00  0.00     0.065 C 
BRANCH  33  34
HETATM   34  N3  UNL     1     124.060  54.551  14.984  1.00  0.00    -0.367 N 
HETATM   35  C5  UNL     1     124.463  54.451  13.669  1.00  0.00     0.107 C 
HETATM   36  C4  UNL     1     125.097  53.138  13.240  1.00  0.00     0.102 C 
HETATM   37  N2  UNL     1     124.739  51.996  13.968  1.00  0.00    -0.386 N 
HETATM   38  C33 UNL     1     124.759  52.234  15.368  1.00  0.00     0.142 C 
HETATM   39  C32 UNL     1     123.754  53.321  15.664  1.00  0.00     0.147 C 
BRANCH  37  40
HETATM   40  C3  UNL     1     123.721  51.152  13.462  1.00  0.00     0.149 C 
BRANCH  40  41
HETATM   41  C2  UNL     1     123.986  49.714  13.767  1.00  0.00     0.251 C 
BRANCH  41  42
HETATM   42  N1  UNL     1     122.703  49.014  13.930  1.00  0.00    -0.077 N 
HETATM   43  C1  UNL     1     122.992  47.664  14.406  1.00  0.00     0.267 C 
ATOM     44  H12 UNL     1     122.136  49.023  13.082  1.00  0.00     0.276 HD
ATOM     45  H11 UNL     1     122.051  49.516  14.531  1.00  0.00     0.276 HD
ENDBRANCH  41  42
ENDBRANCH  40  41
ENDBRANCH  37  40
ENDBRANCH  33  34
ENDBRANCH  32  33
ENDBRANCH  31  32
ENDBRANCH  30  31
ENDBRANCH   1  30
BRANCH   6  46
HETATM   46  O2  UNL     1     124.149  61.068  21.078  1.00  0.00    -0.352 OA
HETATM   47  C29 UNL     1     124.922  62.226  20.806  1.00  0.00     0.210 C 
ENDBRANCH   6  46
BRANCH   7  48
HETATM   48  O3  UNL     1     125.905  59.158  20.145  1.00  0.00    -0.351 OA
HETATM   49  C31 UNL     1     127.124  59.618  19.604  1.00  0.00     0.210 C 
ENDBRANCH   7  48
TORSDOF 14
ENDMDL
MODEL 4
REMARK VINA RESULT: -9.182258654      1.084      1.151
REMARK  14 active torsions:
REMARK  status: ('A' for Active; 'I' for Inactive)
REMARK    1  A    between atoms: N1_2  and  C2_5 
REMARK    2  A    between atoms: C2_5  and  C3_6 
REMARK    3  A    between atoms: C3_6  and  N2_7 
REMARK    4  A    between atoms: N3_10  and  C6_11 
REMARK    5  A    between atoms: C6_11  and  C7_12 
REMARK    6  A    between atoms: C7_12  and  C8_13 
REMARK    7  A    between atoms: C8_13  and  O1_14 
REMARK    8  A    between atoms: O1_14  and  C9_15 
REMARK    9  A    between atoms: C11_17  and  N4_18 
REMARK   10  A    between atoms: N4_18  and  C12_20 
REMARK   11  A    between atoms: C13_23  and  C14_24 
REMARK   12  A    between atoms: C15_25  and  C16_26 
REMARK   13  A    between atoms: C28_42  and  O2_43 
REMARK   14  A    between atoms: C30_45  and  O3_46 
ROOT
HETATM    1  C9  UNL     1     124.074  59.213  18.927  1.00  0.00     0.107 A 
HETATM    2  C10 UNL     1     122.897  59.172  18.213  1.00  0.00     0.070 A 
HETATM    3  C11 UNL     1     121.813  59.997  18.444  1.00  0.00     0.060 A 
HETATM    4  C26 UNL     1     121.916  60.925  19.455  1.00  0.00     0.002 A 
HETATM    5  C27 UNL     1     120.788  61.817  19.728  1.00  0.00     0.054 C 
HETATM    6  C28 UNL     1     123.069  61.033  20.221  1.00  0.00     0.112 A 
HETATM    7  C30 UNL     1     124.111  60.184  19.944  1.00  0.00     0.135 A 
ENDROOT
BRANCH   3   8
HETATM    8  N4  UNL     1     120.624  59.920  17.693  1.00  0.00    -0.191 N 
ATOM      9  H4  UNL     1     120.389  60.716  17.099  1.00  0.00     0.184 HD
BRANCH   8  10
HETATM   10  C12 UNL     1     119.802  58.909  17.700  1.00  0.00     0.682 A 
HETATM   11  N5  UNL     1     120.024  57.846  16.908  1.00  0.00    -0.192 N 
HETATM   12  C13 UNL     1     119.163  56.796  16.928  1.00  0.00     0.050 A 
ATOM     13  H5  UNL     1     120.838  57.828  16.294  1.00  0.00     0.184 HD
HETATM   14  C24 UNL     1     118.077  56.835  17.757  1.00  0.00     0.047 A 
HETATM   15  C25 UNL     1     117.833  57.938  18.587  1.00  0.00     0.108 A 
HETATM   16  N7  UNL     1     118.724  58.939  18.517  1.00  0.00    -0.202 N 
ATOM     17  H7  UNL     1     118.583  59.759  19.106  1.00  0.00     0.183 HD
BRANCH  12  18
HETATM   18  C14 UNL     1     119.426  55.662  16.051  1.00  0.00     0.031 C 
HETATM   19  C15 UNL     1     118.480  54.892  15.565  1.00  0.00     0.013 C 
BRANCH  19  20
HETATM   20  C16 UNL     1     118.696  53.765  14.696  1.00  0.00    -0.035 A 
HETATM   21  C17 UNL     1     119.925  53.392  14.211  1.00  0.00     0.013 A 
HETATM   22  C18 UNL     1     120.075  52.284  13.370  1.00  0.00     0.031 A 
HETATM   23  C19 UNL     1     118.994  51.523  12.997  1.00  0.00     0.042 A 
HETATM   24  N6  UNL     1     118.847  50.421  12.212  1.00  0.00    -0.365 N 
HETATM   25  C22 UNL     1     117.754  51.880  13.473  1.00  0.00    -0.007 A 
HETATM   26  C20 UNL     1     117.571  50.047  12.158  1.00  0.00     0.089 A 
ATOM     27  H6  UNL     1     119.611  49.945  11.731  1.00  0.00     0.165 HD
HETATM   28  C21 UNL     1     116.882  50.945  12.937  1.00  0.00     0.030 A 
HETATM   29  C23 UNL     1     117.616  52.966  14.295  1.00  0.00     0.025 A 
ENDBRANCH  19  20
ENDBRANCH  12  18
ENDBRANCH   8  10
ENDBRANCH   3   8
BRANCH   1  30
HETATM   30  O1  UNL     1     125.158  58.448  18.765  1.00  0.00    -0.348 OA
BRANCH  30  31
HETATM   31  C8  UNL     1     126.107  58.207  17.832  1.00  0.00     0.181 C 
BRANCH  31  32
HETATM   32  C7  UNL     1     125.808  57.041  16.928  1.00  0.00     0.071 C 
BRANCH  32  33
HETATM   33  C6  UNL     1     124.892  56.056  17.541  1.00  0.00     0.065 C 
BRANCH  33  34
HETATM   34  N3  UNL     1     124.482  54.915  16.892  1.00  0.00    -0.367 N 
HETATM   35  C5  UNL     1     123.366  54.759  16.098  1.00  0.00     0.107 C 
HETATM   36  C4  UNL     1     123.567  54.088  14.749  1.00  0.00     0.102 C 
HETATM   37  N2  UNL     1     124.653  53.212  14.635  1.00  0.00    -0.386 N 
HETATM   38  C33 UNL     1     125.833  53.757  15.207  1.00  0.00     0.142 C 
HETATM   39  C32 UNL     1     125.566  53.995  16.674  1.00  0.00     0.147 C 
BRANCH  37  40
HETATM   40  C3  UNL     1     124.432  51.822  14.790  1.00  0.00     0.149 C 
BRANCH  40  41
HETATM   41  C2  UNL     1     123.684  51.244  13.633  1.00  0.00     0.251 C 
BRANCH  41  42
HETATM   42  N1  UNL     1     123.119  49.946  14.028  1.00  0.00    -0.077 N 
HETATM   43  C1  UNL     1     124.204  48.967  14.010  1.00  0.00     0.267 C 
ATOM     44  H12 UNL     1     122.325  49.667  13.453  1.00  0.00     0.276 HD
ATOM     45  H11 UNL     1     122.631  49.980  14.922  1.00  0.00     0.276 HD
ENDBRANCH  41  42
ENDBRANCH  40  41
ENDBRANCH  37  40
ENDBRANCH  33  34
ENDBRANCH  32  33
ENDBRANCH  31  32
ENDBRANCH  30  31
ENDBRANCH   1  30
BRANCH   6  46
HETATM   46  O2  UNL     1     123.152  61.977  21.238  1.00  0.00    -0.352 OA
HETATM   47  C29 UNL     1     122.689  61.599  22.525  1.00  0.00     0.210 C 
ENDBRANCH   6  46
BRANCH   7  48
HETATM   48  O3  UNL     1     125.261  60.284  20.703  1.00  0.00    -0.351 OA
HETATM   49  C31 UNL     1     126.328  61.163  20.420  1.00  0.00     0.210 C 
ENDBRANCH   7  48
TORSDOF 14
ENDMDL
MODEL 5
REMARK VINA RESULT: -9.178120781      3.349     10.500
REMARK  14 active torsions:
REMARK  status: ('A' for Active; 'I' for Inactive)
REMARK    1  A    between atoms: N1_2  and  C2_5 
REMARK    2  A    between atoms: C2_5  and  C3_6 
REMARK    3  A    between atoms: C3_6  and  N2_7 
REMARK    4  A    between atoms: N3_10  and  C6_11 
REMARK    5  A    between atoms: C6_11  and  C7_12 
REMARK    6  A    between atoms: C7_12  and  C8_13 
REMARK    7  A    between atoms: C8_13  and  O1_14 
REMARK    8  A    between atoms: O1_14  and  C9_15 
REMARK    9  A    between atoms: C11_17  and  N4_18 
REMARK   10  A    between atoms: N4_18  and  C12_20 
REMARK   11  A    between atoms: C13_23  and  C14_24 
REMARK   12  A    between atoms: C15_25  and  C16_26 
REMARK   13  A    between atoms: C28_42  and  O2_43 
REMARK   14  A    between atoms: C30_45  and  O3_46 
ROOT
HETATM    1  C9  UNL     1     120.450  52.843  14.626  1.00  0.00     0.107 A 
HETATM    2  C10 UNL     1     121.544  53.668  14.489  1.00  0.00     0.070 A 
HETATM    3  C11 UNL     1     122.714  53.315  13.844  1.00  0.00     0.060 A 
HETATM    4  C26 UNL     1     122.792  52.054  13.298  1.00  0.00     0.002 A 
HETATM    5  C27 UNL     1     124.015  51.644  12.606  1.00  0.00     0.054 C 
HETATM    6  C28 UNL     1     121.732  51.161  13.390  1.00  0.00     0.112 A 
HETATM    7  C30 UNL     1     120.597  51.570  14.045  1.00  0.00     0.135 A 
ENDROOT
BRANCH   3   8
HETATM    8  N4  UNL     1     123.814  54.188  13.729  1.00  0.00    -0.191 N 
ATOM      9  H4  UNL     1     123.915  54.708  12.857  1.00  0.00     0.184 HD
BRANCH   8  10
HETATM   10  C12 UNL     1     124.711  54.380  14.654  1.00  0.00     0.682 A 
HETATM   11  N5  UNL     1     124.668  55.479  15.426  1.00  0.00    -0.192 N 
HETATM   12  C13 UNL     1     125.607  55.666  16.389  1.00  0.00     0.050 A 
ATOM     13  H5  UNL     1     123.932  56.170  15.289  1.00  0.00     0.184 HD
HETATM   14  C24 UNL     1     126.588  54.730  16.561  1.00  0.00     0.047 A 
HETATM   15  C25 UNL     1     126.646  53.580  15.762  1.00  0.00     0.108 A 
HETATM   16  N7  UNL     1     125.687  53.459  14.830  1.00  0.00    -0.202 N 
ATOM     17  H7  UNL     1     125.693  52.636  14.229  1.00  0.00     0.183 HD
BRANCH  12  18
HETATM   18  C14 UNL     1     125.538  56.872  17.205  1.00  0.00     0.031 C 
HETATM   19  C15 UNL     1     126.576  57.639  17.447  1.00  0.00     0.013 C 
BRANCH  19  20
HETATM   20  C16 UNL     1     126.551  58.837  18.244  1.00  0.00    -0.035 A 
HETATM   21  C17 UNL     1     127.665  59.575  18.560  1.00  0.00     0.013 A 
HETATM   22  C18 UNL     1     127.579  60.735  19.338  1.00  0.00     0.031 A 
HETATM   23  C19 UNL     1     126.372  61.181  19.818  1.00  0.00     0.042 A 
HETATM   24  N6  UNL     1     125.999  62.246  20.579  1.00  0.00    -0.365 N 
HETATM   25  C22 UNL     1     125.244  60.455  19.513  1.00  0.00    -0.007 A 
HETATM   26  C20 UNL     1     124.684  62.244  20.780  1.00  0.00     0.089 A 
ATOM     27  H6  UNL     1     126.640  62.950  20.944  1.00  0.00     0.165 HD
HETATM   28  C21 UNL     1     124.203  61.137  20.124  1.00  0.00     0.030 A 
HETATM   29  C23 UNL     1     125.337  59.321  18.751  1.00  0.00     0.025 A 
ENDBRANCH  19  20
ENDBRANCH  12  18
ENDBRANCH   8  10
ENDBRANCH   3   8
BRANCH   1  30
HETATM   30  O1  UNL     1     119.292  53.112  15.236  1.00  0.00    -0.348 OA
BRANCH  30  31
HETATM   31  C8  UNL     1     118.146  53.789  14.999  1.00  0.00     0.181 C 
BRANCH  31  32
HETATM   32  C7  UNL     1     117.990  55.049  15.807  1.00  0.00     0.071 C 
BRANCH  32  33
HETATM   33  C6  UNL     1     119.016  56.066  15.496  1.00  0.00     0.065 C 
BRANCH  33  34
HETATM   34  N3  UNL     1     119.568  56.886  16.452  1.00  0.00    -0.367 N 
HETATM   35  C5  UNL     1     118.947  57.410  17.565  1.00  0.00     0.107 C 
HETATM   36  C4  UNL     1     119.677  57.273  18.891  1.00  0.00     0.102 C 
HETATM   37  N2  UNL     1     121.072  57.164  18.836  1.00  0.00    -0.386 N 
HETATM   38  C33 UNL     1     121.491  56.251  17.833  1.00  0.00     0.142 C 
HETATM   39  C32 UNL     1     121.001  56.772  16.502  1.00  0.00     0.147 C 
BRANCH  37  40
HETATM   40  C3  UNL     1     121.859  58.324  19.034  1.00  0.00     0.149 C 
BRANCH  40  41
HETATM   41  C2  UNL     1     121.029  59.498  19.442  1.00  0.00     0.251 C 
BRANCH  41  42
HETATM   42  N1  UNL     1     121.063  60.505  18.372  1.00  0.00    -0.077 N 
HETATM   43  C1  UNL     1     120.579  61.764  18.933  1.00  0.00     0.267 C 
ATOM     44  H12 UNL     1     120.548  60.217  17.540  1.00  0.00     0.276 HD
ATOM     45  H11 UNL     1     121.982  60.591  17.937  1.00  0.00     0.276 HD
ENDBRANCH  41  42
ENDBRANCH  40  41
ENDBRANCH  37  40
ENDBRANCH  33  34
ENDBRANCH  32  33
ENDBRANCH  31  32
ENDBRANCH  30  31
ENDBRANCH   1  30
BRANCH   6  46
HETATM   46  O2  UNL     1     121.831  49.892  12.832  1.00  0.00    -0.352 OA
HETATM   47  C29 UNL     1     122.208  48.825  13.690  1.00  0.00     0.210 C 
ENDBRANCH   6  46
BRANCH   7  48
HETATM   48  O3  UNL     1     119.539  50.688  14.142  1.00  0.00    -0.351 OA
HETATM   49  C31 UNL     1     118.549  50.519  13.151  1.00  0.00     0.210 C 
ENDBRANCH   7  48
TORSDOF 14
ENDMDL
