MODEL 1
REMARK VINA RESULT: -9.095212321      0.000      0.000
REMARK  15 active torsions:
REMARK  status: ('A' for Active; 'I' for Inactive)
REMARK    1  A    between atoms: C2_2  and  C4_4 
REMARK    2  A    between atoms: C4_4  and  C5_5 
REMARK       I    between atoms: C5_5  and  N1_7 
REMARK    3  A    between atoms: N1_7  and  C6_9 
REMARK    4  A    between atoms: C7_14  and  C8_15 
REMARK    5  A    between atoms: C8_15  and  C9_16 
REMARK    6  A    between atoms: C9_16  and  C10_17 
REMARK    7  A    between atoms: C10_17  and  C11_18 
REMARK    8  A    between atoms: C11_18  and  C12_19 
REMARK       I    between atoms: N6_25  and  C14_27 
REMARK    9  A    between atoms: C14_27  and  C15_29 
REMARK   10  A    between atoms: C15_29  and  C16_30 
REMARK   11  A    between atoms: C15_29  and  N7_36 
REMARK   12  A    between atoms: C16_30  and  C17_31 
REMARK   13  A    between atoms: C17_31  and  C18_32 
REMARK       I    between atoms: N7_36  and  C22_38 
REMARK       I    between atoms: C22_38  and  N8_40 
REMARK   14  A    between atoms: N8_40  and  N9_42 
REMARK   15  A    between atoms: N9_42  and  O4_44 
ROOT
HETATM    1  C12 UNL     1      72.694  55.002  14.990  1.00  0.00     0.069 A 
HETATM    2  N4  UNL     1      72.977  55.256  16.264  1.00  0.00    -0.296 N 
ATOM      3  H4  UNL     1      73.733  54.748  16.725  1.00  0.00     0.187 HD
HETATM    4  N5  UNL     1      72.321  56.118  16.908  1.00  0.00    -0.279 N 
ATOM      5  H5  UNL     1      72.546  56.305  17.885  1.00  0.00     0.189 HD
HETATM    6  C13 UNL     1      71.338  56.784  16.317  1.00  0.00     0.167 A 
HETATM    7  N6  UNL     1      70.565  57.735  16.819  1.00  0.00    -0.304 N 
ATOM      8  H6  UNL     1      69.827  58.187  16.279  1.00  0.00     0.171 HD
HETATM    9  C14 UNL     1      70.844  58.073  18.158  1.00  0.00     0.246 C 
HETATM   10  O2  UNL     1      70.531  57.169  19.018  1.00  0.00    -0.271 OA
HETATM   11  S1  UNL     1      71.384  56.105  14.746  1.00  0.00    -0.038 SA
ENDROOT
BRANCH   9  12
HETATM   12  C15 UNL     1      71.440  59.295  18.683  1.00  0.00     0.178 C 
BRANCH  12  13
HETATM   13  C16 UNL     1      72.910  59.458  18.524  1.00  0.00     0.035 C 
BRANCH  13  14
HETATM   14  C17 UNL     1      73.776  58.579  19.360  1.00  0.00     0.011 C 
BRANCH  14  15
HETATM   15  C18 UNL     1      74.905  59.374  20.012  1.00  0.00    -0.051 C 
HETATM   16  C19 UNL     1      75.972  59.583  18.967  1.00  0.00     0.014 C 
HETATM   17  C20 UNL     1      74.446  60.713  20.511  1.00  0.00     0.014 C 
HETATM   18  C21 UNL     1      75.504  58.577  21.157  1.00  0.00     0.014 C 
ENDBRANCH  14  15
ENDBRANCH  13  14
ENDBRANCH  12  13
BRANCH  12  19
HETATM   19  N7  UNL     1      70.968  59.622  20.010  1.00  0.00    -0.328 N 
HETATM   20  C22 UNL     1      69.893  60.458  20.343  1.00  0.00     0.338 C 
HETATM   21  O3  UNL     1      69.224  61.011  19.441  1.00  0.00    -0.245 OA
HETATM   22  N8  UNL     1      69.528  60.706  21.700  1.00  0.00    -0.228 N 
HETATM   23  C23 UNL     1      68.412  61.576  21.975  1.00  0.00     0.185 C 
ATOM     24  H7  UNL     1      71.473  59.199  20.788  1.00  0.00     0.165 HD
BRANCH  22  25
HETATM   25  N9  UNL     1      70.274  60.096  22.728  1.00  0.00    -0.204 N 
ATOM     26  H9  UNL     1      71.285  60.220  22.784  1.00  0.00     0.216 HD
BRANCH  25  27
HETATM   27  O4  UNL     1      69.674  59.407  23.561  1.00  0.00    -0.274 OA
ATOM     28  H4  UNL     1      70.121  58.657  23.935  1.00  0.00     0.246 HD
ENDBRANCH  25  27
ENDBRANCH  22  25
ENDBRANCH  12  19
ENDBRANCH   9  12
BRANCH   1  29
HETATM   29  C11 UNL     1      73.320  54.050  14.039  1.00  0.00     0.066 C 
BRANCH  29  30
HETATM   30  C10 UNL     1      74.009  52.941  14.748  1.00  0.00     0.007 C 
BRANCH  30  31
HETATM   31  C9  UNL     1      73.388  51.596  14.518  1.00  0.00     0.007 C 
BRANCH  31  32
HETATM   32  C8  UNL     1      72.559  51.561  13.250  1.00  0.00     0.066 C 
BRANCH  32  33
HETATM   33  C7  UNL     1      71.097  51.375  13.570  1.00  0.00     0.069 A 
HETATM   34  N3  UNL     1      70.407  50.245  13.636  1.00  0.00    -0.296 N 
HETATM   35  N2  UNL     1      69.168  50.267  13.904  1.00  0.00    -0.279 N 
ATOM     36  H3  UNL     1      70.875  49.355  13.470  1.00  0.00     0.187 HD
HETATM   37  C6  UNL     1      68.568  51.437  14.119  1.00  0.00     0.167 A 
ATOM     38  H2  UNL     1      68.636  49.398  13.954  1.00  0.00     0.189 HD
HETATM   39  S2  UNL     1      69.883  52.530  13.917  1.00  0.00    -0.038 SA
BRANCH  37  40
HETATM   40  N1  UNL     1      67.322  51.705  14.403  1.00  0.00    -0.306 N 
HETATM   41  C5  UNL     1      66.662  52.689  13.663  1.00  0.00     0.224 C 
HETATM   42  O1  UNL     1      66.550  52.567  12.414  1.00  0.00    -0.273 OA
ATOM     43  H1  UNL     1      66.840  51.205  15.150  1.00  0.00     0.171 HD
BRANCH  41  44
HETATM   44  C4  UNL     1      66.105  53.869  14.393  1.00  0.00     0.107 C 
BRANCH  44  45
HETATM   45  C2  UNL     1      67.047  54.377  15.468  1.00  0.00    -0.014 C 
HETATM   46  C1  UNL     1      67.747  55.633  15.064  1.00  0.00     0.010 C 
HETATM   47  C3  UNL     1      66.367  54.484  16.810  1.00  0.00     0.010 C 
ENDBRANCH  44  45
ENDBRANCH  41  44
ENDBRANCH  37  40
ENDBRANCH  32  33
ENDBRANCH  31  32
ENDBRANCH  30  31
ENDBRANCH  29  30
ENDBRANCH   1  29
TORSDOF 15
ENDMDL
MODEL 2
REMARK VINA RESULT: -9.074537769      2.561      3.130
REMARK  15 active torsions:
REMARK  status: ('A' for Active; 'I' for Inactive)
REMARK    1  A    between atoms: C2_2  and  C4_4 
REMARK    2  A    between atoms: C4_4  and  C5_5 
REMARK       I    between atoms: C5_5  and  N1_7 
REMARK    3  A    between atoms: N1_7  and  C6_9 
REMARK    4  A    between atoms: C7_14  and  C8_15 
REMARK    5  A    between atoms: C8_15  and  C9_16 
REMARK    6  A    between atoms: C9_16  and  C10_17 
REMARK    7  A    between atoms: C10_17  and  C11_18 
REMARK    8  A    between atoms: C11_18  and  C12_19 
REMARK       I    between atoms: N6_25  and  C14_27 
REMARK    9  A    between atoms: C14_27  and  C15_29 
REMARK   10  A    between atoms: C15_29  and  C16_30 
REMARK   11  A    between atoms: C15_29  and  N7_36 
REMARK   12  A    between atoms: C16_30  and  C17_31 
REMARK   13  A    between atoms: C17_31  and  C18_32 
REMARK       I    between atoms: N7_36  and  C22_38 
REMARK       I    between atoms: C22_38  and  N8_40 
REMARK   14  A    between atoms: N8_40  and  N9_42 
REMARK   15  A    between atoms: N9_42  and  O4_44 
ROOT
HETATM    1  C12 UNL     1      72.836  55.868  17.646  1.00  0.00     0.069 A 
HETATM    2  N4  UNL     1      72.039  56.244  18.642  1.00  0.00    -0.296 N 
ATOM      3  H4  UNL     1      71.654  55.542  19.274  1.00  0.00     0.187 HD
HETATM    4  N5  UNL     1      71.756  57.461  18.812  1.00  0.00    -0.279 N 
ATOM      5  H5  UNL     1      71.143  57.739  19.579  1.00  0.00     0.189 HD
HETATM    6  C13 UNL     1      72.252  58.380  17.996  1.00  0.00     0.167 A 
HETATM    7  N6  UNL     1      72.090  59.695  18.035  1.00  0.00    -0.304 N 
ATOM      8  H6  UNL     1      72.516  60.322  17.353  1.00  0.00     0.171 HD
HETATM    9  C14 UNL     1      71.284  60.156  19.093  1.00  0.00     0.246 C 
HETATM   10  O2  UNL     1      70.035  59.863  18.986  1.00  0.00    -0.271 OA
HETATM   11  S1  UNL     1      73.175  57.406  16.932  1.00  0.00    -0.038 SA
ENDROOT
BRANCH   9  12
HETATM   12  C15 UNL     1      71.679  60.905  20.279  1.00  0.00     0.178 C 
BRANCH  12  13
HETATM   13  C16 UNL     1      73.135  61.123  20.492  1.00  0.00     0.035 C 
BRANCH  13  14
HETATM   14  C17 UNL     1      73.935  59.938  20.914  1.00  0.00     0.011 C 
BRANCH  14  15
HETATM   15  C18 UNL     1      75.346  59.988  20.331  1.00  0.00    -0.051 C 
HETATM   16  C19 UNL     1      75.725  58.579  19.946  1.00  0.00     0.014 C 
HETATM   17  C20 UNL     1      75.431  60.862  19.113  1.00  0.00     0.014 C 
HETATM   18  C21 UNL     1      76.323  60.478  21.384  1.00  0.00     0.014 C 
ENDBRANCH  14  15
ENDBRANCH  13  14
ENDBRANCH  12  13
BRANCH  12  19
HETATM   19  N7  UNL     1      70.985  60.472  21.471  1.00  0.00    -0.328 N 
HETATM   20  C22 UNL     1      70.035  61.196  22.207  1.00  0.00     0.338 C 
HETATM   21  O3  UNL     1      69.705  62.348  21.845  1.00  0.00    -0.245 OA
HETATM   22  N8  UNL     1      69.422  60.656  23.376  1.00  0.00    -0.228 N 
HETATM   23  C23 UNL     1      68.453  61.453  24.088  1.00  0.00     0.185 C 
ATOM     24  H7  UNL     1      71.210  59.539  21.815  1.00  0.00     0.165 HD
BRANCH  22  25
HETATM   25  N9  UNL     1      69.787  59.363  23.802  1.00  0.00    -0.204 N 
ATOM     26  H9  UNL     1      70.453  58.805  23.267  1.00  0.00     0.216 HD
BRANCH  25  27
HETATM   27  O4  UNL     1      69.280  58.921  24.840  1.00  0.00    -0.274 OA
ATOM     28  H4  UNL     1      69.857  58.607  25.526  1.00  0.00     0.246 HD
ENDBRANCH  25  27
ENDBRANCH  22  25
ENDBRANCH  12  19
ENDBRANCH   9  12
BRANCH   1  29
HETATM   29  C11 UNL     1      73.309  54.517  17.254  1.00  0.00     0.066 C 
BRANCH  29  30
HETATM   30  C10 UNL     1      74.313  54.584  16.161  1.00  0.00     0.007 C 
BRANCH  30  31
HETATM   31  C9  UNL     1      74.166  53.501  15.136  1.00  0.00     0.007 C 
BRANCH  31  32
HETATM   32  C8  UNL     1      73.611  54.026  13.827  1.00  0.00     0.066 C 
BRANCH  32  33
HETATM   33  C7  UNL     1      72.361  54.836  14.062  1.00  0.00     0.069 A 
HETATM   34  N3  UNL     1      72.145  56.114  13.784  1.00  0.00    -0.296 N 
HETATM   35  N2  UNL     1      71.031  56.650  14.063  1.00  0.00    -0.279 N 
ATOM     36  H3  UNL     1      72.879  56.668  13.343  1.00  0.00     0.187 HD
HETATM   37  C6  UNL     1      70.079  55.916  14.639  1.00  0.00     0.167 A 
ATOM     38  H2  UNL     1      70.864  57.634  13.850  1.00  0.00     0.189 HD
HETATM   39  S2  UNL     1      70.866  54.390  14.765  1.00  0.00    -0.038 SA
BRANCH  37  40
HETATM   40  N1  UNL     1      68.874  56.245  15.017  1.00  0.00    -0.306 N 
HETATM   41  C5  UNL     1      68.462  55.914  16.309  1.00  0.00     0.224 C 
HETATM   42  O1  UNL     1      69.099  56.352  17.304  1.00  0.00    -0.273 OA
ATOM     43  H1  UNL     1      68.246  56.736  14.381  1.00  0.00     0.171 HD
BRANCH  41  44
HETATM   44  C4  UNL     1      67.262  55.036  16.466  1.00  0.00     0.107 C 
BRANCH  44  45
HETATM   45  C2  UNL     1      67.315  53.822  15.560  1.00  0.00    -0.014 C 
HETATM   46  C1  UNL     1      67.726  52.584  16.288  1.00  0.00     0.010 C 
HETATM   47  C3  UNL     1      66.040  53.650  14.772  1.00  0.00     0.010 C 
ENDBRANCH  44  45
ENDBRANCH  41  44
ENDBRANCH  37  40
ENDBRANCH  32  33
ENDBRANCH  31  32
ENDBRANCH  30  31
ENDBRANCH  29  30
ENDBRANCH   1  29
TORSDOF 15
ENDMDL
MODEL 3
REMARK VINA RESULT: -8.973203482      1.011      1.312
REMARK  15 active torsions:
REMARK  status: ('A' for Active; 'I' for Inactive)
REMARK    1  A    between atoms: C2_2  and  C4_4 
REMARK    2  A    between atoms: C4_4  and  C5_5 
REMARK       I    between atoms: C5_5  and  N1_7 
REMARK    3  A    between atoms: N1_7  and  C6_9 
REMARK    4  A    between atoms: C7_14  and  C8_15 
REMARK    5  A    between atoms: C8_15  and  C9_16 
REMARK    6  A    between atoms: C9_16  and  C10_17 
REMARK    7  A    between atoms: C10_17  and  C11_18 
REMARK    8  A    between atoms: C11_18  and  C12_19 
REMARK       I    between atoms: N6_25  and  C14_27 
REMARK    9  A    between atoms: C14_27  and  C15_29 
REMARK   10  A    between atoms: C15_29  and  C16_30 
REMARK   11  A    between atoms: C15_29  and  N7_36 
REMARK   12  A    between atoms: C16_30  and  C17_31 
REMARK   13  A    between atoms: C17_31  and  C18_32 
REMARK       I    between atoms: N7_36  and  C22_38 
REMARK       I    between atoms: C22_38  and  N8_40 
REMARK   14  A    between atoms: N8_40  and  N9_42 
REMARK   15  A    between atoms: N9_42  and  O4_44 
ROOT
HETATM    1  C12 UNL     1      72.588  55.089  16.829  1.00  0.00     0.069 A 
HETATM    2  N4  UNL     1      72.501  55.457  18.103  1.00  0.00    -0.296 N 
ATOM      3  H4  UNL     1      72.926  54.877  18.827  1.00  0.00     0.187 HD
HETATM    4  N5  UNL     1      71.897  56.515  18.426  1.00  0.00    -0.279 N 
ATOM      5  H5  UNL     1      71.835  56.788  19.407  1.00  0.00     0.189 HD
HETATM    6  C13 UNL     1      71.341  57.275  17.492  1.00  0.00     0.167 A 
HETATM    7  N6  UNL     1      70.696  58.423  17.636  1.00  0.00    -0.304 N 
ATOM      8  H6  UNL     1      70.299  58.934  16.848  1.00  0.00     0.171 HD
HETATM    9  C14 UNL     1      70.604  58.882  18.965  1.00  0.00     0.246 C 
HETATM   10  O2  UNL     1      69.828  58.188  19.721  1.00  0.00    -0.271 OA
HETATM   11  S1  UNL     1      71.726  56.388  16.079  1.00  0.00    -0.038 SA
ENDROOT
BRANCH   9  12
HETATM   12  C15 UNL     1      71.271  60.021  19.583  1.00  0.00     0.178 C 
BRANCH  12  13
HETATM   13  C16 UNL     1      72.741  60.136  19.387  1.00  0.00     0.035 C 
BRANCH  13  14
HETATM   14  C17 UNL     1      73.584  59.063  19.987  1.00  0.00     0.011 C 
BRANCH  14  15
HETATM   15  C18 UNL     1      75.001  59.560  20.261  1.00  0.00    -0.051 C 
HETATM   16  C19 UNL     1      75.677  58.537  21.140  1.00  0.00     0.014 C 
HETATM   17  C20 UNL     1      75.803  59.723  19.003  1.00  0.00     0.014 C 
HETATM   18  C21 UNL     1      74.950  60.879  21.012  1.00  0.00     0.014 C 
ENDBRANCH  14  15
ENDBRANCH  13  14
ENDBRANCH  12  13
BRANCH  12  19
HETATM   19  N7  UNL     1      70.858  60.236  20.951  1.00  0.00    -0.328 N 
HETATM   20  C22 UNL     1      70.026  61.259  21.432  1.00  0.00     0.338 C 
HETATM   21  O3  UNL     1      69.554  62.109  20.644  1.00  0.00    -0.245 OA
HETATM   22  N8  UNL     1      69.694  61.366  22.816  1.00  0.00    -0.228 N 
HETATM   23  C23 UNL     1      68.835  62.441  23.246  1.00  0.00     0.185 C 
ATOM     24  H7  UNL     1      71.208  59.574  21.641  1.00  0.00     0.165 HD
BRANCH  22  25
HETATM   25  N9  UNL     1      70.222  60.421  23.718  1.00  0.00    -0.204 N 
ATOM     26  H9  UNL     1      71.018  60.653  24.312  1.00  0.00     0.216 HD
BRANCH  25  27
HETATM   27  O4  UNL     1      69.696  59.303  23.773  1.00  0.00    -0.274 OA
ATOM     28  H4  UNL     1      70.260  58.538  23.768  1.00  0.00     0.246 HD
ENDBRANCH  25  27
ENDBRANCH  22  25
ENDBRANCH  12  19
ENDBRANCH   9  12
BRANCH   1  29
HETATM   29  C11 UNL     1      73.242  53.907  16.213  1.00  0.00     0.066 C 
BRANCH  29  30
HETATM   30  C10 UNL     1      73.928  54.260  14.943  1.00  0.00     0.007 C 
BRANCH  30  31
HETATM   31  C9  UNL     1      73.156  53.886  13.714  1.00  0.00     0.007 C 
BRANCH  31  32
HETATM   32  C8  UNL     1      72.962  52.387  13.596  1.00  0.00     0.066 C 
BRANCH  32  33
HETATM   33  C7  UNL     1      71.516  52.016  13.802  1.00  0.00     0.069 A 
HETATM   34  N3  UNL     1      70.933  50.840  13.610  1.00  0.00    -0.296 N 
HETATM   35  N2  UNL     1      69.691  50.701  13.817  1.00  0.00    -0.279 N 
ATOM     36  H3  UNL     1      71.488  50.045  13.296  1.00  0.00     0.187 HD
HETATM   37  C6  UNL     1      68.976  51.748  14.229  1.00  0.00     0.167 A 
ATOM     38  H2  UNL     1      69.241  49.797  13.669  1.00  0.00     0.189 HD
HETATM   39  S2  UNL     1      70.188  52.968  14.309  1.00  0.00    -0.038 SA
BRANCH  37  40
HETATM   40  N1  UNL     1      67.702  51.844  14.498  1.00  0.00    -0.306 N 
HETATM   41  C5  UNL     1      66.923  52.730  13.750  1.00  0.00     0.224 C 
HETATM   42  O1  UNL     1      66.843  52.594  12.500  1.00  0.00    -0.273 OA
ATOM     43  H1  UNL     1      67.284  51.284  15.240  1.00  0.00     0.171 HD
BRANCH  41  44
HETATM   44  C4  UNL     1      66.205  53.824  14.472  1.00  0.00     0.107 C 
BRANCH  44  45
HETATM   45  C2  UNL     1      67.052  54.445  15.565  1.00  0.00    -0.014 C 
HETATM   46  C1  UNL     1      67.758  55.679  15.107  1.00  0.00     0.010 C 
HETATM   47  C3  UNL     1      66.269  54.648  16.838  1.00  0.00     0.010 C 
ENDBRANCH  44  45
ENDBRANCH  41  44
ENDBRANCH  37  40
ENDBRANCH  32  33
ENDBRANCH  31  32
ENDBRANCH  30  31
ENDBRANCH  29  30
ENDBRANCH   1  29
TORSDOF 15
ENDMDL
MODEL 4
REMARK VINA RESULT: -8.918452245      3.071      6.343
REMARK  15 active torsions:
REMARK  status: ('A' for Active; 'I' for Inactive)
REMARK    1  A    between atoms: C2_2  and  C4_4 
REMARK    2  A    between atoms: C4_4  and  C5_5 
REMARK       I    between atoms: C5_5  and  N1_7 
REMARK    3  A    between atoms: N1_7  and  C6_9 
REMARK    4  A    between atoms: C7_14  and  C8_15 
REMARK    5  A    between atoms: C8_15  and  C9_16 
REMARK    6  A    between atoms: C9_16  and  C10_17 
REMARK    7  A    between atoms: C10_17  and  C11_18 
REMARK    8  A    between atoms: C11_18  and  C12_19 
REMARK       I    between atoms: N6_25  and  C14_27 
REMARK    9  A    between atoms: C14_27  and  C15_29 
REMARK   10  A    between atoms: C15_29  and  C16_30 
REMARK   11  A    between atoms: C15_29  and  N7_36 
REMARK   12  A    between atoms: C16_30  and  C17_31 
REMARK   13  A    between atoms: C17_31  and  C18_32 
REMARK       I    between atoms: N7_36  and  C22_38 
REMARK       I    between atoms: C22_38  and  N8_40 
REMARK   14  A    between atoms: N8_40  and  N9_42 
REMARK   15  A    between atoms: N9_42  and  O4_44 
ROOT
HETATM    1  C12 UNL     1      67.640  54.700  16.304  1.00  0.00     0.069 A 
HETATM    2  N4  UNL     1      68.778  54.058  16.544  1.00  0.00    -0.296 N 
ATOM      3  H4  UNL     1      68.892  53.095  16.226  1.00  0.00     0.187 HD
HETATM    4  N5  UNL     1      69.718  54.627  17.162  1.00  0.00    -0.279 N 
ATOM      5  H5  UNL     1      70.588  54.125  17.341  1.00  0.00     0.189 HD
HETATM    6  C13 UNL     1      69.579  55.878  17.579  1.00  0.00     0.167 A 
HETATM    7  N6  UNL     1      70.457  56.641  18.213  1.00  0.00    -0.304 N 
ATOM      8  H6  UNL     1      70.251  57.598  18.497  1.00  0.00     0.171 HD
HETATM    9  C14 UNL     1      71.699  56.024  18.462  1.00  0.00     0.246 C 
HETATM   10  O2  UNL     1      71.667  55.085  19.342  1.00  0.00    -0.271 OA
HETATM   11  S1  UNL     1      67.993  56.226  17.038  1.00  0.00    -0.038 SA
ENDROOT
BRANCH   9  12
HETATM   12  C15 UNL     1      72.993  56.305  17.855  1.00  0.00     0.178 C 
BRANCH  12  13
HETATM   13  C16 UNL     1      73.559  57.666  18.058  1.00  0.00     0.035 C 
BRANCH  13  14
HETATM   14  C17 UNL     1      73.409  58.258  19.418  1.00  0.00     0.011 C 
BRANCH  14  15
HETATM   15  C18 UNL     1      74.635  59.083  19.800  1.00  0.00    -0.051 C 
HETATM   16  C19 UNL     1      74.156  60.473  20.140  1.00  0.00     0.014 C 
HETATM   17  C20 UNL     1      75.358  58.516  20.987  1.00  0.00     0.014 C 
HETATM   18  C21 UNL     1      75.584  59.177  18.618  1.00  0.00     0.014 C 
ENDBRANCH  14  15
ENDBRANCH  13  14
ENDBRANCH  12  13
BRANCH  12  19
HETATM   19  N7  UNL     1      73.079  55.848  16.486  1.00  0.00    -0.328 N 
HETATM   20  C22 UNL     1      73.441  54.567  16.043  1.00  0.00     0.338 C 
HETATM   21  O3  UNL     1      73.730  53.674  16.870  1.00  0.00    -0.245 OA
HETATM   22  N8  UNL     1      73.492  54.241  14.654  1.00  0.00    -0.228 N 
HETATM   23  C23 UNL     1      73.872  52.906  14.265  1.00  0.00     0.185 C 
ATOM     24  H7  UNL     1      72.853  56.531  15.764  1.00  0.00     0.165 HD
BRANCH  22  25
HETATM   25  N9  UNL     1      73.177  55.237  13.708  1.00  0.00    -0.204 N 
ATOM     26  H9  UNL     1      73.811  55.446  12.937  1.00  0.00     0.216 HD
BRANCH  25  27
HETATM   27  O4  UNL     1      72.111  55.852  13.836  1.00  0.00    -0.274 OA
ATOM     28  H4  UNL     1      71.705  56.218  13.059  1.00  0.00     0.246 HD
ENDBRANCH  25  27
ENDBRANCH  22  25
ENDBRANCH  12  19
ENDBRANCH   9  12
BRANCH   1  29
HETATM   29  C11 UNL     1      66.412  54.248  15.603  1.00  0.00     0.066 C 
BRANCH  29  30
HETATM   30  C10 UNL     1      66.729  53.606  14.301  1.00  0.00     0.007 C 
BRANCH  30  31
HETATM   31  C9  UNL     1      66.043  52.290  14.091  1.00  0.00     0.007 C 
BRANCH  31  32
HETATM   32  C8  UNL     1      66.514  51.598  12.827  1.00  0.00     0.066 C 
BRANCH  32  33
HETATM   33  C7  UNL     1      67.428  50.445  13.156  1.00  0.00     0.069 A 
HETATM   34  N3  UNL     1      68.297  50.343  14.151  1.00  0.00    -0.296 N 
HETATM   35  N2  UNL     1      69.007  49.300  14.276  1.00  0.00    -0.279 N 
ATOM     36  H3  UNL     1      68.396  51.108  14.819  1.00  0.00     0.187 HD
HETATM   37  C6  UNL     1      68.870  48.308  13.398  1.00  0.00     0.167 A 
ATOM     38  H2  UNL     1      69.678  49.222  15.042  1.00  0.00     0.189 HD
HETATM   39  S2  UNL     1      67.652  48.947  12.361  1.00  0.00    -0.038 SA
BRANCH  37  40
HETATM   40  N1  UNL     1      69.484  47.159  13.323  1.00  0.00    -0.306 N 
HETATM   41  C5  UNL     1      69.844  46.511  14.507  1.00  0.00     0.224 C 
HETATM   42  O1  UNL     1      68.959  46.197  15.346  1.00  0.00    -0.273 OA
ATOM     43  H1  UNL     1      69.697  46.741  12.417  1.00  0.00     0.171 HD
BRANCH  41  44
HETATM   44  C4  UNL     1      71.291  46.211  14.738  1.00  0.00     0.107 C 
BRANCH  44  45
HETATM   45  C2  UNL     1      72.012  47.354  15.425  1.00  0.00    -0.014 C 
HETATM   46  C1  UNL     1      72.877  46.887  16.550  1.00  0.00     0.010 C 
HETATM   47  C3  UNL     1      72.743  48.233  14.441  1.00  0.00     0.010 C 
ENDBRANCH  44  45
ENDBRANCH  41  44
ENDBRANCH  37  40
ENDBRANCH  32  33
ENDBRANCH  31  32
ENDBRANCH  30  31
ENDBRANCH  29  30
ENDBRANCH   1  29
TORSDOF 15
ENDMDL
MODEL 5
REMARK VINA RESULT: -8.853862256      2.506      9.648
REMARK  15 active torsions:
REMARK  status: ('A' for Active; 'I' for Inactive)
REMARK    1  A    between atoms: C2_2  and  C4_4 
REMARK    2  A    between atoms: C4_4  and  C5_5 
REMARK       I    between atoms: C5_5  and  N1_7 
REMARK    3  A    between atoms: N1_7  and  C6_9 
REMARK    4  A    between atoms: C7_14  and  C8_15 
REMARK    5  A    between atoms: C8_15  and  C9_16 
REMARK    6  A    between atoms: C9_16  and  C10_17 
REMARK    7  A    between atoms: C10_17  and  C11_18 
REMARK    8  A    between atoms: C11_18  and  C12_19 
REMARK       I    between atoms: N6_25  and  C14_27 
REMARK    9  A    between atoms: C14_27  and  C15_29 
REMARK   10  A    between atoms: C15_29  and  C16_30 
REMARK   11  A    between atoms: C15_29  and  N7_36 
REMARK   12  A    between atoms: C16_30  and  C17_31 
REMARK   13  A    between atoms: C17_31  and  C18_32 
REMARK       I    between atoms: N7_36  and  C22_38 
REMARK       I    between atoms: C22_38  and  N8_40 
REMARK   14  A    between atoms: N8_40  and  N9_42 
REMARK   15  A    between atoms: N9_42  and  O4_44 
ROOT
HETATM    1  C12 UNL     1      73.647  57.836  18.221  1.00  0.00     0.069 A 
HETATM    2  N4  UNL     1      73.603  56.572  17.813  1.00  0.00    -0.296 N 
ATOM      3  H4  UNL     1      74.097  55.852  18.341  1.00  0.00     0.187 HD
HETATM    4  N5  UNL     1      72.957  56.254  16.778  1.00  0.00    -0.279 N 
ATOM      5  H5  UNL     1      72.931  55.281  16.473  1.00  0.00     0.189 HD
HETATM    6  C13 UNL     1      72.312  57.182  16.085  1.00  0.00     0.167 A 
HETATM    7  N6  UNL     1      71.566  57.035  14.999  1.00  0.00    -0.304 N 
ATOM      8  H6  UNL     1      71.111  57.820  14.534  1.00  0.00     0.171 HD
HETATM    9  C14 UNL     1      71.453  55.708  14.540  1.00  0.00     0.246 C 
HETATM   10  O2  UNL     1      72.532  55.218  14.038  1.00  0.00    -0.271 OA
HETATM   11  S1  UNL     1      72.677  58.583  16.999  1.00  0.00    -0.038 SA
ENDROOT
BRANCH   9  12
HETATM   12  C15 UNL     1      70.290  54.832  14.569  1.00  0.00     0.178 C 
BRANCH  12  13
HETATM   13  C16 UNL     1      69.348  54.987  15.710  1.00  0.00     0.035 C 
BRANCH  13  14
HETATM   14  C17 UNL     1      67.943  55.355  15.375  1.00  0.00     0.011 C 
BRANCH  14  15
HETATM   15  C18 UNL     1      66.959  54.311  15.898  1.00  0.00    -0.051 C 
HETATM   16  C19 UNL     1      66.067  53.916  14.746  1.00  0.00     0.014 C 
HETATM   17  C20 UNL     1      67.650  53.083  16.417  1.00  0.00     0.014 C 
HETATM   18  C21 UNL     1      66.095  54.915  16.989  1.00  0.00     0.014 C 
ENDBRANCH  14  15
ENDBRANCH  13  14
ENDBRANCH  12  13
BRANCH  12  19
HETATM   19  N7  UNL     1      70.620  53.454  14.283  1.00  0.00    -0.328 N 
HETATM   20  C22 UNL     1      69.842  52.526  13.575  1.00  0.00     0.338 C 
HETATM   21  O3  UNL     1      68.730  52.864  13.110  1.00  0.00    -0.245 OA
HETATM   22  N8  UNL     1      70.281  51.185  13.363  1.00  0.00    -0.228 N 
HETATM   23  C23 UNL     1      69.433  50.281  12.626  1.00  0.00     0.185 C 
ATOM     24  H7  UNL     1      71.517  53.119  14.634  1.00  0.00     0.165 HD
BRANCH  22  25
HETATM   25  N9  UNL     1      71.528  50.786  13.885  1.00  0.00    -0.204 N 
ATOM     26  H9  UNL     1      71.586  50.275  14.766  1.00  0.00     0.216 HD
BRANCH  25  27
HETATM   27  O4  UNL     1      72.550  51.072  13.250  1.00  0.00    -0.274 OA
ATOM     28  H4  UNL     1      73.296  50.487  13.308  1.00  0.00     0.246 HD
ENDBRANCH  25  27
ENDBRANCH  22  25
ENDBRANCH  12  19
ENDBRANCH   9  12
BRANCH   1  29
HETATM   29  C11 UNL     1      74.326  58.443  19.393  1.00  0.00     0.066 C 
BRANCH  29  30
HETATM   30  C10 UNL     1      75.254  59.530  18.985  1.00  0.00     0.007 C 
BRANCH  30  31
HETATM   31  C9  UNL     1      75.725  60.383  20.124  1.00  0.00     0.007 C 
BRANCH  31  32
HETATM   32  C8  UNL     1      75.057  61.744  20.131  1.00  0.00     0.066 C 
BRANCH  32  33
HETATM   33  C7  UNL     1      73.625  61.636  20.590  1.00  0.00     0.069 A 
HETATM   34  N3  UNL     1      73.161  61.589  21.831  1.00  0.00    -0.296 N 
HETATM   35  N2  UNL     1      71.916  61.480  22.045  1.00  0.00    -0.279 N 
ATOM     36  H3  UNL     1      73.808  61.640  22.617  1.00  0.00     0.187 HD
HETATM   37  C6  UNL     1      71.079  61.415  21.010  1.00  0.00     0.167 A 
ATOM     38  H2  UNL     1      71.558  61.443  23.000  1.00  0.00     0.189 HD
HETATM   39  S2  UNL     1      72.177  61.518  19.687  1.00  0.00    -0.038 SA
BRANCH  37  40
HETATM   40  N1  UNL     1      69.780  61.299  20.983  1.00  0.00    -0.306 N 
HETATM   41  C5  UNL     1      69.212  60.049  21.240  1.00  0.00     0.224 C 
HETATM   42  O1  UNL     1      69.431  59.473  22.339  1.00  0.00    -0.273 OA
ATOM     43  H1  UNL     1      69.189  62.105  20.779  1.00  0.00     0.171 HD
BRANCH  41  44
HETATM   44  C4  UNL     1      68.353  59.431  20.184  1.00  0.00     0.107 C 
BRANCH  44  45
HETATM   45  C2  UNL     1      69.160  58.958  18.990  1.00  0.00    -0.014 C 
HETATM   46  C1  UNL     1      68.967  57.504  18.712  1.00  0.00     0.010 C 
HETATM   47  C3  UNL     1      68.936  59.828  17.778  1.00  0.00     0.010 C 
ENDBRANCH  44  45
ENDBRANCH  41  44
ENDBRANCH  37  40
ENDBRANCH  32  33
ENDBRANCH  31  32
ENDBRANCH  30  31
ENDBRANCH  29  30
ENDBRANCH   1  29
TORSDOF 15
ENDMDL
