MODEL 1
REMARK VINA RESULT: -9.306545220      0.000      0.000
REMARK  13 active torsions:
REMARK  status: ('A' for Active; 'I' for Inactive)
REMARK    1  A    between atoms: C2_2  and  C3_3 
REMARK    2  A    between atoms: C3_3  and  C4_4 
REMARK    3  A    between atoms: C4_4  and  C5_5 
REMARK    4  A    between atoms: C5_5  and  C6_6 
REMARK    5  A    between atoms: C6_6  and  C7_7 
REMARK    6  A    between atoms: C7_7  and  C8_8 
REMARK    7  A    between atoms: C8_8  and  O1_9 
REMARK    8  A    between atoms: C11_13  and  N1_14 
REMARK    9  A    between atoms: N1_14  and  C12_16 
REMARK   10  A    between atoms: C17_23  and  C18_24 
REMARK   11  A    between atoms: C18_24  and  O3_25 
REMARK   12  A    between atoms: O3_25  and  C19_26 
REMARK       I    between atoms: C19_26  and  N2_28 
REMARK   13  A    between atoms: C28_37  and  C29_38 
ROOT
HETATM    1  C12 UNL     1       9.361  16.369  62.364  1.00  0.00     0.137 C 
HETATM    2  C13 UNL     1       9.410  15.494  61.118  1.00  0.00     0.205 C 
HETATM    3  O2  UNL     1       8.284  16.079  60.416  1.00  0.00    -0.348 OA
HETATM    4  C14 UNL     1       7.302  16.041  61.415  1.00  0.00     0.078 A 
HETATM    5  C15 UNL     1       5.913  15.928  61.225  1.00  0.00     0.057 A 
HETATM    6  C16 UNL     1       5.105  15.881  62.276  1.00  0.00     0.022 A 
HETATM    7 BR1  UNL     1       3.177  15.656  62.099  1.00  0.00    -0.050 Br
HETATM    8  C17 UNL     1       5.643  15.945  63.629  1.00  0.00    -0.016 A 
HETATM    9  C25 UNL     1       7.030  16.064  63.776  1.00  0.00     0.022 A 
HETATM   10  C26 UNL     1       7.848  16.118  62.668  1.00  0.00     0.000 A 
ENDROOT
BRANCH   1  11
HETATM   11  N1  UNL     1       9.489  17.725  62.108  1.00  0.00    -0.407 N 
ATOM     12  H1  UNL     1       8.670  18.074  61.611  1.00  0.00     0.154 HD
BRANCH  11  13
HETATM   13  C11 UNL     1      10.373  18.719  62.320  1.00  0.00     0.078 C 
HETATM   14  C10 UNL     1      11.826  18.358  62.049  1.00  0.00     0.028 C 
HETATM   15  C9  UNL     1      12.770  19.528  62.359  1.00  0.00     0.040 C 
HETATM   16  C8  UNL     1      12.854  19.848  63.817  1.00  0.00     0.067 C 
HETATM   17  C28 UNL     1      11.597  19.147  64.425  1.00  0.00     0.087 C 
HETATM   18  C27 UNL     1      10.387  19.454  63.660  1.00  0.00     0.037 C 
BRANCH  16  19
HETATM   19  C7  UNL     1      12.866  21.298  64.072  1.00  0.00     0.038 C 
BRANCH  19  20
HETATM   20  C6  UNL     1      14.130  21.878  64.646  1.00  0.00     0.003 C 
BRANCH  20  21
HETATM   21  C5  UNL     1      14.034  22.097  66.112  1.00  0.00     0.000 C 
BRANCH  21  22
HETATM   22  C4  UNL     1      14.511  23.323  66.738  1.00  0.00     0.000 C 
BRANCH  22  23
HETATM   23  C3  UNL     1      14.639  24.643  66.112  1.00  0.00    -0.000 C 
BRANCH  23  24
HETATM   24  C2  UNL     1      15.994  25.181  65.848  1.00  0.00    -0.005 C 
HETATM   25  C1  UNL     1      16.943  25.130  66.995  1.00  0.00     0.005 C 
ENDBRANCH  23  24
ENDBRANCH  22  23
ENDBRANCH  21  22
ENDBRANCH  20  21
ENDBRANCH  19  20
ENDBRANCH  16  19
BRANCH  16  26
HETATM   26  O1  UNL     1      13.864  19.201  64.526  1.00  0.00    -0.389 OA
ATOM     27  H1  UNL     1      14.143  18.408  64.082  1.00  0.00     0.210 HD
ENDBRANCH  16  26
BRANCH  17  28
HETATM   28  C29 UNL     1      11.535  19.352  65.913  1.00  0.00     0.360 C 
HETATM   29  F1  UNL     1      10.464  20.248  66.123  1.00  0.00    -0.214 F 
HETATM   30  F2  UNL     1      11.207  18.186  66.568  1.00  0.00    -0.214 F 
ENDBRANCH  17  28
ENDBRANCH  11  13
ENDBRANCH   1  11
BRANCH   8  31
HETATM   31  C18 UNL     1       4.616  16.037  64.612  1.00  0.00     0.220 C 
BRANCH  31  32
HETATM   32  O3  UNL     1       4.862  16.774  65.849  1.00  0.00    -0.299 OA
BRANCH  32  33
HETATM   33  C19 UNL     1       3.733  17.437  66.367  1.00  0.00     0.363 C 
HETATM   34  O4  UNL     1       2.998  16.709  67.081  1.00  0.00    -0.238 OA
HETATM   35  N2  UNL     1       3.385  18.793  66.181  1.00  0.00    -0.328 N 
HETATM   36  C20 UNL     1       4.151  19.753  65.431  1.00  0.00     0.128 C 
HETATM   37  C24 UNL     1       2.188  19.273  66.907  1.00  0.00     0.128 C 
HETATM   38  C21 UNL     1       3.501  20.999  64.992  1.00  0.00     0.020 C 
HETATM   39  C22 UNL     1       2.564  21.569  66.052  1.00  0.00     0.003 C 
HETATM   40  C23 UNL     1       1.560  20.493  66.434  1.00  0.00     0.020 C 
ENDBRANCH  32  33
ENDBRANCH  31  32
ENDBRANCH   8  31
TORSDOF 13
ENDMDL
MODEL 2
REMARK VINA RESULT: -9.280656231      1.559      2.055
REMARK  13 active torsions:
REMARK  status: ('A' for Active; 'I' for Inactive)
REMARK    1  A    between atoms: C2_2  and  C3_3 
REMARK    2  A    between atoms: C3_3  and  C4_4 
REMARK    3  A    between atoms: C4_4  and  C5_5 
REMARK    4  A    between atoms: C5_5  and  C6_6 
REMARK    5  A    between atoms: C6_6  and  C7_7 
REMARK    6  A    between atoms: C7_7  and  C8_8 
REMARK    7  A    between atoms: C8_8  and  O1_9 
REMARK    8  A    between atoms: C11_13  and  N1_14 
REMARK    9  A    between atoms: N1_14  and  C12_16 
REMARK   10  A    between atoms: C17_23  and  C18_24 
REMARK   11  A    between atoms: C18_24  and  O3_25 
REMARK   12  A    between atoms: O3_25  and  C19_26 
REMARK       I    between atoms: C19_26  and  N2_28 
REMARK   13  A    between atoms: C28_37  and  C29_38 
ROOT
HETATM    1  C12 UNL     1       8.919  16.114  62.485  1.00  0.00     0.137 C 
HETATM    2  C13 UNL     1       9.041  15.279  61.217  1.00  0.00     0.205 C 
HETATM    3  O2  UNL     1       7.988  15.920  60.452  1.00  0.00    -0.348 OA
HETATM    4  C14 UNL     1       6.932  15.879  61.370  1.00  0.00     0.078 A 
HETATM    5  C15 UNL     1       5.558  15.813  61.071  1.00  0.00     0.057 A 
HETATM    6  C16 UNL     1       4.671  15.756  62.055  1.00  0.00     0.022 A 
HETATM    7 BR1  UNL     1       2.757  15.595  61.723  1.00  0.00    -0.050 Br
HETATM    8  C17 UNL     1       5.104  15.760  63.446  1.00  0.00    -0.016 A 
HETATM    9  C25 UNL     1       6.477  15.833  63.703  1.00  0.00     0.022 A 
HETATM   10  C26 UNL     1       7.380  15.898  62.664  1.00  0.00     0.000 A 
ENDROOT
BRANCH   1  11
HETATM   11  N1  UNL     1       9.103  17.474  62.287  1.00  0.00    -0.407 N 
ATOM     12  H1  UNL     1       8.205  17.943  62.171  1.00  0.00     0.154 HD
BRANCH  11  13
HETATM   13  C11 UNL     1      10.114  18.359  62.202  1.00  0.00     0.078 C 
HETATM   14  C10 UNL     1      11.503  17.745  62.108  1.00  0.00     0.028 C 
HETATM   15  C9  UNL     1      12.598  18.818  62.061  1.00  0.00     0.040 C 
HETATM   16  C8  UNL     1      12.739  19.573  63.344  1.00  0.00     0.067 C 
HETATM   17  C28 UNL     1      11.406  19.273  64.102  1.00  0.00     0.087 C 
HETATM   18  C27 UNL     1      10.240  19.475  63.239  1.00  0.00     0.037 C 
BRANCH  16  19
HETATM   19  C7  UNL     1      12.949  21.014  63.126  1.00  0.00     0.038 C 
BRANCH  19  20
HETATM   20  C6  UNL     1      14.207  21.613  63.692  1.00  0.00     0.003 C 
BRANCH  20  21
HETATM   21  C5  UNL     1      13.926  22.629  64.738  1.00  0.00     0.000 C 
BRANCH  21  22
HETATM   22  C4  UNL     1      14.220  22.384  66.144  1.00  0.00     0.000 C 
BRANCH  22  23
HETATM   23  C3  UNL     1      14.596  23.379  67.154  1.00  0.00    -0.000 C 
BRANCH  23  24
HETATM   24  C2  UNL     1      15.149  24.678  66.707  1.00  0.00    -0.005 C 
HETATM   25  C1  UNL     1      16.609  24.869  66.933  1.00  0.00     0.005 C 
ENDBRANCH  23  24
ENDBRANCH  22  23
ENDBRANCH  21  22
ENDBRANCH  20  21
ENDBRANCH  19  20
ENDBRANCH  16  19
BRANCH  16  26
HETATM   26  O1  UNL     1      13.661  19.060  64.255  1.00  0.00    -0.389 OA
ATOM     27  H1  UNL     1      14.090  19.755  64.740  1.00  0.00     0.210 HD
ENDBRANCH  16  26
BRANCH  17  28
HETATM   28  C29 UNL     1      11.387  19.949  65.444  1.00  0.00     0.360 C 
HETATM   29  F1  UNL     1      10.231  20.759  65.439  1.00  0.00    -0.214 F 
HETATM   30  F2  UNL     1      11.225  19.037  66.463  1.00  0.00    -0.214 F 
ENDBRANCH  17  28
ENDBRANCH  11  13
ENDBRANCH   1  11
BRANCH   8  31
HETATM   31  C18 UNL     1       4.006  15.851  64.350  1.00  0.00     0.220 C 
BRANCH  31  32
HETATM   32  O3  UNL     1       3.716  17.121  65.010  1.00  0.00    -0.299 OA
BRANCH  32  33
HETATM   33  C19 UNL     1       4.233  17.231  66.315  1.00  0.00     0.363 C 
HETATM   34  O4  UNL     1       3.422  16.893  67.215  1.00  0.00    -0.238 OA
HETATM   35  N2  UNL     1       5.532  17.647  66.682  1.00  0.00    -0.328 N 
HETATM   36  C20 UNL     1       6.576  18.019  65.764  1.00  0.00     0.128 C 
HETATM   37  C24 UNL     1       5.860  17.593  68.123  1.00  0.00     0.128 C 
HETATM   38  C21 UNL     1       7.725  18.791  66.265  1.00  0.00     0.020 C 
HETATM   39  C22 UNL     1       8.179  18.327  67.645  1.00  0.00     0.003 C 
HETATM   40  C23 UNL     1       6.986  18.383  68.587  1.00  0.00     0.020 C 
ENDBRANCH  32  33
ENDBRANCH  31  32
ENDBRANCH   8  31
TORSDOF 13
ENDMDL
MODEL 3
REMARK VINA RESULT: -9.269358713      3.219      3.924
REMARK  13 active torsions:
REMARK  status: ('A' for Active; 'I' for Inactive)
REMARK    1  A    between atoms: C2_2  and  C3_3 
REMARK    2  A    between atoms: C3_3  and  C4_4 
REMARK    3  A    between atoms: C4_4  and  C5_5 
REMARK    4  A    between atoms: C5_5  and  C6_6 
REMARK    5  A    between atoms: C6_6  and  C7_7 
REMARK    6  A    between atoms: C7_7  and  C8_8 
REMARK    7  A    between atoms: C8_8  and  O1_9 
REMARK    8  A    between atoms: C11_13  and  N1_14 
REMARK    9  A    between atoms: N1_14  and  C12_16 
REMARK   10  A    between atoms: C17_23  and  C18_24 
REMARK   11  A    between atoms: C18_24  and  O3_25 
REMARK   12  A    between atoms: O3_25  and  C19_26 
REMARK       I    between atoms: C19_26  and  N2_28 
REMARK   13  A    between atoms: C28_37  and  C29_38 
ROOT
HETATM    1  C12 UNL     1      11.438  17.237  61.734  1.00  0.00     0.137 C 
HETATM    2  C13 UNL     1      11.401  16.906  60.248  1.00  0.00     0.205 C 
HETATM    3  O2  UNL     1      10.157  17.578  59.922  1.00  0.00    -0.348 OA
HETATM    4  C14 UNL     1       9.309  17.055  60.906  1.00  0.00     0.078 A 
HETATM    5  C15 UNL     1       7.919  16.861  60.804  1.00  0.00     0.057 A 
HETATM    6  C16 UNL     1       7.251  16.331  61.818  1.00  0.00     0.022 A 
HETATM    7 BR1  UNL     1       5.338  15.968  61.729  1.00  0.00    -0.050 Br
HETATM    8  C17 UNL     1       7.942  15.943  63.041  1.00  0.00    -0.016 A 
HETATM    9  C25 UNL     1       9.323  16.158  63.107  1.00  0.00     0.022 A 
HETATM   10  C26 UNL     1       9.995  16.717  62.042  1.00  0.00     0.000 A 
ENDROOT
BRANCH   1  11
HETATM   11  N1  UNL     1      11.431  18.595  62.011  1.00  0.00    -0.407 N 
ATOM     12  H1  UNL     1      10.784  19.084  61.393  1.00  0.00     0.154 HD
BRANCH  11  13
HETATM   13  C11 UNL     1      12.026  19.461  62.854  1.00  0.00     0.078 C 
HETATM   14  C10 UNL     1      11.650  20.921  62.648  1.00  0.00     0.028 C 
HETATM   15  C9  UNL     1      12.404  21.845  63.615  1.00  0.00     0.040 C 
HETATM   16  C8  UNL     1      13.872  21.917  63.338  1.00  0.00     0.067 C 
HETATM   17  C28 UNL     1      14.143  20.669  62.438  1.00  0.00     0.087 C 
HETATM   18  C27 UNL     1      13.547  19.458  63.004  1.00  0.00     0.037 C 
BRANCH  16  19
HETATM   19  C7  UNL     1      14.676  21.905  64.571  1.00  0.00     0.038 C 
BRANCH  19  20
HETATM   20  C6  UNL     1      13.925  21.873  65.874  1.00  0.00     0.003 C 
BRANCH  20  21
HETATM   21  C5  UNL     1      14.506  22.794  66.882  1.00  0.00     0.000 C 
BRANCH  21  22
HETATM   22  C4  UNL     1      14.276  24.232  66.831  1.00  0.00     0.000 C 
BRANCH  22  23
HETATM   23  C3  UNL     1      14.761  25.168  65.812  1.00  0.00    -0.000 C 
BRANCH  23  24
HETATM   24  C2  UNL     1      16.222  25.349  65.643  1.00  0.00    -0.005 C 
HETATM   25  C1  UNL     1      17.028  25.278  66.893  1.00  0.00     0.005 C 
ENDBRANCH  23  24
ENDBRANCH  22  23
ENDBRANCH  21  22
ENDBRANCH  20  21
ENDBRANCH  19  20
ENDBRANCH  16  19
BRANCH  16  26
HETATM   26  O1  UNL     1      14.280  22.935  62.478  1.00  0.00    -0.389 OA
ATOM     27  H1  UNL     1      13.938  22.804  61.601  1.00  0.00     0.210 HD
ENDBRANCH  16  26
BRANCH  17  28
HETATM   28  C29 UNL     1      15.591  20.597  62.041  1.00  0.00     0.360 C 
HETATM   29  F1  UNL     1      16.013  19.298  62.398  1.00  0.00    -0.214 F 
HETATM   30  F2  UNL     1      15.745  20.700  60.677  1.00  0.00    -0.214 F 
ENDBRANCH  17  28
ENDBRANCH  11  13
ENDBRANCH   1  11
BRANCH   8  31
HETATM   31  C18 UNL     1       7.036  15.540  64.066  1.00  0.00     0.220 C 
BRANCH  31  32
HETATM   32  O3  UNL     1       6.517  16.533  65.003  1.00  0.00    -0.299 OA
BRANCH  32  33
HETATM   33  C19 UNL     1       7.376  16.821  66.082  1.00  0.00     0.363 C 
HETATM   34  O4  UNL     1       7.255  16.032  67.054  1.00  0.00    -0.238 OA
HETATM   35  N2  UNL     1       8.334  17.856  66.152  1.00  0.00    -0.328 N 
HETATM   36  C20 UNL     1       8.615  18.802  65.104  1.00  0.00     0.128 C 
HETATM   37  C24 UNL     1       9.178  17.894  67.366  1.00  0.00     0.128 C 
HETATM   38  C21 UNL     1       9.335  20.042  65.436  1.00  0.00     0.020 C 
HETATM   39  C22 UNL     1      10.451  19.812  66.448  1.00  0.00     0.003 C 
HETATM   40  C23 UNL     1       9.855  19.139  67.675  1.00  0.00     0.020 C 
ENDBRANCH  32  33
ENDBRANCH  31  32
ENDBRANCH   8  31
TORSDOF 13
ENDMDL
MODEL 4
REMARK VINA RESULT: -9.266152856      6.496     12.984
REMARK  13 active torsions:
REMARK  status: ('A' for Active; 'I' for Inactive)
REMARK    1  A    between atoms: C2_2  and  C3_3 
REMARK    2  A    between atoms: C3_3  and  C4_4 
REMARK    3  A    between atoms: C4_4  and  C5_5 
REMARK    4  A    between atoms: C5_5  and  C6_6 
REMARK    5  A    between atoms: C6_6  and  C7_7 
REMARK    6  A    between atoms: C7_7  and  C8_8 
REMARK    7  A    between atoms: C8_8  and  O1_9 
REMARK    8  A    between atoms: C11_13  and  N1_14 
REMARK    9  A    between atoms: N1_14  and  C12_16 
REMARK   10  A    between atoms: C17_23  and  C18_24 
REMARK   11  A    between atoms: C18_24  and  O3_25 
REMARK   12  A    between atoms: O3_25  and  C19_26 
REMARK       I    between atoms: C19_26  and  N2_28 
REMARK   13  A    between atoms: C28_37  and  C29_38 
ROOT
HETATM    1  C12 UNL     1      16.479  24.064  66.315  1.00  0.00     0.137 C 
HETATM    2  C13 UNL     1      16.892  25.214  67.223  1.00  0.00     0.205 C 
HETATM    3  O2  UNL     1      16.622  26.304  66.305  1.00  0.00    -0.348 OA
HETATM    4  C14 UNL     1      17.307  25.865  65.165  1.00  0.00     0.078 A 
HETATM    5  C15 UNL     1      17.893  26.671  64.172  1.00  0.00     0.057 A 
HETATM    6  C16 UNL     1      18.532  26.107  63.157  1.00  0.00     0.022 A 
HETATM    7 BR1  UNL     1      19.428  27.154  61.779  1.00  0.00    -0.050 Br
HETATM    8  C17 UNL     1      18.636  24.657  63.058  1.00  0.00    -0.016 A 
HETATM    9  C25 UNL     1      18.034  23.889  64.062  1.00  0.00     0.022 A 
HETATM   10  C26 UNL     1      17.369  24.498  65.103  1.00  0.00     0.000 A 
ENDROOT
BRANCH   1  11
HETATM   11  N1  UNL     1      15.165  24.131  65.878  1.00  0.00    -0.407 N 
ATOM     12  H1  UNL     1      14.808  25.082  65.964  1.00  0.00     0.154 HD
BRANCH  11  13
HETATM   13  C11 UNL     1      14.220  23.314  65.374  1.00  0.00     0.078 C 
HETATM   14  C10 UNL     1      14.039  22.001  66.121  1.00  0.00     0.028 C 
HETATM   15  C9  UNL     1      12.979  21.111  65.458  1.00  0.00     0.040 C 
HETATM   16  C8  UNL     1      13.400  20.589  64.122  1.00  0.00     0.067 C 
HETATM   17  C28 UNL     1      14.589  21.518  63.716  1.00  0.00     0.087 C 
HETATM   18  C27 UNL     1      14.252  22.932  63.896  1.00  0.00     0.037 C 
BRANCH  16  19
HETATM   19  C7  UNL     1      12.304  20.618  63.138  1.00  0.00     0.038 C 
BRANCH  19  20
HETATM   20  C6  UNL     1      10.981  20.055  63.576  1.00  0.00     0.003 C 
BRANCH  20  21
HETATM   21  C5  UNL     1      10.552  18.906  62.740  1.00  0.00     0.000 C 
BRANCH  21  22
HETATM   22  C4  UNL     1      11.505  18.127  61.959  1.00  0.00     0.000 C 
BRANCH  22  23
HETATM   23  C3  UNL     1      11.213  17.284  60.795  1.00  0.00    -0.000 C 
BRANCH  23  24
HETATM   24  C2  UNL     1       9.803  16.941  60.496  1.00  0.00    -0.005 C 
HETATM   25  C1  UNL     1       9.372  15.575  60.903  1.00  0.00     0.005 C 
ENDBRANCH  23  24
ENDBRANCH  22  23
ENDBRANCH  21  22
ENDBRANCH  20  21
ENDBRANCH  19  20
ENDBRANCH  16  19
BRANCH  16  26
HETATM   26  O1  UNL     1      14.044  19.353  64.125  1.00  0.00    -0.389 OA
ATOM     27  H1  UNL     1      13.677  18.775  64.784  1.00  0.00     0.210 HD
ENDBRANCH  16  26
BRANCH  17  28
HETATM   28  C29 UNL     1      15.156  21.115  62.384  1.00  0.00     0.360 C 
HETATM   29  F1  UNL     1      14.480  21.910  61.433  1.00  0.00    -0.214 F 
HETATM   30  F2  UNL     1      16.492  21.436  62.288  1.00  0.00    -0.214 F 
ENDBRANCH  17  28
ENDBRANCH  11  13
ENDBRANCH   1  11
BRANCH   8  31
HETATM   31  C18 UNL     1      19.220  24.242  61.826  1.00  0.00     0.220 C 
BRANCH  31  32
HETATM   32  O3  UNL     1      18.359  23.892  60.699  1.00  0.00    -0.299 OA
BRANCH  32  33
HETATM   33  C19 UNL     1      18.809  24.368  59.453  1.00  0.00     0.363 C 
HETATM   34  O4  UNL     1      19.846  23.794  59.033  1.00  0.00    -0.238 OA
HETATM   35  N2  UNL     1      18.209  25.371  58.659  1.00  0.00    -0.328 N 
HETATM   36  C20 UNL     1      17.001  26.079  58.987  1.00  0.00     0.128 C 
HETATM   37  C24 UNL     1      18.831  25.630  57.342  1.00  0.00     0.128 C 
HETATM   38  C21 UNL     1      16.702  27.342  58.292  1.00  0.00     0.020 C 
HETATM   39  C22 UNL     1      17.068  27.290  56.813  1.00  0.00     0.003 C 
HETATM   40  C23 UNL     1      18.532  26.893  56.694  1.00  0.00     0.020 C 
ENDBRANCH  32  33
ENDBRANCH  31  32
ENDBRANCH   8  31
TORSDOF 13
ENDMDL
MODEL 5
REMARK VINA RESULT: -9.041331326      6.346     12.772
REMARK  13 active torsions:
REMARK  status: ('A' for Active; 'I' for Inactive)
REMARK    1  A    between atoms: C2_2  and  C3_3 
REMARK    2  A    between atoms: C3_3  and  C4_4 
REMARK    3  A    between atoms: C4_4  and  C5_5 
REMARK    4  A    between atoms: C5_5  and  C6_6 
REMARK    5  A    between atoms: C6_6  and  C7_7 
REMARK    6  A    between atoms: C7_7  and  C8_8 
REMARK    7  A    between atoms: C8_8  and  O1_9 
REMARK    8  A    between atoms: C11_13  and  N1_14 
REMARK    9  A    between atoms: N1_14  and  C12_16 
REMARK   10  A    between atoms: C17_23  and  C18_24 
REMARK   11  A    between atoms: C18_24  and  O3_25 
REMARK   12  A    between atoms: O3_25  and  C19_26 
REMARK       I    between atoms: C19_26  and  N2_28 
REMARK   13  A    between atoms: C28_37  and  C29_38 
ROOT
HETATM    1  C12 UNL     1      16.526  24.059  66.297  1.00  0.00     0.137 C 
HETATM    2  C13 UNL     1      16.948  25.205  67.207  1.00  0.00     0.205 C 
HETATM    3  O2  UNL     1      16.671  26.299  66.295  1.00  0.00    -0.348 OA
HETATM    4  C14 UNL     1      17.346  25.863  65.148  1.00  0.00     0.078 A 
HETATM    5  C15 UNL     1      17.925  26.672  64.153  1.00  0.00     0.057 A 
HETATM    6  C16 UNL     1      18.555  26.111  63.130  1.00  0.00     0.022 A 
HETATM    7 BR1  UNL     1      19.441  27.163  61.748  1.00  0.00    -0.050 Br
HETATM    8  C17 UNL     1      18.656  24.662  63.025  1.00  0.00    -0.016 A 
HETATM    9  C25 UNL     1      18.062  23.891  64.031  1.00  0.00     0.022 A 
HETATM   10  C26 UNL     1      17.406  24.497  65.080  1.00  0.00     0.000 A 
ENDROOT
BRANCH   1  11
HETATM   11  N1  UNL     1      15.208  24.129  65.872  1.00  0.00    -0.407 N 
ATOM     12  H1  UNL     1      14.853  25.081  65.964  1.00  0.00     0.154 HD
BRANCH  11  13
HETATM   13  C11 UNL     1      14.258  23.316  65.374  1.00  0.00     0.078 C 
HETATM   14  C10 UNL     1      14.086  21.997  66.113  1.00  0.00     0.028 C 
HETATM   15  C9  UNL     1      13.019  21.111  65.457  1.00  0.00     0.040 C 
HETATM   16  C8  UNL     1      13.425  20.598  64.112  1.00  0.00     0.067 C 
HETATM   17  C28 UNL     1      14.609  21.530  63.699  1.00  0.00     0.087 C 
HETATM   18  C27 UNL     1      14.274  22.943  63.892  1.00  0.00     0.037 C 
BRANCH  16  19
HETATM   19  C7  UNL     1      12.318  20.633  63.142  1.00  0.00     0.038 C 
BRANCH  19  20
HETATM   20  C6  UNL     1      11.904  19.323  62.531  1.00  0.00     0.003 C 
BRANCH  20  21
HETATM   21  C5  UNL     1      10.462  19.036  62.734  1.00  0.00     0.000 C 
BRANCH  21  22
HETATM   22  C4  UNL     1       9.971  18.377  63.937  1.00  0.00     0.000 C 
BRANCH  22  23
HETATM   23  C3  UNL     1      10.726  18.104  65.165  1.00  0.00    -0.000 C 
BRANCH  23  24
HETATM   24  C2  UNL     1      10.325  18.786  66.418  1.00  0.00    -0.005 C 
HETATM   25  C1  UNL     1       9.649  20.103  66.246  1.00  0.00     0.005 C 
ENDBRANCH  23  24
ENDBRANCH  22  23
ENDBRANCH  21  22
ENDBRANCH  20  21
ENDBRANCH  19  20
ENDBRANCH  16  19
BRANCH  16  26
HETATM   26  O1  UNL     1      14.069  19.362  64.100  1.00  0.00    -0.389 OA
ATOM     27  H1  UNL     1      13.863  18.858  64.879  1.00  0.00     0.210 HD
ENDBRANCH  16  26
BRANCH  17  28
HETATM   28  C29 UNL     1      15.160  21.136  62.358  1.00  0.00     0.360 C 
HETATM   29  F1  UNL     1      14.455  21.918  61.418  1.00  0.00    -0.214 F 
HETATM   30  F2  UNL     1      16.489  21.480  62.240  1.00  0.00    -0.214 F 
ENDBRANCH  17  28
ENDBRANCH  11  13
ENDBRANCH   1  11
BRANCH   8  31
HETATM   31  C18 UNL     1      19.229  24.251  61.787  1.00  0.00     0.220 C 
BRANCH  31  32
HETATM   32  O3  UNL     1      18.358  23.883  60.673  1.00  0.00    -0.299 OA
BRANCH  32  33
HETATM   33  C19 UNL     1      18.788  24.353  59.417  1.00  0.00     0.363 C 
HETATM   34  O4  UNL     1      19.817  23.776  58.983  1.00  0.00    -0.238 OA
HETATM   35  N2  UNL     1      18.177  25.354  58.630  1.00  0.00    -0.328 N 
HETATM   36  C20 UNL     1      16.975  26.065  58.976  1.00  0.00     0.128 C 
HETATM   37  C24 UNL     1      18.776  25.606  57.301  1.00  0.00     0.128 C 
HETATM   38  C21 UNL     1      16.666  27.325  58.280  1.00  0.00     0.020 C 
HETATM   39  C22 UNL     1      17.007  27.267  56.795  1.00  0.00     0.003 C 
HETATM   40  C23 UNL     1      18.468  26.868  56.654  1.00  0.00     0.020 C 
ENDBRANCH  32  33
ENDBRANCH  31  32
ENDBRANCH   8  31
TORSDOF 13
ENDMDL
