MODEL 1
REMARK VINA RESULT: -9.414926553      0.000      0.000
REMARK  17 active torsions:
REMARK  status: ('A' for Active; 'I' for Inactive)
REMARK    1  A    between atoms: C2_2  and  C3_3 
REMARK    2  A    between atoms: C3_3  and  N1_4 
REMARK    3  A    between atoms: N1_4  and  C5_6 
REMARK    4  A    between atoms: C5_6  and  O1_7 
REMARK    5  A    between atoms: C5_6  and  C6_9 
REMARK    6  A    between atoms: C9_12  and  C10_13 
REMARK    7  A    between atoms: C10_13  and  N2_14 
REMARK    8  A    between atoms: N3_17  and  C12_18 
REMARK    9  A    between atoms: C12_18  and  C13_19 
REMARK   10  A    between atoms: C19_25  and  C20_26 
REMARK   11  A    between atoms: C20_26  and  C21_27 
REMARK   12  A    between atoms: C21_27  and  C22_28 
REMARK   13  A    between atoms: C22_28  and  C23_29 
REMARK   14  A    between atoms: C23_29  and  N4_30 
REMARK       I    between atoms: N4_30  and  C24_32 
REMARK       I    between atoms: C24_32  and  N5_34 
REMARK   15  A    between atoms: N5_34  and  C25_36 
REMARK   16  A    between atoms: C28_39  and  C29_40 
REMARK       I    between atoms: C29_40  and  N6_42 
REMARK   17  A    between atoms: N6_42  and  C30_44 
ROOT
HETATM    1  N2  UNL     1      13.844  21.321  62.360  1.00  0.00    -0.313 N 
HETATM    2  C11 UNL     1      13.714  19.960  62.721  1.00  0.00     0.322 C 
HETATM    3  O2  UNL     1      14.442  19.027  62.287  1.00  0.00    -0.247 OA
HETATM    4  N3  UNL     1      12.605  19.824  63.670  1.00  0.00    -0.327 N 
HETATM    5  C19 UNL     1      12.202  21.154  63.960  1.00  0.00     0.121 C 
HETATM    6  C28 UNL     1      13.361  22.041  63.518  1.00  0.00     0.204 C 
ENDROOT
BRANCH   1   7
HETATM    7  C10 UNL     1      14.347  21.883  61.106  1.00  0.00     0.185 C 
BRANCH   7   8
HETATM    8  C9  UNL     1      15.784  22.218  61.254  1.00  0.00     0.028 A 
HETATM    9  C8  UNL     1      16.770  21.359  61.559  1.00  0.00     0.029 A 
HETATM   10  C7  UNL     1      17.939  22.126  61.584  1.00  0.00     0.036 A 
HETATM   11  C6  UNL     1      17.659  23.439  61.295  1.00  0.00     0.083 A 
HETATM   12  N7  UNL     1      16.300  23.438  61.099  1.00  0.00    -0.355 N 
ATOM     13  H7  UNL     1      15.753  24.266  60.864  1.00  0.00     0.166 HD
BRANCH  11  14
HETATM   14  C5  UNL     1      18.480  24.628  61.198  1.00  0.00     0.165 C 
BRANCH  14  15
HETATM   15  N1  UNL     1      18.547  25.681  62.076  1.00  0.00    -0.364 N 
HETATM   16  C4  UNL     1      18.510  27.055  61.471  1.00  0.00     0.151 C 
BRANCH  15  17
HETATM   17  C3  UNL     1      18.646  25.680  63.488  1.00  0.00     0.124 C 
BRANCH  17  18
HETATM   18  C2  UNL     1      18.851  27.059  64.104  1.00  0.00     0.015 C 
HETATM   19  C1  UNL     1      19.408  26.970  65.494  1.00  0.00     0.006 C 
ENDBRANCH  17  18
ENDBRANCH  15  17
ENDBRANCH  14  15
BRANCH  14  20
HETATM   20  O1  UNL     1      19.239  24.678  60.143  1.00  0.00    -0.344 OA
ATOM     21  H1  UNL     1      19.758  23.909  59.940  1.00  0.00     0.219 HD
ENDBRANCH  14  20
ENDBRANCH  11  14
ENDBRANCH   7   8
ENDBRANCH   1   7
BRANCH   6  22
HETATM   22  C29 UNL     1      14.417  22.190  64.542  1.00  0.00     0.243 C 
HETATM   23  O4  UNL     1      15.227  21.239  64.710  1.00  0.00    -0.271 OA
HETATM   24  N6  UNL     1      14.605  23.326  65.365  1.00  0.00    -0.355 N 
ATOM     25  H6  UNL     1      13.970  24.115  65.243  1.00  0.00     0.162 HD
BRANCH  24  26
HETATM   26  C30 UNL     1      15.633  23.437  66.358  1.00  0.00     0.084 C 
HETATM   27  C31 UNL     1      15.129  23.552  67.756  1.00  0.00     0.025 C 
HETATM   28  C32 UNL     1      16.165  24.275  68.561  1.00  0.00     0.002 C 
HETATM   29  C33 UNL     1      16.956  25.048  67.561  1.00  0.00     0.002 C 
HETATM   30  C34 UNL     1      16.449  24.713  66.186  1.00  0.00     0.025 C 
ENDBRANCH  24  26
ENDBRANCH   6  22
BRANCH   4  31
HETATM   31  C12 UNL     1      12.195  18.502  64.040  1.00  0.00     0.132 C 
BRANCH  31  32
HETATM   32  C13 UNL     1      11.128  17.866  63.199  1.00  0.00     0.004 C 
HETATM   33  C14 UNL     1       9.977  18.824  63.103  1.00  0.00     0.006 C 
HETATM   34  C15 UNL     1       8.877  18.474  62.194  1.00  0.00     0.000 C 
HETATM   35  C16 UNL     1       9.259  17.734  60.942  1.00  0.00     0.000 C 
HETATM   36  C17 UNL     1      10.362  16.735  61.187  1.00  0.00     0.000 C 
HETATM   37  C18 UNL     1      11.554  17.488  61.810  1.00  0.00     0.006 C 
ENDBRANCH  31  32
ENDBRANCH   4  31
BRANCH   5  38
HETATM   38  C20 UNL     1      11.711  21.521  65.306  1.00  0.00     0.028 C 
BRANCH  38  39
HETATM   39  C21 UNL     1      10.230  21.501  65.442  1.00  0.00     0.004 C 
BRANCH  39  40
HETATM   40  C22 UNL     1       9.790  20.959  66.823  1.00  0.00     0.020 C 
BRANCH  40  41
HETATM   41  C23 UNL     1       9.344  19.541  66.772  1.00  0.00     0.124 C 
BRANCH  41  42
HETATM   42  N4  UNL     1       8.036  19.418  66.198  1.00  0.00    -0.343 N 
HETATM   43  C24 UNL     1       7.467  18.223  65.719  1.00  0.00     0.316 C 
HETATM   44  O3  UNL     1       8.124  17.155  65.792  1.00  0.00    -0.247 OA
HETATM   45  N5  UNL     1       6.153  18.190  65.148  1.00  0.00    -0.339 N 
ATOM     46  H5  UNL     1       5.600  19.045  65.082  1.00  0.00     0.164 HD
ATOM     47  H4  UNL     1       7.472  20.265  66.131  1.00  0.00     0.164 HD
BRANCH  45  48
HETATM   48  C25 UNL     1       5.622  16.948  64.671  1.00  0.00     0.078 C 
HETATM   49  C26 UNL     1       5.681  16.838  63.166  1.00  0.00     0.032 C 
HETATM   50  C27 UNL     1       4.163  16.795  65.078  1.00  0.00     0.032 C 
ENDBRANCH  45  48
ENDBRANCH  41  42
ENDBRANCH  40  41
ENDBRANCH  39  40
ENDBRANCH  38  39
ENDBRANCH   5  38
TORSDOF 17
ENDMDL
MODEL 2
REMARK VINA RESULT: -9.374012112      0.953      1.584
REMARK  17 active torsions:
REMARK  status: ('A' for Active; 'I' for Inactive)
REMARK    1  A    between atoms: C2_2  and  C3_3 
REMARK    2  A    between atoms: C3_3  and  N1_4 
REMARK    3  A    between atoms: N1_4  and  C5_6 
REMARK    4  A    between atoms: C5_6  and  O1_7 
REMARK    5  A    between atoms: C5_6  and  C6_9 
REMARK    6  A    between atoms: C9_12  and  C10_13 
REMARK    7  A    between atoms: C10_13  and  N2_14 
REMARK    8  A    between atoms: N3_17  and  C12_18 
REMARK    9  A    between atoms: C12_18  and  C13_19 
REMARK   10  A    between atoms: C19_25  and  C20_26 
REMARK   11  A    between atoms: C20_26  and  C21_27 
REMARK   12  A    between atoms: C21_27  and  C22_28 
REMARK   13  A    between atoms: C22_28  and  C23_29 
REMARK   14  A    between atoms: C23_29  and  N4_30 
REMARK       I    between atoms: N4_30  and  C24_32 
REMARK       I    between atoms: C24_32  and  N5_34 
REMARK   15  A    between atoms: N5_34  and  C25_36 
REMARK   16  A    between atoms: C28_39  and  C29_40 
REMARK       I    between atoms: C29_40  and  N6_42 
REMARK   17  A    between atoms: N6_42  and  C30_44 
ROOT
HETATM    1  N2  UNL     1      13.704  21.166  62.524  1.00  0.00    -0.313 N 
HETATM    2  C11 UNL     1      13.531  19.804  62.863  1.00  0.00     0.322 C 
HETATM    3  O2  UNL     1      14.260  18.862  62.453  1.00  0.00    -0.247 OA
HETATM    4  N3  UNL     1      12.377  19.681  63.759  1.00  0.00    -0.327 N 
HETATM    5  C19 UNL     1      11.988  21.015  64.045  1.00  0.00     0.121 C 
HETATM    6  C28 UNL     1      13.183  21.883  63.667  1.00  0.00     0.204 C 
ENDROOT
BRANCH   1   7
HETATM    7  C10 UNL     1      14.276  21.731  61.302  1.00  0.00     0.185 C 
BRANCH   7   8
HETATM    8  C9  UNL     1      15.740  21.896  61.469  1.00  0.00     0.028 A 
HETATM    9  C8  UNL     1      16.679  20.983  61.170  1.00  0.00     0.029 A 
HETATM   10  C7  UNL     1      17.900  21.584  61.491  1.00  0.00     0.036 A 
HETATM   11  C6  UNL     1      17.699  22.852  61.979  1.00  0.00     0.083 A 
HETATM   12  N7  UNL     1      16.332  22.992  61.943  1.00  0.00    -0.355 N 
ATOM     13  H7  UNL     1      15.833  23.830  62.242  1.00  0.00     0.166 HD
BRANCH  11  14
HETATM   14  C5  UNL     1      18.596  23.883  62.457  1.00  0.00     0.165 C 
BRANCH  14  15
HETATM   15  N1  UNL     1      18.616  25.211  62.111  1.00  0.00    -0.364 N 
HETATM   16  C4  UNL     1      18.543  26.195  63.242  1.00  0.00     0.151 C 
BRANCH  15  17
HETATM   17  C3  UNL     1      18.697  25.814  60.832  1.00  0.00     0.124 C 
BRANCH  17  18
HETATM   18  C2  UNL     1      17.355  25.984  60.132  1.00  0.00     0.015 C 
HETATM   19  C1  UNL     1      17.188  25.012  59.002  1.00  0.00     0.006 C 
ENDBRANCH  17  18
ENDBRANCH  15  17
ENDBRANCH  14  15
BRANCH  14  20
HETATM   20  O1  UNL     1      19.480  23.475  63.319  1.00  0.00    -0.344 OA
ATOM     21  H1  UNL     1      19.167  23.222  64.180  1.00  0.00     0.219 HD
ENDBRANCH  14  20
ENDBRANCH  11  14
ENDBRANCH   7   8
ENDBRANCH   1   7
BRANCH   6  22
HETATM   22  C29 UNL     1      14.193  22.000  64.740  1.00  0.00     0.243 C 
HETATM   23  O4  UNL     1      14.769  20.952  65.137  1.00  0.00    -0.271 OA
HETATM   24  N6  UNL     1      14.581  23.205  65.372  1.00  0.00    -0.355 N 
ATOM     25  H6  UNL     1      14.138  24.071  65.063  1.00  0.00     0.162 HD
BRANCH  24  26
HETATM   26  C30 UNL     1      15.556  23.286  66.419  1.00  0.00     0.084 C 
HETATM   27  C31 UNL     1      14.984  23.484  67.782  1.00  0.00     0.025 C 
HETATM   28  C32 UNL     1      16.019  24.167  68.621  1.00  0.00     0.002 C 
HETATM   29  C33 UNL     1      16.915  24.850  67.644  1.00  0.00     0.002 C 
HETATM   30  C34 UNL     1      16.464  24.499  66.254  1.00  0.00     0.025 C 
ENDBRANCH  24  26
ENDBRANCH   6  22
BRANCH   4  31
HETATM   31  C12 UNL     1      11.924  18.363  64.094  1.00  0.00     0.132 C 
BRANCH  31  32
HETATM   32  C13 UNL     1      10.950  17.724  63.151  1.00  0.00     0.004 C 
HETATM   33  C14 UNL     1       9.874  18.724  62.843  1.00  0.00     0.006 C 
HETATM   34  C15 UNL     1       8.890  18.366  61.812  1.00  0.00     0.000 C 
HETATM   35  C16 UNL     1       9.399  17.534  60.667  1.00  0.00     0.000 C 
HETATM   36  C17 UNL     1      10.405  16.505  61.117  1.00  0.00     0.000 C 
HETATM   37  C18 UNL     1      11.539  17.242  61.856  1.00  0.00     0.006 C 
ENDBRANCH  31  32
ENDBRANCH   4  31
BRANCH   5  38
HETATM   38  C20 UNL     1      11.442  21.378  65.371  1.00  0.00     0.028 C 
BRANCH  38  39
HETATM   39  C21 UNL     1       9.990  21.099  65.530  1.00  0.00     0.004 C 
BRANCH  39  40
HETATM   40  C22 UNL     1       9.732  19.991  66.580  1.00  0.00     0.020 C 
BRANCH  40  41
HETATM   41  C23 UNL     1       8.285  19.748  66.820  1.00  0.00     0.124 C 
BRANCH  41  42
HETATM   42  N4  UNL     1       7.597  19.407  65.609  1.00  0.00    -0.343 N 
HETATM   43  C24 UNL     1       7.004  18.161  65.334  1.00  0.00     0.316 C 
HETATM   44  O3  UNL     1       7.052  17.251  66.198  1.00  0.00    -0.247 OA
HETATM   45  N5  UNL     1       6.343  17.900  64.089  1.00  0.00    -0.339 N 
ATOM     46  H5  UNL     1       6.288  18.625  63.374  1.00  0.00     0.164 HD
ATOM     47  H4  UNL     1       7.532  20.126  64.889  1.00  0.00     0.164 HD
BRANCH  45  48
HETATM   48  C25 UNL     1       5.759  16.612  63.857  1.00  0.00     0.078 C 
HETATM   49  C26 UNL     1       6.686  15.689  63.101  1.00  0.00     0.032 C 
HETATM   50  C27 UNL     1       4.482  16.740  63.038  1.00  0.00     0.032 C 
ENDBRANCH  45  48
ENDBRANCH  41  42
ENDBRANCH  40  41
ENDBRANCH  39  40
ENDBRANCH  38  39
ENDBRANCH   5  38
TORSDOF 17
ENDMDL
MODEL 3
REMARK VINA RESULT: -9.181038042      0.963      1.152
REMARK  17 active torsions:
REMARK  status: ('A' for Active; 'I' for Inactive)
REMARK    1  A    between atoms: C2_2  and  C3_3 
REMARK    2  A    between atoms: C3_3  and  N1_4 
REMARK    3  A    between atoms: N1_4  and  C5_6 
REMARK    4  A    between atoms: C5_6  and  O1_7 
REMARK    5  A    between atoms: C5_6  and  C6_9 
REMARK    6  A    between atoms: C9_12  and  C10_13 
REMARK    7  A    between atoms: C10_13  and  N2_14 
REMARK    8  A    between atoms: N3_17  and  C12_18 
REMARK    9  A    between atoms: C12_18  and  C13_19 
REMARK   10  A    between atoms: C19_25  and  C20_26 
REMARK   11  A    between atoms: C20_26  and  C21_27 
REMARK   12  A    between atoms: C21_27  and  C22_28 
REMARK   13  A    between atoms: C22_28  and  C23_29 
REMARK   14  A    between atoms: C23_29  and  N4_30 
REMARK       I    between atoms: N4_30  and  C24_32 
REMARK       I    between atoms: C24_32  and  N5_34 
REMARK   15  A    between atoms: N5_34  and  C25_36 
REMARK   16  A    between atoms: C28_39  and  C29_40 
REMARK       I    between atoms: C29_40  and  N6_42 
REMARK   17  A    between atoms: N6_42  and  C30_44 
ROOT
HETATM    1  N2  UNL     1      13.656  21.190  62.430  1.00  0.00    -0.313 N 
HETATM    2  C11 UNL     1      13.387  19.830  62.711  1.00  0.00     0.322 C 
HETATM    3  O2  UNL     1      14.073  18.859  62.293  1.00  0.00    -0.247 OA
HETATM    4  N3  UNL     1      12.193  19.747  63.557  1.00  0.00    -0.327 N 
HETATM    5  C19 UNL     1      11.875  21.092  63.879  1.00  0.00     0.121 C 
HETATM    6  C28 UNL     1      13.135  21.897  63.579  1.00  0.00     0.204 C 
ENDROOT
BRANCH   1   7
HETATM    7  C10 UNL     1      14.309  21.761  61.252  1.00  0.00     0.185 C 
BRANCH   7   8
HETATM    8  C9  UNL     1      15.764  21.896  61.507  1.00  0.00     0.028 A 
HETATM    9  C8  UNL     1      16.698  20.959  61.278  1.00  0.00     0.029 A 
HETATM   10  C7  UNL     1      17.910  21.538  61.668  1.00  0.00     0.036 A 
HETATM   11  C6  UNL     1      17.708  22.815  62.127  1.00  0.00     0.083 A 
HETATM   12  N7  UNL     1      16.350  22.985  62.005  1.00  0.00    -0.355 N 
ATOM     13  H7  UNL     1      15.852  23.837  62.262  1.00  0.00     0.166 HD
BRANCH  11  14
HETATM   14  C5  UNL     1      18.597  23.833  62.647  1.00  0.00     0.165 C 
BRANCH  14  15
HETATM   15  N1  UNL     1      18.594  25.178  62.372  1.00  0.00    -0.364 N 
HETATM   16  C4  UNL     1      18.076  25.579  61.021  1.00  0.00     0.151 C 
BRANCH  15  17
HETATM   17  C3  UNL     1      19.009  26.269  63.173  1.00  0.00     0.124 C 
BRANCH  17  18
HETATM   18  C2  UNL     1      18.285  26.378  64.509  1.00  0.00     0.015 C 
HETATM   19  C1  UNL     1      19.227  26.714  65.627  1.00  0.00     0.006 C 
ENDBRANCH  17  18
ENDBRANCH  15  17
ENDBRANCH  14  15
BRANCH  14  20
HETATM   20  O1  UNL     1      19.498  23.393  63.476  1.00  0.00    -0.344 OA
ATOM     21  H1  UNL     1      20.402  23.632  63.307  1.00  0.00     0.219 HD
ENDBRANCH  14  20
ENDBRANCH  11  14
ENDBRANCH   7   8
ENDBRANCH   1   7
BRANCH   6  22
HETATM   22  C29 UNL     1      14.106  21.912  64.693  1.00  0.00     0.243 C 
HETATM   23  O4  UNL     1      14.752  20.859  64.939  1.00  0.00    -0.271 OA
HETATM   24  N6  UNL     1      14.384  23.025  65.522  1.00  0.00    -0.355 N 
ATOM     25  H6  UNL     1      13.884  23.894  65.338  1.00  0.00     0.162 HD
BRANCH  24  26
HETATM   26  C30 UNL     1      15.326  23.007  66.603  1.00  0.00     0.084 C 
HETATM   27  C31 UNL     1      14.846  23.670  67.849  1.00  0.00     0.025 C 
HETATM   28  C32 UNL     1      16.047  24.141  68.610  1.00  0.00     0.002 C 
HETATM   29  C33 UNL     1      17.124  24.267  67.587  1.00  0.00     0.002 C 
HETATM   30  C34 UNL     1      16.588  23.791  66.266  1.00  0.00     0.025 C 
ENDBRANCH  24  26
ENDBRANCH   6  22
BRANCH   4  31
HETATM   31  C12 UNL     1      11.648  18.449  63.826  1.00  0.00     0.132 C 
BRANCH  31  32
HETATM   32  C13 UNL     1      10.445  18.045  63.028  1.00  0.00     0.004 C 
HETATM   33  C14 UNL     1      10.914  17.570  61.684  1.00  0.00     0.006 C 
HETATM   34  C15 UNL     1       9.913  16.976  60.787  1.00  0.00     0.000 C 
HETATM   35  C16 UNL     1       8.813  16.190  61.445  1.00  0.00     0.000 C 
HETATM   36  C17 UNL     1       8.364  16.818  62.741  1.00  0.00     0.000 C 
HETATM   37  C18 UNL     1       9.601  16.969  63.648  1.00  0.00     0.006 C 
ENDBRANCH  31  32
ENDBRANCH   4  31
BRANCH   5  38
HETATM   38  C20 UNL     1      11.300  21.441  65.196  1.00  0.00     0.028 C 
BRANCH  38  39
HETATM   39  C21 UNL     1       9.871  21.063  65.358  1.00  0.00     0.004 C 
BRANCH  39  40
HETATM   40  C22 UNL     1       9.568  20.577  66.796  1.00  0.00     0.020 C 
BRANCH  40  41
HETATM   41  C23 UNL     1       8.906  19.245  66.828  1.00  0.00     0.124 C 
BRANCH  41  42
HETATM   42  N4  UNL     1       7.749  19.208  65.983  1.00  0.00    -0.343 N 
HETATM   43  C24 UNL     1       6.882  18.108  65.839  1.00  0.00     0.316 C 
HETATM   44  O3  UNL     1       7.102  17.060  66.495  1.00  0.00    -0.247 OA
HETATM   45  N5  UNL     1       5.750  18.151  64.961  1.00  0.00    -0.339 N 
ATOM     46  H5  UNL     1       5.550  18.993  64.422  1.00  0.00     0.164 HD
ATOM     47  H4  UNL     1       7.536  20.046  65.443  1.00  0.00     0.164 HD
BRANCH  45  48
HETATM   48  C25 UNL     1       4.901  17.003  64.847  1.00  0.00     0.078 C 
HETATM   49  C26 UNL     1       4.639  16.622  63.409  1.00  0.00     0.032 C 
HETATM   50  C27 UNL     1       3.551  17.265  65.499  1.00  0.00     0.032 C 
ENDBRANCH  45  48
ENDBRANCH  41  42
ENDBRANCH  40  41
ENDBRANCH  39  40
ENDBRANCH  38  39
ENDBRANCH   5  38
TORSDOF 17
ENDMDL
MODEL 4
REMARK VINA RESULT: -9.153166463      0.916      1.085
REMARK  17 active torsions:
REMARK  status: ('A' for Active; 'I' for Inactive)
REMARK    1  A    between atoms: C2_2  and  C3_3 
REMARK    2  A    between atoms: C3_3  and  N1_4 
REMARK    3  A    between atoms: N1_4  and  C5_6 
REMARK    4  A    between atoms: C5_6  and  O1_7 
REMARK    5  A    between atoms: C5_6  and  C6_9 
REMARK    6  A    between atoms: C9_12  and  C10_13 
REMARK    7  A    between atoms: C10_13  and  N2_14 
REMARK    8  A    between atoms: N3_17  and  C12_18 
REMARK    9  A    between atoms: C12_18  and  C13_19 
REMARK   10  A    between atoms: C19_25  and  C20_26 
REMARK   11  A    between atoms: C20_26  and  C21_27 
REMARK   12  A    between atoms: C21_27  and  C22_28 
REMARK   13  A    between atoms: C22_28  and  C23_29 
REMARK   14  A    between atoms: C23_29  and  N4_30 
REMARK       I    between atoms: N4_30  and  C24_32 
REMARK       I    between atoms: C24_32  and  N5_34 
REMARK   15  A    between atoms: N5_34  and  C25_36 
REMARK   16  A    between atoms: C28_39  and  C29_40 
REMARK       I    between atoms: C29_40  and  N6_42 
REMARK   17  A    between atoms: N6_42  and  C30_44 
ROOT
HETATM    1  N2  UNL     1      14.142  21.224  62.335  1.00  0.00    -0.313 N 
HETATM    2  C11 UNL     1      13.973  19.875  62.724  1.00  0.00     0.322 C 
HETATM    3  O2  UNL     1      14.715  18.922  62.362  1.00  0.00    -0.247 OA
HETATM    4  N3  UNL     1      12.805  19.777  63.605  1.00  0.00    -0.327 N 
HETATM    5  C19 UNL     1      12.402  21.118  63.832  1.00  0.00     0.121 C 
HETATM    6  C28 UNL     1      13.597  21.980  63.441  1.00  0.00     0.204 C 
ENDROOT
BRANCH   1   7
HETATM    7  C10 UNL     1      14.730  21.745  61.101  1.00  0.00     0.185 C 
BRANCH   7   8
HETATM    8  C9  UNL     1      16.133  22.154  61.353  1.00  0.00     0.028 A 
HETATM    9  C8  UNL     1      17.176  21.329  61.540  1.00  0.00     0.029 A 
HETATM   10  C7  UNL     1      18.281  22.163  61.736  1.00  0.00     0.036 A 
HETATM   11  C6  UNL     1      17.906  23.482  61.668  1.00  0.00     0.083 A 
HETATM   12  N7  UNL     1      16.555  23.416  61.428  1.00  0.00    -0.355 N 
ATOM     13  H7  UNL     1      15.951  24.230  61.320  1.00  0.00     0.166 HD
BRANCH  11  14
HETATM   14  C5  UNL     1      18.634  24.726  61.804  1.00  0.00     0.165 C 
BRANCH  14  15
HETATM   15  N1  UNL     1      18.691  25.773  60.918  1.00  0.00    -0.364 N 
HETATM   16  C4  UNL     1      19.195  25.452  59.540  1.00  0.00     0.151 C 
BRANCH  15  17
HETATM   17  C3  UNL     1      18.342  27.133  61.098  1.00  0.00     0.124 C 
BRANCH  17  18
HETATM   18  C2  UNL     1      19.475  28.008  61.619  1.00  0.00     0.015 C 
HETATM   19  C1  UNL     1      19.103  28.693  62.902  1.00  0.00     0.006 C 
ENDBRANCH  17  18
ENDBRANCH  15  17
ENDBRANCH  14  15
BRANCH  14  20
HETATM   20  O1  UNL     1      19.307  24.842  62.911  1.00  0.00    -0.344 OA
ATOM     21  H1  UNL     1      18.892  24.536  63.710  1.00  0.00     0.219 HD
ENDBRANCH  14  20
ENDBRANCH  11  14
ENDBRANCH   7   8
ENDBRANCH   1   7
BRANCH   6  22
HETATM   22  C29 UNL     1      14.588  22.146  64.525  1.00  0.00     0.243 C 
HETATM   23  O4  UNL     1      15.162  21.118  64.974  1.00  0.00    -0.271 OA
HETATM   24  N6  UNL     1      14.960  23.378  65.113  1.00  0.00    -0.355 N 
ATOM     25  H6  UNL     1      14.518  24.228  64.762  1.00  0.00     0.162 HD
BRANCH  24  26
HETATM   26  C30 UNL     1      15.918  23.506  66.172  1.00  0.00     0.084 C 
HETATM   27  C31 UNL     1      15.320  23.688  67.526  1.00  0.00     0.025 C 
HETATM   28  C32 UNL     1      16.314  24.419  68.374  1.00  0.00     0.002 C 
HETATM   29  C33 UNL     1      17.192  25.135  67.404  1.00  0.00     0.002 C 
HETATM   30  C34 UNL     1      16.774  24.757  66.010  1.00  0.00     0.025 C 
ENDBRANCH  24  26
ENDBRANCH   6  22
BRANCH   4  31
HETATM   31  C12 UNL     1      12.356  18.469  63.984  1.00  0.00     0.132 C 
BRANCH  31  32
HETATM   32  C13 UNL     1      11.495  17.740  62.997  1.00  0.00     0.004 C 
HETATM   33  C14 UNL     1      10.194  17.408  63.667  1.00  0.00     0.006 C 
HETATM   34  C15 UNL     1       9.132  16.826  62.835  1.00  0.00     0.000 C 
HETATM   35  C16 UNL     1       9.066  17.302  61.410  1.00  0.00     0.000 C 
HETATM   36  C17 UNL     1      10.437  17.511  60.818  1.00  0.00     0.000 C 
HETATM   37  C18 UNL     1      11.204  18.490  61.729  1.00  0.00     0.006 C 
ENDBRANCH  31  32
ENDBRANCH   4  31
BRANCH   5  38
HETATM   38  C20 UNL     1      11.832  21.527  65.135  1.00  0.00     0.028 C 
BRANCH  38  39
HETATM   39  C21 UNL     1      10.373  21.271  65.270  1.00  0.00     0.004 C 
BRANCH  39  40
HETATM   40  C22 UNL     1       9.983  20.949  66.733  1.00  0.00     0.020 C 
BRANCH  40  41
HETATM   41  C23 UNL     1       9.302  19.634  66.873  1.00  0.00     0.124 C 
BRANCH  41  42
HETATM   42  N4  UNL     1       8.145  19.545  66.032  1.00  0.00    -0.343 N 
HETATM   43  C24 UNL     1       7.409  18.371  65.783  1.00  0.00     0.316 C 
HETATM   44  O3  UNL     1       7.758  17.297  66.332  1.00  0.00    -0.247 OA
HETATM   45  N5  UNL     1       6.266  18.368  64.918  1.00  0.00    -0.339 N 
ATOM     46  H5  UNL     1       5.962  19.229  64.465  1.00  0.00     0.164 HD
ATOM     47  H4  UNL     1       7.829  20.402  65.578  1.00  0.00     0.164 HD
BRANCH  45  48
HETATM   48  C25 UNL     1       5.554  17.145  64.694  1.00  0.00     0.078 C 
HETATM   49  C26 UNL     1       5.419  16.819  63.225  1.00  0.00     0.032 C 
HETATM   50  C27 UNL     1       4.147  17.229  65.269  1.00  0.00     0.032 C 
ENDBRANCH  45  48
ENDBRANCH  41  42
ENDBRANCH  40  41
ENDBRANCH  39  40
ENDBRANCH  38  39
ENDBRANCH   5  38
TORSDOF 17
ENDMDL
MODEL 5
REMARK VINA RESULT: -9.114028018      1.544     11.176
REMARK  17 active torsions:
REMARK  status: ('A' for Active; 'I' for Inactive)
REMARK    1  A    between atoms: C2_2  and  C3_3 
REMARK    2  A    between atoms: C3_3  and  N1_4 
REMARK    3  A    between atoms: N1_4  and  C5_6 
REMARK    4  A    between atoms: C5_6  and  O1_7 
REMARK    5  A    between atoms: C5_6  and  C6_9 
REMARK    6  A    between atoms: C9_12  and  C10_13 
REMARK    7  A    between atoms: C10_13  and  N2_14 
REMARK    8  A    between atoms: N3_17  and  C12_18 
REMARK    9  A    between atoms: C12_18  and  C13_19 
REMARK   10  A    between atoms: C19_25  and  C20_26 
REMARK   11  A    between atoms: C20_26  and  C21_27 
REMARK   12  A    between atoms: C21_27  and  C22_28 
REMARK   13  A    between atoms: C22_28  and  C23_29 
REMARK   14  A    between atoms: C23_29  and  N4_30 
REMARK       I    between atoms: N4_30  and  C24_32 
REMARK       I    between atoms: C24_32  and  N5_34 
REMARK   15  A    between atoms: N5_34  and  C25_36 
REMARK   16  A    between atoms: C28_39  and  C29_40 
REMARK       I    between atoms: C29_40  and  N6_42 
REMARK   17  A    between atoms: N6_42  and  C30_44 
ROOT
HETATM    1  N2  UNL     1      10.981  20.592  65.002  1.00  0.00    -0.313 N 
HETATM    2  C11 UNL     1      12.236  20.282  65.575  1.00  0.00     0.322 C 
HETATM    3  O2  UNL     1      12.400  19.731  66.696  1.00  0.00    -0.247 OA
HETATM    4  N3  UNL     1      13.296  20.707  64.656  1.00  0.00    -0.327 N 
HETATM    5  C19 UNL     1      12.619  21.127  63.481  1.00  0.00     0.121 C 
HETATM    6  C28 UNL     1      11.220  20.530  63.577  1.00  0.00     0.204 C 
ENDROOT
BRANCH   1   7
HETATM    7  C10 UNL     1       9.725  20.906  65.684  1.00  0.00     0.185 C 
BRANCH   7   8
HETATM    8  C9  UNL     1       9.079  19.651  66.138  1.00  0.00     0.028 A 
HETATM    9  C8  UNL     1       9.300  19.024  67.304  1.00  0.00     0.029 A 
HETATM   10  C7  UNL     1       8.471  17.898  67.285  1.00  0.00     0.036 A 
HETATM   11  C6  UNL     1       7.755  17.847  66.115  1.00  0.00     0.083 A 
HETATM   12  N7  UNL     1       8.175  18.966  65.437  1.00  0.00    -0.355 N 
ATOM     13  H7  UNL     1       7.839  19.238  64.514  1.00  0.00     0.166 HD
BRANCH  11  14
HETATM   14  C5  UNL     1       6.781  16.913  65.589  1.00  0.00     0.165 C 
BRANCH  14  15
HETATM   15  N1  UNL     1       5.750  17.168  64.720  1.00  0.00    -0.364 N 
HETATM   16  C4  UNL     1       4.416  17.470  65.340  1.00  0.00     0.151 C 
BRANCH  15  17
HETATM   17  C3  UNL     1       5.743  17.193  63.304  1.00  0.00     0.124 C 
BRANCH  17  18
HETATM   18  C2  UNL     1       4.718  16.265  62.666  1.00  0.00     0.015 C 
HETATM   19  C1  UNL     1       5.159  14.831  62.714  1.00  0.00     0.006 C 
ENDBRANCH  17  18
ENDBRANCH  15  17
ENDBRANCH  14  15
BRANCH  14  20
HETATM   20  O1  UNL     1       6.925  15.689  66.006  1.00  0.00    -0.344 OA
ATOM     21  H1  UNL     1       7.579  15.529  66.676  1.00  0.00     0.219 HD
ENDBRANCH  14  20
ENDBRANCH  11  14
ENDBRANCH   7   8
ENDBRANCH   1   7
BRANCH   6  22
HETATM   22  C29 UNL     1      11.131  19.144  63.073  1.00  0.00     0.243 C 
HETATM   23  O4  UNL     1      12.077  18.351  63.330  1.00  0.00    -0.271 OA
HETATM   24  N6  UNL     1      10.059  18.614  62.316  1.00  0.00    -0.355 N 
ATOM     25  H6  UNL     1       9.275  19.230  62.102  1.00  0.00     0.162 HD
BRANCH  24  26
HETATM   26  C30 UNL     1      10.007  17.266  61.830  1.00  0.00     0.084 C 
HETATM   27  C31 UNL     1       9.283  17.104  60.537  1.00  0.00     0.025 C 
HETATM   28  C32 UNL     1       8.755  15.704  60.477  1.00  0.00     0.002 C 
HETATM   29  C33 UNL     1       8.671  15.265  61.900  1.00  0.00     0.002 C 
HETATM   30  C34 UNL     1       9.225  16.357  62.771  1.00  0.00     0.025 C 
ENDBRANCH  24  26
ENDBRANCH   6  22
BRANCH   4  31
HETATM   31  C12 UNL     1      14.653  20.635  65.113  1.00  0.00     0.132 C 
BRANCH  31  32
HETATM   32  C13 UNL     1      15.169  21.816  65.880  1.00  0.00     0.004 C 
HETATM   33  C14 UNL     1      16.199  22.507  65.036  1.00  0.00     0.006 C 
HETATM   34  C15 UNL     1      16.730  23.787  65.526  1.00  0.00     0.000 C 
HETATM   35  C16 UNL     1      15.768  24.659  66.285  1.00  0.00     0.000 C 
HETATM   36  C17 UNL     1      14.847  23.855  67.167  1.00  0.00     0.000 C 
HETATM   37  C18 UNL     1      14.126  22.820  66.282  1.00  0.00     0.006 C 
ENDBRANCH  31  32
ENDBRANCH   4  31
BRANCH   5  38
HETATM   38  C20 UNL     1      13.217  20.915  62.145  1.00  0.00     0.028 C 
BRANCH  38  39
HETATM   39  C21 UNL     1      14.474  21.675  61.912  1.00  0.00     0.004 C 
BRANCH  39  40
HETATM   40  C22 UNL     1      15.626  20.747  61.456  1.00  0.00     0.020 C 
BRANCH  40  41
HETATM   41  C23 UNL     1      16.962  21.393  61.554  1.00  0.00     0.124 C 
BRANCH  41  42
HETATM   42  N4  UNL     1      16.858  22.823  61.582  1.00  0.00    -0.343 N 
HETATM   43  C24 UNL     1      17.900  23.707  61.918  1.00  0.00     0.316 C 
HETATM   44  O3  UNL     1      19.030  23.245  62.212  1.00  0.00    -0.247 OA
HETATM   45  N5  UNL     1      17.707  25.128  61.931  1.00  0.00    -0.339 N 
ATOM     46  H5  UNL     1      16.799  25.525  61.692  1.00  0.00     0.164 HD
ATOM     47  H4  UNL     1      15.956  23.232  61.340  1.00  0.00     0.164 HD
BRANCH  45  48
HETATM   48  C25 UNL     1      18.800  25.985  62.284  1.00  0.00     0.078 C 
HETATM   49  C26 UNL     1      18.758  26.401  63.736  1.00  0.00     0.032 C 
HETATM   50  C27 UNL     1      18.777  27.257  61.449  1.00  0.00     0.032 C 
ENDBRANCH  45  48
ENDBRANCH  41  42
ENDBRANCH  40  41
ENDBRANCH  39  40
ENDBRANCH  38  39
ENDBRANCH   5  38
TORSDOF 17
ENDMDL
