MODEL 1
REMARK VINA RESULT: -10.118324426      0.000      0.000
REMARK  15 active torsions:
REMARK  status: ('A' for Active; 'I' for Inactive)
REMARK    1  A    between atoms: C2_2  and  C3_3 
REMARK    2  A    between atoms: C3_3  and  C4_4 
REMARK    3  A    between atoms: C4_4  and  C5_5 
REMARK       I    between atoms: N1_8  and  C8_9 
REMARK    4  A    between atoms: C8_9  and  C9_11 
REMARK    5  A    between atoms: C9_11  and  C10_12 
REMARK    6  A    between atoms: C9_11  and  N2_18 
REMARK    7  A    between atoms: C10_12  and  C11_13 
REMARK       I    between atoms: N2_18  and  C16_20 
REMARK    8  A    between atoms: C16_20  and  C17_22 
REMARK    9  A    between atoms: C17_22  and  N3_23 
REMARK   10  A    between atoms: C17_22  and  C31_45 
REMARK       I    between atoms: N3_23  and  C18_25 
REMARK   11  A    between atoms: C18_25  and  C19_27 
REMARK   12  A    between atoms: C19_27  and  N4_29 
REMARK       I    between atoms: N4_29  and  C21_31 
REMARK   13  A    between atoms: C21_31  and  C22_33 
REMARK   14  A    between atoms: C22_33  and  N5_34 
REMARK   15  A    between atoms: C22_33  and  C25_39 
REMARK       I    between atoms: N5_34  and  C23_36 
ROOT
HETATM    1  C17 UNL     1      16.214  23.382  66.178  1.00  0.00     0.180 C 
ENDROOT
BRANCH   1   2
HETATM    2  C16 UNL     1      14.918  22.820  65.769  1.00  0.00     0.241 C 
HETATM    3  N2  UNL     1      14.550  21.449  65.785  1.00  0.00    -0.346 N 
ATOM      4  H2  UNL     1      15.232  20.755  66.093  1.00  0.00     0.163 HD
HETATM    5  O2  UNL     1      13.998  23.626  65.348  1.00  0.00    -0.271 OA
BRANCH   3   6
HETATM    6  C9  UNL     1      13.244  21.013  65.378  1.00  0.00     0.177 C 
BRANCH   6   7
HETATM    7  C8  UNL     1      13.224  19.666  64.755  1.00  0.00     0.242 C 
HETATM    8  N1  UNL     1      12.210  19.174  63.924  1.00  0.00    -0.350 N 
HETATM    9  C7  UNL     1      12.254  17.827  63.390  1.00  0.00     0.126 C 
HETATM   10  C34 UNL     1      11.071  19.974  63.518  1.00  0.00     0.126 C 
HETATM   11  C6  UNL     1      10.786  17.347  63.339  1.00  0.00     0.024 C 
HETATM   12  C5  UNL     1      10.149  18.025  62.198  1.00  0.00    -0.012 C 
HETATM   13  C35 UNL     1      10.561  19.494  62.176  1.00  0.00     0.024 C 
HETATM   14  O1  UNL     1      14.220  18.928  65.016  1.00  0.00    -0.271 OA
BRANCH  12  15
HETATM   15  C4  UNL     1      10.333  17.484  60.842  1.00  0.00     0.005 C 
BRANCH  15  16
HETATM   16  C3  UNL     1       9.399  16.554  60.217  1.00  0.00     0.000 C 
BRANCH  16  17
HETATM   17  C2  UNL     1       9.123  15.231  60.824  1.00  0.00    -0.005 C 
HETATM   18  C1  UNL     1       7.705  15.312  61.477  1.00  0.00     0.005 C 
ENDBRANCH  16  17
ENDBRANCH  15  16
ENDBRANCH  12  15
ENDBRANCH   6   7
BRANCH   6  19
HETATM   19  C10 UNL     1      12.200  21.237  66.414  1.00  0.00     0.039 C 
BRANCH  19  20
HETATM   20  C11 UNL     1      10.916  20.514  66.275  1.00  0.00    -0.012 C 
HETATM   21  C12 UNL     1      10.559  19.520  67.328  1.00  0.00     0.005 C 
HETATM   22  C13 UNL     1       9.018  19.512  67.217  1.00  0.00     0.000 C 
HETATM   23  C14 UNL     1       8.725  20.995  67.218  1.00  0.00     0.000 C 
HETATM   24  C15 UNL     1       9.778  21.548  66.292  1.00  0.00     0.005 C 
ENDBRANCH  19  20
ENDBRANCH   6  19
ENDBRANCH   3   6
ENDBRANCH   1   2
BRANCH   1  25
HETATM   25  N3  UNL     1      16.757  24.177  65.115  1.00  0.00    -0.346 N 
HETATM   26  C18 UNL     1      18.019  23.945  64.525  1.00  0.00     0.240 C 
HETATM   27  O3  UNL     1      18.741  23.007  64.932  1.00  0.00    -0.271 OA
ATOM     28  H3  UNL     1      16.199  24.956  64.765  1.00  0.00     0.163 HD
BRANCH  26  29
HETATM   29  C19 UNL     1      18.549  24.795  63.413  1.00  0.00     0.172 C 
HETATM   30  C20 UNL     1      18.493  26.250  63.753  1.00  0.00     0.042 C 
BRANCH  29  31
HETATM   31  N4  UNL     1      17.698  24.619  62.234  1.00  0.00    -0.346 N 
HETATM   32  C21 UNL     1      18.003  23.618  61.277  1.00  0.00     0.241 C 
HETATM   33  O4  UNL     1      19.057  22.922  61.535  1.00  0.00    -0.271 OA
ATOM     34  H4  UNL     1      16.882  25.217  62.101  1.00  0.00     0.163 HD
BRANCH  32  35
HETATM   35  C22 UNL     1      17.258  23.299  60.055  1.00  0.00     0.180 C 
BRANCH  35  36
HETATM   36  N5  UNL     1      16.582  24.484  59.529  1.00  0.00    -0.348 N 
HETATM   37  C23 UNL     1      17.245  25.407  58.666  1.00  0.00     0.214 C 
HETATM   38  C24 UNL     1      16.606  26.610  58.117  1.00  0.00     0.117 C 
HETATM   39  O5  UNL     1      18.450  25.140  58.384  1.00  0.00    -0.274 OA
ATOM     40  H5  UNL     1      15.610  24.655  59.786  1.00  0.00     0.163 HD
ENDBRANCH  35  36
BRANCH  35  41
HETATM   41  C25 UNL     1      16.344  22.103  60.148  1.00  0.00     0.018 C 
HETATM   42  C26 UNL     1      16.256  21.540  61.536  1.00  0.00     0.007 C 
HETATM   43  C27 UNL     1      14.892  21.899  62.100  1.00  0.00     0.000 C 
HETATM   44  C28 UNL     1      13.893  21.088  61.270  1.00  0.00     0.000 C 
HETATM   45  C29 UNL     1      13.873  21.626  59.861  1.00  0.00     0.000 C 
HETATM   46  C30 UNL     1      14.998  22.573  59.665  1.00  0.00     0.007 C 
ENDBRANCH  35  41
ENDBRANCH  32  35
ENDBRANCH  29  31
ENDBRANCH  26  29
ENDBRANCH   1  25
BRANCH   1  47
HETATM   47  C31 UNL     1      15.894  24.274  67.389  1.00  0.00     0.009 C 
HETATM   48  C32 UNL     1      15.230  23.442  68.452  1.00  0.00     0.012 C 
HETATM   49  C33 UNL     1      17.103  24.935  67.953  1.00  0.00     0.012 C 
ENDBRANCH   1  47
TORSDOF 15
ENDMDL
MODEL 2
REMARK VINA RESULT: -9.742518756      2.016      9.346
REMARK  15 active torsions:
REMARK  status: ('A' for Active; 'I' for Inactive)
REMARK    1  A    between atoms: C2_2  and  C3_3 
REMARK    2  A    between atoms: C3_3  and  C4_4 
REMARK    3  A    between atoms: C4_4  and  C5_5 
REMARK       I    between atoms: N1_8  and  C8_9 
REMARK    4  A    between atoms: C8_9  and  C9_11 
REMARK    5  A    between atoms: C9_11  and  C10_12 
REMARK    6  A    between atoms: C9_11  and  N2_18 
REMARK    7  A    between atoms: C10_12  and  C11_13 
REMARK       I    between atoms: N2_18  and  C16_20 
REMARK    8  A    between atoms: C16_20  and  C17_22 
REMARK    9  A    between atoms: C17_22  and  N3_23 
REMARK   10  A    between atoms: C17_22  and  C31_45 
REMARK       I    between atoms: N3_23  and  C18_25 
REMARK   11  A    between atoms: C18_25  and  C19_27 
REMARK   12  A    between atoms: C19_27  and  N4_29 
REMARK       I    between atoms: N4_29  and  C21_31 
REMARK   13  A    between atoms: C21_31  and  C22_33 
REMARK   14  A    between atoms: C22_33  and  N5_34 
REMARK   15  A    between atoms: C22_33  and  C25_39 
REMARK       I    between atoms: N5_34  and  C23_36 
ROOT
HETATM    1  C17 UNL     1      15.627  21.525  61.585  1.00  0.00     0.180 C 
ENDROOT
BRANCH   1   2
HETATM    2  C16 UNL     1      16.839  22.262  61.971  1.00  0.00     0.241 C 
HETATM    3  N2  UNL     1      16.888  23.522  62.623  1.00  0.00    -0.346 N 
ATOM      4  H2  UNL     1      16.015  23.999  62.850  1.00  0.00     0.163 HD
HETATM    5  O2  UNL     1      17.993  21.741  61.706  1.00  0.00    -0.271 OA
BRANCH   3   6
HETATM    6  C9  UNL     1      18.134  24.145  62.970  1.00  0.00     0.177 C 
BRANCH   6   7
HETATM    7  C8  UNL     1      18.327  25.488  62.368  1.00  0.00     0.242 C 
HETATM    8  N1  UNL     1      18.623  25.736  61.022  1.00  0.00    -0.350 N 
HETATM    9  C7  UNL     1      18.835  27.082  60.527  1.00  0.00     0.126 C 
HETATM   10  C34 UNL     1      18.711  24.681  60.031  1.00  0.00     0.126 C 
HETATM   11  C6  UNL     1      19.917  26.962  59.430  1.00  0.00     0.024 C 
HETATM   12  C5  UNL     1      19.267  26.382  58.244  1.00  0.00    -0.012 C 
HETATM   13  C35 UNL     1      18.357  25.231  58.666  1.00  0.00     0.024 C 
HETATM   14  O1  UNL     1      18.204  26.467  63.163  1.00  0.00    -0.271 OA
BRANCH  12  15
HETATM   15  C4  UNL     1      18.501  27.255  57.340  1.00  0.00     0.005 C 
BRANCH  15  16
HETATM   16  C3  UNL     1      17.094  27.039  57.021  1.00  0.00     0.000 C 
BRANCH  16  17
HETATM   17  C2  UNL     1      16.445  27.771  55.910  1.00  0.00    -0.005 C 
HETATM   18  C1  UNL     1      14.900  27.641  56.115  1.00  0.00     0.005 C 
ENDBRANCH  16  17
ENDBRANCH  15  16
ENDBRANCH  12  15
ENDBRANCH   6   7
BRANCH   6  19
HETATM   19  C10 UNL     1      18.449  24.062  64.422  1.00  0.00     0.039 C 
BRANCH  19  20
HETATM   20  C11 UNL     1      17.417  24.511  65.384  1.00  0.00    -0.012 C 
HETATM   21  C12 UNL     1      16.613  23.466  66.080  1.00  0.00     0.005 C 
HETATM   22  C13 UNL     1      16.199  24.219  67.365  1.00  0.00     0.000 C 
HETATM   23  C14 UNL     1      17.529  24.795  67.798  1.00  0.00     0.000 C 
HETATM   24  C15 UNL     1      18.116  25.299  66.504  1.00  0.00     0.005 C 
ENDBRANCH  19  20
ENDBRANCH   6  19
ENDBRANCH   3   6
ENDBRANCH   1   2
BRANCH   1  25
HETATM   25  N3  UNL     1      14.553  21.853  62.476  1.00  0.00    -0.346 N 
HETATM   26  C18 UNL     1      14.169  21.052  63.574  1.00  0.00     0.240 C 
HETATM   27  O3  UNL     1      14.770  19.980  63.811  1.00  0.00    -0.271 OA
ATOM     28  H3  UNL     1      14.035  22.716  62.307  1.00  0.00     0.163 HD
BRANCH  26  29
HETATM   29  C19 UNL     1      13.044  21.432  64.486  1.00  0.00     0.172 C 
HETATM   30  C20 UNL     1      13.499  21.549  65.906  1.00  0.00     0.042 C 
BRANCH  29  31
HETATM   31  N4  UNL     1      12.037  20.368  64.466  1.00  0.00    -0.346 N 
HETATM   32  C21 UNL     1      10.726  20.636  63.998  1.00  0.00     0.241 C 
HETATM   33  O4  UNL     1      10.521  21.851  63.619  1.00  0.00    -0.271 OA
ATOM     34  H4  UNL     1      12.280  19.432  64.790  1.00  0.00     0.163 HD
BRANCH  32  35
HETATM   35  C22 UNL     1       9.607  19.694  63.900  1.00  0.00     0.180 C 
BRANCH  35  36
HETATM   36  N5  UNL     1       9.608  18.759  65.024  1.00  0.00    -0.348 N 
HETATM   37  C23 UNL     1       8.984  19.078  66.267  1.00  0.00     0.214 C 
HETATM   38  C24 UNL     1       8.963  18.172  67.424  1.00  0.00     0.117 C 
HETATM   39  O5  UNL     1       8.431  20.214  66.339  1.00  0.00    -0.274 OA
ATOM     40  H5  UNL     1      10.067  17.855  64.917  1.00  0.00     0.163 HD
ENDBRANCH  35  36
BRANCH  35  41
HETATM   41  C25 UNL     1       9.461  19.000  62.569  1.00  0.00     0.018 C 
HETATM   42  C26 UNL     1      10.754  18.904  61.813  1.00  0.00     0.007 C 
HETATM   43  C27 UNL     1      11.217  17.458  61.863  1.00  0.00     0.000 C 
HETATM   44  C28 UNL     1      10.198  16.685  61.021  1.00  0.00     0.000 C 
HETATM   45  C29 UNL     1       8.871  16.681  61.737  1.00  0.00     0.000 C 
HETATM   46  C30 UNL     1       8.906  17.634  62.875  1.00  0.00     0.007 C 
ENDBRANCH  35  41
ENDBRANCH  32  35
ENDBRANCH  29  31
ENDBRANCH  26  29
ENDBRANCH   1  25
BRANCH   1  47
HETATM   47  C31 UNL     1      15.299  22.018  60.165  1.00  0.00     0.009 C 
HETATM   48  C32 UNL     1      13.946  21.497  59.765  1.00  0.00     0.012 C 
HETATM   49  C33 UNL     1      15.319  23.501  60.051  1.00  0.00     0.012 C 
ENDBRANCH   1  47
TORSDOF 15
ENDMDL
MODEL 3
REMARK VINA RESULT: -9.646088966      1.656      3.666
REMARK  15 active torsions:
REMARK  status: ('A' for Active; 'I' for Inactive)
REMARK    1  A    between atoms: C2_2  and  C3_3 
REMARK    2  A    between atoms: C3_3  and  C4_4 
REMARK    3  A    between atoms: C4_4  and  C5_5 
REMARK       I    between atoms: N1_8  and  C8_9 
REMARK    4  A    between atoms: C8_9  and  C9_11 
REMARK    5  A    between atoms: C9_11  and  C10_12 
REMARK    6  A    between atoms: C9_11  and  N2_18 
REMARK    7  A    between atoms: C10_12  and  C11_13 
REMARK       I    between atoms: N2_18  and  C16_20 
REMARK    8  A    between atoms: C16_20  and  C17_22 
REMARK    9  A    between atoms: C17_22  and  N3_23 
REMARK   10  A    between atoms: C17_22  and  C31_45 
REMARK       I    between atoms: N3_23  and  C18_25 
REMARK   11  A    between atoms: C18_25  and  C19_27 
REMARK   12  A    between atoms: C19_27  and  N4_29 
REMARK       I    between atoms: N4_29  and  C21_31 
REMARK   13  A    between atoms: C21_31  and  C22_33 
REMARK   14  A    between atoms: C22_33  and  N5_34 
REMARK   15  A    between atoms: C22_33  and  C25_39 
REMARK       I    between atoms: N5_34  and  C23_36 
ROOT
HETATM    1  C17 UNL     1      15.023  22.143  65.610  1.00  0.00     0.180 C 
ENDROOT
BRANCH   1   2
HETATM    2  C16 UNL     1      13.558  22.179  65.494  1.00  0.00     0.241 C 
HETATM    3  N2  UNL     1      12.657  21.140  65.847  1.00  0.00    -0.346 N 
ATOM      4  H2  UNL     1      13.029  20.262  66.209  1.00  0.00     0.163 HD
HETATM    5  O2  UNL     1      12.999  23.248  65.027  1.00  0.00    -0.271 OA
BRANCH   3   6
HETATM    6  C9  UNL     1      11.236  21.292  65.707  1.00  0.00     0.177 C 
BRANCH   6   7
HETATM    7  C8  UNL     1      10.736  21.047  64.331  1.00  0.00     0.242 C 
HETATM    8  N1  UNL     1      10.864  19.845  63.625  1.00  0.00    -0.350 N 
HETATM    9  C7  UNL     1      10.379  19.707  62.266  1.00  0.00     0.126 C 
HETATM   10  C34 UNL     1      11.460  18.656  64.203  1.00  0.00     0.126 C 
HETATM   11  C6  UNL     1      11.374  18.761  61.557  1.00  0.00     0.024 C 
HETATM   12  C5  UNL     1      11.093  17.399  62.040  1.00  0.00    -0.012 C 
HETATM   13  C35 UNL     1      10.875  17.421  63.550  1.00  0.00     0.024 C 
HETATM   14  O1  UNL     1      10.147  22.025  63.782  1.00  0.00    -0.271 OA
BRANCH  12  15
HETATM   15  C4  UNL     1       9.992  16.631  61.437  1.00  0.00     0.005 C 
BRANCH  15  16
HETATM   16  C3  UNL     1       8.928  16.009  62.218  1.00  0.00     0.000 C 
BRANCH  16  17
HETATM   17  C2  UNL     1       7.930  15.126  61.575  1.00  0.00    -0.005 C 
HETATM   18  C1  UNL     1       6.690  15.064  62.527  1.00  0.00     0.005 C 
ENDBRANCH  16  17
ENDBRANCH  15  16
ENDBRANCH  12  15
ENDBRANCH   6   7
BRANCH   6  19
HETATM   19  C10 UNL     1      10.464  20.614  66.782  1.00  0.00     0.039 C 
BRANCH  19  20
HETATM   20  C11 UNL     1       9.085  20.171  66.473  1.00  0.00    -0.012 C 
HETATM   21  C12 UNL     1       8.609  18.900  67.089  1.00  0.00     0.005 C 
HETATM   22  C13 UNL     1       7.080  19.130  67.100  1.00  0.00     0.000 C 
HETATM   23  C14 UNL     1       7.007  20.520  67.691  1.00  0.00     0.000 C 
HETATM   24  C15 UNL     1       8.111  21.252  66.971  1.00  0.00     0.005 C 
ENDBRANCH  19  20
ENDBRANCH   6  19
ENDBRANCH   3   6
ENDBRANCH   1   2
BRANCH   1  25
HETATM   25  N3  UNL     1      15.616  22.150  64.304  1.00  0.00    -0.346 N 
HETATM   26  C18 UNL     1      15.191  21.319  63.244  1.00  0.00     0.240 C 
HETATM   27  O3  UNL     1      14.253  20.508  63.416  1.00  0.00    -0.271 OA
ATOM     28  H3  UNL     1      16.389  22.792  64.131  1.00  0.00     0.163 HD
BRANCH  26  29
HETATM   29  C19 UNL     1      15.832  21.359  61.891  1.00  0.00     0.172 C 
HETATM   30  C20 UNL     1      16.489  20.059  61.552  1.00  0.00     0.042 C 
BRANCH  29  31
HETATM   31  N4  UNL     1      16.897  22.364  61.901  1.00  0.00    -0.346 N 
HETATM   32  C21 UNL     1      17.018  23.285  60.830  1.00  0.00     0.241 C 
HETATM   33  O4  UNL     1      16.144  23.148  59.893  1.00  0.00    -0.271 OA
ATOM     34  H4  UNL     1      17.554  22.402  62.681  1.00  0.00     0.163 HD
BRANCH  32  35
HETATM   35  C22 UNL     1      18.010  24.355  60.685  1.00  0.00     0.180 C 
BRANCH  35  36
HETATM   36  N5  UNL     1      17.870  25.348  61.749  1.00  0.00    -0.348 N 
HETATM   37  C23 UNL     1      18.519  25.195  63.010  1.00  0.00     0.214 C 
HETATM   38  C24 UNL     1      18.404  26.166  64.108  1.00  0.00     0.117 C 
HETATM   39  O5  UNL     1      19.221  24.152  63.154  1.00  0.00    -0.274 OA
ATOM     40  H5  UNL     1      17.293  26.173  61.585  1.00  0.00     0.163 HD
ENDBRANCH  35  36
BRANCH  35  41
HETATM   41  C25 UNL     1      18.092  24.980  59.315  1.00  0.00     0.018 C 
HETATM   42  C26 UNL     1      17.728  26.435  59.312  1.00  0.00     0.007 C 
HETATM   43  C27 UNL     1      19.005  27.235  59.119  1.00  0.00     0.000 C 
HETATM   44  C28 UNL     1      19.453  26.927  57.687  1.00  0.00     0.000 C 
HETATM   45  C29 UNL     1      19.894  25.488  57.609  1.00  0.00     0.000 C 
HETATM   46  C30 UNL     1      19.509  24.772  58.851  1.00  0.00     0.007 C 
ENDBRANCH  35  41
ENDBRANCH  32  35
ENDBRANCH  29  31
ENDBRANCH  26  29
ENDBRANCH   1  25
BRANCH   1  47
HETATM   47  C31 UNL     1      15.392  23.434  66.359  1.00  0.00     0.009 C 
HETATM   48  C32 UNL     1      14.972  23.305  67.799  1.00  0.00     0.012 C 
HETATM   49  C33 UNL     1      16.846  23.746  66.288  1.00  0.00     0.012 C 
ENDBRANCH   1  47
TORSDOF 15
ENDMDL
MODEL 4
REMARK VINA RESULT: -9.535222131      1.948      4.501
REMARK  15 active torsions:
REMARK  status: ('A' for Active; 'I' for Inactive)
REMARK    1  A    between atoms: C2_2  and  C3_3 
REMARK    2  A    between atoms: C3_3  and  C4_4 
REMARK    3  A    between atoms: C4_4  and  C5_5 
REMARK       I    between atoms: N1_8  and  C8_9 
REMARK    4  A    between atoms: C8_9  and  C9_11 
REMARK    5  A    between atoms: C9_11  and  C10_12 
REMARK    6  A    between atoms: C9_11  and  N2_18 
REMARK    7  A    between atoms: C10_12  and  C11_13 
REMARK       I    between atoms: N2_18  and  C16_20 
REMARK    8  A    between atoms: C16_20  and  C17_22 
REMARK    9  A    between atoms: C17_22  and  N3_23 
REMARK   10  A    between atoms: C17_22  and  C31_45 
REMARK       I    between atoms: N3_23  and  C18_25 
REMARK   11  A    between atoms: C18_25  and  C19_27 
REMARK   12  A    between atoms: C19_27  and  N4_29 
REMARK       I    between atoms: N4_29  and  C21_31 
REMARK   13  A    between atoms: C21_31  and  C22_33 
REMARK   14  A    between atoms: C22_33  and  N5_34 
REMARK   15  A    between atoms: C22_33  and  C25_39 
REMARK       I    between atoms: N5_34  and  C23_36 
ROOT
HETATM    1  C17 UNL     1      15.525  22.746  66.283  1.00  0.00     0.180 C 
ENDROOT
BRANCH   1   2
HETATM    2  C16 UNL     1      14.654  21.806  65.563  1.00  0.00     0.241 C 
HETATM    3  N2  UNL     1      13.370  22.089  65.026  1.00  0.00    -0.346 N 
ATOM      4  H2  UNL     1      12.977  23.023  65.143  1.00  0.00     0.163 HD
HETATM    5  O2  UNL     1      15.064  20.593  65.383  1.00  0.00    -0.271 OA
BRANCH   3   6
HETATM    6  C9  UNL     1      12.611  21.094  64.322  1.00  0.00     0.177 C 
BRANCH   6   7
HETATM    7  C8  UNL     1      11.148  21.168  64.564  1.00  0.00     0.242 C 
HETATM    8  N1  UNL     1      10.391  20.207  65.244  1.00  0.00    -0.350 N 
HETATM    9  C7  UNL     1       8.955  20.343  65.399  1.00  0.00     0.126 C 
HETATM   10  C34 UNL     1      10.981  19.034  65.858  1.00  0.00     0.126 C 
HETATM   11  C6  UNL     1       8.387  18.907  65.334  1.00  0.00     0.024 C 
HETATM   12  C5  UNL     1       8.697  18.261  66.620  1.00  0.00    -0.012 C 
HETATM   13  C35 UNL     1      10.130  18.587  67.028  1.00  0.00     0.024 C 
HETATM   14  O1  UNL     1      10.570  22.200  64.108  1.00  0.00    -0.271 OA
BRANCH  12  15
HETATM   15  C4  UNL     1       7.828  18.511  67.781  1.00  0.00     0.005 C 
BRANCH  15  16
HETATM   16  C3  UNL     1       6.625  17.737  68.062  1.00  0.00     0.000 C 
BRANCH  16  17
HETATM   17  C2  UNL     1       5.294  18.212  67.622  1.00  0.00    -0.005 C 
HETATM   18  C1  UNL     1       5.389  19.765  67.467  1.00  0.00     0.005 C 
ENDBRANCH  16  17
ENDBRANCH  15  16
ENDBRANCH  12  15
ENDBRANCH   6   7
BRANCH   6  19
HETATM   19  C10 UNL     1      13.001  20.958  62.893  1.00  0.00     0.039 C 
BRANCH  19  20
HETATM   20  C11 UNL     1      12.733  19.667  62.219  1.00  0.00    -0.012 C 
HETATM   21  C12 UNL     1      12.793  18.427  63.044  1.00  0.00     0.005 C 
HETATM   22  C13 UNL     1      11.865  17.490  62.237  1.00  0.00     0.000 C 
HETATM   23  C14 UNL     1      10.670  18.391  62.021  1.00  0.00     0.000 C 
HETATM   24  C15 UNL     1      11.304  19.709  61.653  1.00  0.00     0.005 C 
ENDBRANCH  19  20
ENDBRANCH   6  19
ENDBRANCH   3   6
ENDBRANCH   1   2
BRANCH   1  25
HETATM   25  N3  UNL     1      16.370  23.437  65.352  1.00  0.00    -0.346 N 
HETATM   26  C18 UNL     1      17.583  24.066  65.709  1.00  0.00     0.240 C 
HETATM   27  O3  UNL     1      17.974  24.051  66.898  1.00  0.00    -0.271 OA
ATOM     28  H3  UNL     1      16.077  23.477  64.376  1.00  0.00     0.163 HD
BRANCH  26  29
HETATM   29  C19 UNL     1      18.441  24.774  64.706  1.00  0.00     0.172 C 
HETATM   30  C20 UNL     1      18.648  26.209  65.071  1.00  0.00     0.042 C 
BRANCH  29  31
HETATM   31  N4  UNL     1      17.754  24.777  63.413  1.00  0.00    -0.346 N 
HETATM   32  C21 UNL     1      18.266  24.016  62.332  1.00  0.00     0.241 C 
HETATM   33  O4  UNL     1      19.346  23.362  62.590  1.00  0.00    -0.271 OA
ATOM     34  H4  UNL     1      16.904  25.328  63.289  1.00  0.00     0.163 HD
BRANCH  32  35
HETATM   35  C22 UNL     1      17.704  23.897  60.983  1.00  0.00     0.180 C 
BRANCH  35  36
HETATM   36  N5  UNL     1      17.408  22.502  60.659  1.00  0.00    -0.348 N 
HETATM   37  C23 UNL     1      16.544  21.709  61.471  1.00  0.00     0.214 C 
HETATM   38  C24 UNL     1      16.221  20.304  61.186  1.00  0.00     0.117 C 
HETATM   39  O5  UNL     1      16.050  22.283  62.486  1.00  0.00    -0.274 OA
ATOM     40  H5  UNL     1      17.831  22.085  59.830  1.00  0.00     0.163 HD
ENDBRANCH  35  36
BRANCH  35  41
HETATM   41  C25 UNL     1      18.482  24.593  59.894  1.00  0.00     0.018 C 
HETATM   42  C26 UNL     1      17.752  24.628  58.583  1.00  0.00     0.007 C 
HETATM   43  C27 UNL     1      17.273  26.051  58.353  1.00  0.00     0.000 C 
HETATM   44  C28 UNL     1      18.550  26.867  58.128  1.00  0.00     0.000 C 
HETATM   45  C29 UNL     1      19.325  26.934  59.420  1.00  0.00     0.000 C 
HETATM   46  C30 UNL     1      18.751  25.984  60.405  1.00  0.00     0.007 C 
ENDBRANCH  35  41
ENDBRANCH  32  35
ENDBRANCH  29  31
ENDBRANCH  26  29
ENDBRANCH   1  25
BRANCH   1  47
HETATM   47  C31 UNL     1      14.565  23.741  66.957  1.00  0.00     0.009 C 
HETATM   48  C32 UNL     1      14.996  23.951  68.383  1.00  0.00     0.012 C 
HETATM   49  C33 UNL     1      14.505  25.050  66.254  1.00  0.00     0.012 C 
ENDBRANCH   1  47
TORSDOF 15
ENDMDL
MODEL 5
REMARK VINA RESULT: -9.419731950      4.432     11.421
REMARK  15 active torsions:
REMARK  status: ('A' for Active; 'I' for Inactive)
REMARK    1  A    between atoms: C2_2  and  C3_3 
REMARK    2  A    between atoms: C3_3  and  C4_4 
REMARK    3  A    between atoms: C4_4  and  C5_5 
REMARK       I    between atoms: N1_8  and  C8_9 
REMARK    4  A    between atoms: C8_9  and  C9_11 
REMARK    5  A    between atoms: C9_11  and  C10_12 
REMARK    6  A    between atoms: C9_11  and  N2_18 
REMARK    7  A    between atoms: C10_12  and  C11_13 
REMARK       I    between atoms: N2_18  and  C16_20 
REMARK    8  A    between atoms: C16_20  and  C17_22 
REMARK    9  A    between atoms: C17_22  and  N3_23 
REMARK   10  A    between atoms: C17_22  and  C31_45 
REMARK       I    between atoms: N3_23  and  C18_25 
REMARK   11  A    between atoms: C18_25  and  C19_27 
REMARK   12  A    between atoms: C19_27  and  N4_29 
REMARK       I    between atoms: N4_29  and  C21_31 
REMARK   13  A    between atoms: C21_31  and  C22_33 
REMARK   14  A    between atoms: C22_33  and  N5_34 
REMARK   15  A    between atoms: C22_33  and  C25_39 
REMARK       I    between atoms: N5_34  and  C23_36 
ROOT
HETATM    1  C17 UNL     1       8.975  20.444  65.422  1.00  0.00     0.180 C 
ENDROOT
BRANCH   1   2
HETATM    2  C16 UNL     1      10.153  20.592  64.555  1.00  0.00     0.241 C 
HETATM    3  N2  UNL     1      11.278  19.728  64.505  1.00  0.00    -0.346 N 
ATOM      4  H2  UNL     1      11.312  18.920  65.127  1.00  0.00     0.163 HD
HETATM    5  O2  UNL     1      10.204  21.599  63.744  1.00  0.00    -0.271 OA
BRANCH   3   6
HETATM    6  C9  UNL     1      12.370  19.960  63.602  1.00  0.00     0.177 C 
BRANCH   6   7
HETATM    7  C8  UNL     1      13.680  20.150  64.274  1.00  0.00     0.242 C 
HETATM    8  N1  UNL     1      14.144  21.354  64.816  1.00  0.00    -0.350 N 
HETATM    9  C7  UNL     1      15.458  21.458  65.420  1.00  0.00     0.126 C 
HETATM   10  C34 UNL     1      13.345  22.564  64.837  1.00  0.00     0.126 C 
HETATM   11  C6  UNL     1      15.964  22.879  65.086  1.00  0.00     0.024 C 
HETATM   12  C5  UNL     1      15.236  23.814  65.960  1.00  0.00    -0.012 C 
HETATM   13  C35 UNL     1      13.759  23.430  66.008  1.00  0.00     0.024 C 
HETATM   14  O1  UNL     1      14.410  19.118  64.348  1.00  0.00    -0.271 OA
BRANCH  12  15
HETATM   15  C4  UNL     1      15.694  24.016  67.343  1.00  0.00     0.005 C 
BRANCH  15  16
HETATM   16  C3  UNL     1      17.101  24.138  67.710  1.00  0.00     0.000 C 
BRANCH  16  17
HETATM   17  C2  UNL     1      17.775  25.456  67.715  1.00  0.00    -0.005 C 
HETATM   18  C1  UNL     1      18.615  25.548  66.400  1.00  0.00     0.005 C 
ENDBRANCH  16  17
ENDBRANCH  15  16
ENDBRANCH  12  15
ENDBRANCH   6   7
BRANCH   6  19
HETATM   19  C10 UNL     1      12.390  19.020  62.449  1.00  0.00     0.039 C 
BRANCH  19  20
HETATM   20  C11 UNL     1      11.252  18.085  62.295  1.00  0.00    -0.012 C 
HETATM   21  C12 UNL     1      10.057  18.563  61.542  1.00  0.00     0.005 C 
HETATM   22  C13 UNL     1       9.465  17.224  61.046  1.00  0.00     0.000 C 
HETATM   23  C14 UNL     1      10.700  16.560  60.481  1.00  0.00     0.000 C 
HETATM   24  C15 UNL     1      11.747  16.849  61.526  1.00  0.00     0.005 C 
ENDBRANCH  19  20
ENDBRANCH   6  19
ENDBRANCH   3   6
ENDBRANCH   1   2
BRANCH   1  25
HETATM   25  N3  UNL     1       8.629  19.057  65.540  1.00  0.00    -0.346 N 
HETATM   26  C18 UNL     1       7.838  18.361  64.599  1.00  0.00     0.240 C 
HETATM   27  O3  UNL     1       7.386  18.956  63.595  1.00  0.00    -0.271 OA
ATOM     28  H3  UNL     1       8.974  18.544  66.351  1.00  0.00     0.163 HD
BRANCH  26  29
HETATM   29  C19 UNL     1       7.503  16.911  64.755  1.00  0.00     0.172 C 
HETATM   30  C20 UNL     1       8.623  16.032  64.296  1.00  0.00     0.042 C 
BRANCH  29  31
HETATM   31  N4  UNL     1       6.358  16.594  63.897  1.00  0.00    -0.346 N 
HETATM   32  C21 UNL     1       5.097  16.296  64.473  1.00  0.00     0.241 C 
HETATM   33  O4  UNL     1       5.067  16.324  65.761  1.00  0.00    -0.271 OA
ATOM     34  H4  UNL     1       6.469  16.588  62.883  1.00  0.00     0.163 HD
BRANCH  32  35
HETATM   35  C22 UNL     1       3.853  15.970  63.768  1.00  0.00     0.180 C 
BRANCH  35  36
HETATM   36  N5  UNL     1       3.997  14.741  62.991  1.00  0.00    -0.348 N 
HETATM   37  C23 UNL     1       3.243  13.568  63.293  1.00  0.00     0.214 C 
HETATM   38  C24 UNL     1       3.358  12.310  62.541  1.00  0.00     0.117 C 
HETATM   39  O5  UNL     1       2.446  13.654  64.272  1.00  0.00    -0.274 OA
ATOM     40  H5  UNL     1       4.653  14.721  62.210  1.00  0.00     0.163 HD
ENDBRANCH  35  36
BRANCH  35  41
HETATM   41  C25 UNL     1       3.250  17.097  62.967  1.00  0.00     0.018 C 
HETATM   42  C26 UNL     1       2.619  16.633  61.687  1.00  0.00     0.007 C 
HETATM   43  C27 UNL     1       1.112  16.715  61.853  1.00  0.00     0.000 C 
HETATM   44  C28 UNL     1       0.802  18.212  61.937  1.00  0.00     0.000 C 
HETATM   45  C29 UNL     1       1.354  18.757  63.231  1.00  0.00     0.000 C 
HETATM   46  C30 UNL     1       2.235  17.747  63.870  1.00  0.00     0.007 C 
ENDBRANCH  35  41
ENDBRANCH  32  35
ENDBRANCH  29  31
ENDBRANCH  26  29
ENDBRANCH   1  25
BRANCH   1  47
HETATM   47  C31 UNL     1       9.419  20.991  66.789  1.00  0.00     0.009 C 
HETATM   48  C32 UNL     1       8.242  21.642  67.464  1.00  0.00     0.012 C 
HETATM   49  C33 UNL     1       9.984  19.938  67.675  1.00  0.00     0.012 C 
ENDBRANCH   1  47
TORSDOF 15
ENDMDL
