MODEL 1
REMARK VINA RESULT: -7.652115789      0.000      0.000
REMARK  6 active torsions:
REMARK  status: ('A' for Active; 'I' for Inactive)
REMARK    1  A    between atoms: O1_2  and  C2_3 
REMARK    2  A    between atoms: C4_5  and  N1_6 
REMARK       I    between atoms: N1_6  and  C5_8 
REMARK       I    between atoms: C5_8  and  N3_12 
REMARK    3  A    between atoms: N3_12  and  C7_14 
REMARK    4  A    between atoms: C7_14  and  C8_15 
REMARK    5  A    between atoms: C17_26  and  O4_27 
REMARK    6  A    between atoms: C19_29  and  O5_30 
ROOT
HETATM    1  N1  UNL     1     -25.091  21.695   4.961  1.00  0.00    -0.192 N 
ATOM      2  H1  UNL     1     -25.587  21.572   5.844  1.00  0.00     0.184 HD
HETATM    3  C5  UNL     1     -25.452  22.819   4.170  1.00  0.00     0.674 C 
HETATM    4  N2  UNL     1     -24.683  23.839   4.273  1.00  0.00    -0.235 N 
ATOM      5  H21 UNL     1     -24.942  24.646   3.705  1.00  0.00     0.174 HD
ATOM      6  H22 UNL     1     -23.850  23.861   4.862  1.00  0.00     0.174 HD
HETATM    7  N3  UNL     1     -26.625  22.789   3.342  1.00  0.00    -0.218 N 
HETATM    8  C6  UNL     1     -27.233  21.452   3.171  1.00  0.00     0.169 C 
ENDROOT
BRANCH   1   9
HETATM    9  C4  UNL     1     -24.114  20.739   4.640  1.00  0.00     0.054 A 
HETATM   10  C3  UNL     1     -23.534  20.687   3.393  1.00  0.00     0.069 A 
HETATM   11  C2  UNL     1     -22.564  19.713   3.122  1.00  0.00     0.106 A 
HETATM   12  C19 UNL     1     -22.187  18.808   4.090  1.00  0.00     0.135 A 
HETATM   13  C17 UNL     1     -22.761  18.848   5.348  1.00  0.00     0.106 A 
HETATM   14  C16 UNL     1     -23.714  19.804   5.614  1.00  0.00     0.069 A 
BRANCH  11  15
HETATM   15  O1  UNL     1     -21.957  19.626   1.887  1.00  0.00    -0.353 OA
HETATM   16  C1  UNL     1     -20.909  20.477   1.527  1.00  0.00     0.210 C 
ENDBRANCH  11  15
BRANCH  12  17
HETATM   17  O5  UNL     1     -21.225  17.861   3.778  1.00  0.00    -0.351 OA
HETATM   18  C20 UNL     1     -21.678  16.639   3.220  1.00  0.00     0.210 C 
ENDBRANCH  12  17
BRANCH  13  19
HETATM   19  O4  UNL     1     -22.383  17.931   6.341  1.00  0.00    -0.353 OA
HETATM   20  C18 UNL     1     -22.710  18.166   7.701  1.00  0.00     0.210 C 
ENDBRANCH  13  19
ENDBRANCH   1   9
BRANCH   7  21
HETATM   21  C7  UNL     1     -27.209  23.928   2.701  1.00  0.00     0.182 C 
BRANCH  21  22
HETATM   22  C8  UNL     1     -27.064  24.022   1.247  1.00  0.00    -0.003 A 
HETATM   23  C9  UNL     1     -28.077  23.768   0.367  1.00  0.00     0.018 A 
HETATM   24  C10 UNL     1     -27.921  23.892  -1.007  1.00  0.00    -0.059 A 
HETATM   25  C11 UNL     1     -29.014  23.620  -1.961  1.00  0.00     0.048 C 
HETATM   26  C12 UNL     1     -26.677  24.289  -1.458  1.00  0.00     0.046 A 
HETATM   27  C13 UNL     1     -25.637  24.551  -0.570  1.00  0.00     0.106 A 
HETATM   28  C14 UNL     1     -25.813  24.423   0.774  1.00  0.00     0.113 A 
HETATM   29  O3  UNL     1     -24.316  24.958  -0.755  1.00  0.00    -0.323 OA
HETATM   30  O2  UNL     1     -24.618  24.746   1.415  1.00  0.00    -0.322 OA
HETATM   31  C15 UNL     1     -23.591  24.734   0.437  1.00  0.00     0.352 C 
ENDBRANCH  21  22
ENDBRANCH   7  21
TORSDOF 6
ENDMDL
MODEL 2
REMARK VINA RESULT: -7.612798245      0.143      2.397
REMARK  6 active torsions:
REMARK  status: ('A' for Active; 'I' for Inactive)
REMARK    1  A    between atoms: O1_2  and  C2_3 
REMARK    2  A    between atoms: C4_5  and  N1_6 
REMARK       I    between atoms: N1_6  and  C5_8 
REMARK       I    between atoms: C5_8  and  N3_12 
REMARK    3  A    between atoms: N3_12  and  C7_14 
REMARK    4  A    between atoms: C7_14  and  C8_15 
REMARK    5  A    between atoms: C17_26  and  O4_27 
REMARK    6  A    between atoms: C19_29  and  O5_30 
ROOT
HETATM    1  N1  UNL     1     -25.108  21.748   4.995  1.00  0.00    -0.192 N 
ATOM      2  H1  UNL     1     -25.624  21.664   5.871  1.00  0.00     0.184 HD
HETATM    3  C5  UNL     1     -25.420  22.859   4.166  1.00  0.00     0.674 C 
HETATM    4  N2  UNL     1     -24.623  23.858   4.256  1.00  0.00    -0.235 N 
ATOM      5  H21 UNL     1     -24.847  24.656   3.661  1.00  0.00     0.174 HD
ATOM      6  H22 UNL     1     -23.802  23.872   4.860  1.00  0.00     0.174 HD
HETATM    7  N3  UNL     1     -26.578  22.839   3.316  1.00  0.00    -0.218 N 
HETATM    8  C6  UNL     1     -27.222  21.516   3.171  1.00  0.00     0.169 C 
ENDROOT
BRANCH   1   9
HETATM    9  C4  UNL     1     -24.153  20.754   4.720  1.00  0.00     0.054 A 
HETATM   10  C3  UNL     1     -23.804  19.809   5.657  1.00  0.00     0.069 A 
HETATM   11  C2  UNL     1     -22.846  18.839   5.334  1.00  0.00     0.106 A 
HETATM   12  C19 UNL     1     -22.252  18.824   4.091  1.00  0.00     0.135 A 
HETATM   13  C17 UNL     1     -22.593  19.768   3.139  1.00  0.00     0.106 A 
HETATM   14  C16 UNL     1     -23.534  20.721   3.457  1.00  0.00     0.069 A 
BRANCH  11  15
HETATM   15  O1  UNL     1     -22.466  17.871   6.241  1.00  0.00    -0.353 OA
HETATM   16  C1  UNL     1     -22.708  18.019   7.609  1.00  0.00     0.210 C 
ENDBRANCH  11  15
BRANCH  12  17
HETATM   17  O5  UNL     1     -21.309  17.846   3.815  1.00  0.00    -0.351 OA
HETATM   18  C20 UNL     1     -21.755  16.699   3.111  1.00  0.00     0.210 C 
ENDBRANCH  12  17
BRANCH  13  19
HETATM   19  O4  UNL     1     -21.994  19.760   1.871  1.00  0.00    -0.353 OA
HETATM   20  C18 UNL     1     -20.754  20.416   1.656  1.00  0.00     0.210 C 
ENDBRANCH  13  19
ENDBRANCH   1   9
BRANCH   7  21
HETATM   21  C7  UNL     1     -27.116  23.976   2.632  1.00  0.00     0.182 C 
BRANCH  21  22
HETATM   22  C8  UNL     1     -26.966  24.010   1.176  1.00  0.00    -0.003 A 
HETATM   23  C9  UNL     1     -27.990  23.775   0.304  1.00  0.00     0.018 A 
HETATM   24  C10 UNL     1     -27.828  23.842  -1.073  1.00  0.00    -0.059 A 
HETATM   25  C11 UNL     1     -28.933  23.589  -2.019  1.00  0.00     0.048 C 
HETATM   26  C12 UNL     1     -26.566  24.161  -1.536  1.00  0.00     0.046 A 
HETATM   27  C13 UNL     1     -25.515  24.403  -0.656  1.00  0.00     0.106 A 
HETATM   28  C14 UNL     1     -25.696  24.332   0.692  1.00  0.00     0.113 A 
HETATM   29  O3  UNL     1     -24.175  24.737  -0.853  1.00  0.00    -0.323 OA
HETATM   30  O2  UNL     1     -24.487  24.618   1.323  1.00  0.00    -0.322 OA
HETATM   31  C15 UNL     1     -23.461  24.521   0.348  1.00  0.00     0.352 C 
ENDBRANCH  21  22
ENDBRANCH   7  21
TORSDOF 6
ENDMDL
MODEL 3
REMARK VINA RESULT: -7.541858395      1.695      3.415
REMARK  6 active torsions:
REMARK  status: ('A' for Active; 'I' for Inactive)
REMARK    1  A    between atoms: O1_2  and  C2_3 
REMARK    2  A    between atoms: C4_5  and  N1_6 
REMARK       I    between atoms: N1_6  and  C5_8 
REMARK       I    between atoms: C5_8  and  N3_12 
REMARK    3  A    between atoms: N3_12  and  C7_14 
REMARK    4  A    between atoms: C7_14  and  C8_15 
REMARK    5  A    between atoms: C17_26  and  O4_27 
REMARK    6  A    between atoms: C19_29  and  O5_30 
ROOT
HETATM    1  N1  UNL     1     -24.935  21.929   4.288  1.00  0.00    -0.192 N 
ATOM      2  H1  UNL     1     -25.552  22.068   5.089  1.00  0.00     0.184 HD
HETATM    3  C5  UNL     1     -25.007  22.889   3.244  1.00  0.00     0.674 C 
HETATM    4  N2  UNL     1     -24.102  23.797   3.263  1.00  0.00    -0.235 N 
ATOM      5  H21 UNL     1     -24.154  24.486   2.512  1.00  0.00     0.174 HD
ATOM      6  H22 UNL     1     -23.358  23.837   3.959  1.00  0.00     0.174 HD
HETATM    7  N3  UNL     1     -26.055  22.833   2.264  1.00  0.00    -0.218 N 
HETATM    8  C6  UNL     1     -26.845  21.582   2.268  1.00  0.00     0.169 C 
ENDROOT
BRANCH   1   9
HETATM    9  C4  UNL     1     -24.093  20.805   4.321  1.00  0.00     0.054 A 
HETATM   10  C3  UNL     1     -24.090  19.935   5.387  1.00  0.00     0.069 A 
HETATM   11  C2  UNL     1     -23.231  18.828   5.372  1.00  0.00     0.106 A 
HETATM   12  C19 UNL     1     -22.390  18.605   4.303  1.00  0.00     0.135 A 
HETATM   13  C17 UNL     1     -22.382  19.471   3.225  1.00  0.00     0.106 A 
HETATM   14  C16 UNL     1     -23.226  20.559   3.240  1.00  0.00     0.069 A 
BRANCH  11  15
HETATM   15  O1  UNL     1     -23.195  17.930   6.418  1.00  0.00    -0.353 OA
HETATM   16  C1  UNL     1     -22.728  18.299   7.682  1.00  0.00     0.210 C 
ENDBRANCH  11  15
BRANCH  12  17
HETATM   17  O5  UNL     1     -21.557  17.499   4.332  1.00  0.00    -0.351 OA
HETATM   18  C20 UNL     1     -21.863  16.437   3.443  1.00  0.00     0.210 C 
ENDBRANCH  12  17
BRANCH  13  19
HETATM   19  O4  UNL     1     -21.530  19.252   2.132  1.00  0.00    -0.353 OA
HETATM   20  C18 UNL     1     -20.417  20.102   1.905  1.00  0.00     0.210 C 
ENDBRANCH  13  19
ENDBRANCH   1   9
BRANCH   7  21
HETATM   21  C7  UNL     1     -26.363  23.870   1.326  1.00  0.00     0.182 C 
BRANCH  21  22
HETATM   22  C8  UNL     1     -26.110  23.586  -0.088  1.00  0.00    -0.003 A 
HETATM   23  C9  UNL     1     -24.861  23.461  -0.624  1.00  0.00     0.018 A 
HETATM   24  C10 UNL     1     -24.649  23.163  -1.963  1.00  0.00    -0.059 A 
HETATM   25  C11 UNL     1     -23.298  23.027  -2.545  1.00  0.00     0.048 C 
HETATM   26  C12 UNL     1     -25.772  22.995  -2.748  1.00  0.00     0.046 A 
HETATM   27  C13 UNL     1     -27.052  23.120  -2.213  1.00  0.00     0.106 A 
HETATM   28  C14 UNL     1     -27.236  23.412  -0.896  1.00  0.00     0.113 A 
HETATM   29  O3  UNL     1     -28.325  23.002  -2.770  1.00  0.00    -0.323 OA
HETATM   30  O2  UNL     1     -28.604  23.476  -0.638  1.00  0.00    -0.322 OA
HETATM   31  C15 UNL     1     -29.272  23.569  -1.886  1.00  0.00     0.352 C 
ENDBRANCH  21  22
ENDBRANCH   7  21
TORSDOF 6
ENDMDL
MODEL 4
REMARK VINA RESULT: -7.453917922      1.109      1.125
REMARK  6 active torsions:
REMARK  status: ('A' for Active; 'I' for Inactive)
REMARK    1  A    between atoms: O1_2  and  C2_3 
REMARK    2  A    between atoms: C4_5  and  N1_6 
REMARK       I    between atoms: N1_6  and  C5_8 
REMARK       I    between atoms: C5_8  and  N3_12 
REMARK    3  A    between atoms: N3_12  and  C7_14 
REMARK    4  A    between atoms: C7_14  and  C8_15 
REMARK    5  A    between atoms: C17_26  and  O4_27 
REMARK    6  A    between atoms: C19_29  and  O5_30 
ROOT
HETATM    1  N1  UNL     1     -24.781  21.733   4.636  1.00  0.00    -0.192 N 
ATOM      2  H1  UNL     1     -25.197  21.833   5.563  1.00  0.00     0.184 HD
HETATM    3  C5  UNL     1     -25.118  22.719   3.669  1.00  0.00     0.674 C 
HETATM    4  N2  UNL     1     -24.255  23.651   3.505  1.00  0.00    -0.235 N 
ATOM      5  H21 UNL     1     -24.496  24.359   2.811  1.00  0.00     0.174 HD
ATOM      6  H22 UNL     1     -23.369  23.696   4.009  1.00  0.00     0.174 HD
HETATM    7  N3  UNL     1     -26.365  22.657   2.959  1.00  0.00    -0.218 N 
HETATM    8  C6  UNL     1     -27.104  21.384   3.107  1.00  0.00     0.169 C 
ENDROOT
BRANCH   1   9
HETATM    9  C4  UNL     1     -23.930  20.635   4.434  1.00  0.00     0.054 A 
HETATM   10  C3  UNL     1     -23.172  20.507   3.293  1.00  0.00     0.069 A 
HETATM   11  C2  UNL     1     -22.338  19.392   3.139  1.00  0.00     0.106 A 
HETATM   12  C19 UNL     1     -22.272  18.423   4.117  1.00  0.00     0.135 A 
HETATM   13  C17 UNL     1     -23.028  18.538   5.269  1.00  0.00     0.106 A 
HETATM   14  C16 UNL     1     -23.848  19.634   5.421  1.00  0.00     0.069 A 
BRANCH  11  15
HETATM   15  O1  UNL     1     -21.560  19.224   2.013  1.00  0.00    -0.353 OA
HETATM   16  C1  UNL     1     -20.472  20.059   1.746  1.00  0.00     0.210 C 
ENDBRANCH  11  15
BRANCH  12  17
HETATM   17  O5  UNL     1     -21.435  17.336   3.922  1.00  0.00    -0.351 OA
HETATM   18  C20 UNL     1     -21.933  16.271   3.130  1.00  0.00     0.210 C 
ENDBRANCH  12  17
BRANCH  13  19
HETATM   19  O4  UNL     1     -22.967  17.557   6.271  1.00  0.00    -0.353 OA
HETATM   20  C18 UNL     1     -22.850  17.928   7.636  1.00  0.00     0.210 C 
ENDBRANCH  13  19
ENDBRANCH   1   9
BRANCH   7  21
HETATM   21  C7  UNL     1     -26.907  23.709   2.154  1.00  0.00     0.182 C 
BRANCH  21  22
HETATM   22  C8  UNL     1     -27.054  23.444   0.721  1.00  0.00    -0.003 A 
HETATM   23  C9  UNL     1     -28.224  23.603   0.038  1.00  0.00     0.018 A 
HETATM   24  C10 UNL     1     -28.330  23.372  -1.327  1.00  0.00    -0.059 A 
HETATM   25  C11 UNL     1     -29.595  23.544  -2.070  1.00  0.00     0.048 C 
HETATM   26  C12 UNL     1     -27.182  22.966  -1.979  1.00  0.00     0.046 A 
HETATM   27  C13 UNL     1     -25.983  22.800  -1.293  1.00  0.00     0.106 A 
HETATM   28  C14 UNL     1     -25.902  23.033   0.047  1.00  0.00     0.113 A 
HETATM   29  O3  UNL     1     -24.707  22.409  -1.699  1.00  0.00    -0.323 OA
HETATM   30  O2  UNL     1     -24.595  22.790   0.466  1.00  0.00    -0.322 OA
HETATM   31  C15 UNL     1     -23.943  22.061  -0.561  1.00  0.00     0.352 C 
ENDBRANCH  21  22
ENDBRANCH   7  21
TORSDOF 6
ENDMDL
MODEL 5
REMARK VINA RESULT: -7.451105260      2.483      7.461
REMARK  6 active torsions:
REMARK  status: ('A' for Active; 'I' for Inactive)
REMARK    1  A    between atoms: O1_2  and  C2_3 
REMARK    2  A    between atoms: C4_5  and  N1_6 
REMARK       I    between atoms: N1_6  and  C5_8 
REMARK       I    between atoms: C5_8  and  N3_12 
REMARK    3  A    between atoms: N3_12  and  C7_14 
REMARK    4  A    between atoms: C7_14  and  C8_15 
REMARK    5  A    between atoms: C17_26  and  O4_27 
REMARK    6  A    between atoms: C19_29  and  O5_30 
ROOT
HETATM    1  N1  UNL     1     -24.986  23.880   1.278  1.00  0.00    -0.192 N 
ATOM      2  H1  UNL     1     -25.889  24.356   1.288  1.00  0.00     0.184 HD
HETATM    3  C5  UNL     1     -24.964  22.529   1.720  1.00  0.00     0.674 C 
HETATM    4  N2  UNL     1     -24.980  21.644   0.794  1.00  0.00    -0.235 N 
ATOM      5  H21 UNL     1     -24.964  20.674   1.111  1.00  0.00     0.174 HD
ATOM      6  H22 UNL     1     -24.988  21.867  -0.201  1.00  0.00     0.174 HD
HETATM    7  N3  UNL     1     -24.954  22.214   3.121  1.00  0.00    -0.218 N 
HETATM    8  C6  UNL     1     -24.690  23.361   4.016  1.00  0.00     0.169 C 
ENDROOT
BRANCH   1   9
HETATM    9  C4  UNL     1     -23.880  24.620   0.829  1.00  0.00     0.054 A 
HETATM   10  C3  UNL     1     -24.027  25.861   0.253  1.00  0.00     0.069 A 
HETATM   11  C2  UNL     1     -22.892  26.559  -0.179  1.00  0.00     0.106 A 
HETATM   12  C19 UNL     1     -21.634  26.016  -0.033  1.00  0.00     0.135 A 
HETATM   13  C17 UNL     1     -21.471  24.770   0.544  1.00  0.00     0.106 A 
HETATM   14  C16 UNL     1     -22.586  24.083   0.969  1.00  0.00     0.069 A 
BRANCH  11  15
HETATM   15  O1  UNL     1     -22.991  27.806  -0.761  1.00  0.00    -0.353 OA
HETATM   16  C1  UNL     1     -23.297  28.941  -0.006  1.00  0.00     0.210 C 
ENDBRANCH  11  15
BRANCH  12  17
HETATM   17  O5  UNL     1     -20.540  26.742  -0.476  1.00  0.00    -0.351 OA
HETATM   18  C20 UNL     1     -20.047  26.442  -1.771  1.00  0.00     0.210 C 
ENDBRANCH  12  17
BRANCH  13  19
HETATM   19  O4  UNL     1     -20.194  24.209   0.697  1.00  0.00    -0.353 OA
HETATM   20  C18 UNL     1     -19.817  23.062  -0.049  1.00  0.00     0.210 C 
ENDBRANCH  13  19
ENDBRANCH   1   9
BRANCH   7  21
HETATM   21  C7  UNL     1     -25.174  20.911   3.673  1.00  0.00     0.182 C 
BRANCH  21  22
HETATM   22  C8  UNL     1     -24.033  20.261   4.321  1.00  0.00    -0.003 A 
HETATM   23  C9  UNL     1     -24.030  19.859   5.625  1.00  0.00     0.018 A 
HETATM   24  C10 UNL     1     -22.945  19.218   6.207  1.00  0.00    -0.059 A 
HETATM   25  C11 UNL     1     -22.940  18.781   7.618  1.00  0.00     0.048 C 
HETATM   26  C12 UNL     1     -21.846  19.000   5.400  1.00  0.00     0.046 A 
HETATM   27  C13 UNL     1     -21.837  19.405   4.068  1.00  0.00     0.106 A 
HETATM   28  C14 UNL     1     -22.913  20.032   3.517  1.00  0.00     0.113 A 
HETATM   29  O3  UNL     1     -20.881  19.308   3.057  1.00  0.00    -0.323 OA
HETATM   30  O2  UNL     1     -22.630  20.321   2.184  1.00  0.00    -0.322 OA
HETATM   31  C15 UNL     1     -21.230  20.184   2.004  1.00  0.00     0.352 C 
ENDBRANCH  21  22
ENDBRANCH   7  21
TORSDOF 6
ENDMDL
