MODEL 1
REMARK VINA RESULT: -6.619814128      0.000      0.000
REMARK  8 active torsions:
REMARK  status: ('A' for Active; 'I' for Inactive)
REMARK    1  A    between atoms: C2_2  and  C3_3 
REMARK    2  A    between atoms: C3_3  and  N1_4 
REMARK    3  A    between atoms: N2_6  and  C5_7 
REMARK    4  A    between atoms: C5_7  and  C8_10 
REMARK    5  A    between atoms: C9_16  and  N5_17 
REMARK    6  A    between atoms: C10_20  and  C11_21 
REMARK    7  A    between atoms: C14_24  and  O2_25 
REMARK    8  A    between atoms: C18_29  and  O3_30 
ROOT
HETATM    1  N1  UNL     1     -26.035  22.174   3.066  1.00  0.00     0.126 N 
HETATM    2  C4  UNL     1     -26.490  21.620   1.836  1.00  0.00     0.546 C 
HETATM    3  N2  UNL     1     -25.566  21.997   0.758  1.00  0.00     0.143 N 
HETATM    4  C10 UNL     1     -24.720  23.067   1.284  1.00  0.00     0.295 C 
HETATM    5  C20 UNL     1     -24.827  22.835   2.822  1.00  0.00     0.259 C 
HETATM    6  C21 UNL     1     -24.924  24.253   3.445  1.00  0.00     0.045 C 
ENDROOT
BRANCH   3   7
HETATM    7  C5  UNL     1     -26.371  22.449  -0.387  1.00  0.00     0.203 C 
HETATM    8  C6  UNL     1     -27.787  22.052  -0.123  1.00  0.00     0.056 C 
HETATM    9  C7  UNL     1     -26.113  23.911  -0.583  1.00  0.00     0.056 C 
BRANCH   7  10
HETATM   10  C8  UNL     1     -25.875  21.796  -1.647  1.00  0.00     0.117 A 
HETATM   11  N3  UNL     1     -24.881  20.936  -1.832  1.00  0.00    -0.239 N 
HETATM   12  O1  UNL     1     -24.792  20.612  -3.076  1.00  0.00    -0.155 OA
ATOM     13  H3  UNL     1     -24.274  20.583  -1.094  1.00  0.00     0.196 HD
HETATM   14  N4  UNL     1     -25.684  21.204  -3.784  1.00  0.00    -0.224 N 
HETATM   15  C9  UNL     1     -26.397  21.974  -2.906  1.00  0.00     0.148 A 
ATOM     16  H4  UNL     1     -25.829  21.120  -4.790  1.00  0.00     0.198 HD
BRANCH  15  17
HETATM   17  N5  UNL     1     -27.357  22.693  -3.319  1.00  0.00    -0.382 N 
ATOM     18  H52 UNL     1     -27.718  23.451  -2.740  1.00  0.00     0.157 HD
ATOM     19  H51 UNL     1     -27.894  22.665  -4.187  1.00  0.00     0.157 HD
ENDBRANCH  15  17
ENDBRANCH   7  10
ENDBRANCH   3   7
BRANCH   4  20
HETATM   20  C11 UNL     1     -23.259  22.882   1.031  1.00  0.00     0.011 A 
HETATM   21  C12 UNL     1     -22.689  21.619   1.033  1.00  0.00     0.015 A 
HETATM   22  C13 UNL     1     -21.345  21.405   0.717  1.00  0.00     0.038 A 
HETATM   23  C14 UNL     1     -20.531  22.466   0.391  1.00  0.00     0.076 A 
HETATM   24  C16 UNL     1     -21.137  23.721   0.402  1.00  0.00     0.005 A 
HETATM   25  C17 UNL     1     -20.228  24.872   0.170  1.00  0.00     0.054 C 
HETATM   26  C18 UNL     1     -22.447  23.977   0.700  1.00  0.00     0.085 A 
BRANCH  23  27
HETATM   27  O2  UNL     1     -19.219  22.322   0.071  1.00  0.00    -0.355 OA
HETATM   28  C15 UNL     1     -18.237  21.425   0.329  1.00  0.00     0.210 C 
ENDBRANCH  23  27
BRANCH  26  29
HETATM   29  O3  UNL     1     -23.014  25.214   0.698  1.00  0.00    -0.355 OA
HETATM   30  C19 UNL     1     -23.321  26.116  -0.289  1.00  0.00     0.210 C 
ENDBRANCH  26  29
ENDBRANCH   4  20
BRANCH   1  31
HETATM   31  C3  UNL     1     -25.959  21.170   4.134  1.00  0.00     0.302 C 
BRANCH  31  32
HETATM   32  C2  UNL     1     -24.625  20.603   4.314  1.00  0.00    -0.007 C 
HETATM   33  C1  UNL     1     -24.159  20.236   5.494  1.00  0.00     0.008 C 
ENDBRANCH  31  32
ENDBRANCH   1  31
TORSDOF 8
ENDMDL
MODEL 2
REMARK VINA RESULT: -6.571769316      0.974      1.240
REMARK  8 active torsions:
REMARK  status: ('A' for Active; 'I' for Inactive)
REMARK    1  A    between atoms: C2_2  and  C3_3 
REMARK    2  A    between atoms: C3_3  and  N1_4 
REMARK    3  A    between atoms: N2_6  and  C5_7 
REMARK    4  A    between atoms: C5_7  and  C8_10 
REMARK    5  A    between atoms: C9_16  and  N5_17 
REMARK    6  A    between atoms: C10_20  and  C11_21 
REMARK    7  A    between atoms: C14_24  and  O2_25 
REMARK    8  A    between atoms: C18_29  and  O3_30 
ROOT
HETATM    1  N1  UNL     1     -25.978  22.085   2.950  1.00  0.00     0.126 N 
HETATM    2  C4  UNL     1     -26.469  21.739   1.659  1.00  0.00     0.546 C 
HETATM    3  N2  UNL     1     -25.529  22.214   0.635  1.00  0.00     0.143 N 
HETATM    4  C10 UNL     1     -24.622  23.150   1.298  1.00  0.00     0.295 C 
HETATM    5  C20 UNL     1     -24.736  22.706   2.788  1.00  0.00     0.259 C 
HETATM    6  C21 UNL     1     -24.750  24.024   3.609  1.00  0.00     0.045 C 
ENDROOT
BRANCH   3   7
HETATM    7  C5  UNL     1     -26.312  22.870  -0.424  1.00  0.00     0.203 C 
HETATM    8  C6  UNL     1     -27.517  22.025  -0.679  1.00  0.00     0.056 C 
HETATM    9  C7  UNL     1     -26.565  24.284  -0.002  1.00  0.00     0.056 C 
BRANCH   7  10
HETATM   10  C8  UNL     1     -25.484  22.981  -1.674  1.00  0.00     0.117 A 
HETATM   11  N3  UNL     1     -25.298  24.012  -2.489  1.00  0.00    -0.239 N 
HETATM   12  O1  UNL     1     -24.500  23.689  -3.449  1.00  0.00    -0.155 OA
ATOM     13  H3  UNL     1     -25.725  24.930  -2.372  1.00  0.00     0.196 HD
HETATM   14  N4  UNL     1     -24.110  22.471  -3.350  1.00  0.00    -0.224 N 
HETATM   15  C9  UNL     1     -24.719  21.981  -2.226  1.00  0.00     0.148 A 
ATOM     16  H4  UNL     1     -23.479  21.972  -3.976  1.00  0.00     0.198 HD
BRANCH  15  17
HETATM   17  N5  UNL     1     -24.528  20.779  -1.867  1.00  0.00    -0.382 N 
ATOM     18  H52 UNL     1     -25.298  20.111  -1.878  1.00  0.00     0.157 HD
ATOM     19  H51 UNL     1     -23.690  20.301  -1.536  1.00  0.00     0.157 HD
ENDBRANCH  15  17
ENDBRANCH   7  10
ENDBRANCH   3   7
BRANCH   4  20
HETATM   20  C11 UNL     1     -23.175  22.922   1.004  1.00  0.00     0.011 A 
HETATM   21  C12 UNL     1     -22.635  21.646   1.022  1.00  0.00     0.015 A 
HETATM   22  C13 UNL     1     -21.308  21.391   0.669  1.00  0.00     0.038 A 
HETATM   23  C14 UNL     1     -20.480  22.422   0.288  1.00  0.00     0.076 A 
HETATM   24  C16 UNL     1     -21.055  23.692   0.284  1.00  0.00     0.005 A 
HETATM   25  C17 UNL     1     -20.127  24.813  -0.008  1.00  0.00     0.054 C 
HETATM   26  C18 UNL     1     -22.348  23.988   0.617  1.00  0.00     0.085 A 
BRANCH  23  27
HETATM   27  O2  UNL     1     -19.183  22.238  -0.069  1.00  0.00    -0.355 OA
HETATM   28  C15 UNL     1     -18.169  21.417   0.299  1.00  0.00     0.210 C 
ENDBRANCH  23  27
BRANCH  26  29
HETATM   29  O3  UNL     1     -22.885  25.238   0.599  1.00  0.00    -0.355 OA
HETATM   30  C19 UNL     1     -23.312  26.073  -0.401  1.00  0.00     0.210 C 
ENDBRANCH  26  29
ENDBRANCH   4  20
BRANCH   1  31
HETATM   31  C3  UNL     1     -25.955  20.936   3.863  1.00  0.00     0.302 C 
BRANCH  31  32
HETATM   32  C2  UNL     1     -24.611  20.449   4.160  1.00  0.00    -0.007 C 
HETATM   33  C1  UNL     1     -24.197  20.207   5.391  1.00  0.00     0.008 C 
ENDBRANCH  31  32
ENDBRANCH   1  31
TORSDOF 8
ENDMDL
MODEL 3
REMARK VINA RESULT: -6.440942722      2.618      5.565
REMARK  8 active torsions:
REMARK  status: ('A' for Active; 'I' for Inactive)
REMARK    1  A    between atoms: C2_2  and  C3_3 
REMARK    2  A    between atoms: C3_3  and  N1_4 
REMARK    3  A    between atoms: N2_6  and  C5_7 
REMARK    4  A    between atoms: C5_7  and  C8_10 
REMARK    5  A    between atoms: C9_16  and  N5_17 
REMARK    6  A    between atoms: C10_20  and  C11_21 
REMARK    7  A    between atoms: C14_24  and  O2_25 
REMARK    8  A    between atoms: C18_29  and  O3_30 
ROOT
HETATM    1  N1  UNL     1     -26.429  23.309  -0.896  1.00  0.00     0.126 N 
HETATM    2  C4  UNL     1     -25.057  23.204  -1.261  1.00  0.00     0.546 C 
HETATM    3  N2  UNL     1     -24.226  23.215  -0.049  1.00  0.00     0.143 N 
HETATM    4  C10 UNL     1     -25.085  23.665   1.045  1.00  0.00     0.295 C 
HETATM    5  C20 UNL     1     -26.505  23.324   0.500  1.00  0.00     0.259 C 
HETATM    6  C21 UNL     1     -27.402  24.521   0.916  1.00  0.00     0.045 C 
ENDROOT
BRANCH   3   7
HETATM    7  C5  UNL     1     -23.106  24.140  -0.281  1.00  0.00     0.203 C 
HETATM    8  C6  UNL     1     -22.924  24.263  -1.759  1.00  0.00     0.056 C 
HETATM    9  C7  UNL     1     -23.392  25.407   0.464  1.00  0.00     0.056 C 
BRANCH   7  10
HETATM   10  C8  UNL     1     -21.856  23.594   0.351  1.00  0.00     0.117 A 
HETATM   11  N3  UNL     1     -20.943  24.195   1.104  1.00  0.00    -0.239 N 
HETATM   12  O1  UNL     1     -20.025  23.360   1.452  1.00  0.00    -0.155 OA
ATOM     13  H3  UNL     1     -20.966  25.179   1.369  1.00  0.00     0.196 HD
HETATM   14  N4  UNL     1     -20.248  22.188   0.979  1.00  0.00    -0.224 N 
HETATM   15  C9  UNL     1     -21.411  22.296   0.266  1.00  0.00     0.148 A 
ATOM     16  H4  UNL     1     -19.677  21.353   1.106  1.00  0.00     0.198 HD
BRANCH  15  17
HETATM   17  N5  UNL     1     -21.889  21.285  -0.335  1.00  0.00    -0.382 N 
ATOM     18  H52 UNL     1     -21.821  20.359   0.085  1.00  0.00     0.157 HD
ATOM     19  H51 UNL     1     -22.366  21.200  -1.233  1.00  0.00     0.157 HD
ENDBRANCH  15  17
ENDBRANCH   7  10
ENDBRANCH   3   7
BRANCH   4  20
HETATM   20  C11 UNL     1     -25.004  22.826   2.279  1.00  0.00     0.011 A 
HETATM   21  C12 UNL     1     -24.673  21.483   2.209  1.00  0.00     0.015 A 
HETATM   22  C13 UNL     1     -24.506  20.694   3.350  1.00  0.00     0.038 A 
HETATM   23  C14 UNL     1     -24.673  21.239   4.602  1.00  0.00     0.076 A 
HETATM   24  C16 UNL     1     -25.008  22.591   4.635  1.00  0.00     0.005 A 
HETATM   25  C17 UNL     1     -25.307  23.144   5.980  1.00  0.00     0.054 C 
HETATM   26  C18 UNL     1     -25.177  23.403   3.547  1.00  0.00     0.085 A 
BRANCH  23  27
HETATM   27  O2  UNL     1     -24.522  20.525   5.747  1.00  0.00    -0.355 OA
HETATM   28  C15 UNL     1     -23.585  19.701   6.275  1.00  0.00     0.210 C 
ENDBRANCH  23  27
BRANCH  26  29
HETATM   29  O3  UNL     1     -25.499  24.723   3.609  1.00  0.00    -0.355 OA
HETATM   30  C19 UNL     1     -26.551  25.420   4.146  1.00  0.00     0.210 C 
ENDBRANCH  26  29
ENDBRANCH   4  20
BRANCH   1  31
HETATM   31  C3  UNL     1     -27.253  22.270  -1.526  1.00  0.00     0.302 C 
BRANCH  31  32
HETATM   32  C2  UNL     1     -28.519  22.767  -2.058  1.00  0.00    -0.007 C 
HETATM   33  C1  UNL     1     -28.628  23.936  -2.664  1.00  0.00     0.008 C 
ENDBRANCH  31  32
ENDBRANCH   1  31
TORSDOF 8
ENDMDL
MODEL 4
REMARK VINA RESULT: -6.371047398      1.511      1.701
REMARK  8 active torsions:
REMARK  status: ('A' for Active; 'I' for Inactive)
REMARK    1  A    between atoms: C2_2  and  C3_3 
REMARK    2  A    between atoms: C3_3  and  N1_4 
REMARK    3  A    between atoms: N2_6  and  C5_7 
REMARK    4  A    between atoms: C5_7  and  C8_10 
REMARK    5  A    between atoms: C9_16  and  N5_17 
REMARK    6  A    between atoms: C10_20  and  C11_21 
REMARK    7  A    between atoms: C14_24  and  O2_25 
REMARK    8  A    between atoms: C18_29  and  O3_30 
ROOT
HETATM    1  N1  UNL     1     -26.456  22.217   2.766  1.00  0.00     0.126 N 
HETATM    2  C4  UNL     1     -27.149  21.846   1.578  1.00  0.00     0.546 C 
HETATM    3  N2  UNL     1     -26.448  22.398   0.410  1.00  0.00     0.143 N 
HETATM    4  C10 UNL     1     -25.505  23.393   0.918  1.00  0.00     0.295 C 
HETATM    5  C20 UNL     1     -25.312  22.930   2.393  1.00  0.00     0.259 C 
HETATM    6  C21 UNL     1     -25.270  24.236   3.232  1.00  0.00     0.045 C 
ENDROOT
BRANCH   3   7
HETATM    7  C5  UNL     1     -27.457  23.003  -0.474  1.00  0.00     0.203 C 
HETATM    8  C6  UNL     1     -28.601  22.047  -0.567  1.00  0.00     0.056 C 
HETATM    9  C7  UNL     1     -27.769  24.370   0.050  1.00  0.00     0.056 C 
BRANCH   7  10
HETATM   10  C8  UNL     1     -26.864  23.236  -1.836  1.00  0.00     0.117 A 
HETATM   11  N3  UNL     1     -26.679  24.365  -2.507  1.00  0.00    -0.239 N 
HETATM   12  O1  UNL     1     -26.128  24.127  -3.648  1.00  0.00    -0.155 OA
ATOM     13  H3  UNL     1     -26.937  25.292  -2.169  1.00  0.00     0.196 HD
HETATM   14  N4  UNL     1     -25.912  22.873  -3.815  1.00  0.00    -0.224 N 
HETATM   15  C9  UNL     1     -26.371  22.267  -2.677  1.00  0.00     0.148 A 
ATOM     16  H4  UNL     1     -25.488  22.422  -4.626  1.00  0.00     0.198 HD
BRANCH  15  17
HETATM   17  N5  UNL     1     -26.299  21.007  -2.550  1.00  0.00    -0.382 N 
ATOM     18  H52 UNL     1     -25.537  20.587  -2.018  1.00  0.00     0.157 HD
ATOM     19  H51 UNL     1     -26.896  20.259  -2.904  1.00  0.00     0.157 HD
ENDBRANCH  15  17
ENDBRANCH   7  10
ENDBRANCH   3   7
BRANCH   4  20
HETATM   20  C11 UNL     1     -24.123  23.276   0.360  1.00  0.00     0.011 A 
HETATM   21  C12 UNL     1     -23.339  22.164   0.625  1.00  0.00     0.015 A 
HETATM   22  C13 UNL     1     -22.079  21.985   0.050  1.00  0.00     0.038 A 
HETATM   23  C14 UNL     1     -21.567  22.930  -0.810  1.00  0.00     0.076 A 
HETATM   24  C16 UNL     1     -22.381  24.036  -1.051  1.00  0.00     0.005 A 
HETATM   25  C17 UNL     1     -21.776  25.108  -1.880  1.00  0.00     0.054 C 
HETATM   26  C18 UNL     1     -23.621  24.250  -0.515  1.00  0.00     0.085 A 
BRANCH  23  27
HETATM   27  O2  UNL     1     -20.350  22.812  -1.402  1.00  0.00    -0.355 OA
HETATM   28  C15 UNL     1     -19.058  22.781  -0.995  1.00  0.00     0.210 C 
ENDBRANCH  23  27
BRANCH  26  29
HETATM   29  O3  UNL     1     -24.397  25.338  -0.772  1.00  0.00    -0.355 OA
HETATM   30  C19 UNL     1     -24.552  26.559  -0.167  1.00  0.00     0.210 C 
ENDBRANCH  26  29
ENDBRANCH   4  20
BRANCH   1  31
HETATM   31  C3  UNL     1     -26.184  21.065   3.634  1.00  0.00     0.302 C 
BRANCH  31  32
HETATM   32  C2  UNL     1     -24.763  20.772   3.793  1.00  0.00    -0.007 C 
HETATM   33  C1  UNL     1     -24.226  20.454   4.958  1.00  0.00     0.008 C 
ENDBRANCH  31  32
ENDBRANCH   1  31
TORSDOF 8
ENDMDL
MODEL 5
REMARK VINA RESULT: -6.184050304      2.991      6.071
REMARK  8 active torsions:
REMARK  status: ('A' for Active; 'I' for Inactive)
REMARK    1  A    between atoms: C2_2  and  C3_3 
REMARK    2  A    between atoms: C3_3  and  N1_4 
REMARK    3  A    between atoms: N2_6  and  C5_7 
REMARK    4  A    between atoms: C5_7  and  C8_10 
REMARK    5  A    between atoms: C9_16  and  N5_17 
REMARK    6  A    between atoms: C10_20  and  C11_21 
REMARK    7  A    between atoms: C14_24  and  O2_25 
REMARK    8  A    between atoms: C18_29  and  O3_30 
ROOT
HETATM    1  N1  UNL     1     -27.425  24.255  -1.090  1.00  0.00     0.126 N 
HETATM    2  C4  UNL     1     -27.267  25.314  -0.152  1.00  0.00     0.546 C 
HETATM    3  N2  UNL     1     -26.805  24.766   1.131  1.00  0.00     0.143 N 
HETATM    4  C10 UNL     1     -27.002  23.319   1.065  1.00  0.00     0.295 C 
HETATM    5  C20 UNL     1     -27.022  23.067  -0.473  1.00  0.00     0.259 C 
HETATM    6  C21 UNL     1     -28.137  22.009  -0.700  1.00  0.00     0.045 C 
ENDROOT
BRANCH   3   7
HETATM    7  C5  UNL     1     -27.610  25.379   2.198  1.00  0.00     0.203 C 
HETATM    8  C6  UNL     1     -27.772  26.826   1.862  1.00  0.00     0.056 C 
HETATM    9  C7  UNL     1     -28.870  24.582   2.342  1.00  0.00     0.056 C 
BRANCH   7  10
HETATM   10  C8  UNL     1     -26.905  25.230   3.517  1.00  0.00     0.117 A 
HETATM   11  N3  UNL     1     -25.608  25.194   3.796  1.00  0.00    -0.239 N 
HETATM   12  O1  UNL     1     -25.423  25.061   5.064  1.00  0.00    -0.155 OA
ATOM     13  H3  UNL     1     -24.863  25.263   3.103  1.00  0.00     0.196 HD
HETATM   14  N4  UNL     1     -26.536  25.000   5.700  1.00  0.00    -0.224 N 
HETATM   15  C9  UNL     1     -27.510  25.104   4.745  1.00  0.00     0.148 A 
ATOM     16  H4  UNL     1     -26.667  24.897   6.706  1.00  0.00     0.198 HD
BRANCH  15  17
HETATM   17  N5  UNL     1     -28.735  25.068   5.074  1.00  0.00    -0.382 N 
ATOM     18  H52 UNL     1     -29.046  24.466   5.836  1.00  0.00     0.157 HD
ATOM     19  H51 UNL     1     -29.547  25.559   4.697  1.00  0.00     0.157 HD
ENDBRANCH  15  17
ENDBRANCH   7  10
ENDBRANCH   3   7
BRANCH   4  20
HETATM   20  C11 UNL     1     -25.823  22.514   1.508  1.00  0.00     0.011 A 
HETATM   21  C12 UNL     1     -24.627  22.555   0.808  1.00  0.00     0.015 A 
HETATM   22  C13 UNL     1     -23.483  21.882   1.244  1.00  0.00     0.038 A 
HETATM   23  C14 UNL     1     -23.513  21.139   2.402  1.00  0.00     0.076 A 
HETATM   24  C16 UNL     1     -24.732  21.118   3.078  1.00  0.00     0.005 A 
HETATM   25  C17 UNL     1     -24.794  20.219   4.258  1.00  0.00     0.054 C 
HETATM   26  C18 UNL     1     -25.874  21.764   2.692  1.00  0.00     0.085 A 
BRANCH  23  27
HETATM   27  O2  UNL     1     -22.435  20.466   2.878  1.00  0.00    -0.355 OA
HETATM   28  C15 UNL     1     -21.426  19.729   2.353  1.00  0.00     0.210 C 
ENDBRANCH  23  27
BRANCH  26  29
HETATM   29  O3  UNL     1     -27.051  21.730   3.375  1.00  0.00    -0.355 OA
HETATM   30  C19 UNL     1     -28.249  21.095   3.171  1.00  0.00     0.210 C 
ENDBRANCH  26  29
ENDBRANCH   4  20
BRANCH   1  31
HETATM   31  C3  UNL     1     -26.739  24.529  -2.359  1.00  0.00     0.302 C 
BRANCH  31  32
HETATM   32  C2  UNL     1     -25.286  24.414  -2.277  1.00  0.00    -0.007 C 
HETATM   33  C1  UNL     1     -24.565  23.809  -3.204  1.00  0.00     0.008 C 
ENDBRANCH  31  32
ENDBRANCH   1  31
TORSDOF 8
ENDMDL
