MODEL 1
REMARK VINA RESULT: -6.875548603      0.000      0.000
REMARK  7 active torsions:
REMARK  status: ('A' for Active; 'I' for Inactive)
REMARK    1  A    between atoms: C2_2  and  C3_3 
REMARK    2  A    between atoms: C4_5  and  C5_6 
REMARK    3  A    between atoms: C5_6  and  N1_7 
REMARK    4  A    between atoms: C5_6  and  C11_14 
REMARK    5  A    between atoms: N1_7  and  C6_9 
REMARK    6  A    between atoms: C11_14  and  N3_18 
REMARK    7  A    between atoms: N3_18  and  N4_20 
ROOT
HETATM    1  C5  UNL     1      -3.346  -4.721  -8.689  1.00  0.00     0.083 C 
ENDROOT
BRANCH   1   2
HETATM    2  C4  UNL     1      -3.836  -6.028  -9.099  1.00  0.00     0.208 A 
HETATM    3  C3  UNL     1      -4.782  -6.882  -8.405  1.00  0.00     0.179 A 
HETATM    4  O1  UNL     1      -3.389  -7.212  -8.501  1.00  0.00    -0.365 OA
BRANCH   3   5
HETATM    5  C2  UNL     1      -5.597  -7.891  -9.180  1.00  0.00    -0.003 C 
HETATM    6  C1  UNL     1      -6.912  -7.888  -9.181  1.00  0.00     0.009 C 
ENDBRANCH   3   5
ENDBRANCH   1   2
BRANCH   1   7
HETATM    7  N1  UNL     1      -3.661  -3.641  -9.627  1.00  0.00    -0.383 N 
ATOM      8  H1  UNL     1      -3.324  -3.653 -10.589  1.00  0.00     0.160 HD
BRANCH   7   9
HETATM    9  C6  UNL     1      -4.451  -2.587  -9.138  1.00  0.00     0.081 C 
HETATM   10  C7  UNL     1      -5.717  -2.946  -8.422  1.00  0.00     0.025 C 
HETATM   11  C8  UNL     1      -6.349  -1.541  -8.320  1.00  0.00     0.002 C 
HETATM   12  C9  UNL     1      -6.304  -1.145  -9.789  1.00  0.00     0.002 C 
HETATM   13  C10 UNL     1      -5.035  -1.753 -10.301  1.00  0.00     0.025 C 
ENDBRANCH   7   9
ENDBRANCH   1   7
BRANCH   1  14
HETATM   14  C11 UNL     1      -2.038  -4.541  -8.076  1.00  0.00     0.138 C 
HETATM   15  N2  UNL     1      -1.603  -5.109  -7.046  1.00  0.00    -0.383 N 
ATOM     16  H22 UNL     1      -2.255  -5.770  -6.622  1.00  0.00     0.157 HD
ATOM     17  H21 UNL     1      -0.687  -4.984  -6.616  1.00  0.00     0.157 HD
BRANCH  14  18
HETATM   18  N3  UNL     1      -1.103  -3.592  -8.685  1.00  0.00    -0.291 N 
ATOM     19  H3  UNL     1      -0.580  -3.857  -9.519  1.00  0.00     0.188 HD
BRANCH  18  20
HETATM   20  N4  UNL     1      -0.925  -2.319  -8.124  1.00  0.00    -0.344 N 
ATOM     21  H42 UNL     1      -0.597  -2.246  -7.161  1.00  0.00     0.176 HD
ATOM     22  H41 UNL     1      -1.122  -1.484  -8.675  1.00  0.00     0.176 HD
ENDBRANCH  18  20
ENDBRANCH  14  18
ENDBRANCH   1  14
TORSDOF 7
ENDMDL
MODEL 2
REMARK VINA RESULT: -6.839517679      0.488      1.262
REMARK  7 active torsions:
REMARK  status: ('A' for Active; 'I' for Inactive)
REMARK    1  A    between atoms: C2_2  and  C3_3 
REMARK    2  A    between atoms: C4_5  and  C5_6 
REMARK    3  A    between atoms: C5_6  and  N1_7 
REMARK    4  A    between atoms: C5_6  and  C11_14 
REMARK    5  A    between atoms: N1_7  and  C6_9 
REMARK    6  A    between atoms: C11_14  and  N3_18 
REMARK    7  A    between atoms: N3_18  and  N4_20 
ROOT
HETATM    1  C5  UNL     1      -3.268  -4.425  -8.677  1.00  0.00     0.083 C 
ENDROOT
BRANCH   1   2
HETATM    2  C4  UNL     1      -3.692  -5.776  -9.013  1.00  0.00     0.208 A 
HETATM    3  C3  UNL     1      -4.693  -6.587  -8.345  1.00  0.00     0.179 A 
HETATM    4  O1  UNL     1      -3.292  -6.889  -8.264  1.00  0.00    -0.365 OA
BRANCH   3   5
HETATM    5  C2  UNL     1      -5.404  -7.683  -9.103  1.00  0.00    -0.003 C 
HETATM    6  C1  UNL     1      -6.712  -7.822  -9.085  1.00  0.00     0.009 C 
ENDBRANCH   3   5
ENDBRANCH   1   2
BRANCH   1   7
HETATM    7  N1  UNL     1      -3.688  -3.407  -9.643  1.00  0.00    -0.383 N 
ATOM      8  H1  UNL     1      -3.381  -3.434 -10.615  1.00  0.00     0.160 HD
BRANCH   7   9
HETATM    9  C6  UNL     1      -4.536  -2.392  -9.166  1.00  0.00     0.081 C 
HETATM   10  C7  UNL     1      -5.793  -2.812  -8.468  1.00  0.00     0.025 C 
HETATM   11  C8  UNL     1      -6.494  -1.439  -8.377  1.00  0.00     0.002 C 
HETATM   12  C9  UNL     1      -6.447  -1.043  -9.847  1.00  0.00     0.002 C 
HETATM   13  C10 UNL     1      -5.143  -1.588 -10.339  1.00  0.00     0.025 C 
ENDBRANCH   7   9
ENDBRANCH   1   7
BRANCH   1  14
HETATM   14  C11 UNL     1      -1.951  -4.140  -8.128  1.00  0.00     0.138 C 
HETATM   15  N2  UNL     1      -1.211  -3.168  -8.408  1.00  0.00    -0.383 N 
ATOM     16  H22 UNL     1      -1.606  -2.519  -9.089  1.00  0.00     0.157 HD
ATOM     17  H21 UNL     1      -0.287  -2.968  -8.023  1.00  0.00     0.157 HD
BRANCH  14  18
HETATM   18  N3  UNL     1      -1.383  -5.072  -7.150  1.00  0.00    -0.291 N 
ATOM     19  H3  UNL     1      -1.705  -5.054  -6.182  1.00  0.00     0.188 HD
BRANCH  18  20
HETATM   20  N4  UNL     1      -0.397  -5.989  -7.541  1.00  0.00    -0.344 N 
ATOM     21  H42 UNL     1      -0.125  -6.032  -8.523  1.00  0.00     0.176 HD
ATOM     22  H41 UNL     1       0.036  -6.602  -6.850  1.00  0.00     0.176 HD
ENDBRANCH  18  20
ENDBRANCH  14  18
ENDBRANCH   1  14
TORSDOF 7
ENDMDL
MODEL 3
REMARK VINA RESULT: -6.817156532      1.131      1.740
REMARK  7 active torsions:
REMARK  status: ('A' for Active; 'I' for Inactive)
REMARK    1  A    between atoms: C2_2  and  C3_3 
REMARK    2  A    between atoms: C4_5  and  C5_6 
REMARK    3  A    between atoms: C5_6  and  N1_7 
REMARK    4  A    between atoms: C5_6  and  C11_14 
REMARK    5  A    between atoms: N1_7  and  C6_9 
REMARK    6  A    between atoms: C11_14  and  N3_18 
REMARK    7  A    between atoms: N3_18  and  N4_20 
ROOT
HETATM    1  C5  UNL     1      -2.986  -4.350  -8.216  1.00  0.00     0.083 C 
ENDROOT
BRANCH   1   2
HETATM    2  C4  UNL     1      -3.608  -5.419  -8.983  1.00  0.00     0.208 A 
HETATM    3  C3  UNL     1      -3.906  -6.771  -8.546  1.00  0.00     0.179 A 
HETATM    4  O1  UNL     1      -2.870  -6.491  -9.498  1.00  0.00    -0.365 OA
BRANCH   3   5
HETATM    5  C2  UNL     1      -5.012  -7.553  -9.215  1.00  0.00    -0.003 C 
HETATM    6  C1  UNL     1      -5.382  -8.747  -8.806  1.00  0.00     0.009 C 
ENDBRANCH   3   5
ENDBRANCH   1   2
BRANCH   1   7
HETATM    7  N1  UNL     1      -3.895  -3.254  -7.871  1.00  0.00    -0.383 N 
ATOM      8  H1  UNL     1      -3.931  -2.866  -6.928  1.00  0.00     0.160 HD
BRANCH   7   9
HETATM    9  C6  UNL     1      -4.714  -2.761  -8.901  1.00  0.00     0.081 C 
HETATM   10  C7  UNL     1      -4.331  -1.454  -9.525  1.00  0.00     0.025 C 
HETATM   11  C8  UNL     1      -5.603  -1.199 -10.362  1.00  0.00     0.002 C 
HETATM   12  C9  UNL     1      -6.649  -1.326  -9.263  1.00  0.00     0.002 C 
HETATM   13  C10 UNL     1      -6.115  -2.394  -8.361  1.00  0.00     0.025 C 
ENDBRANCH   7   9
ENDBRANCH   1   7
BRANCH   1  14
HETATM   14  C11 UNL     1      -1.643  -3.870  -8.504  1.00  0.00     0.138 C 
HETATM   15  N2  UNL     1      -1.155  -2.758  -8.191  1.00  0.00    -0.383 N 
ATOM     16  H22 UNL     1      -1.789  -2.152  -7.670  1.00  0.00     0.157 HD
ATOM     17  H21 UNL     1      -0.213  -2.422  -8.393  1.00  0.00     0.157 HD
BRANCH  14  18
HETATM   18  N3  UNL     1      -0.733  -4.742  -9.252  1.00  0.00    -0.291 N 
ATOM     19  H3  UNL     1      -0.713  -4.702 -10.271  1.00  0.00     0.188 HD
BRANCH  18  20
HETATM   20  N4  UNL     1       0.111  -5.631  -8.571  1.00  0.00    -0.344 N 
ATOM     21  H42 UNL     1       0.640  -6.318  -9.108  1.00  0.00     0.176 HD
ATOM     22  H41 UNL     1       0.190  -5.586  -7.555  1.00  0.00     0.176 HD
ENDBRANCH  18  20
ENDBRANCH  14  18
ENDBRANCH   1  14
TORSDOF 7
ENDMDL
MODEL 4
REMARK VINA RESULT: -6.811514588      6.155      8.656
REMARK  7 active torsions:
REMARK  status: ('A' for Active; 'I' for Inactive)
REMARK    1  A    between atoms: C2_2  and  C3_3 
REMARK    2  A    between atoms: C4_5  and  C5_6 
REMARK    3  A    between atoms: C5_6  and  N1_7 
REMARK    4  A    between atoms: C5_6  and  C11_14 
REMARK    5  A    between atoms: N1_7  and  C6_9 
REMARK    6  A    between atoms: C11_14  and  N3_18 
REMARK    7  A    between atoms: N3_18  and  N4_20 
ROOT
HETATM    1  C5  UNL     1       1.556  -8.091  -6.345  1.00  0.00     0.083 C 
ENDROOT
BRANCH   1   2
HETATM    2  C4  UNL     1       0.620  -7.144  -6.933  1.00  0.00     0.208 A 
HETATM    3  C3  UNL     1       0.004  -7.201  -8.247  1.00  0.00     0.179 A 
HETATM    4  O1  UNL     1       1.008  -6.229  -7.919  1.00  0.00    -0.365 OA
BRANCH   3   5
HETATM    5  C2  UNL     1      -1.314  -6.504  -8.492  1.00  0.00    -0.003 C 
HETATM    6  C1  UNL     1      -1.408  -5.394  -9.192  1.00  0.00     0.009 C 
ENDBRANCH   3   5
ENDBRANCH   1   2
BRANCH   1   7
HETATM    7  N1  UNL     1       1.101  -8.676  -5.081  1.00  0.00    -0.383 N 
ATOM      8  H1  UNL     1       0.764  -8.095  -4.314  1.00  0.00     0.160 HD
BRANCH   7   9
HETATM    9  C6  UNL     1       1.152 -10.077  -4.977  1.00  0.00     0.081 C 
HETATM   10  C7  UNL     1       2.415 -10.686  -4.449  1.00  0.00     0.025 C 
HETATM   11  C8  UNL     1       2.121 -12.170  -4.761  1.00  0.00     0.002 C 
HETATM   12  C9  UNL     1       1.809 -12.050  -6.247  1.00  0.00     0.002 C 
HETATM   13  C10 UNL     1       1.109 -10.733  -6.376  1.00  0.00     0.025 C 
ENDBRANCH   7   9
ENDBRANCH   1   7
BRANCH   1  14
HETATM   14  C11 UNL     1       2.993  -7.866  -6.352  1.00  0.00     0.138 C 
HETATM   15  N2  UNL     1       3.724  -7.623  -5.363  1.00  0.00    -0.383 N 
ATOM     16  H22 UNL     1       3.231  -7.598  -4.471  1.00  0.00     0.157 HD
ATOM     17  H21 UNL     1       4.732  -7.465  -5.368  1.00  0.00     0.157 HD
BRANCH  14  18
HETATM   18  N3  UNL     1       3.702  -7.902  -7.635  1.00  0.00    -0.291 N 
ATOM     19  H3  UNL     1       3.174  -7.917  -8.508  1.00  0.00     0.188 HD
BRANCH  18  20
HETATM   20  N4  UNL     1       5.103  -7.914  -7.665  1.00  0.00    -0.344 N 
ATOM     21  H42 UNL     1       5.615  -8.018  -6.789  1.00  0.00     0.176 HD
ATOM     22  H41 UNL     1       5.598  -7.820  -8.553  1.00  0.00     0.176 HD
ENDBRANCH  18  20
ENDBRANCH  14  18
ENDBRANCH   1  14
TORSDOF 7
ENDMDL
MODEL 5
REMARK VINA RESULT: -6.798313613      1.740      4.293
REMARK  7 active torsions:
REMARK  status: ('A' for Active; 'I' for Inactive)
REMARK    1  A    between atoms: C2_2  and  C3_3 
REMARK    2  A    between atoms: C4_5  and  C5_6 
REMARK    3  A    between atoms: C5_6  and  N1_7 
REMARK    4  A    between atoms: C5_6  and  C11_14 
REMARK    5  A    between atoms: N1_7  and  C6_9 
REMARK    6  A    between atoms: C11_14  and  N3_18 
REMARK    7  A    between atoms: N3_18  and  N4_20 
ROOT
HETATM    1  C5  UNL     1      -3.652  -4.373  -8.034  1.00  0.00     0.083 C 
ENDROOT
BRANCH   1   2
HETATM    2  C4  UNL     1      -4.406  -3.146  -7.827  1.00  0.00     0.208 A 
HETATM    3  C3  UNL     1      -5.251  -2.449  -8.780  1.00  0.00     0.179 A 
HETATM    4  O1  UNL     1      -3.988  -1.917  -8.352  1.00  0.00    -0.365 OA
BRANCH   3   5
HETATM    5  C2  UNL     1      -6.368  -1.559  -8.288  1.00  0.00    -0.003 C 
HETATM    6  C1  UNL     1      -7.582  -1.601  -8.793  1.00  0.00     0.009 C 
ENDBRANCH   3   5
ENDBRANCH   1   2
BRANCH   1   7
HETATM    7  N1  UNL     1      -4.325  -5.580  -7.549  1.00  0.00    -0.383 N 
ATOM      8  H1  UNL     1      -4.052  -6.030  -6.676  1.00  0.00     0.160 HD
BRANCH   7   9
HETATM    9  C6  UNL     1      -5.367  -6.087  -8.344  1.00  0.00     0.081 C 
HETATM   10  C7  UNL     1      -6.621  -6.520  -7.648  1.00  0.00     0.025 C 
HETATM   11  C8  UNL     1      -7.327  -7.222  -8.827  1.00  0.00     0.002 C 
HETATM   12  C9  UNL     1      -6.222  -8.187  -9.235  1.00  0.00     0.002 C 
HETATM   13  C10 UNL     1      -4.956  -7.425  -9.000  1.00  0.00     0.025 C 
ENDBRANCH   7   9
ENDBRANCH   1   7
BRANCH   1  14
HETATM   14  C11 UNL     1      -2.211  -4.439  -7.836  1.00  0.00     0.138 C 
HETATM   15  N2  UNL     1      -1.593  -5.185  -7.041  1.00  0.00    -0.383 N 
ATOM     16  H22 UNL     1      -2.189  -5.809  -6.498  1.00  0.00     0.157 HD
ATOM     17  H21 UNL     1      -0.583  -5.232  -6.902  1.00  0.00     0.157 HD
BRANCH  14  18
HETATM   18  N3  UNL     1      -1.355  -3.542  -8.617  1.00  0.00    -0.291 N 
ATOM     19  H3  UNL     1      -1.014  -3.834  -9.533  1.00  0.00     0.188 HD
BRANCH  18  20
HETATM   20  N4  UNL     1      -1.002  -2.284  -8.108  1.00  0.00    -0.344 N 
ATOM     21  H42 UNL     1      -0.022  -2.002  -8.127  1.00  0.00     0.176 HD
ATOM     22  H41 UNL     1      -1.718  -1.667  -7.726  1.00  0.00     0.176 HD
ENDBRANCH  18  20
ENDBRANCH  14  18
ENDBRANCH   1  14
TORSDOF 7
ENDMDL
