MODEL 1
REMARK VINA RESULT: -6.658490625      0.000      0.000
REMARK  8 active torsions:
REMARK  status: ('A' for Active; 'I' for Inactive)
REMARK    1  A    between atoms: C2_2  and  C5_5 
REMARK    2  A    between atoms: C5_5  and  N1_6 
REMARK    3  A    between atoms: C5_5  and  C11_19 
REMARK       I    between atoms: N1_6  and  C6_8 
REMARK       I    between atoms: C6_8  and  N2_10 
REMARK    4  A    between atoms: N2_10  and  C7_12 
REMARK       I    between atoms: C11_19  and  N3_21 
REMARK    5  A    between atoms: C15_25  and  C16_26 
REMARK       I    between atoms: C16_26  and  N4_28 
REMARK    6  A    between atoms: N4_28  and  C17_30 
REMARK    7  A    between atoms: C17_30  and  C19_33 
REMARK    8  A    between atoms: C19_33  and  C20_34 
ROOT
HETATM    1  C17 UNL     1      15.100   0.417  48.603  1.00  0.00     0.193 C 
HETATM    2  C18 UNL     1      14.612  -0.914  48.882  1.00  0.00     0.084 C 
HETATM    3  N5  UNL     1      14.202  -1.995  49.097  1.00  0.00    -0.195 NA
ENDROOT
BRANCH   1   4
HETATM    4  N4  UNL     1      14.443   0.897  47.415  1.00  0.00    -0.342 N 
HETATM    5  C16 UNL     1      15.047   0.906  46.136  1.00  0.00     0.242 C 
HETATM    6  O5  UNL     1      16.221   0.464  46.076  1.00  0.00    -0.271 OA
ATOM      7  H4  UNL     1      13.489   1.250  47.501  1.00  0.00     0.163 HD
BRANCH   5   8
HETATM    8  C15 UNL     1      14.352   1.398  44.958  1.00  0.00     0.184 C 
HETATM    9  N3  UNL     1      15.296   1.648  43.847  1.00  0.00    -0.336 N 
HETATM   10  C11 UNL     1      16.267   2.662  43.806  1.00  0.00     0.244 C 
HETATM   11  C12 UNL     1      15.030   0.680  42.810  1.00  0.00     0.132 C 
HETATM   12  O4  UNL     1      16.332   3.455  44.827  1.00  0.00    -0.271 OA
HETATM   13  C13 UNL     1      14.503  -0.423  43.679  1.00  0.00     0.019 A 
HETATM   14  C14 UNL     1      13.385   0.519  44.295  1.00  0.00     0.032 A 
HETATM   15  C21 UNL     1      13.237  -0.870  44.070  1.00  0.00    -0.036 A 
HETATM   16  C22 UNL     1      13.076  -1.757  45.299  1.00  0.00     0.016 C 
HETATM   17  C23 UNL     1      12.322  -1.367  42.937  1.00  0.00     0.016 C 
BRANCH  10  18
HETATM   18  C5  UNL     1      17.197   2.885  42.703  1.00  0.00     0.185 C 
BRANCH  18  19
HETATM   19  C2  UNL     1      18.662   2.887  43.094  1.00  0.00    -0.022 C 
HETATM   20  C1  UNL     1      19.161   4.188  43.623  1.00  0.00     0.017 C 
HETATM   21  C3  UNL     1      18.936   1.755  44.038  1.00  0.00     0.017 C 
HETATM   22  C4  UNL     1      19.427   2.555  41.804  1.00  0.00     0.017 C 
ENDBRANCH  18  19
BRANCH  18  23
HETATM   23  N1  UNL     1      16.997   4.226  42.121  1.00  0.00    -0.329 N 
HETATM   24  C6  UNL     1      16.050   4.489  41.135  1.00  0.00     0.317 C 
HETATM   25  O1  UNL     1      15.314   3.573  40.698  1.00  0.00    -0.247 OA
HETATM   26  N2  UNL     1      15.902   5.792  40.611  1.00  0.00    -0.338 N 
ATOM     27  H2  UNL     1      16.501   6.536  40.971  1.00  0.00     0.164 HD
ATOM     28  H1  UNL     1      17.578   4.994  42.455  1.00  0.00     0.165 HD
BRANCH  26  29
HETATM   29  C7  UNL     1      14.925   6.119  39.573  1.00  0.00     0.101 C 
HETATM   30  C8  UNL     1      14.070   7.197  40.032  1.00  0.00     0.041 C 
HETATM   31  C9  UNL     1      13.968   8.324  39.070  1.00  0.00     0.142 C 
HETATM   32  S1  UNL     1      15.555   8.221  38.233  1.00  0.00     0.146 S 
HETATM   33  O2  UNL     1      16.640   8.853  39.043  1.00  0.00    -0.228 OA
HETATM   34  O3  UNL     1      15.486   8.691  36.834  1.00  0.00    -0.228 OA
HETATM   35  C10 UNL     1      15.693   6.430  38.340  1.00  0.00     0.165 C 
ENDBRANCH  26  29
ENDBRANCH  18  23
ENDBRANCH  10  18
ENDBRANCH   5   8
ENDBRANCH   1   4
BRANCH   1  36
HETATM   36  C19 UNL     1      15.016   1.297  49.798  1.00  0.00     0.055 C 
BRANCH  36  37
HETATM   37  C20 UNL     1      14.094   2.448  49.754  1.00  0.00     0.117 C 
HETATM   38 CL1  UNL     1      12.805   2.475  50.936  1.00  0.00    -0.130 Cl
ENDBRANCH  36  37
ENDBRANCH   1  36
TORSDOF 8
ENDMDL
MODEL 2
REMARK VINA RESULT: -6.139265185      1.018      1.322
REMARK  8 active torsions:
REMARK  status: ('A' for Active; 'I' for Inactive)
REMARK    1  A    between atoms: C2_2  and  C5_5 
REMARK    2  A    between atoms: C5_5  and  N1_6 
REMARK    3  A    between atoms: C5_5  and  C11_19 
REMARK       I    between atoms: N1_6  and  C6_8 
REMARK       I    between atoms: C6_8  and  N2_10 
REMARK    4  A    between atoms: N2_10  and  C7_12 
REMARK       I    between atoms: C11_19  and  N3_21 
REMARK    5  A    between atoms: C15_25  and  C16_26 
REMARK       I    between atoms: C16_26  and  N4_28 
REMARK    6  A    between atoms: N4_28  and  C17_30 
REMARK    7  A    between atoms: C17_30  and  C19_33 
REMARK    8  A    between atoms: C19_33  and  C20_34 
ROOT
HETATM    1  C17 UNL     1      15.028   0.707  48.719  1.00  0.00     0.193 C 
HETATM    2  C18 UNL     1      14.580  -0.617  49.082  1.00  0.00     0.084 C 
HETATM    3  N5  UNL     1      14.203  -1.695  49.365  1.00  0.00    -0.195 NA
ENDROOT
BRANCH   1   4
HETATM    4  N4  UNL     1      14.375   1.082  47.492  1.00  0.00    -0.342 N 
HETATM    5  C16 UNL     1      15.013   1.063  46.229  1.00  0.00     0.242 C 
HETATM    6  O5  UNL     1      16.213   0.694  46.221  1.00  0.00    -0.271 OA
ATOM      7  H4  UNL     1      13.399   1.377  47.535  1.00  0.00     0.163 HD
BRANCH   5   8
HETATM    8  C15 UNL     1      14.320   1.448  45.010  1.00  0.00     0.184 C 
HETATM    9  N3  UNL     1      15.275   1.680  43.904  1.00  0.00    -0.336 N 
HETATM   10  C11 UNL     1      16.195   2.738  43.822  1.00  0.00     0.244 C 
HETATM   11  C12 UNL     1      15.082   0.639  42.922  1.00  0.00     0.132 C 
HETATM   12  O4  UNL     1      16.196   3.593  44.794  1.00  0.00    -0.271 OA
HETATM   13  C13 UNL     1      14.592  -0.436  43.846  1.00  0.00     0.019 A 
HETATM   14  C14 UNL     1      13.414   0.482  44.382  1.00  0.00     0.032 A 
HETATM   15  C21 UNL     1      13.342  -0.923  44.238  1.00  0.00    -0.036 A 
HETATM   16  C22 UNL     1      13.197  -1.744  45.516  1.00  0.00     0.016 C 
HETATM   17  C23 UNL     1      12.479  -1.533  43.120  1.00  0.00     0.016 C 
BRANCH  10  18
HETATM   18  C5  UNL     1      17.137   2.944  42.725  1.00  0.00     0.185 C 
BRANCH  18  19
HETATM   19  C2  UNL     1      18.595   2.992  43.138  1.00  0.00    -0.022 C 
HETATM   20  C1  UNL     1      18.969   2.022  44.206  1.00  0.00     0.017 C 
HETATM   21  C3  UNL     1      19.470   2.860  41.928  1.00  0.00     0.017 C 
HETATM   22  C4  UNL     1      18.819   4.416  43.668  1.00  0.00     0.017 C 
ENDBRANCH  18  19
BRANCH  18  23
HETATM   23  N1  UNL     1      16.917   4.259  42.093  1.00  0.00    -0.329 N 
HETATM   24  C6  UNL     1      16.459   4.403  40.787  1.00  0.00     0.317 C 
HETATM   25  O1  UNL     1      16.209   3.395  40.084  1.00  0.00    -0.247 OA
HETATM   26  N2  UNL     1      16.268   5.687  40.230  1.00  0.00    -0.338 N 
ATOM     27  H2  UNL     1      16.470   6.505  40.806  1.00  0.00     0.164 HD
ATOM     28  H1  UNL     1      17.110   5.099  42.638  1.00  0.00     0.165 HD
BRANCH  26  29
HETATM   29  C7  UNL     1      15.793   5.892  38.863  1.00  0.00     0.101 C 
HETATM   30  C8  UNL     1      14.590   5.112  38.645  1.00  0.00     0.041 C 
HETATM   31  C9  UNL     1      13.465   5.900  38.081  1.00  0.00     0.142 C 
HETATM   32  S1  UNL     1      13.824   7.540  38.725  1.00  0.00     0.146 S 
HETATM   33  O2  UNL     1      13.371   7.680  40.142  1.00  0.00    -0.228 OA
HETATM   34  O3  UNL     1      13.354   8.614  37.825  1.00  0.00    -0.228 OA
HETATM   35  C10 UNL     1      15.613   7.356  38.683  1.00  0.00     0.165 C 
ENDBRANCH  26  29
ENDBRANCH  18  23
ENDBRANCH  10  18
ENDBRANCH   5   8
ENDBRANCH   1   4
BRANCH   1  36
HETATM   36  C19 UNL     1      14.895   1.663  49.849  1.00  0.00     0.055 C 
BRANCH  36  37
HETATM   37  C20 UNL     1      13.611   2.371  50.018  1.00  0.00     0.117 C 
HETATM   38 CL1  UNL     1      12.308   1.478  50.769  1.00  0.00    -0.130 Cl
ENDBRANCH  36  37
ENDBRANCH   1  36
TORSDOF 8
ENDMDL
MODEL 3
REMARK VINA RESULT: -6.130888766      2.461      2.864
REMARK  8 active torsions:
REMARK  status: ('A' for Active; 'I' for Inactive)
REMARK    1  A    between atoms: C2_2  and  C5_5 
REMARK    2  A    between atoms: C5_5  and  N1_6 
REMARK    3  A    between atoms: C5_5  and  C11_19 
REMARK       I    between atoms: N1_6  and  C6_8 
REMARK       I    between atoms: C6_8  and  N2_10 
REMARK    4  A    between atoms: N2_10  and  C7_12 
REMARK       I    between atoms: C11_19  and  N3_21 
REMARK    5  A    between atoms: C15_25  and  C16_26 
REMARK       I    between atoms: C16_26  and  N4_28 
REMARK    6  A    between atoms: N4_28  and  C17_30 
REMARK    7  A    between atoms: C17_30  and  C19_33 
REMARK    8  A    between atoms: C19_33  and  C20_34 
ROOT
HETATM    1  C17 UNL     1      14.708  -2.207  48.236  1.00  0.00     0.193 C 
HETATM    2  C18 UNL     1      14.646  -3.556  48.746  1.00  0.00     0.084 C 
HETATM    3  N5  UNL     1      14.590  -4.662  49.146  1.00  0.00    -0.195 NA
ENDROOT
BRANCH   1   4
HETATM    4  N4  UNL     1      14.494  -2.254  46.813  1.00  0.00    -0.342 N 
HETATM    5  C16 UNL     1      15.384  -1.690  45.868  1.00  0.00     0.242 C 
HETATM    6  O5  UNL     1      16.404  -1.127  46.338  1.00  0.00    -0.271 OA
ATOM      7  H4  UNL     1      13.654  -2.718  46.466  1.00  0.00     0.163 HD
BRANCH   5   8
HETATM    8  C15 UNL     1      15.135  -1.758  44.438  1.00  0.00     0.184 C 
HETATM    9  N3  UNL     1      15.964  -0.777  43.705  1.00  0.00    -0.336 N 
HETATM   10  C11 UNL     1      15.821   0.620  43.754  1.00  0.00     0.244 C 
HETATM   11  C12 UNL     1      16.931  -1.508  42.920  1.00  0.00     0.132 C 
HETATM   12  O4  UNL     1      14.870   1.087  44.497  1.00  0.00    -0.271 OA
HETATM   13  C13 UNL     1      17.044  -2.719  43.797  1.00  0.00     0.019 A 
HETATM   14  C14 UNL     1      15.482  -2.988  43.722  1.00  0.00     0.032 A 
HETATM   15  C21 UNL     1      16.471  -3.995  43.817  1.00  0.00    -0.036 A 
HETATM   16  C22 UNL     1      16.489  -4.830  45.093  1.00  0.00     0.016 C 
HETATM   17  C23 UNL     1      16.775  -4.885  42.600  1.00  0.00     0.016 C 
BRANCH  10  18
HETATM   18  C5  UNL     1      16.658   1.572  43.030  1.00  0.00     0.185 C 
BRANCH  18  19
HETATM   19  C2  UNL     1      17.609   2.373  43.897  1.00  0.00    -0.022 C 
HETATM   20  C1  UNL     1      17.016   3.598  44.503  1.00  0.00     0.017 C 
HETATM   21  C3  UNL     1      18.228   1.479  44.930  1.00  0.00     0.017 C 
HETATM   22  C4  UNL     1      18.755   2.792  42.963  1.00  0.00     0.017 C 
ENDBRANCH  18  19
BRANCH  18  23
HETATM   23  N1  UNL     1      15.827   2.609  42.388  1.00  0.00    -0.329 N 
HETATM   24  C6  UNL     1      15.853   2.857  41.019  1.00  0.00     0.317 C 
HETATM   25  O1  UNL     1      16.601   2.193  40.264  1.00  0.00    -0.247 OA
HETATM   26  N2  UNL     1      15.037   3.864  40.456  1.00  0.00    -0.338 N 
ATOM     27  H2  UNL     1      14.427   4.402  41.074  1.00  0.00     0.164 HD
ATOM     28  H1  UNL     1      15.206   3.167  42.973  1.00  0.00     0.165 HD
BRANCH  26  29
HETATM   29  C7  UNL     1      15.030   4.168  39.026  1.00  0.00     0.101 C 
HETATM   30  C8  UNL     1      13.679   4.057  38.512  1.00  0.00     0.041 C 
HETATM   31  C9  UNL     1      13.237   5.247  37.741  1.00  0.00     0.142 C 
HETATM   32  S1  UNL     1      14.208   6.549  38.513  1.00  0.00     0.146 S 
HETATM   33  O2  UNL     1      13.590   7.002  39.795  1.00  0.00    -0.228 OA
HETATM   34  O3  UNL     1      14.533   7.642  37.573  1.00  0.00    -0.228 OA
HETATM   35  C10 UNL     1      15.637   5.515  38.867  1.00  0.00     0.165 C 
ENDBRANCH  26  29
ENDBRANCH  18  23
ENDBRANCH  10  18
ENDBRANCH   5   8
ENDBRANCH   1   4
BRANCH   1  36
HETATM   36  C19 UNL     1      13.825  -1.287  49.000  1.00  0.00     0.055 C 
BRANCH  36  37
HETATM   37  C20 UNL     1      14.368   0.023  49.410  1.00  0.00     0.117 C 
HETATM   38 CL1  UNL     1      14.614   1.208  48.147  1.00  0.00    -0.130 Cl
ENDBRANCH  36  37
ENDBRANCH   1  36
TORSDOF 8
ENDMDL
MODEL 4
REMARK VINA RESULT: -6.052286490      2.448      2.915
REMARK  8 active torsions:
REMARK  status: ('A' for Active; 'I' for Inactive)
REMARK    1  A    between atoms: C2_2  and  C5_5 
REMARK    2  A    between atoms: C5_5  and  N1_6 
REMARK    3  A    between atoms: C5_5  and  C11_19 
REMARK       I    between atoms: N1_6  and  C6_8 
REMARK       I    between atoms: C6_8  and  N2_10 
REMARK    4  A    between atoms: N2_10  and  C7_12 
REMARK       I    between atoms: C11_19  and  N3_21 
REMARK    5  A    between atoms: C15_25  and  C16_26 
REMARK       I    between atoms: C16_26  and  N4_28 
REMARK    6  A    between atoms: N4_28  and  C17_30 
REMARK    7  A    between atoms: C17_30  and  C19_33 
REMARK    8  A    between atoms: C19_33  and  C20_34 
ROOT
HETATM    1  C17 UNL     1      14.089  -0.695  49.508  1.00  0.00     0.193 C 
HETATM    2  C18 UNL     1      14.454  -1.834  50.317  1.00  0.00     0.084 C 
HETATM    3  N5  UNL     1      14.748  -2.773  50.962  1.00  0.00    -0.195 NA
ENDROOT
BRANCH   1   4
HETATM    4  N4  UNL     1      13.889  -1.148  48.156  1.00  0.00    -0.342 N 
HETATM    5  C16 UNL     1      14.725  -0.777  47.076  1.00  0.00     0.242 C 
HETATM    6  O5  UNL     1      15.680  -0.010  47.353  1.00  0.00    -0.271 OA
ATOM      7  H4  UNL     1      13.103  -1.770  47.967  1.00  0.00     0.163 HD
BRANCH   5   8
HETATM    8  C15 UNL     1      14.493  -1.256  45.723  1.00  0.00     0.184 C 
HETATM    9  N3  UNL     1      15.374  -0.566  44.755  1.00  0.00    -0.336 N 
HETATM   10  C11 UNL     1      15.289   0.787  44.386  1.00  0.00     0.244 C 
HETATM   11  C12 UNL     1      16.320  -1.531  44.246  1.00  0.00     0.132 C 
HETATM   12  O4  UNL     1      14.348   1.487  44.933  1.00  0.00    -0.271 OA
HETATM   13  C13 UNL     1      16.368  -2.432  45.444  1.00  0.00     0.019 A 
HETATM   14  C14 UNL     1      14.798  -2.655  45.411  1.00  0.00     0.032 A 
HETATM   15  C21 UNL     1      15.742  -3.623  45.825  1.00  0.00    -0.036 A 
HETATM   16  C22 UNL     1      15.706  -4.044  47.290  1.00  0.00     0.016 C 
HETATM   17  C23 UNL     1      16.025  -4.844  44.933  1.00  0.00     0.016 C 
BRANCH  10  18
HETATM   18  C5  UNL     1      16.176   1.451  43.435  1.00  0.00     0.185 C 
BRANCH  18  19
HETATM   19  C2  UNL     1      17.227   2.345  44.062  1.00  0.00    -0.022 C 
HETATM   20  C1  UNL     1      16.746   3.708  44.427  1.00  0.00     0.017 C 
HETATM   21  C3  UNL     1      17.862   1.644  45.225  1.00  0.00     0.017 C 
HETATM   22  C4  UNL     1      18.329   2.482  43.000  1.00  0.00     0.017 C 
ENDBRANCH  18  19
BRANCH  18  23
HETATM   23  N1  UNL     1      15.412   2.374  42.573  1.00  0.00    -0.329 N 
HETATM   24  C6  UNL     1      15.333   2.225  41.191  1.00  0.00     0.317 C 
HETATM   25  O1  UNL     1      15.921   1.279  40.616  1.00  0.00    -0.247 OA
HETATM   26  N2  UNL     1      14.589   3.140  40.412  1.00  0.00    -0.338 N 
ATOM     27  H2  UNL     1      14.110   3.908  40.884  1.00  0.00     0.164 HD
ATOM     28  H1  UNL     1      14.921   3.154  43.009  1.00  0.00     0.165 HD
BRANCH  26  29
HETATM   29  C7  UNL     1      14.478   3.031  38.959  1.00  0.00     0.101 C 
HETATM   30  C8  UNL     1      13.079   2.981  38.581  1.00  0.00     0.041 C 
HETATM   31  C9  UNL     1      12.713   3.961  37.526  1.00  0.00     0.142 C 
HETATM   32  S1  UNL     1      13.908   5.269  37.829  1.00  0.00     0.146 S 
HETATM   33  O2  UNL     1      13.481   6.146  38.960  1.00  0.00    -0.228 OA
HETATM   34  O3  UNL     1      14.270   5.998  36.595  1.00  0.00    -0.228 OA
HETATM   35  C10 UNL     1      15.227   4.177  38.381  1.00  0.00     0.165 C 
ENDBRANCH  26  29
ENDBRANCH  18  23
ENDBRANCH  10  18
ENDBRANCH   5   8
ENDBRANCH   1   4
BRANCH   1  36
HETATM   36  C19 UNL     1      12.969   0.074  50.112  1.00  0.00     0.055 C 
BRANCH  36  37
HETATM   37  C20 UNL     1      13.100   1.540  50.210  1.00  0.00     0.117 C 
HETATM   38 CL1  UNL     1      14.654   2.226  49.791  1.00  0.00    -0.130 Cl
ENDBRANCH  36  37
ENDBRANCH   1  36
TORSDOF 8
ENDMDL
MODEL 5
REMARK VINA RESULT: -5.915337066      4.051      4.892
REMARK  8 active torsions:
REMARK  status: ('A' for Active; 'I' for Inactive)
REMARK    1  A    between atoms: C2_2  and  C5_5 
REMARK    2  A    between atoms: C5_5  and  N1_6 
REMARK    3  A    between atoms: C5_5  and  C11_19 
REMARK       I    between atoms: N1_6  and  C6_8 
REMARK       I    between atoms: C6_8  and  N2_10 
REMARK    4  A    between atoms: N2_10  and  C7_12 
REMARK       I    between atoms: C11_19  and  N3_21 
REMARK    5  A    between atoms: C15_25  and  C16_26 
REMARK       I    between atoms: C16_26  and  N4_28 
REMARK    6  A    between atoms: N4_28  and  C17_30 
REMARK    7  A    between atoms: C17_30  and  C19_33 
REMARK    8  A    between atoms: C19_33  and  C20_34 
ROOT
HETATM    1  C17 UNL     1      14.262  -2.391  46.067  1.00  0.00     0.193 C 
HETATM    2  C18 UNL     1      14.136  -1.786  47.373  1.00  0.00     0.084 C 
HETATM    3  N5  UNL     1      14.036  -1.276  48.428  1.00  0.00    -0.195 NA
ENDROOT
BRANCH   1   4
HETATM    4  N4  UNL     1      14.301  -1.339  45.085  1.00  0.00    -0.342 N 
HETATM    5  C16 UNL     1      13.188  -0.965  44.295  1.00  0.00     0.242 C 
HETATM    6  O5  UNL     1      12.129  -1.611  44.491  1.00  0.00    -0.271 OA
ATOM      7  H4  UNL     1      15.178  -0.836  44.952  1.00  0.00     0.163 HD
BRANCH   5   8
HETATM    8  C15 UNL     1      13.265   0.104  43.313  1.00  0.00     0.184 C 
HETATM    9  N3  UNL     1      14.646   0.620  43.194  1.00  0.00    -0.336 N 
HETATM   10  C11 UNL     1      15.338   1.350  44.175  1.00  0.00     0.244 C 
HETATM   11  C12 UNL     1      15.147   0.256  41.889  1.00  0.00     0.132 C 
HETATM   12  O4  UNL     1      14.705   1.604  45.274  1.00  0.00    -0.271 OA
HETATM   13  C13 UNL     1      14.337  -0.990  41.691  1.00  0.00     0.019 A 
HETATM   14  C14 UNL     1      12.975  -0.208  41.911  1.00  0.00     0.032 A 
HETATM   15  C21 UNL     1      13.141  -1.312  41.043  1.00  0.00    -0.036 A 
HETATM   16  C22 UNL     1      12.389  -2.591  41.397  1.00  0.00     0.016 C 
HETATM   17  C23 UNL     1      13.124  -1.096  39.520  1.00  0.00     0.016 C 
BRANCH  10  18
HETATM   18  C5  UNL     1      16.707   1.842  44.041  1.00  0.00     0.185 C 
BRANCH  18  19
HETATM   19  C2  UNL     1      17.776   0.899  44.556  1.00  0.00    -0.022 C 
HETATM   20  C1  UNL     1      17.705   0.620  46.018  1.00  0.00     0.017 C 
HETATM   21  C3  UNL     1      17.776  -0.361  43.744  1.00  0.00     0.017 C 
HETATM   22  C4  UNL     1      19.111   1.596  44.254  1.00  0.00     0.017 C 
ENDBRANCH  18  19
BRANCH  18  23
HETATM   23  N1  UNL     1      16.902   3.058  44.854  1.00  0.00    -0.329 N 
HETATM   24  C6  UNL     1      17.015   4.328  44.298  1.00  0.00     0.317 C 
HETATM   25  O1  UNL     1      16.953   4.490  43.056  1.00  0.00    -0.247 OA
HETATM   26  N2  UNL     1      17.203   5.459  45.124  1.00  0.00    -0.338 N 
ATOM     27  H2  UNL     1      17.251   5.325  46.134  1.00  0.00     0.164 HD
ATOM     28  H1  UNL     1      16.955   2.962  45.867  1.00  0.00     0.165 HD
BRANCH  26  29
HETATM   29  C7  UNL     1      17.332   6.814  44.590  1.00  0.00     0.101 C 
HETATM   30  C8  UNL     1      17.017   7.777  45.627  1.00  0.00     0.041 C 
HETATM   31  C9  UNL     1      18.053   8.828  45.796  1.00  0.00     0.142 C 
HETATM   32  S1  UNL     1      19.534   7.953  45.273  1.00  0.00     0.146 S 
HETATM   33  O2  UNL     1      20.067   7.083  46.364  1.00  0.00    -0.228 OA
HETATM   34  O3  UNL     1      20.537   8.853  44.667  1.00  0.00    -0.228 OA
HETATM   35  C10 UNL     1      18.708   6.933  44.042  1.00  0.00     0.165 C 
ENDBRANCH  26  29
ENDBRANCH  18  23
ENDBRANCH  10  18
ENDBRANCH   5   8
ENDBRANCH   1   4
BRANCH   1  36
HETATM   36  C19 UNL     1      15.378  -3.372  46.020  1.00  0.00     0.055 C 
BRANCH  36  37
HETATM   37  C20 UNL     1      16.096  -3.552  44.744  1.00  0.00     0.117 C 
HETATM   38 CL1  UNL     1      16.946  -5.064  44.520  1.00  0.00    -0.130 Cl
ENDBRANCH  36  37
ENDBRANCH   1  36
TORSDOF 8
ENDMDL
