MODEL 1
REMARK VINA RESULT: -8.443541396      0.000      0.000
REMARK  14 active torsions:
REMARK  status: ('A' for Active; 'I' for Inactive)
REMARK    1  A    between atoms: C2_2  and  O1_3 
REMARK    2  A    between atoms: O1_3  and  C3_4 
REMARK    3  A    between atoms: C3_4  and  C5_6 
REMARK    4  A    between atoms: C3_4  and  N6_43 
REMARK    5  A    between atoms: C5_6  and  N1_7 
REMARK    6  A    between atoms: C5_6  and  C27_40 
REMARK    7  A    between atoms: N1_7  and  S1_9 
REMARK    8  A    between atoms: S1_9  and  C6_12 
REMARK    9  A    between atoms: C13_21  and  N3_22 
REMARK   10  A    between atoms: N3_22  and  C14_24 
REMARK   11  A    between atoms: C14_24  and  C15_25 
REMARK   12  A    between atoms: C15_25  and  C16_26 
REMARK   13  A    between atoms: C16_26  and  N4_27 
REMARK   14  A    between atoms: C19_30  and  N5_31 
ROOT
HETATM    1  C6  UNL     1      21.444  24.666  19.255  1.00  0.00     0.105 A 
HETATM    2  C7  UNL     1      21.849  23.736  20.196  1.00  0.00    -0.037 A 
HETATM    3  C8  UNL     1      23.084  23.873  20.973  1.00  0.00     0.050 C 
HETATM    4  C9  UNL     1      20.993  22.641  20.362  1.00  0.00     0.017 A 
HETATM    5  C10 UNL     1      19.832  22.463  19.666  1.00  0.00    -0.033 A 
HETATM    6  C11 UNL     1      19.043  21.250  19.965  1.00  0.00     0.050 C 
HETATM    7  C12 UNL     1      19.430  23.418  18.708  1.00  0.00     0.059 A 
HETATM    8  N2  UNL     1      18.356  23.376  17.962  1.00  0.00    -0.335 N 
ATOM      9  H2  UNL     1      17.698  22.601  18.043  1.00  0.00     0.168 HD
HETATM   10  C13 UNL     1      18.136  24.364  17.095  1.00  0.00     0.145 A 
HETATM   11  S2  UNL     1      19.483  25.388  17.334  1.00  0.00    -0.051 SA
HETATM   12  C26 UNL     1      20.270  24.486  18.550  1.00  0.00     0.059 A 
ENDROOT
BRANCH   1  13
HETATM   13  S1  UNL     1      22.495  26.068  18.954  1.00  0.00     0.265 S 
HETATM   14  O2  UNL     1      22.570  26.792  20.291  1.00  0.00    -0.200 OA
HETATM   15  O3  UNL     1      21.819  26.985  17.995  1.00  0.00    -0.200 OA
BRANCH  13  16
HETATM   16  N1  UNL     1      23.983  25.479  18.417  1.00  0.00    -0.279 N 
ATOM     17  H1  UNL     1      24.088  24.505  18.135  1.00  0.00     0.179 HD
BRANCH  16  18
HETATM   18  C5  UNL     1      25.107  26.390  18.364  1.00  0.00     0.076 C 
BRANCH  18  19
HETATM   19  C3  UNL     1      25.307  27.054  17.079  1.00  0.00     0.172 C 
HETATM   20  C4  UNL     1      24.847  28.461  16.881  1.00  0.00     0.078 C 
BRANCH  19  21
HETATM   21  O1  UNL     1      24.773  26.248  16.068  1.00  0.00    -0.356 OA
BRANCH  21  22
HETATM   22  C2  UNL     1      23.843  26.530  15.221  1.00  0.00     0.167 C 
HETATM   23  C1  UNL     1      22.754  25.525  14.893  1.00  0.00     0.033 C 
ENDBRANCH  21  22
ENDBRANCH  19  21
BRANCH  19  24
HETATM   24  N6  UNL     1      26.684  27.044  16.653  1.00  0.00    -0.378 N 
HETATM   25  C30 UNL     1      27.569  28.074  16.705  1.00  0.00     0.120 C 
HETATM   26  C31 UNL     1      28.814  27.661  17.513  1.00  0.00     0.020 C 
HETATM   27  C32 UNL     1      29.335  26.339  16.994  1.00  0.00     0.003 C 
HETATM   28  C33 UNL     1      28.597  25.856  15.791  1.00  0.00     0.020 C 
HETATM   29  C34 UNL     1      27.117  25.979  15.828  1.00  0.00     0.120 C 
ENDBRANCH  19  24
ENDBRANCH  18  19
BRANCH  18  30
HETATM   30  C27 UNL     1      26.165  25.898  19.244  1.00  0.00    -0.059 C 
HETATM   31  C28 UNL     1      26.286  26.293  20.652  1.00  0.00     0.045 C 
HETATM   32  C29 UNL     1      26.425  24.396  19.151  1.00  0.00     0.045 C 
ENDBRANCH  18  30
ENDBRANCH  16  18
ENDBRANCH  13  16
ENDBRANCH   1  13
BRANCH  10  33
HETATM   33  N3  UNL     1      17.132  24.505  16.260  1.00  0.00    -0.370 N 
ATOM     34  H3  UNL     1      16.598  25.372  16.294  1.00  0.00     0.161 HD
BRANCH  33  35
HETATM   35  C14 UNL     1      16.741  23.503  15.298  1.00  0.00     0.127 C 
BRANCH  35  36
HETATM   36  C15 UNL     1      15.403  22.918  15.571  1.00  0.00     0.064 C 
BRANCH  36  37
HETATM   37  C16 UNL     1      15.352  21.486  15.936  1.00  0.00     0.064 C 
BRANCH  37  38
HETATM   38  N4  UNL     1      15.573  21.085  17.249  1.00  0.00    -0.374 N 
HETATM   39  C17 UNL     1      16.633  20.218  17.578  1.00  0.00     0.129 C 
HETATM   40  C18 UNL     1      16.029  19.103  18.452  1.00  0.00     0.056 C 
HETATM   41  C19 UNL     1      15.356  19.681  19.676  1.00  0.00     0.229 C 
HETATM   42  C24 UNL     1      15.423  21.191  19.619  1.00  0.00     0.080 C 
HETATM   43  C25 UNL     1      14.822  21.640  18.305  1.00  0.00     0.065 C 
BRANCH  41  44
HETATM   44  N5  UNL     1      13.979  19.197  19.691  1.00  0.00     0.093 N 
HETATM   45  C20 UNL     1      13.623  18.649  20.987  1.00  0.00     0.273 C 
HETATM   46  C21 UNL     1      12.440  17.738  20.656  1.00  0.00     0.032 C 
HETATM   47  C22 UNL     1      12.723  17.246  19.267  1.00  0.00     0.032 C 
HETATM   48  C23 UNL     1      13.983  17.985  18.864  1.00  0.00     0.273 C 
ENDBRANCH  41  44
ENDBRANCH  37  38
ENDBRANCH  36  37
ENDBRANCH  35  36
ENDBRANCH  33  35
ENDBRANCH  10  33
TORSDOF 14
ENDMDL
MODEL 2
REMARK VINA RESULT: -8.381156753      5.486     12.948
REMARK  14 active torsions:
REMARK  status: ('A' for Active; 'I' for Inactive)
REMARK    1  A    between atoms: C2_2  and  O1_3 
REMARK    2  A    between atoms: O1_3  and  C3_4 
REMARK    3  A    between atoms: C3_4  and  C5_6 
REMARK    4  A    between atoms: C3_4  and  N6_43 
REMARK    5  A    between atoms: C5_6  and  N1_7 
REMARK    6  A    between atoms: C5_6  and  C27_40 
REMARK    7  A    between atoms: N1_7  and  S1_9 
REMARK    8  A    between atoms: S1_9  and  C6_12 
REMARK    9  A    between atoms: C13_21  and  N3_22 
REMARK   10  A    between atoms: N3_22  and  C14_24 
REMARK   11  A    between atoms: C14_24  and  C15_25 
REMARK   12  A    between atoms: C15_25  and  C16_26 
REMARK   13  A    between atoms: C16_26  and  N4_27 
REMARK   14  A    between atoms: C19_30  and  N5_31 
ROOT
HETATM    1  C6  UNL     1      13.504  19.056  18.409  1.00  0.00     0.105 A 
HETATM    2  C7  UNL     1      13.824  18.725  19.714  1.00  0.00    -0.037 A 
HETATM    3  C8  UNL     1      13.298  17.534  20.386  1.00  0.00     0.050 C 
HETATM    4  C9  UNL     1      14.694  19.610  20.361  1.00  0.00     0.017 A 
HETATM    5  C10 UNL     1      15.213  20.733  19.783  1.00  0.00    -0.033 A 
HETATM    6  C11 UNL     1      16.120  21.560  20.607  1.00  0.00     0.050 C 
HETATM    7  C12 UNL     1      14.879  21.061  18.452  1.00  0.00     0.059 A 
HETATM    8  N2  UNL     1      15.289  22.103  17.775  1.00  0.00    -0.335 N 
ATOM      9  H2  UNL     1      15.924  22.780  18.198  1.00  0.00     0.168 HD
HETATM   10  C13 UNL     1      14.862  22.266  16.523  1.00  0.00     0.145 A 
HETATM   11  S2  UNL     1      13.851  20.909  16.286  1.00  0.00    -0.051 SA
HETATM   12  C26 UNL     1      14.029  20.192  17.824  1.00  0.00     0.059 A 
ENDROOT
BRANCH   1  13
HETATM   13  S1  UNL     1      12.374  18.004  17.528  1.00  0.00     0.265 S 
HETATM   14  O2  UNL     1      11.067  18.104  18.302  1.00  0.00    -0.200 OA
HETATM   15  O3  UNL     1      12.840  16.594  17.634  1.00  0.00    -0.200 OA
BRANCH  13  16
HETATM   16  N1  UNL     1      12.273  18.583  15.945  1.00  0.00    -0.279 N 
ATOM     17  H1  UNL     1      13.070  19.041  15.505  1.00  0.00     0.179 HD
BRANCH  16  18
HETATM   18  C5  UNL     1      11.027  18.413  15.228  1.00  0.00     0.076 C 
BRANCH  18  19
HETATM   19  C3  UNL     1      10.990  17.280  14.308  1.00  0.00     0.172 C 
HETATM   20  C4  UNL     1      12.160  16.994  13.425  1.00  0.00     0.078 C 
BRANCH  19  21
HETATM   21  O1  UNL     1       9.834  17.371  13.527  1.00  0.00    -0.356 OA
BRANCH  21  22
HETATM   22  C2  UNL     1       9.649  16.976  12.314  1.00  0.00     0.167 C 
HETATM   23  C1  UNL     1       8.613  15.916  11.986  1.00  0.00     0.033 C 
ENDBRANCH  21  22
ENDBRANCH  19  21
BRANCH  19  24
HETATM   24  N6  UNL     1      10.703  16.032  14.969  1.00  0.00    -0.378 N 
HETATM   25  C30 UNL     1       9.803  15.816  15.965  1.00  0.00     0.120 C 
HETATM   26  C31 UNL     1       8.803  14.722  15.544  1.00  0.00     0.020 C 
HETATM   27  C32 UNL     1       9.561  13.516  15.035  1.00  0.00     0.003 C 
HETATM   28  C33 UNL     1      11.039  13.654  15.183  1.00  0.00     0.020 C 
HETATM   29  C34 UNL     1      11.622  14.968  14.809  1.00  0.00     0.120 C 
ENDBRANCH  19  24
ENDBRANCH  18  19
BRANCH  18  30
HETATM   30  C27 UNL     1      10.429  19.726  14.989  1.00  0.00    -0.059 C 
HETATM   31  C28 UNL     1      10.192  20.706  16.056  1.00  0.00     0.045 C 
HETATM   32  C29 UNL     1      10.988  20.471  13.778  1.00  0.00     0.045 C 
ENDBRANCH  18  30
ENDBRANCH  16  18
ENDBRANCH  13  16
ENDBRANCH   1  13
BRANCH  10  33
HETATM   33  N3  UNL     1      15.148  23.236  15.686  1.00  0.00    -0.370 N 
ATOM     34  H3  UNL     1      14.674  24.130  15.807  1.00  0.00     0.161 HD
BRANCH  33  35
HETATM   35  C14 UNL     1      16.093  23.109  14.603  1.00  0.00     0.127 C 
BRANCH  35  36
HETATM   36  C15 UNL     1      17.412  22.577  15.035  1.00  0.00     0.064 C 
BRANCH  36  37
HETATM   37  C16 UNL     1      18.254  23.454  15.875  1.00  0.00     0.064 C 
BRANCH  37  38
HETATM   38  N4  UNL     1      18.551  23.101  17.187  1.00  0.00    -0.374 N 
HETATM   39  C17 UNL     1      18.013  23.818  18.274  1.00  0.00     0.129 C 
HETATM   40  C18 UNL     1      19.194  24.143  19.209  1.00  0.00     0.056 C 
HETATM   41  C19 UNL     1      19.902  22.880  19.643  1.00  0.00     0.229 C 
HETATM   42  C24 UNL     1      19.269  21.689  18.959  1.00  0.00     0.080 C 
HETATM   43  C25 UNL     1      19.293  21.935  17.467  1.00  0.00     0.065 C 
BRANCH  41  44
HETATM   44  N5  UNL     1      21.312  23.023  19.295  1.00  0.00     0.093 N 
HETATM   45  C20 UNL     1      22.174  22.610  20.387  1.00  0.00     0.273 C 
HETATM   46  C21 UNL     1      23.487  23.328  20.070  1.00  0.00     0.032 C 
HETATM   47  C22 UNL     1      23.067  24.596  19.388  1.00  0.00     0.032 C 
HETATM   48  C23 UNL     1      21.562  24.469  19.268  1.00  0.00     0.273 C 
ENDBRANCH  41  44
ENDBRANCH  37  38
ENDBRANCH  36  37
ENDBRANCH  35  36
ENDBRANCH  33  35
ENDBRANCH  10  33
TORSDOF 14
ENDMDL
MODEL 3
REMARK VINA RESULT: -8.250914192      3.170      5.986
REMARK  14 active torsions:
REMARK  status: ('A' for Active; 'I' for Inactive)
REMARK    1  A    between atoms: C2_2  and  O1_3 
REMARK    2  A    between atoms: O1_3  and  C3_4 
REMARK    3  A    between atoms: C3_4  and  C5_6 
REMARK    4  A    between atoms: C3_4  and  N6_43 
REMARK    5  A    between atoms: C5_6  and  N1_7 
REMARK    6  A    between atoms: C5_6  and  C27_40 
REMARK    7  A    between atoms: N1_7  and  S1_9 
REMARK    8  A    between atoms: S1_9  and  C6_12 
REMARK    9  A    between atoms: C13_21  and  N3_22 
REMARK   10  A    between atoms: N3_22  and  C14_24 
REMARK   11  A    between atoms: C14_24  and  C15_25 
REMARK   12  A    between atoms: C15_25  and  C16_26 
REMARK   13  A    between atoms: C16_26  and  N4_27 
REMARK   14  A    between atoms: C19_30  and  N5_31 
ROOT
HETATM    1  C6  UNL     1      17.050  22.650  17.261  1.00  0.00     0.105 A 
HETATM    2  C7  UNL     1      17.073  23.027  15.929  1.00  0.00    -0.037 A 
HETATM    3  C8  UNL     1      17.777  24.219  15.450  1.00  0.00     0.050 C 
HETATM    4  C9  UNL     1      16.372  22.186  15.057  1.00  0.00     0.017 A 
HETATM    5  C10 UNL     1      15.699  21.064  15.448  1.00  0.00    -0.033 A 
HETATM    6  C11 UNL     1      15.012  20.286  14.396  1.00  0.00     0.050 C 
HETATM    7  C12 UNL     1      15.682  20.691  16.809  1.00  0.00     0.059 A 
HETATM    8  N2  UNL     1      15.075  19.655  17.330  1.00  0.00    -0.335 N 
ATOM      9  H2  UNL     1      14.551  19.010  16.739  1.00  0.00     0.168 HD
HETATM   10  C13 UNL     1      15.154  19.458  18.645  1.00  0.00     0.145 A 
HETATM   11  S2  UNL     1      16.113  20.770  19.171  1.00  0.00    -0.051 SA
HETATM   12  C26 UNL     1      16.369  21.515  17.657  1.00  0.00     0.059 A 
ENDROOT
BRANCH   1  13
HETATM   13  S1  UNL     1      17.883  23.685  18.441  1.00  0.00     0.265 S 
HETATM   14  O2  UNL     1      17.543  23.082  19.797  1.00  0.00    -0.200 OA
HETATM   15  O3  UNL     1      17.281  25.046  18.403  1.00  0.00    -0.200 OA
BRANCH  13  16
HETATM   16  N1  UNL     1      19.531  23.646  18.075  1.00  0.00    -0.279 N 
ATOM     17  H1  UNL     1      19.916  22.911  17.482  1.00  0.00     0.179 HD
BRANCH  16  18
HETATM   18  C5  UNL     1      20.383  24.681  18.620  1.00  0.00     0.076 C 
BRANCH  18  19
HETATM   19  C3  UNL     1      21.060  25.513  17.629  1.00  0.00     0.172 C 
HETATM   20  C4  UNL     1      20.272  26.441  16.764  1.00  0.00     0.078 C 
BRANCH  19  21
HETATM   21  O1  UNL     1      21.856  24.694  16.823  1.00  0.00    -0.356 OA
BRANCH  21  22
HETATM   22  C2  UNL     1      21.685  24.372  15.585  1.00  0.00     0.167 C 
HETATM   23  C1  UNL     1      22.682  24.797  14.522  1.00  0.00     0.033 C 
ENDBRANCH  21  22
ENDBRANCH  19  21
BRANCH  19  24
HETATM   24  N6  UNL     1      22.104  26.325  18.201  1.00  0.00    -0.378 N 
HETATM   25  C30 UNL     1      22.001  27.607  18.642  1.00  0.00     0.120 C 
HETATM   26  C31 UNL     1      22.441  27.696  20.116  1.00  0.00     0.020 C 
HETATM   27  C32 UNL     1      23.786  27.023  20.281  1.00  0.00     0.003 C 
HETATM   28  C33 UNL     1      24.371  26.569  18.986  1.00  0.00     0.020 C 
HETATM   29  C34 UNL     1      23.443  25.898  18.039  1.00  0.00     0.120 C 
ENDBRANCH  19  24
ENDBRANCH  18  19
BRANCH  18  30
HETATM   30  C27 UNL     1      20.960  24.212  19.879  1.00  0.00    -0.059 C 
HETATM   31  C28 UNL     1      20.476  24.646  21.195  1.00  0.00     0.045 C 
HETATM   32  C29 UNL     1      21.216  22.708  19.942  1.00  0.00     0.045 C 
ENDBRANCH  18  30
ENDBRANCH  16  18
ENDBRANCH  13  16
ENDBRANCH   1  13
BRANCH  10  33
HETATM   33  N3  UNL     1      14.618  18.493  19.357  1.00  0.00    -0.370 N 
ATOM     34  H3  UNL     1      14.970  17.546  19.224  1.00  0.00     0.161 HD
BRANCH  33  35
HETATM   35  C14 UNL     1      13.559  18.696  20.315  1.00  0.00     0.127 C 
BRANCH  35  36
HETATM   36  C15 UNL     1      12.315  17.954  19.983  1.00  0.00     0.064 C 
BRANCH  36  37
HETATM   37  C16 UNL     1      12.396  16.947  18.904  1.00  0.00     0.064 C 
BRANCH  37  38
HETATM   38  N4  UNL     1      11.626  17.083  17.753  1.00  0.00    -0.374 N 
HETATM   39  C17 UNL     1      10.643  16.132  17.417  1.00  0.00     0.129 C 
HETATM   40  C18 UNL     1      10.884  15.760  15.941  1.00  0.00     0.056 C 
HETATM   41  C19 UNL     1      10.826  16.986  15.059  1.00  0.00     0.229 C 
HETATM   42  C24 UNL     1      10.622  18.214  15.919  1.00  0.00     0.080 C 
HETATM   43  C25 UNL     1      11.718  18.246  16.961  1.00  0.00     0.065 C 
BRANCH  41  44
HETATM   44  N5  UNL     1      12.075  17.048  14.309  1.00  0.00     0.093 N 
HETATM   45  C20 UNL     1      12.040  18.095  13.304  1.00  0.00     0.273 C 
HETATM   46  C21 UNL     1      13.121  17.652  12.316  1.00  0.00     0.032 C 
HETATM   47  C22 UNL     1      13.094  16.153  12.378  1.00  0.00     0.032 C 
HETATM   48  C23 UNL     1      12.083  15.847  13.464  1.00  0.00     0.273 C 
ENDBRANCH  41  44
ENDBRANCH  37  38
ENDBRANCH  36  37
ENDBRANCH  35  36
ENDBRANCH  33  35
ENDBRANCH  10  33
TORSDOF 14
ENDMDL
MODEL 4
REMARK VINA RESULT: -8.238319434      3.310      6.476
REMARK  14 active torsions:
REMARK  status: ('A' for Active; 'I' for Inactive)
REMARK    1  A    between atoms: C2_2  and  O1_3 
REMARK    2  A    between atoms: O1_3  and  C3_4 
REMARK    3  A    between atoms: C3_4  and  C5_6 
REMARK    4  A    between atoms: C3_4  and  N6_43 
REMARK    5  A    between atoms: C5_6  and  N1_7 
REMARK    6  A    between atoms: C5_6  and  C27_40 
REMARK    7  A    between atoms: N1_7  and  S1_9 
REMARK    8  A    between atoms: S1_9  and  C6_12 
REMARK    9  A    between atoms: C13_21  and  N3_22 
REMARK   10  A    between atoms: N3_22  and  C14_24 
REMARK   11  A    between atoms: C14_24  and  C15_25 
REMARK   12  A    between atoms: C15_25  and  C16_26 
REMARK   13  A    between atoms: C16_26  and  N4_27 
REMARK   14  A    between atoms: C19_30  and  N5_31 
ROOT
HETATM    1  C6  UNL     1      17.314  21.839  17.047  1.00  0.00     0.105 A 
HETATM    2  C7  UNL     1      16.980  22.358  15.808  1.00  0.00    -0.037 A 
HETATM    3  C8  UNL     1      17.944  23.048  14.946  1.00  0.00     0.050 C 
HETATM    4  C9  UNL     1      15.646  22.179  15.424  1.00  0.00     0.017 A 
HETATM    5  C10 UNL     1      14.707  21.545  16.186  1.00  0.00    -0.033 A 
HETATM    6  C11 UNL     1      13.342  21.440  15.630  1.00  0.00     0.050 C 
HETATM    7  C12 UNL     1      15.060  21.021  17.449  1.00  0.00     0.059 A 
HETATM    8  N2  UNL     1      14.270  20.402  18.288  1.00  0.00    -0.335 N 
ATOM      9  H2  UNL     1      13.289  20.244  18.058  1.00  0.00     0.168 HD
HETATM   10  C13 UNL     1      14.770  19.981  19.450  1.00  0.00     0.145 A 
HETATM   11  S2  UNL     1      16.405  20.469  19.361  1.00  0.00    -0.051 SA
HETATM   12  C26 UNL     1      16.365  21.198  17.819  1.00  0.00     0.059 A 
ENDROOT
BRANCH   1  13
HETATM   13  S1  UNL     1      18.980  22.058  17.628  1.00  0.00     0.265 S 
HETATM   14  O2  UNL     1      19.829  21.190  16.710  1.00  0.00    -0.200 OA
HETATM   15  O3  UNL     1      19.094  21.491  19.000  1.00  0.00    -0.200 OA
BRANCH  13  16
HETATM   16  N1  UNL     1      19.338  23.705  17.528  1.00  0.00    -0.279 N 
ATOM     17  H1  UNL     1      18.593  24.400  17.483  1.00  0.00     0.179 HD
BRANCH  16  18
HETATM   18  C5  UNL     1      20.728  24.108  17.508  1.00  0.00     0.076 C 
BRANCH  18  19
HETATM   19  C3  UNL     1      21.335  24.308  18.821  1.00  0.00     0.172 C 
HETATM   20  C4  UNL     1      22.104  23.203  19.468  1.00  0.00     0.078 C 
BRANCH  19  21
HETATM   21  O1  UNL     1      20.353  24.766  19.705  1.00  0.00    -0.356 OA
BRANCH  21  22
HETATM   22  C2  UNL     1      20.011  24.281  20.851  1.00  0.00     0.167 C 
HETATM   23  C1  UNL     1      18.550  24.164  21.246  1.00  0.00     0.033 C 
ENDBRANCH  21  22
ENDBRANCH  19  21
BRANCH  19  24
HETATM   24  N6  UNL     1      22.210  25.452  18.865  1.00  0.00    -0.378 N 
HETATM   25  C30 UNL     1      23.555  25.453  19.058  1.00  0.00     0.120 C 
HETATM   26  C31 UNL     1      24.257  26.161  17.884  1.00  0.00     0.020 C 
HETATM   27  C32 UNL     1      23.602  27.503  17.641  1.00  0.00     0.003 C 
HETATM   28  C33 UNL     1      22.555  27.829  18.653  1.00  0.00     0.020 C 
HETATM   29  C34 UNL     1      21.624  26.731  19.020  1.00  0.00     0.120 C 
ENDBRANCH  19  24
ENDBRANCH  18  19
BRANCH  18  30
HETATM   30  C27 UNL     1      20.973  24.926  16.321  1.00  0.00    -0.059 C 
HETATM   31  C28 UNL     1      21.661  24.422  15.128  1.00  0.00     0.045 C 
HETATM   32  C29 UNL     1      19.777  25.758  15.862  1.00  0.00     0.045 C 
ENDBRANCH  18  30
ENDBRANCH  16  18
ENDBRANCH  13  16
ENDBRANCH   1  13
BRANCH  10  33
HETATM   33  N3  UNL     1      14.150  19.352  20.422  1.00  0.00    -0.370 N 
ATOM     34  H3  UNL     1      14.610  19.299  21.330  1.00  0.00     0.161 HD
BRANCH  33  35
HETATM   35  C14 UNL     1      12.856  18.730  20.278  1.00  0.00     0.127 C 
BRANCH  35  36
HETATM   36  C15 UNL     1      12.932  17.296  19.897  1.00  0.00     0.064 C 
BRANCH  36  37
HETATM   37  C16 UNL     1      13.236  16.986  18.484  1.00  0.00     0.064 C 
BRANCH  37  38
HETATM   38  N4  UNL     1      12.223  16.973  17.531  1.00  0.00    -0.374 N 
HETATM   39  C17 UNL     1      11.419  15.834  17.337  1.00  0.00     0.129 C 
HETATM   40  C18 UNL     1      11.406  15.562  15.821  1.00  0.00     0.056 C 
HETATM   41  C19 UNL     1      10.894  16.764  15.061  1.00  0.00     0.229 C 
HETATM   42  C24 UNL     1      10.624  17.893  16.031  1.00  0.00     0.080 C 
HETATM   43  C25 UNL     1      11.888  18.146  16.824  1.00  0.00     0.065 C 
BRANCH  41  44
HETATM   44  N5  UNL     1      11.906  17.126  14.075  1.00  0.00     0.093 N 
HETATM   45  C20 UNL     1      11.323  17.833  12.949  1.00  0.00     0.273 C 
HETATM   46  C21 UNL     1      12.360  17.623  11.844  1.00  0.00     0.032 C 
HETATM   47  C22 UNL     1      12.957  16.278  12.140  1.00  0.00     0.032 C 
HETATM   48  C23 UNL     1      12.301  15.862  13.440  1.00  0.00     0.273 C 
ENDBRANCH  41  44
ENDBRANCH  37  38
ENDBRANCH  36  37
ENDBRANCH  35  36
ENDBRANCH  33  35
ENDBRANCH  10  33
TORSDOF 14
ENDMDL
MODEL 5
REMARK VINA RESULT: -8.168471863      5.492     13.088
REMARK  14 active torsions:
REMARK  status: ('A' for Active; 'I' for Inactive)
REMARK    1  A    between atoms: C2_2  and  O1_3 
REMARK    2  A    between atoms: O1_3  and  C3_4 
REMARK    3  A    between atoms: C3_4  and  C5_6 
REMARK    4  A    between atoms: C3_4  and  N6_43 
REMARK    5  A    between atoms: C5_6  and  N1_7 
REMARK    6  A    between atoms: C5_6  and  C27_40 
REMARK    7  A    between atoms: N1_7  and  S1_9 
REMARK    8  A    between atoms: S1_9  and  C6_12 
REMARK    9  A    between atoms: C13_21  and  N3_22 
REMARK   10  A    between atoms: N3_22  and  C14_24 
REMARK   11  A    between atoms: C14_24  and  C15_25 
REMARK   12  A    between atoms: C15_25  and  C16_26 
REMARK   13  A    between atoms: C16_26  and  N4_27 
REMARK   14  A    between atoms: C19_30  and  N5_31 
ROOT
HETATM    1  C6  UNL     1      13.604  19.142  18.334  1.00  0.00     0.105 A 
HETATM    2  C7  UNL     1      14.009  18.852  19.626  1.00  0.00    -0.037 A 
HETATM    3  C8  UNL     1      13.538  17.677  20.364  1.00  0.00     0.050 C 
HETATM    4  C9  UNL     1      14.908  19.764  20.190  1.00  0.00     0.017 A 
HETATM    5  C10 UNL     1      15.379  20.874  19.549  1.00  0.00    -0.033 A 
HETATM    6  C11 UNL     1      16.327  21.732  20.289  1.00  0.00     0.050 C 
HETATM    7  C12 UNL     1      14.958  21.159  18.232  1.00  0.00     0.059 A 
HETATM    8  N2  UNL     1      15.313  22.184  17.501  1.00  0.00    -0.335 N 
ATOM      9  H2  UNL     1      15.967  22.879  17.863  1.00  0.00     0.168 HD
HETATM   10  C13 UNL     1      14.806  22.306  16.274  1.00  0.00     0.145 A 
HETATM   11  S2  UNL     1      13.796  20.934  16.141  1.00  0.00    -0.051 SA
HETATM   12  C26 UNL     1      14.079  20.265  17.685  1.00  0.00     0.059 A 
ENDROOT
BRANCH   1  13
HETATM   13  S1  UNL     1      12.431  18.055  17.558  1.00  0.00     0.265 S 
HETATM   14  O2  UNL     1      11.148  18.232  18.358  1.00  0.00    -0.200 OA
HETATM   15  O3  UNL     1      12.875  16.647  17.747  1.00  0.00    -0.200 OA
BRANCH  13  16
HETATM   16  N1  UNL     1      12.294  18.528  15.943  1.00  0.00    -0.279 N 
ATOM     17  H1  UNL     1      13.079  18.963  15.458  1.00  0.00     0.179 HD
BRANCH  16  18
HETATM   18  C5  UNL     1      11.037  18.301  15.262  1.00  0.00     0.076 C 
BRANCH  18  19
HETATM   19  C3  UNL     1      10.997  17.115  14.412  1.00  0.00     0.172 C 
HETATM   20  C4  UNL     1      12.169  16.768  13.553  1.00  0.00     0.078 C 
BRANCH  19  21
HETATM   21  O1  UNL     1       9.845  17.165  13.622  1.00  0.00    -0.356 OA
BRANCH  21  22
HETATM   22  C2  UNL     1       9.688  16.782  12.401  1.00  0.00     0.167 C 
HETATM   23  C1  UNL     1       8.942  15.502  12.071  1.00  0.00     0.033 C 
ENDBRANCH  21  22
ENDBRANCH  19  21
BRANCH  19  24
HETATM   24  N6  UNL     1      10.700  15.911  15.146  1.00  0.00    -0.378 N 
HETATM   25  C30 UNL     1       9.826  15.771  16.178  1.00  0.00     0.120 C 
HETATM   26  C31 UNL     1       8.786  14.683  15.845  1.00  0.00     0.020 C 
HETATM   27  C32 UNL     1       9.498  13.432  15.378  1.00  0.00     0.003 C 
HETATM   28  C33 UNL     1      10.983  13.539  15.476  1.00  0.00     0.020 C 
HETATM   29  C34 UNL     1      11.587  14.816  15.015  1.00  0.00     0.120 C 
ENDBRANCH  19  24
ENDBRANCH  18  19
BRANCH  18  30
HETATM   30  C27 UNL     1      10.418  19.590  14.957  1.00  0.00    -0.059 C 
HETATM   31  C28 UNL     1      10.170  20.621  15.972  1.00  0.00     0.045 C 
HETATM   32  C29 UNL     1      10.960  20.279  13.707  1.00  0.00     0.045 C 
ENDBRANCH  18  30
ENDBRANCH  16  18
ENDBRANCH  13  16
ENDBRANCH   1  13
BRANCH  10  33
HETATM   33  N3  UNL     1      15.028  23.254  15.393  1.00  0.00    -0.370 N 
ATOM     34  H3  UNL     1      14.409  24.063  15.391  1.00  0.00     0.161 HD
BRANCH  33  35
HETATM   35  C14 UNL     1      16.098  23.215  14.426  1.00  0.00     0.127 C 
BRANCH  35  36
HETATM   36  C15 UNL     1      17.425  22.923  15.029  1.00  0.00     0.064 C 
BRANCH  36  37
HETATM   37  C16 UNL     1      18.054  23.993  15.830  1.00  0.00     0.064 C 
BRANCH  37  38
HETATM   38  N4  UNL     1      19.320  23.811  16.380  1.00  0.00    -0.374 N 
HETATM   39  C17 UNL     1      19.700  22.577  16.941  1.00  0.00     0.129 C 
HETATM   40  C18 UNL     1      20.301  22.893  18.323  1.00  0.00     0.056 C 
HETATM   41  C19 UNL     1      21.462  23.853  18.201  1.00  0.00     0.229 C 
HETATM   42  C24 UNL     1      21.623  24.263  16.754  1.00  0.00     0.080 C 
HETATM   43  C25 UNL     1      20.301  24.818  16.271  1.00  0.00     0.065 C 
BRANCH  41  44
HETATM   44  N5  UNL     1      21.181  24.997  19.062  1.00  0.00     0.093 N 
HETATM   45  C20 UNL     1      22.334  25.870  19.180  1.00  0.00     0.273 C 
HETATM   46  C21 UNL     1      22.055  26.627  20.479  1.00  0.00     0.032 C 
HETATM   47  C22 UNL     1      21.294  25.650  21.327  1.00  0.00     0.032 C 
HETATM   48  C23 UNL     1      21.102  24.449  20.422  1.00  0.00     0.273 C 
ENDBRANCH  41  44
ENDBRANCH  37  38
ENDBRANCH  36  37
ENDBRANCH  35  36
ENDBRANCH  33  35
ENDBRANCH  10  33
TORSDOF 14
ENDMDL
