MODEL 1
REMARK VINA RESULT: -8.271878549      0.000      0.000
REMARK  15 active torsions:
REMARK  status: ('A' for Active; 'I' for Inactive)
REMARK    1  A    between atoms: O1_2  and  C2_3 
REMARK       I    between atoms: C2_3  and  N1_5 
REMARK    2  A    between atoms: N1_5  and  C3_7 
REMARK    3  A    between atoms: C3_7  and  C4_8 
REMARK    4  A    between atoms: C4_8  and  C5_9 
REMARK    5  A    between atoms: C5_9  and  N2_10 
REMARK    6  A    between atoms: C7_12  and  C8_13 
REMARK    7  A    between atoms: C8_13  and  C9_14 
REMARK    8  A    between atoms: C9_14  and  C10_15 
REMARK    9  A    between atoms: C12_19  and  C13_20 
REMARK   10  A    between atoms: C13_20  and  N3_22 
REMARK   11  A    between atoms: C20_28  and  C21_29 
REMARK   12  A    between atoms: C22_30  and  C23_31 
REMARK   13  A    between atoms: C29_37  and  O5_38 
REMARK   14  A    between atoms: C29_37  and  C32_42 
REMARK   15  A    between atoms: O5_38  and  C30_39 
ROOT
HETATM    1  C10 UNL     1      23.044  26.604  17.172  1.00  0.00     0.061 C 
HETATM    2  C11 UNL     1      22.706  27.959  16.693  1.00  0.00     0.269 C 
HETATM    3  O3  UNL     1      21.711  28.393  16.088  1.00  0.00    -0.264 OA
HETATM    4  O4  UNL     1      23.776  28.771  17.053  1.00  0.00    -0.313 OA
HETATM    5  C12 UNL     1      24.958  27.990  17.094  1.00  0.00     0.170 C 
HETATM    6  C17 UNL     1      24.560  26.597  16.772  1.00  0.00     0.036 C 
HETATM    7  C18 UNL     1      24.525  26.218  15.343  1.00  0.00     0.009 C 
HETATM    8  C19 UNL     1      23.120  25.779  15.011  1.00  0.00     0.010 C 
HETATM    9  C20 UNL     1      22.476  25.520  16.395  1.00  0.00     0.026 C 
ENDROOT
BRANCH   9  10
HETATM   10  C21 UNL     1      21.050  25.409  16.171  1.00  0.00    -0.024 C 
HETATM   11  C22 UNL     1      20.279  24.528  16.773  1.00  0.00    -0.025 C 
BRANCH  11  12
HETATM   12  C23 UNL     1      18.800  24.364  16.585  1.00  0.00     0.019 C 
HETATM   13  C24 UNL     1      18.615  23.761  15.239  1.00  0.00     0.010 C 
HETATM   14  C25 UNL     1      17.529  22.808  15.017  1.00  0.00     0.013 C 
HETATM   15  C26 UNL     1      16.632  22.469  16.172  1.00  0.00    -0.006 C 
HETATM   16  C27 UNL     1      16.112  21.029  15.939  1.00  0.00     0.018 C 
HETATM   17  C28 UNL     1      15.396  23.335  16.043  1.00  0.00     0.018 C 
HETATM   18  C29 UNL     1      17.299  22.534  17.527  1.00  0.00     0.163 C 
HETATM   19  C33 UNL     1      18.135  23.738  17.761  1.00  0.00     0.001 C 
HETATM   20  C34 UNL     1      17.353  24.913  18.390  1.00  0.00     0.019 C 
HETATM   21  C35 UNL     1      19.150  23.445  18.851  1.00  0.00     0.019 C 
BRANCH  18  22
HETATM   22  O5  UNL     1      16.391  22.145  18.362  1.00  0.00    -0.299 OA
BRANCH  22  23
HETATM   23  C30 UNL     1      15.529  21.812  19.216  1.00  0.00     0.256 C 
HETATM   24  C31 UNL     1      15.390  20.699  20.144  1.00  0.00     0.126 C 
HETATM   25  O6  UNL     1      14.650  22.704  19.170  1.00  0.00    -0.266 OA
ENDBRANCH  22  23
ENDBRANCH  18  22
BRANCH  18  26
HETATM   26  C32 UNL     1      18.278  21.402  17.608  1.00  0.00     0.268 C 
HETATM   27  N4  UNL     1      19.324  21.035  16.779  1.00  0.00    -0.059 NA
HETATM   28  O7  UNL     1      18.180  20.586  18.590  1.00  0.00    -0.273 OA
ENDBRANCH  18  26
ENDBRANCH  11  12
ENDBRANCH   9  10
BRANCH   1  29
HETATM   29  C9  UNL     1      22.959  26.564  18.667  1.00  0.00     0.026 C 
BRANCH  29  30
HETATM   30  C8  UNL     1      21.889  27.369  19.300  1.00  0.00     0.046 C 
BRANCH  30  31
HETATM   31  C7  UNL     1      22.244  27.617  20.761  1.00  0.00     0.062 C 
HETATM   32  N2  UNL     1      22.102  26.558  21.607  1.00  0.00    -0.378 N 
HETATM   33  C6  UNL     1      21.193  25.502  21.390  1.00  0.00     0.154 C 
BRANCH  32  34
HETATM   34  C5  UNL     1      22.450  26.673  22.947  1.00  0.00     0.064 C 
BRANCH  34  35
HETATM   35  C4  UNL     1      23.893  26.546  23.332  1.00  0.00     0.064 C 
BRANCH  35  36
HETATM   36  C3  UNL     1      24.557  25.253  23.026  1.00  0.00     0.130 C 
BRANCH  36  37
HETATM   37  N1  UNL     1      25.378  25.352  21.814  1.00  0.00    -0.337 N 
HETATM   38  C2  UNL     1      25.117  24.543  20.681  1.00  0.00     0.360 C 
HETATM   39  O2  UNL     1      24.185  23.710  20.690  1.00  0.00    -0.239 OA
ATOM     40  H1  UNL     1      26.151  26.017  21.787  1.00  0.00     0.164 HD
BRANCH  38  41
HETATM   41  O1  UNL     1      25.856  24.608  19.496  1.00  0.00    -0.309 OA
HETATM   42  C1  UNL     1      26.975  25.507  19.410  1.00  0.00     0.215 C 
ENDBRANCH  38  41
ENDBRANCH  36  37
ENDBRANCH  35  36
ENDBRANCH  34  35
ENDBRANCH  32  34
ENDBRANCH  30  31
ENDBRANCH  29  30
ENDBRANCH   1  29
BRANCH   5  43
HETATM   43  C13 UNL     1      26.031  28.610  16.262  1.00  0.00     0.247 C 
HETATM   44  C14 UNL     1      26.224  30.032  16.819  1.00  0.00     0.045 C 
BRANCH  43  45
HETATM   45  N3  UNL     1      27.273  27.924  16.251  1.00  0.00     0.086 N 
HETATM   46  C15 UNL     1      27.871  27.962  14.935  1.00  0.00     0.310 C 
HETATM   47  C16 UNL     1      28.236  28.415  17.214  1.00  0.00     0.310 C 
ENDBRANCH  43  45
ENDBRANCH   5  43
TORSDOF 15
ENDMDL
MODEL 2
REMARK VINA RESULT: -8.147804066      3.649     11.621
REMARK  15 active torsions:
REMARK  status: ('A' for Active; 'I' for Inactive)
REMARK    1  A    between atoms: O1_2  and  C2_3 
REMARK       I    between atoms: C2_3  and  N1_5 
REMARK    2  A    between atoms: N1_5  and  C3_7 
REMARK    3  A    between atoms: C3_7  and  C4_8 
REMARK    4  A    between atoms: C4_8  and  C5_9 
REMARK    5  A    between atoms: C5_9  and  N2_10 
REMARK    6  A    between atoms: C7_12  and  C8_13 
REMARK    7  A    between atoms: C8_13  and  C9_14 
REMARK    8  A    between atoms: C9_14  and  C10_15 
REMARK    9  A    between atoms: C12_19  and  C13_20 
REMARK   10  A    between atoms: C13_20  and  N3_22 
REMARK   11  A    between atoms: C20_28  and  C21_29 
REMARK   12  A    between atoms: C22_30  and  C23_31 
REMARK   13  A    between atoms: C29_37  and  O5_38 
REMARK   14  A    between atoms: C29_37  and  C32_42 
REMARK   15  A    between atoms: O5_38  and  C30_39 
ROOT
HETATM    1  C10 UNL     1      16.109  21.944  17.945  1.00  0.00     0.061 C 
HETATM    2  C11 UNL     1      15.803  21.838  19.385  1.00  0.00     0.269 C 
HETATM    3  O3  UNL     1      16.298  22.406  20.374  1.00  0.00    -0.264 OA
HETATM    4  O4  UNL     1      14.773  20.912  19.492  1.00  0.00    -0.313 OA
HETATM    5  C12 UNL     1      14.863  19.991  18.417  1.00  0.00     0.170 C 
HETATM    6  C17 UNL     1      16.012  20.421  17.583  1.00  0.00     0.036 C 
HETATM    7  C18 UNL     1      17.347  19.907  17.955  1.00  0.00     0.009 C 
HETATM    8  C19 UNL     1      18.236  21.088  18.256  1.00  0.00     0.010 C 
HETATM    9  C20 UNL     1      17.483  22.287  17.632  1.00  0.00     0.026 C 
ENDROOT
BRANCH   9  10
HETATM   10  C21 UNL     1      18.106  23.484  18.157  1.00  0.00    -0.024 C 
HETATM   11  C22 UNL     1      19.258  23.493  18.794  1.00  0.00    -0.025 C 
BRANCH  11  12
HETATM   12  C23 UNL     1      19.954  24.696  19.358  1.00  0.00     0.019 C 
HETATM   13  C24 UNL     1      19.817  24.602  20.836  1.00  0.00     0.010 C 
HETATM   14  C25 UNL     1      20.904  25.070  21.693  1.00  0.00     0.013 C 
HETATM   15  C26 UNL     1      22.134  25.633  21.042  1.00  0.00    -0.006 C 
HETATM   16  C27 UNL     1      23.321  25.368  22.000  1.00  0.00     0.018 C 
HETATM   17  C28 UNL     1      21.986  27.140  21.042  1.00  0.00     0.018 C 
HETATM   18  C29 UNL     1      22.456  25.040  19.689  1.00  0.00     0.163 C 
HETATM   19  C33 UNL     1      21.302  24.913  18.764  1.00  0.00     0.001 C 
HETATM   20  C34 UNL     1      21.096  26.156  17.870  1.00  0.00     0.019 C 
HETATM   21  C35 UNL     1      21.601  23.849  17.724  1.00  0.00     0.019 C 
BRANCH  18  22
HETATM   22  O5  UNL     1      23.569  25.599  19.339  1.00  0.00    -0.299 OA
BRANCH  22  23
HETATM   23  C30 UNL     1      24.632  26.140  18.937  1.00  0.00     0.256 C 
HETATM   24  C31 UNL     1      25.780  26.745  19.596  1.00  0.00     0.126 C 
HETATM   25  O6  UNL     1      24.581  26.089  17.686  1.00  0.00    -0.266 OA
ENDBRANCH  22  23
ENDBRANCH  18  22
BRANCH  18  26
HETATM   26  C32 UNL     1      22.894  23.623  19.905  1.00  0.00     0.268 C 
HETATM   27  N4  UNL     1      22.207  22.512  20.362  1.00  0.00    -0.059 NA
HETATM   28  O7  UNL     1      24.111  23.320  19.649  1.00  0.00    -0.273 OA
ENDBRANCH  18  26
ENDBRANCH  11  12
ENDBRANCH   9  10
BRANCH   1  29
HETATM   29  C9  UNL     1      14.992  22.659  17.246  1.00  0.00     0.026 C 
BRANCH  29  30
HETATM   30  C8  UNL     1      14.971  22.585  15.767  1.00  0.00     0.046 C 
BRANCH  30  31
HETATM   31  C7  UNL     1      13.668  21.938  15.315  1.00  0.00     0.062 C 
HETATM   32  N2  UNL     1      13.773  20.718  14.715  1.00  0.00    -0.378 N 
HETATM   33  C6  UNL     1      14.921  20.289  14.017  1.00  0.00     0.154 C 
BRANCH  32  34
HETATM   34  C5  UNL     1      12.636  20.026  14.316  1.00  0.00     0.064 C 
BRANCH  34  35
HETATM   35  C4  UNL     1      12.730  19.100  13.142  1.00  0.00     0.064 C 
BRANCH  35  36
HETATM   36  C3  UNL     1      11.857  17.898  13.165  1.00  0.00     0.130 C 
BRANCH  36  37
HETATM   37  N1  UNL     1      12.337  16.914  14.143  1.00  0.00    -0.337 N 
HETATM   38  C2  UNL     1      11.493  16.429  15.171  1.00  0.00     0.360 C 
HETATM   39  O2  UNL     1      10.317  16.839  15.282  1.00  0.00    -0.239 OA
ATOM     40  H1  UNL     1      13.296  16.572  14.080  1.00  0.00     0.164 HD
BRANCH  38  41
HETATM   41  O1  UNL     1      11.891  15.479  16.117  1.00  0.00    -0.309 OA
HETATM   42  C1  UNL     1      11.084  15.268  17.288  1.00  0.00     0.215 C 
ENDBRANCH  38  41
ENDBRANCH  36  37
ENDBRANCH  35  36
ENDBRANCH  34  35
ENDBRANCH  32  34
ENDBRANCH  30  31
ENDBRANCH  29  30
ENDBRANCH   1  29
BRANCH   5  43
HETATM   43  C13 UNL     1      14.867  18.587  18.923  1.00  0.00     0.247 C 
HETATM   44  C14 UNL     1      15.062  18.690  20.447  1.00  0.00     0.045 C 
BRANCH  43  45
HETATM   45  N3  UNL     1      13.702  17.828  18.637  1.00  0.00     0.086 N 
HETATM   46  C15 UNL     1      13.082  17.357  19.855  1.00  0.00     0.310 C 
HETATM   47  C16 UNL     1      12.710  18.530  17.851  1.00  0.00     0.310 C 
ENDBRANCH  43  45
ENDBRANCH   5  43
TORSDOF 15
ENDMDL
MODEL 3
REMARK VINA RESULT: -8.040971549      4.663     11.839
REMARK  15 active torsions:
REMARK  status: ('A' for Active; 'I' for Inactive)
REMARK    1  A    between atoms: O1_2  and  C2_3 
REMARK       I    between atoms: C2_3  and  N1_5 
REMARK    2  A    between atoms: N1_5  and  C3_7 
REMARK    3  A    between atoms: C3_7  and  C4_8 
REMARK    4  A    between atoms: C4_8  and  C5_9 
REMARK    5  A    between atoms: C5_9  and  N2_10 
REMARK    6  A    between atoms: C7_12  and  C8_13 
REMARK    7  A    between atoms: C8_13  and  C9_14 
REMARK    8  A    between atoms: C9_14  and  C10_15 
REMARK    9  A    between atoms: C12_19  and  C13_20 
REMARK   10  A    between atoms: C13_20  and  N3_22 
REMARK   11  A    between atoms: C20_28  and  C21_29 
REMARK   12  A    between atoms: C22_30  and  C23_31 
REMARK   13  A    between atoms: C29_37  and  O5_38 
REMARK   14  A    between atoms: C29_37  and  C32_42 
REMARK   15  A    between atoms: O5_38  and  C30_39 
ROOT
HETATM    1  C10 UNL     1      14.092  20.886  15.626  1.00  0.00     0.061 C 
HETATM    2  C11 UNL     1      14.588  20.400  14.323  1.00  0.00     0.269 C 
HETATM    3  O3  UNL     1      15.567  20.743  13.636  1.00  0.00    -0.264 OA
HETATM    4  O4  UNL     1      13.710  19.398  13.928  1.00  0.00    -0.313 OA
HETATM    5  C12 UNL     1      12.430  19.659  14.477  1.00  0.00     0.170 C 
HETATM    6  C17 UNL     1      12.560  20.890  15.294  1.00  0.00     0.036 C 
HETATM    7  C18 UNL     1      12.374  22.184  14.601  1.00  0.00     0.009 C 
HETATM    8  C19 UNL     1      13.643  22.984  14.758  1.00  0.00     0.010 C 
HETATM    9  C20 UNL     1      14.388  22.276  15.915  1.00  0.00     0.026 C 
ENDROOT
BRANCH   9  10
HETATM   10  C21 UNL     1      15.743  22.784  15.906  1.00  0.00    -0.024 C 
HETATM   11  C22 UNL     1      16.798  22.070  16.238  1.00  0.00    -0.025 C 
BRANCH  11  12
HETATM   12  C23 UNL     1      18.223  22.537  16.247  1.00  0.00     0.019 C 
HETATM   13  C24 UNL     1      18.230  23.863  15.573  1.00  0.00     0.010 C 
HETATM   14  C25 UNL     1      19.152  24.901  16.031  1.00  0.00     0.013 C 
HETATM   15  C26 UNL     1      20.066  24.586  17.179  1.00  0.00    -0.006 C 
HETATM   16  C27 UNL     1      20.359  25.920  17.909  1.00  0.00     0.018 C 
HETATM   17  C28 UNL     1      21.402  24.186  16.586  1.00  0.00     0.018 C 
HETATM   18  C29 UNL     1      19.507  23.596  18.175  1.00  0.00     0.163 C 
HETATM   19  C33 UNL     1      18.868  22.395  17.581  1.00  0.00     0.001 C 
HETATM   20  C34 UNL     1      19.850  21.220  17.373  1.00  0.00     0.019 C 
HETATM   21  C35 UNL     1      17.896  21.792  18.579  1.00  0.00     0.019 C 
BRANCH  18  22
HETATM   22  O5  UNL     1      20.404  23.518  19.105  1.00  0.00    -0.299 OA
BRANCH  22  23
HETATM   23  C30 UNL     1      21.289  23.383  19.988  1.00  0.00     0.256 C 
HETATM   24  C31 UNL     1      22.316  24.252  20.544  1.00  0.00     0.126 C 
HETATM   25  O6  UNL     1      21.165  22.209  20.409  1.00  0.00    -0.266 OA
ENDBRANCH  22  23
ENDBRANCH  18  22
BRANCH  18  26
HETATM   26  C32 UNL     1      18.384  24.269  18.905  1.00  0.00     0.268 C 
HETATM   27  N4  UNL     1      17.241  24.900  18.445  1.00  0.00    -0.059 NA
HETATM   28  O7  UNL     1      18.433  24.312  20.184  1.00  0.00    -0.273 OA
ENDBRANCH  18  26
ENDBRANCH  11  12
ENDBRANCH   9  10
BRANCH   1  29
HETATM   29  C9  UNL     1      14.336  19.845  16.676  1.00  0.00     0.026 C 
BRANCH  29  30
HETATM   30  C8  UNL     1      14.260  20.286  18.088  1.00  0.00     0.046 C 
BRANCH  30  31
HETATM   31  C7  UNL     1      13.120  19.553  18.782  1.00  0.00     0.062 C 
HETATM   32  N2  UNL     1      13.419  18.954  19.970  1.00  0.00    -0.378 N 
HETATM   33  C6  UNL     1      14.710  18.500  20.311  1.00  0.00     0.154 C 
BRANCH  32  34
HETATM   34  C5  UNL     1      12.432  18.306  20.703  1.00  0.00     0.064 C 
BRANCH  34  35
HETATM   35  C4  UNL     1      12.147  16.864  20.412  1.00  0.00     0.064 C 
BRANCH  35  36
HETATM   36  C3  UNL     1      11.064  16.578  19.437  1.00  0.00     0.130 C 
BRANCH  36  37
HETATM   37  N1  UNL     1      11.607  16.343  18.094  1.00  0.00    -0.337 N 
HETATM   38  C2  UNL     1      11.332  15.145  17.390  1.00  0.00     0.360 C 
HETATM   39  O2  UNL     1      10.628  14.248  17.903  1.00  0.00    -0.239 OA
ATOM     40  H1  UNL     1      12.194  17.055  17.660  1.00  0.00     0.164 HD
BRANCH  38  41
HETATM   41  O1  UNL     1      11.808  14.876  16.104  1.00  0.00    -0.309 OA
HETATM   42  C1  UNL     1      11.088  13.959  15.262  1.00  0.00     0.215 C 
ENDBRANCH  38  41
ENDBRANCH  36  37
ENDBRANCH  35  36
ENDBRANCH  34  35
ENDBRANCH  32  34
ENDBRANCH  30  31
ENDBRANCH  29  30
ENDBRANCH   1  29
BRANCH   5  43
HETATM   43  C13 UNL     1      11.385  19.647  13.411  1.00  0.00     0.247 C 
HETATM   44  C14 UNL     1      12.103  19.200  12.125  1.00  0.00     0.045 C 
BRANCH  43  45
HETATM   45  N3  UNL     1      10.268  18.806  13.656  1.00  0.00     0.086 N 
HETATM   46  C15 UNL     1       9.818  18.177  12.435  1.00  0.00     0.310 C 
HETATM   47  C16 UNL     1      10.499  17.779  14.650  1.00  0.00     0.310 C 
ENDBRANCH  43  45
ENDBRANCH   5  43
TORSDOF 15
ENDMDL
MODEL 4
REMARK VINA RESULT: -8.037611835      3.535     10.846
REMARK  15 active torsions:
REMARK  status: ('A' for Active; 'I' for Inactive)
REMARK    1  A    between atoms: O1_2  and  C2_3 
REMARK       I    between atoms: C2_3  and  N1_5 
REMARK    2  A    between atoms: N1_5  and  C3_7 
REMARK    3  A    between atoms: C3_7  and  C4_8 
REMARK    4  A    between atoms: C4_8  and  C5_9 
REMARK    5  A    between atoms: C5_9  and  N2_10 
REMARK    6  A    between atoms: C7_12  and  C8_13 
REMARK    7  A    between atoms: C8_13  and  C9_14 
REMARK    8  A    between atoms: C9_14  and  C10_15 
REMARK    9  A    between atoms: C12_19  and  C13_20 
REMARK   10  A    between atoms: C13_20  and  N3_22 
REMARK   11  A    between atoms: C20_28  and  C21_29 
REMARK   12  A    between atoms: C22_30  and  C23_31 
REMARK   13  A    between atoms: C29_37  and  O5_38 
REMARK   14  A    between atoms: C29_37  and  C32_42 
REMARK   15  A    between atoms: O5_38  and  C30_39 
ROOT
HETATM    1  C10 UNL     1      17.068  21.828  18.480  1.00  0.00     0.061 C 
HETATM    2  C11 UNL     1      17.981  21.539  17.356  1.00  0.00     0.269 C 
HETATM    3  O3  UNL     1      19.209  21.686  17.236  1.00  0.00    -0.264 OA
HETATM    4  O4  UNL     1      17.185  21.025  16.339  1.00  0.00    -0.313 OA
HETATM    5  C12 UNL     1      15.878  21.563  16.454  1.00  0.00     0.170 C 
HETATM    6  C17 UNL     1      15.881  22.435  17.654  1.00  0.00     0.036 C 
HETATM    7  C18 UNL     1      16.295  23.843  17.466  1.00  0.00     0.009 C 
HETATM    8  C19 UNL     1      17.496  24.098  18.342  1.00  0.00     0.010 C 
HETATM    9  C20 UNL     1      17.483  22.918  19.343  1.00  0.00     0.026 C 
ENDROOT
BRANCH   9  10
HETATM   10  C21 UNL     1      18.773  22.920  19.999  1.00  0.00    -0.024 C 
HETATM   11  C22 UNL     1      19.478  24.007  20.232  1.00  0.00    -0.025 C 
BRANCH  11  12
HETATM   12  C23 UNL     1      20.815  24.074  20.907  1.00  0.00     0.019 C 
HETATM   13  C24 UNL     1      21.422  22.724  20.762  1.00  0.00     0.010 C 
HETATM   14  C25 UNL     1      22.867  22.598  20.583  1.00  0.00     0.013 C 
HETATM   15  C26 UNL     1      23.694  23.850  20.549  1.00  0.00    -0.006 C 
HETATM   16  C27 UNL     1      24.934  23.555  19.670  1.00  0.00     0.018 C 
HETATM   17  C28 UNL     1      24.261  24.046  21.939  1.00  0.00     0.018 C 
HETATM   18  C29 UNL     1      22.978  25.060  19.992  1.00  0.00     0.163 C 
HETATM   19  C33 UNL     1      21.603  25.273  20.508  1.00  0.00     0.001 C 
HETATM   20  C34 UNL     1      21.555  26.161  21.771  1.00  0.00     0.019 C 
HETATM   21  C35 UNL     1      20.818  26.120  19.523  1.00  0.00     0.019 C 
BRANCH  18  22
HETATM   22  O5  UNL     1      23.870  25.997  19.983  1.00  0.00    -0.299 OA
BRANCH  22  23
HETATM   23  C30 UNL     1      24.691  26.951  19.962  1.00  0.00     0.256 C 
HETATM   24  C31 UNL     1      26.139  27.047  19.856  1.00  0.00     0.126 C 
HETATM   25  O6  UNL     1      23.998  27.990  20.059  1.00  0.00    -0.266 OA
ENDBRANCH  22  23
ENDBRANCH  18  22
BRANCH  18  26
HETATM   26  C32 UNL     1      22.774  24.834  18.525  1.00  0.00     0.268 C 
HETATM   27  N4  UNL     1      21.979  23.932  17.839  1.00  0.00    -0.059 NA
HETATM   28  O7  UNL     1      23.429  25.565  17.703  1.00  0.00    -0.273 OA
ENDBRANCH  18  26
ENDBRANCH  11  12
ENDBRANCH   9  10
BRANCH   1  29
HETATM   29  C9  UNL     1      16.599  20.542  19.089  1.00  0.00     0.026 C 
BRANCH  29  30
HETATM   30  C8  UNL     1      15.597  20.641  20.176  1.00  0.00     0.046 C 
BRANCH  30  31
HETATM   31  C7  UNL     1      15.017  19.260  20.452  1.00  0.00     0.062 C 
HETATM   32  N2  UNL     1      14.091  18.803  19.562  1.00  0.00    -0.378 N 
HETATM   33  C6  UNL     1      13.267  19.649  18.790  1.00  0.00     0.154 C 
BRANCH  32  34
HETATM   34  C5  UNL     1      13.543  17.534  19.701  1.00  0.00     0.064 C 
BRANCH  34  35
HETATM   35  C4  UNL     1      12.120  17.407  20.152  1.00  0.00     0.064 C 
BRANCH  35  36
HETATM   36  C3  UNL     1      11.277  16.414  19.438  1.00  0.00     0.130 C 
BRANCH  36  37
HETATM   37  N1  UNL     1      10.747  16.970  18.187  1.00  0.00    -0.337 N 
HETATM   38  C2  UNL     1      11.277  16.588  16.931  1.00  0.00     0.360 C 
HETATM   39  O2  UNL     1      12.224  15.775  16.856  1.00  0.00    -0.239 OA
ATOM     40  H1  UNL     1       9.982  17.643  18.224  1.00  0.00     0.164 HD
BRANCH  38  41
HETATM   41  O1  UNL     1      10.801  17.071  15.710  1.00  0.00    -0.309 OA
HETATM   42  C1  UNL     1      10.814  18.487  15.456  1.00  0.00     0.215 C 
ENDBRANCH  38  41
ENDBRANCH  36  37
ENDBRANCH  35  36
ENDBRANCH  34  35
ENDBRANCH  32  34
ENDBRANCH  30  31
ENDBRANCH  29  30
ENDBRANCH   1  29
BRANCH   5  43
HETATM   43  C13 UNL     1      15.440  22.170  15.163  1.00  0.00     0.247 C 
HETATM   44  C14 UNL     1      16.679  22.151  14.249  1.00  0.00     0.045 C 
BRANCH  43  45
HETATM   45  N3  UNL     1      14.355  21.522  14.518  1.00  0.00     0.086 N 
HETATM   46  C15 UNL     1      14.768  20.251  13.965  1.00  0.00     0.310 C 
HETATM   47  C16 UNL     1      13.199  21.308  15.362  1.00  0.00     0.310 C 
ENDBRANCH  43  45
ENDBRANCH   5  43
TORSDOF 15
ENDMDL
MODEL 5
REMARK VINA RESULT: -8.036006741      3.045     10.545
REMARK  15 active torsions:
REMARK  status: ('A' for Active; 'I' for Inactive)
REMARK    1  A    between atoms: O1_2  and  C2_3 
REMARK       I    between atoms: C2_3  and  N1_5 
REMARK    2  A    between atoms: N1_5  and  C3_7 
REMARK    3  A    between atoms: C3_7  and  C4_8 
REMARK    4  A    between atoms: C4_8  and  C5_9 
REMARK    5  A    between atoms: C5_9  and  N2_10 
REMARK    6  A    between atoms: C7_12  and  C8_13 
REMARK    7  A    between atoms: C8_13  and  C9_14 
REMARK    8  A    between atoms: C9_14  and  C10_15 
REMARK    9  A    between atoms: C12_19  and  C13_20 
REMARK   10  A    between atoms: C13_20  and  N3_22 
REMARK   11  A    between atoms: C20_28  and  C21_29 
REMARK   12  A    between atoms: C22_30  and  C23_31 
REMARK   13  A    between atoms: C29_37  and  O5_38 
REMARK   14  A    between atoms: C29_37  and  C32_42 
REMARK   15  A    between atoms: O5_38  and  C30_39 
ROOT
HETATM    1  C10 UNL     1      17.101  22.782  17.268  1.00  0.00     0.061 C 
HETATM    2  C11 UNL     1      17.397  21.428  16.759  1.00  0.00     0.269 C 
HETATM    3  O3  UNL     1      18.476  20.844  16.558  1.00  0.00    -0.264 OA
HETATM    4  O4  UNL     1      16.166  20.836  16.507  1.00  0.00    -0.313 OA
HETATM    5  C12 UNL     1      15.223  21.843  16.181  1.00  0.00     0.170 C 
HETATM    6  C17 UNL     1      15.934  23.141  16.283  1.00  0.00     0.036 C 
HETATM    7  C18 UNL     1      16.650  23.615  15.079  1.00  0.00     0.009 C 
HETATM    8  C19 UNL     1      18.107  23.773  15.435  1.00  0.00     0.010 C 
HETATM    9  C20 UNL     1      18.114  23.780  16.982  1.00  0.00     0.026 C 
ENDROOT
BRANCH   9  10
HETATM   10  C21 UNL     1      19.491  23.605  17.390  1.00  0.00    -0.024 C 
HETATM   11  C22 UNL     1      20.246  24.574  17.866  1.00  0.00    -0.025 C 
BRANCH  11  12
HETATM   12  C23 UNL     1      21.675  24.455  18.305  1.00  0.00     0.019 C 
HETATM   13  C24 UNL     1      22.470  25.286  17.363  1.00  0.00     0.010 C 
HETATM   14  C25 UNL     1      23.642  26.010  17.852  1.00  0.00     0.013 C 
HETATM   15  C26 UNL     1      24.001  25.888  19.304  1.00  0.00    -0.006 C 
HETATM   16  C27 UNL     1      24.718  27.200  19.709  1.00  0.00     0.018 C 
HETATM   17  C28 UNL     1      25.078  24.829  19.408  1.00  0.00     0.018 C 
HETATM   18  C29 UNL     1      22.823  25.671  20.227  1.00  0.00     0.163 C 
HETATM   19  C33 UNL     1      21.846  24.652  19.772  1.00  0.00     0.001 C 
HETATM   20  C34 UNL     1      22.163  23.228  20.282  1.00  0.00     0.019 C 
HETATM   21  C35 UNL     1      20.503  24.907  20.432  1.00  0.00     0.019 C 
BRANCH  18  22
HETATM   22  O5  UNL     1      23.332  25.664  21.417  1.00  0.00    -0.299 OA
BRANCH  22  23
HETATM   23  C30 UNL     1      23.863  25.607  22.555  1.00  0.00     0.256 C 
HETATM   24  C31 UNL     1      24.012  26.545  23.658  1.00  0.00     0.126 C 
HETATM   25  O6  UNL     1      24.331  24.449  22.649  1.00  0.00    -0.266 OA
ENDBRANCH  22  23
ENDBRANCH  18  22
BRANCH  18  26
HETATM   26  C32 UNL     1      22.026  26.939  20.254  1.00  0.00     0.268 C 
HETATM   27  N4  UNL     1      21.613  27.784  19.239  1.00  0.00    -0.059 NA
HETATM   28  O7  UNL     1      21.631  27.381  21.389  1.00  0.00    -0.273 OA
ENDBRANCH  18  26
ENDBRANCH  11  12
ENDBRANCH   9  10
BRANCH   1  29
HETATM   29  C9  UNL     1      16.529  22.686  18.649  1.00  0.00     0.026 C 
BRANCH  29  30
HETATM   30  C8  UNL     1      16.896  21.492  19.445  1.00  0.00     0.046 C 
BRANCH  30  31
HETATM   31  C7  UNL     1      15.682  21.024  20.239  1.00  0.00     0.062 C 
HETATM   32  N2  UNL     1      15.359  19.704  20.131  1.00  0.00    -0.378 N 
HETATM   33  C6  UNL     1      15.669  18.915  19.004  1.00  0.00     0.154 C 
BRANCH  32  34
HETATM   34  C5  UNL     1      14.301  19.174  20.859  1.00  0.00     0.064 C 
BRANCH  34  35
HETATM   35  C4  UNL     1      13.678  17.892  20.397  1.00  0.00     0.064 C 
BRANCH  35  36
HETATM   36  C3  UNL     1      12.204  17.888  20.219  1.00  0.00     0.130 C 
BRANCH  36  37
HETATM   37  N1  UNL     1      11.837  17.530  18.844  1.00  0.00    -0.337 N 
HETATM   38  C2  UNL     1      11.636  18.523  17.855  1.00  0.00     0.360 C 
HETATM   39  O2  UNL     1      11.753  19.736  18.133  1.00  0.00    -0.239 OA
ATOM     40  H1  UNL     1      11.724  16.547  18.597  1.00  0.00     0.164 HD
BRANCH  38  41
HETATM   41  O1  UNL     1      11.303  18.238  16.528  1.00  0.00    -0.309 OA
HETATM   42  C1  UNL     1      11.339  16.876  16.067  1.00  0.00     0.215 C 
ENDBRANCH  38  41
ENDBRANCH  36  37
ENDBRANCH  35  36
ENDBRANCH  34  35
ENDBRANCH  32  34
ENDBRANCH  30  31
ENDBRANCH  29  30
ENDBRANCH   1  29
BRANCH   5  43
HETATM   43  C13 UNL     1      14.540  21.531  14.892  1.00  0.00     0.247 C 
HETATM   44  C14 UNL     1      15.608  20.870  14.001  1.00  0.00     0.045 C 
BRANCH  43  45
HETATM   45  N3  UNL     1      13.403  20.687  14.987  1.00  0.00     0.086 N 
HETATM   46  C15 UNL     1      12.184  21.464  15.000  1.00  0.00     0.310 C 
HETATM   47  C16 UNL     1      13.309  19.690  13.942  1.00  0.00     0.310 C 
ENDBRANCH  43  45
ENDBRANCH   5  43
TORSDOF 15
ENDMDL
