MODEL 1
REMARK VINA RESULT: -8.469477656      0.000      0.000
REMARK  13 active torsions:
REMARK  status: ('A' for Active; 'I' for Inactive)
REMARK    1  A    between atoms: C2_2  and  C3_3 
REMARK    2  A    between atoms: C2_2  and  N11_46 
REMARK    3  A    between atoms: C3_3  and  N4_14 
REMARK    4  A    between atoms: C4_4  and  C5_5 
REMARK    5  A    between atoms: N7_19  and  C7_20 
REMARK    6  A    between atoms: C7_20  and  C8_21 
REMARK    7  A    between atoms: C7_20  and  C9_24 
REMARK       I    between atoms: C9_24  and  N8_26 
REMARK    8  A    between atoms: N8_26  and  C10_28 
REMARK    9  A    between atoms: C10_28  and  C11_29 
REMARK   10  A    between atoms: C11_29  and  N9_30 
REMARK   11  A    between atoms: C11_29  and  C12_34 
REMARK   12  A    between atoms: C14_38  and  S1_39 
REMARK   13  A    between atoms: C20_53  and  O10_54 
ROOT
HETATM    1  N4  UNL     1      -3.690  -5.295 -28.892  1.00  0.00    -0.190 N 
HETATM    2  N5  UNL     1      -3.764  -6.248 -29.836  1.00  0.00    -0.217 N 
ATOM      3  H5  UNL     1      -3.126  -6.335 -30.628  1.00  0.00     0.210 HD
HETATM    4  N6  UNL     1      -4.777  -7.052 -29.593  1.00  0.00    -0.220 N 
ATOM      5  H6  UNL     1      -5.043  -7.853 -30.165  1.00  0.00     0.210 HD
HETATM    6  N7  UNL     1      -5.393  -6.660 -28.499  1.00  0.00    -0.201 N 
HETATM    7  C15 UNL     1      -4.701  -5.560 -28.072  1.00  0.00     0.366 A 
HETATM    8  O8  UNL     1      -5.050  -4.944 -27.028  1.00  0.00    -0.243 OA
ENDROOT
BRANCH   6   9
HETATM    9  C7  UNL     1      -6.569  -7.267 -27.864  1.00  0.00     0.306 C 
BRANCH   9  10
HETATM   10  C8  UNL     1      -7.385  -7.821 -28.952  1.00  0.00     0.208 C 
HETATM   11  O2  UNL     1      -8.203  -7.110 -29.561  1.00  0.00    -0.646 OA
HETATM   12  O3  UNL     1      -7.247  -9.147 -29.310  1.00  0.00    -0.646 OA
ENDBRANCH   9  10
BRANCH   9  13
HETATM   13  C9  UNL     1      -6.118  -8.310 -26.923  1.00  0.00     0.253 C 
HETATM   14  O4  UNL     1      -4.891  -8.636 -26.823  1.00  0.00    -0.271 OA
HETATM   15  N8  UNL     1      -7.049  -8.985 -26.093  1.00  0.00    -0.356 N 
ATOM     16  H8  UNL     1      -8.041  -8.753 -26.143  1.00  0.00     0.162 HD
BRANCH  15  17
HETATM   17  C10 UNL     1      -6.587 -10.002 -25.174  1.00  0.00     0.162 C 
BRANCH  17  18
HETATM   18  C11 UNL     1      -6.504  -9.476 -23.758  1.00  0.00     0.257 C 
BRANCH  18  19
HETATM   19  N9  UNL     1      -5.625  -8.349 -23.672  1.00  0.00    -0.068 N 
ATOM     20  H93 UNL     1      -5.243  -8.243 -22.733  1.00  0.00     0.275 HD
ATOM     21  H92 UNL     1      -4.755  -8.513 -24.177  1.00  0.00     0.275 HD
ATOM     22  H91 UNL     1      -6.085  -7.495 -23.988  1.00  0.00     0.275 HD
ENDBRANCH  18  19
BRANCH  18  23
HETATM   23  C12 UNL     1      -7.913  -9.110 -23.361  1.00  0.00     0.084 A 
HETATM   24  N10 UNL     1      -8.977  -9.894 -23.272  1.00  0.00    -0.360 N 
HETATM   25  C13 UNL     1     -10.114  -9.397 -22.914  1.00  0.00     0.122 A 
ATOM     26  H10 UNL     1      -8.899 -10.889 -23.486  1.00  0.00     0.165 HD
HETATM   27  C14 UNL     1     -10.169  -8.056 -22.638  1.00  0.00     0.138 A 
HETATM   28  S2  UNL     1      -8.550  -7.583 -22.915  1.00  0.00    -0.059 SA
BRANCH  27  29
HETATM   29  S1  UNL     1     -11.569  -7.103 -22.131  1.00  0.00     0.146 S 
HETATM   30  O5  UNL     1     -11.912  -7.509 -20.749  1.00  0.00    -0.591 OA
HETATM   31  O6  UNL     1     -12.708  -7.362 -23.086  1.00  0.00    -0.591 OA
HETATM   32  O7  UNL     1     -11.173  -5.472 -22.109  1.00  0.00    -0.591 OA
ENDBRANCH  27  29
ENDBRANCH  18  23
ENDBRANCH  17  18
ENDBRANCH  15  17
ENDBRANCH   9  13
ENDBRANCH   6   9
BRANCH   1  33
HETATM   33  C3  UNL     1      -2.676  -4.258 -28.862  1.00  0.00     0.067 C 
HETATM   34  C4  UNL     1      -2.936  -3.087 -29.377  1.00  0.00     0.079 C 
BRANCH  33  35
HETATM   35  C2  UNL     1      -1.366  -4.539 -28.246  1.00  0.00     0.138 C 
HETATM   36  C1  UNL     1      -0.508  -5.400 -29.181  1.00  0.00     0.039 C 
BRANCH  35  37
HETATM   37  N11 UNL     1      -1.414  -5.220 -26.988  1.00  0.00    -0.312 N 
HETATM   38  C16 UNL     1      -1.746  -4.790 -25.677  1.00  0.00     0.245 C 
HETATM   39  O9  UNL     1      -2.409  -3.852 -25.197  1.00  0.00    -0.271 OA
HETATM   40  C17 UNL     1      -0.996  -5.886 -25.124  1.00  0.00     0.133 C 
HETATM   41  C18 UNL     1       0.398  -5.646 -24.657  1.00  0.00     0.045 C 
HETATM   42  S3  UNL     1      -1.517  -6.692 -23.650  1.00  0.00    -0.145 SA
HETATM   43  C20 UNL     1      -1.167  -6.558 -26.448  1.00  0.00     0.251 C 
HETATM   44  C19 UNL     1      -0.133  -5.607 -23.224  1.00  0.00     0.077 C 
BRANCH  43  45
HETATM   45  O10 UNL     1      -2.216  -7.437 -26.481  1.00  0.00    -0.374 OA
ATOM     46  H10 UNL     1      -2.070  -8.257 -26.938  1.00  0.00     0.212 HD
ENDBRANCH  43  45
ENDBRANCH  35  37
ENDBRANCH  33  35
BRANCH  34  47
HETATM   47  C5  UNL     1      -2.023  -1.975 -29.409  1.00  0.00     0.125 A 
HETATM   48  N1  UNL     1      -1.372  -1.326 -30.361  1.00  0.00    -0.281 N 
HETATM   49  N2  UNL     1      -0.645  -0.344 -29.906  1.00  0.00    -0.250 N 
ATOM     50  H1  UNL     1      -1.433  -1.568 -31.349  1.00  0.00     0.188 HD
HETATM   51  C6  UNL     1      -0.828  -0.349 -28.576  1.00  0.00     0.340 A 
ATOM     52  H2  UNL     1      -0.061   0.293 -30.447  1.00  0.00     0.192 HD
HETATM   53  O1  UNL     1      -0.305   0.444 -27.728  1.00  0.00    -0.245 OA
HETATM   54  N3  UNL     1      -1.660  -1.330 -28.249  1.00  0.00    -0.292 N 
ATOM     55  H3  UNL     1      -1.973  -1.563 -27.307  1.00  0.00     0.172 HD
ENDBRANCH  34  47
ENDBRANCH   1  33
TORSDOF 13
ENDMDL
MODEL 2
REMARK VINA RESULT: -8.415585882      2.838      4.658
REMARK  13 active torsions:
REMARK  status: ('A' for Active; 'I' for Inactive)
REMARK    1  A    between atoms: C2_2  and  C3_3 
REMARK    2  A    between atoms: C2_2  and  N11_46 
REMARK    3  A    between atoms: C3_3  and  N4_14 
REMARK    4  A    between atoms: C4_4  and  C5_5 
REMARK    5  A    between atoms: N7_19  and  C7_20 
REMARK    6  A    between atoms: C7_20  and  C8_21 
REMARK    7  A    between atoms: C7_20  and  C9_24 
REMARK       I    between atoms: C9_24  and  N8_26 
REMARK    8  A    between atoms: N8_26  and  C10_28 
REMARK    9  A    between atoms: C10_28  and  C11_29 
REMARK   10  A    between atoms: C11_29  and  N9_30 
REMARK   11  A    between atoms: C11_29  and  C12_34 
REMARK   12  A    between atoms: C14_38  and  S1_39 
REMARK   13  A    between atoms: C20_53  and  O10_54 
ROOT
HETATM    1  N4  UNL     1      -2.740  -5.052 -28.648  1.00  0.00    -0.190 N 
HETATM    2  N5  UNL     1      -3.992  -5.000 -28.167  1.00  0.00    -0.217 N 
ATOM      3  H5  UNL     1      -4.688  -4.299 -28.424  1.00  0.00     0.210 HD
HETATM    4  N6  UNL     1      -4.194  -5.983 -27.316  1.00  0.00    -0.220 N 
ATOM      5  H6  UNL     1      -5.065  -6.160 -26.816  1.00  0.00     0.210 HD
HETATM    6  N7  UNL     1      -3.097  -6.702 -27.211  1.00  0.00    -0.201 N 
HETATM    7  C15 UNL     1      -2.197  -6.106 -28.051  1.00  0.00     0.366 A 
HETATM    8  O8  UNL     1      -1.029  -6.569 -28.175  1.00  0.00    -0.243 OA
ENDROOT
BRANCH   6   9
HETATM    9  C7  UNL     1      -2.879  -7.890 -26.377  1.00  0.00     0.306 C 
BRANCH   9  10
HETATM   10  C8  UNL     1      -2.170  -7.426 -25.177  1.00  0.00     0.208 C 
HETATM   11  O2  UNL     1      -1.197  -8.055 -24.728  1.00  0.00    -0.646 OA
HETATM   12  O3  UNL     1      -2.585  -6.277 -24.534  1.00  0.00    -0.646 OA
ENDBRANCH   9  10
BRANCH   9  13
HETATM   13  C9  UNL     1      -4.185  -8.492 -26.052  1.00  0.00     0.253 C 
HETATM   14  O4  UNL     1      -5.104  -8.611 -26.926  1.00  0.00    -0.271 OA
HETATM   15  N8  UNL     1      -4.457  -8.963 -24.742  1.00  0.00    -0.356 N 
ATOM     16  H8  UNL     1      -3.748  -8.886 -24.013  1.00  0.00     0.162 HD
BRANCH  15  17
HETATM   17  C10 UNL     1      -5.743  -9.554 -24.444  1.00  0.00     0.162 C 
BRANCH  17  18
HETATM   18  C11 UNL     1      -6.056  -9.488 -22.965  1.00  0.00     0.257 C 
BRANCH  18  19
HETATM   19  N9  UNL     1      -5.248  -8.505 -22.306  1.00  0.00    -0.068 N 
ATOM     20  H93 UNL     1      -4.597  -8.061 -22.953  1.00  0.00     0.275 HD
ATOM     21  H92 UNL     1      -5.795  -7.684 -22.047  1.00  0.00     0.275 HD
ATOM     22  H91 UNL     1      -4.765  -8.902 -21.502  1.00  0.00     0.275 HD
ENDBRANCH  18  19
BRANCH  18  23
HETATM   23  C12 UNL     1      -7.524  -9.159 -22.858  1.00  0.00     0.084 A 
HETATM   24  N10 UNL     1      -8.565  -9.968 -22.999  1.00  0.00    -0.360 N 
HETATM   25  C13 UNL     1      -9.762  -9.501 -22.873  1.00  0.00     0.122 A 
ATOM     26  H10 UNL     1      -8.419 -10.956 -23.206  1.00  0.00     0.165 HD
HETATM   27  C14 UNL     1      -9.905  -8.168 -22.594  1.00  0.00     0.138 A 
HETATM   28  S2  UNL     1      -8.276  -7.655 -22.529  1.00  0.00    -0.059 SA
BRANCH  27  29
HETATM   29  S1  UNL     1     -11.402  -7.254 -22.369  1.00  0.00     0.146 S 
HETATM   30  O5  UNL     1     -12.446  -7.889 -23.206  1.00  0.00    -0.591 OA
HETATM   31  O6  UNL     1     -11.163  -5.819 -22.770  1.00  0.00    -0.591 OA
HETATM   32  O7  UNL     1     -11.894  -7.348 -20.767  1.00  0.00    -0.591 OA
ENDBRANCH  27  29
ENDBRANCH  18  23
ENDBRANCH  17  18
ENDBRANCH  15  17
ENDBRANCH   9  13
ENDBRANCH   6   9
BRANCH   1  33
HETATM   33  C3  UNL     1      -2.202  -4.116 -29.618  1.00  0.00     0.067 C 
HETATM   34  C4  UNL     1      -2.012  -4.502 -30.850  1.00  0.00     0.079 C 
BRANCH  33  35
HETATM   35  C2  UNL     1      -1.880  -2.739 -29.198  1.00  0.00     0.138 C 
HETATM   36  C1  UNL     1      -1.239  -2.739 -27.805  1.00  0.00     0.039 C 
BRANCH  35  37
HETATM   37  N11 UNL     1      -2.993  -1.840 -29.140  1.00  0.00    -0.312 N 
HETATM   38  C16 UNL     1      -3.499  -0.881 -30.056  1.00  0.00     0.245 C 
HETATM   39  O9  UNL     1      -3.420  -0.708 -31.286  1.00  0.00    -0.271 OA
HETATM   40  C17 UNL     1      -4.144  -0.185 -28.975  1.00  0.00     0.133 C 
HETATM   41  C18 UNL     1      -3.473   1.003 -28.378  1.00  0.00     0.045 C 
HETATM   42  S3  UNL     1      -5.695   0.610 -29.203  1.00  0.00    -0.145 SA
HETATM   43  C20 UNL     1      -4.063  -1.469 -28.214  1.00  0.00     0.251 C 
HETATM   44  C19 UNL     1      -4.417   1.892 -29.188  1.00  0.00     0.077 C 
BRANCH  43  45
HETATM   45  O10 UNL     1      -5.212  -2.210 -28.274  1.00  0.00    -0.374 OA
ATOM     46  H10 UNL     1      -5.120  -3.149 -28.158  1.00  0.00     0.212 HD
ENDBRANCH  43  45
ENDBRANCH  35  37
ENDBRANCH  33  35
BRANCH  34  47
HETATM   47  C5  UNL     1      -1.490  -3.676 -31.906  1.00  0.00     0.125 A 
HETATM   48  N1  UNL     1      -0.282  -3.275 -32.270  1.00  0.00    -0.281 N 
HETATM   49  N2  UNL     1      -0.292  -2.520 -33.333  1.00  0.00    -0.250 N 
ATOM     50  H1  UNL     1       0.569  -3.530 -31.771  1.00  0.00     0.188 HD
HETATM   51  C6  UNL     1      -1.583  -2.418 -33.688  1.00  0.00     0.340 A 
ATOM     52  H2  UNL     1       0.511  -2.096 -33.796  1.00  0.00     0.192 HD
HETATM   53  O1  UNL     1      -2.057  -1.770 -34.676  1.00  0.00    -0.245 OA
HETATM   54  N3  UNL     1      -2.330  -3.110 -32.837  1.00  0.00    -0.292 N 
ATOM     55  H3  UNL     1      -3.345  -3.206 -32.868  1.00  0.00     0.172 HD
ENDBRANCH  34  47
ENDBRANCH   1  33
TORSDOF 13
ENDMDL
MODEL 3
REMARK VINA RESULT: -8.349991252      2.586      3.800
REMARK  13 active torsions:
REMARK  status: ('A' for Active; 'I' for Inactive)
REMARK    1  A    between atoms: C2_2  and  C3_3 
REMARK    2  A    between atoms: C2_2  and  N11_46 
REMARK    3  A    between atoms: C3_3  and  N4_14 
REMARK    4  A    between atoms: C4_4  and  C5_5 
REMARK    5  A    between atoms: N7_19  and  C7_20 
REMARK    6  A    between atoms: C7_20  and  C8_21 
REMARK    7  A    between atoms: C7_20  and  C9_24 
REMARK       I    between atoms: C9_24  and  N8_26 
REMARK    8  A    between atoms: N8_26  and  C10_28 
REMARK    9  A    between atoms: C10_28  and  C11_29 
REMARK   10  A    between atoms: C11_29  and  N9_30 
REMARK   11  A    between atoms: C11_29  and  C12_34 
REMARK   12  A    between atoms: C14_38  and  S1_39 
REMARK   13  A    between atoms: C20_53  and  O10_54 
ROOT
HETATM    1  N4  UNL     1      -3.020  -5.655 -28.683  1.00  0.00    -0.190 N 
HETATM    2  N5  UNL     1      -2.516  -6.829 -28.270  1.00  0.00    -0.217 N 
ATOM      3  H5  UNL     1      -1.589  -7.182 -28.509  1.00  0.00     0.210 HD
HETATM    4  N6  UNL     1      -3.389  -7.459 -27.514  1.00  0.00    -0.220 N 
ATOM      5  H6  UNL     1      -3.243  -8.370 -27.079  1.00  0.00     0.210 HD
HETATM    6  N7  UNL     1      -4.480  -6.731 -27.407  1.00  0.00    -0.201 N 
HETATM    7  C15 UNL     1      -4.233  -5.606 -28.144  1.00  0.00     0.366 A 
HETATM    8  O8  UNL     1      -5.102  -4.696 -28.240  1.00  0.00    -0.243 OA
ENDROOT
BRANCH   6   9
HETATM    9  C7  UNL     1      -5.701  -7.048 -26.658  1.00  0.00     0.306 C 
BRANCH   9  10
HETATM   10  C8  UNL     1      -6.409  -8.072 -27.439  1.00  0.00     0.208 C 
HETATM   11  O2  UNL     1      -6.005  -9.247 -27.464  1.00  0.00    -0.646 OA
HETATM   12  O3  UNL     1      -7.538  -7.731 -28.156  1.00  0.00    -0.646 OA
ENDBRANCH   9  10
BRANCH   9  13
HETATM   13  C9  UNL     1      -5.326  -7.535 -25.317  1.00  0.00     0.253 C 
HETATM   14  O4  UNL     1      -4.376  -7.006 -24.654  1.00  0.00    -0.271 OA
HETATM   15  N8  UNL     1      -6.022  -8.617 -24.720  1.00  0.00    -0.356 N 
ATOM     16  H8  UNL     1      -6.789  -9.069 -25.218  1.00  0.00     0.162 HD
BRANCH  15  17
HETATM   17  C10 UNL     1      -5.642  -9.078 -23.403  1.00  0.00     0.162 C 
BRANCH  17  18
HETATM   18  C11 UNL     1      -6.550 -10.186 -22.918  1.00  0.00     0.257 C 
BRANCH  18  19
HETATM   19  N9  UNL     1      -6.168 -10.638 -21.614  1.00  0.00    -0.068 N 
ATOM     20  H93 UNL     1      -5.195 -10.411 -21.409  1.00  0.00     0.275 HD
ATOM     21  H92 UNL     1      -6.615 -10.088 -20.881  1.00  0.00     0.275 HD
ATOM     22  H91 UNL     1      -6.352 -11.635 -21.499  1.00  0.00     0.275 HD
ENDBRANCH  18  19
BRANCH  18  23
HETATM   23  C12 UNL     1      -7.947  -9.616 -22.918  1.00  0.00     0.084 A 
HETATM   24  N10 UNL     1      -9.032 -10.087 -23.516  1.00  0.00    -0.360 N 
HETATM   25  C13 UNL     1     -10.153  -9.456 -23.404  1.00  0.00     0.122 A 
ATOM     26  H10 UNL     1      -8.982 -10.947 -24.063  1.00  0.00     0.165 HD
HETATM   27  C14 UNL     1     -10.170  -8.306 -22.659  1.00  0.00     0.138 A 
HETATM   28  S2  UNL     1      -8.540  -8.201 -22.154  1.00  0.00    -0.059 SA
BRANCH  27  29
HETATM   29  S1  UNL     1     -11.540  -7.239 -22.331  1.00  0.00     0.146 S 
HETATM   30  O5  UNL     1     -12.701  -7.751 -23.093  1.00  0.00    -0.591 OA
HETATM   31  O6  UNL     1     -11.176  -5.835 -22.748  1.00  0.00    -0.591 OA
HETATM   32  O7  UNL     1     -11.927  -7.290 -20.699  1.00  0.00    -0.591 OA
ENDBRANCH  27  29
ENDBRANCH  18  23
ENDBRANCH  17  18
ENDBRANCH  15  17
ENDBRANCH   9  13
ENDBRANCH   6   9
BRANCH   1  33
HETATM   33  C3  UNL     1      -2.305  -4.713 -29.524  1.00  0.00     0.067 C 
HETATM   34  C4  UNL     1      -2.282  -4.890 -30.817  1.00  0.00     0.079 C 
BRANCH  33  35
HETATM   35  C2  UNL     1      -1.615  -3.566 -28.905  1.00  0.00     0.138 C 
HETATM   36  C1  UNL     1      -0.934  -3.990 -27.598  1.00  0.00     0.039 C 
BRANCH  35  37
HETATM   37  N11 UNL     1      -2.449  -2.446 -28.590  1.00  0.00    -0.312 N 
HETATM   38  C16 UNL     1      -3.006  -1.412 -29.387  1.00  0.00     0.245 C 
HETATM   39  O9  UNL     1      -3.275  -1.276 -30.595  1.00  0.00    -0.271 OA
HETATM   40  C17 UNL     1      -3.132  -0.578 -28.222  1.00  0.00     0.133 C 
HETATM   41  C18 UNL     1      -2.085   0.443 -27.946  1.00  0.00     0.045 C 
HETATM   42  S3  UNL     1      -4.484   0.532 -28.041  1.00  0.00    -0.145 SA
HETATM   43  C20 UNL     1      -3.085  -1.839 -27.421  1.00  0.00     0.251 C 
HETATM   44  C19 UNL     1      -3.031   1.505 -28.506  1.00  0.00     0.077 C 
BRANCH  43  45
HETATM   45  O10 UNL     1      -4.322  -2.314 -27.078  1.00  0.00    -0.374 OA
ATOM     46  H10 UNL     1      -4.375  -3.232 -26.839  1.00  0.00     0.212 HD
ENDBRANCH  43  45
ENDBRANCH  35  37
ENDBRANCH  33  35
BRANCH  34  47
HETATM   47  C5  UNL     1      -1.614  -4.031 -31.758  1.00  0.00     0.125 A 
HETATM   48  N1  UNL     1      -0.352  -3.740 -32.028  1.00  0.00    -0.281 N 
HETATM   49  N2  UNL     1      -0.219  -2.890 -33.006  1.00  0.00    -0.250 N 
ATOM     50  H1  UNL     1       0.437  -4.140 -31.521  1.00  0.00     0.188 HD
HETATM   51  C6  UNL     1      -1.469  -2.604 -33.404  1.00  0.00     0.340 A 
ATOM     52  H2  UNL     1       0.650  -2.520 -33.389  1.00  0.00     0.192 HD
HETATM   53  O1  UNL     1      -1.813  -1.812 -34.339  1.00  0.00    -0.245 OA
HETATM   54  N3  UNL     1      -2.334  -3.284 -32.662  1.00  0.00    -0.292 N 
ATOM     55  H3  UNL     1      -3.350  -3.257 -32.746  1.00  0.00     0.172 HD
ENDBRANCH  34  47
ENDBRANCH   1  33
TORSDOF 13
ENDMDL
MODEL 4
REMARK VINA RESULT: -8.340872513      2.694      3.893
REMARK  13 active torsions:
REMARK  status: ('A' for Active; 'I' for Inactive)
REMARK    1  A    between atoms: C2_2  and  C3_3 
REMARK    2  A    between atoms: C2_2  and  N11_46 
REMARK    3  A    between atoms: C3_3  and  N4_14 
REMARK    4  A    between atoms: C4_4  and  C5_5 
REMARK    5  A    between atoms: N7_19  and  C7_20 
REMARK    6  A    between atoms: C7_20  and  C8_21 
REMARK    7  A    between atoms: C7_20  and  C9_24 
REMARK       I    between atoms: C9_24  and  N8_26 
REMARK    8  A    between atoms: N8_26  and  C10_28 
REMARK    9  A    between atoms: C10_28  and  C11_29 
REMARK   10  A    between atoms: C11_29  and  N9_30 
REMARK   11  A    between atoms: C11_29  and  C12_34 
REMARK   12  A    between atoms: C14_38  and  S1_39 
REMARK   13  A    between atoms: C20_53  and  O10_54 
ROOT
HETATM    1  N4  UNL     1      -3.541  -6.235 -28.424  1.00  0.00    -0.190 N 
HETATM    2  N5  UNL     1      -3.132  -7.218 -27.607  1.00  0.00    -0.217 N 
ATOM      3  H5  UNL     1      -2.159  -7.406 -27.362  1.00  0.00     0.210 HD
HETATM    4  N6  UNL     1      -4.164  -7.905 -27.167  1.00  0.00    -0.220 N 
ATOM      5  H6  UNL     1      -4.115  -8.702 -26.533  1.00  0.00     0.210 HD
HETATM    6  N7  UNL     1      -5.270  -7.403 -27.674  1.00  0.00    -0.201 N 
HETATM    7  C15 UNL     1      -4.863  -6.359 -28.458  1.00  0.00     0.366 A 
HETATM    8  O8  UNL     1      -5.704  -5.663 -29.091  1.00  0.00    -0.243 OA
ENDROOT
BRANCH   6   9
HETATM    9  C7  UNL     1      -6.647  -7.858 -27.450  1.00  0.00     0.306 C 
BRANCH   9  10
HETATM   10  C8  UNL     1      -6.804  -9.095 -28.225  1.00  0.00     0.208 C 
HETATM   11  O2  UNL     1      -6.341 -10.171 -27.810  1.00  0.00    -0.646 OA
HETATM   12  O3  UNL     1      -7.472  -9.072 -29.433  1.00  0.00    -0.646 OA
ENDBRANCH   9  10
BRANCH   9  13
HETATM   13  C9  UNL     1      -6.848  -8.079 -26.006  1.00  0.00     0.253 C 
HETATM   14  O4  UNL     1      -6.342  -7.303 -25.132  1.00  0.00    -0.271 OA
HETATM   15  N8  UNL     1      -7.622  -9.174 -25.544  1.00  0.00    -0.356 N 
ATOM     16  H8  UNL     1      -8.044  -9.820 -26.210  1.00  0.00     0.162 HD
BRANCH  15  17
HETATM   17  C10 UNL     1      -7.810  -9.373 -24.124  1.00  0.00     0.162 C 
BRANCH  17  18
HETATM   18  C11 UNL     1      -9.208  -9.858 -23.811  1.00  0.00     0.257 C 
BRANCH  18  19
HETATM   19  N9  UNL     1      -9.180 -11.102 -23.102  1.00  0.00    -0.068 N 
ATOM     20  H93 UNL     1     -10.068 -11.598 -23.181  1.00  0.00     0.275 HD
ATOM     21  H92 UNL     1      -8.579 -11.783 -23.564  1.00  0.00     0.275 HD
ATOM     22  H91 UNL     1      -8.913 -10.967 -22.127  1.00  0.00     0.275 HD
ENDBRANCH  18  19
BRANCH  18  23
HETATM   23  C12 UNL     1      -9.859  -8.770 -22.993  1.00  0.00     0.084 A 
HETATM   24  N10 UNL     1     -11.148  -8.576 -22.751  1.00  0.00    -0.360 N 
HETATM   25  C13 UNL     1     -11.521  -7.578 -22.022  1.00  0.00     0.122 A 
ATOM     26  H10 UNL     1     -11.842  -9.214 -23.140  1.00  0.00     0.165 HD
HETATM   27  C14 UNL     1     -10.551  -6.750 -21.522  1.00  0.00     0.138 A 
HETATM   28  S2  UNL     1      -9.132  -7.471 -22.143  1.00  0.00    -0.059 SA
BRANCH  27  29
HETATM   29  S1  UNL     1     -10.756  -5.319 -20.505  1.00  0.00     0.146 S 
HETATM   30  O5  UNL     1     -11.651  -5.689 -19.385  1.00  0.00    -0.591 OA
HETATM   31  O6  UNL     1     -11.340  -4.206 -21.339  1.00  0.00    -0.591 OA
HETATM   32  O7  UNL     1      -9.277  -4.860 -19.858  1.00  0.00    -0.591 OA
ENDBRANCH  27  29
ENDBRANCH  18  23
ENDBRANCH  17  18
ENDBRANCH  15  17
ENDBRANCH   9  13
ENDBRANCH   6   9
BRANCH   1  33
HETATM   33  C3  UNL     1      -2.649  -5.288 -29.068  1.00  0.00     0.067 C 
HETATM   34  C4  UNL     1      -2.213  -5.530 -30.274  1.00  0.00     0.079 C 
BRANCH  33  35
HETATM   35  C2  UNL     1      -2.250  -4.063 -28.350  1.00  0.00     0.138 C 
HETATM   36  C1  UNL     1      -1.996  -4.368 -26.868  1.00  0.00     0.039 C 
BRANCH  35  37
HETATM   37  N11 UNL     1      -3.197  -2.991 -28.393  1.00  0.00    -0.312 N 
HETATM   38  C16 UNL     1      -3.345  -1.877 -29.260  1.00  0.00     0.245 C 
HETATM   39  O9  UNL     1      -2.983  -1.608 -30.421  1.00  0.00    -0.271 OA
HETATM   40  C17 UNL     1      -4.087  -1.180 -28.244  1.00  0.00     0.133 C 
HETATM   41  C18 UNL     1      -3.382  -0.190 -27.384  1.00  0.00     0.045 C 
HETATM   42  S3  UNL     1      -5.414  -0.106 -28.664  1.00  0.00    -0.145 SA
HETATM   43  C20 UNL     1      -4.368  -2.523 -27.651  1.00  0.00     0.251 C 
HETATM   44  C19 UNL     1      -3.986   0.922 -28.241  1.00  0.00     0.077 C 
BRANCH  43  45
HETATM   45  O10 UNL     1      -5.579  -3.041 -28.024  1.00  0.00    -0.374 OA
ATOM     46  H10 UNL     1      -5.762  -3.933 -27.753  1.00  0.00     0.212 HD
ENDBRANCH  43  45
ENDBRANCH  35  37
ENDBRANCH  33  35
BRANCH  34  47
HETATM   47  C5  UNL     1      -1.331  -4.675 -31.022  1.00  0.00     0.125 A 
HETATM   48  N1  UNL     1      -0.034  -4.413 -30.994  1.00  0.00    -0.281 N 
HETATM   49  N2  UNL     1       0.335  -3.552 -31.899  1.00  0.00    -0.250 N 
ATOM     50  H1  UNL     1       0.611  -4.843 -30.331  1.00  0.00     0.188 HD
HETATM   51  C6  UNL     1      -0.786  -3.226 -32.562  1.00  0.00     0.340 A 
ATOM     52  H2  UNL     1       1.277  -3.199 -32.068  1.00  0.00     0.192 HD
HETATM   53  O1  UNL     1      -0.892  -2.410 -33.534  1.00  0.00    -0.245 OA
HETATM   54  N3  UNL     1      -1.811  -3.894 -32.049  1.00  0.00    -0.292 N 
ATOM     55  H3  UNL     1      -2.781  -3.838 -32.359  1.00  0.00     0.172 HD
ENDBRANCH  34  47
ENDBRANCH   1  33
TORSDOF 13
ENDMDL
MODEL 5
REMARK VINA RESULT: -8.234808965      2.970      8.949
REMARK  13 active torsions:
REMARK  status: ('A' for Active; 'I' for Inactive)
REMARK    1  A    between atoms: C2_2  and  C3_3 
REMARK    2  A    between atoms: C2_2  and  N11_46 
REMARK    3  A    between atoms: C3_3  and  N4_14 
REMARK    4  A    between atoms: C4_4  and  C5_5 
REMARK    5  A    between atoms: N7_19  and  C7_20 
REMARK    6  A    between atoms: C7_20  and  C8_21 
REMARK    7  A    between atoms: C7_20  and  C9_24 
REMARK       I    between atoms: C9_24  and  N8_26 
REMARK    8  A    between atoms: N8_26  and  C10_28 
REMARK    9  A    between atoms: C10_28  and  C11_29 
REMARK   10  A    between atoms: C11_29  and  N9_30 
REMARK   11  A    between atoms: C11_29  and  C12_34 
REMARK   12  A    between atoms: C14_38  and  S1_39 
REMARK   13  A    between atoms: C20_53  and  O10_54 
ROOT
HETATM    1  N4  UNL     1      -8.288  -6.313 -25.016  1.00  0.00    -0.190 N 
HETATM    2  N5  UNL     1      -8.361  -5.304 -25.899  1.00  0.00    -0.217 N 
ATOM      3  H5  UNL     1      -8.839  -4.418 -25.734  1.00  0.00     0.210 HD
HETATM    4  N6  UNL     1      -7.728  -5.622 -27.007  1.00  0.00    -0.220 N 
ATOM      5  H6  UNL     1      -7.640  -5.024 -27.829  1.00  0.00     0.210 HD
HETATM    6  N7  UNL     1      -7.225  -6.833 -26.892  1.00  0.00    -0.201 N 
HETATM    7  C15 UNL     1      -7.585  -7.252 -25.640  1.00  0.00     0.366 A 
HETATM    8  O8  UNL     1      -7.247  -8.393 -25.221  1.00  0.00    -0.243 OA
ENDROOT
BRANCH   6   9
HETATM    9  C7  UNL     1      -6.445  -7.580 -27.885  1.00  0.00     0.306 C 
BRANCH   9  10
HETATM   10  C8  UNL     1      -7.365  -7.885 -28.988  1.00  0.00     0.208 C 
HETATM   11  O2  UNL     1      -7.344  -8.994 -29.548  1.00  0.00    -0.646 OA
HETATM   12  O3  UNL     1      -8.270  -6.932 -29.413  1.00  0.00    -0.646 OA
ENDBRANCH   9  10
BRANCH   9  13
HETATM   13  C9  UNL     1      -5.310  -6.747 -28.324  1.00  0.00     0.253 C 
HETATM   14  O4  UNL     1      -4.912  -5.745 -27.646  1.00  0.00    -0.271 OA
HETATM   15  N8  UNL     1      -4.620  -7.043 -29.528  1.00  0.00    -0.356 N 
ATOM     16  H8  UNL     1      -4.908  -7.836 -30.101  1.00  0.00     0.162 HD
BRANCH  15  17
HETATM   17  C10 UNL     1      -3.507  -6.217 -29.941  1.00  0.00     0.162 C 
BRANCH  17  18
HETATM   18  C11 UNL     1      -2.196  -6.965 -29.850  1.00  0.00     0.257 C 
BRANCH  18  19
HETATM   19  N9  UNL     1      -1.428  -6.815 -31.050  1.00  0.00    -0.068 N 
ATOM     20  H93 UNL     1      -1.349  -7.697 -31.556  1.00  0.00     0.275 HD
ATOM     21  H92 UNL     1      -1.933  -6.277 -31.753  1.00  0.00     0.275 HD
ATOM     22  H91 UNL     1      -0.512  -6.412 -30.856  1.00  0.00     0.275 HD
ENDBRANCH  18  19
BRANCH  18  23
HETATM   23  C12 UNL     1      -1.469  -6.399 -28.655  1.00  0.00     0.084 A 
HETATM   24  N10 UNL     1      -0.730  -5.302 -28.580  1.00  0.00    -0.360 N 
HETATM   25  C13 UNL     1      -0.178  -4.974 -27.459  1.00  0.00     0.122 A 
ATOM     26  H10 UNL     1      -0.597  -4.718 -29.406  1.00  0.00     0.165 HD
HETATM   27  C14 UNL     1      -0.386  -5.791 -26.379  1.00  0.00     0.138 A 
HETATM   28  S2  UNL     1      -1.382  -7.005 -27.054  1.00  0.00    -0.059 SA
BRANCH  27  29
HETATM   29  S1  UNL     1       0.233  -5.603 -24.734  1.00  0.00     0.146 S 
HETATM   30  O5  UNL     1       1.149  -6.736 -24.467  1.00  0.00    -0.591 OA
HETATM   31  O6  UNL     1      -0.930  -5.589 -23.773  1.00  0.00    -0.591 OA
HETATM   32  O7  UNL     1       1.117  -4.182 -24.614  1.00  0.00    -0.591 OA
ENDBRANCH  27  29
ENDBRANCH  18  23
ENDBRANCH  17  18
ENDBRANCH  15  17
ENDBRANCH   9  13
ENDBRANCH   6   9
BRANCH   1  33
HETATM   33  C3  UNL     1      -8.874  -6.277 -23.689  1.00  0.00     0.067 C 
HETATM   34  C4  UNL     1     -10.130  -6.592 -23.530  1.00  0.00     0.079 C 
BRANCH  33  35
HETATM   35  C2  UNL     1      -8.040  -5.887 -22.537  1.00  0.00     0.138 C 
HETATM   36  C1  UNL     1      -7.541  -4.446 -22.699  1.00  0.00     0.039 C 
BRANCH  35  37
HETATM   37  N11 UNL     1      -6.884  -6.701 -22.314  1.00  0.00    -0.312 N 
HETATM   38  C16 UNL     1      -6.720  -8.014 -21.802  1.00  0.00     0.245 C 
HETATM   39  O9  UNL     1      -7.449  -9.018 -21.697  1.00  0.00    -0.271 OA
HETATM   40  C17 UNL     1      -5.359  -7.711 -21.450  1.00  0.00     0.133 C 
HETATM   41  C18 UNL     1      -5.044  -7.318 -20.048  1.00  0.00     0.045 C 
HETATM   42  S3  UNL     1      -4.099  -8.933 -21.556  1.00  0.00    -0.145 SA
HETATM   43  C20 UNL     1      -5.431  -6.617 -22.466  1.00  0.00     0.251 C 
HETATM   44  C19 UNL     1      -4.531  -8.738 -19.809  1.00  0.00     0.077 C 
BRANCH  43  45
HETATM   45  O10 UNL     1      -4.920  -6.972 -23.685  1.00  0.00    -0.374 OA
ATOM     46  H10 UNL     1      -4.668  -7.881 -23.793  1.00  0.00     0.212 HD
ENDBRANCH  43  45
ENDBRANCH  35  37
ENDBRANCH  33  35
BRANCH  34  47
HETATM   47  C5  UNL     1     -10.830  -6.600 -22.273  1.00  0.00     0.125 A 
HETATM   48  N1  UNL     1     -10.836  -5.824 -21.201  1.00  0.00    -0.281 N 
HETATM   49  N2  UNL     1     -11.666  -6.228 -20.280  1.00  0.00    -0.250 N 
ATOM     50  H1  UNL     1     -10.251  -4.995 -21.104  1.00  0.00     0.188 HD
HETATM   51  C6  UNL     1     -12.239  -7.335 -20.777  1.00  0.00     0.340 A 
ATOM     52  H2  UNL     1     -11.842  -5.794 -19.375  1.00  0.00     0.192 HD
HETATM   53  O1  UNL     1     -13.118  -8.062 -20.211  1.00  0.00    -0.245 OA
HETATM   54  N3  UNL     1     -11.749  -7.583 -21.984  1.00  0.00    -0.292 N 
ATOM     55  H3  UNL     1     -12.006  -8.362 -22.590  1.00  0.00     0.172 HD
ENDBRANCH  34  47
ENDBRANCH   1  33
TORSDOF 13
ENDMDL
