MODEL 1
REMARK VINA RESULT: -8.215346114      0.000      0.000
REMARK  5 active torsions:
REMARK  status: ('A' for Active; 'I' for Inactive)
REMARK    1  A    between atoms: C4_4  and  C6_6 
REMARK    2  A    between atoms: C8_8  and  C9_9 
REMARK    3  A    between atoms: C10_12  and  O1_13 
REMARK    4  A    between atoms: O1_13  and  C11_14 
REMARK    5  A    between atoms: C15_20  and  N2_21 
ROOT
HETATM    1  C6  UNL     1      -4.710   6.538  11.177  1.00  0.00     0.012 A 
HETATM    2  C7  UNL     1      -4.729   5.139  11.175  1.00  0.00     0.046 A 
HETATM    3  C8  UNL     1      -3.848   4.402  11.914  1.00  0.00     0.077 A 
HETATM    4  N4  UNL     1      -2.921   5.002  12.678  1.00  0.00    -0.360 N 
ATOM      5  H4  UNL     1      -2.265   4.448  13.228  1.00  0.00     0.165 HD
HETATM    6  C16 UNL     1      -2.872   6.342  12.705  1.00  0.00     0.131 A 
HETATM    7  C17 UNL     1      -3.759   7.123  11.962  1.00  0.00     0.140 A 
HETATM    8  F2  UNL     1      -3.660   8.464  12.043  1.00  0.00    -0.204 F 
ENDROOT
BRANCH   3   9
HETATM    9  C9  UNL     1      -3.870   2.915  11.911  1.00  0.00     0.136 A 
HETATM   10  N1  UNL     1      -4.269   2.254  12.987  1.00  0.00    -0.320 N 
HETATM   11  C10 UNL     1      -4.337   0.895  13.118  1.00  0.00     0.170 A 
ATOM     12  H1  UNL     1      -4.551   2.810  13.793  1.00  0.00     0.169 HD
HETATM   13  C14 UNL     1      -3.947   0.178  12.006  1.00  0.00     0.128 A 
HETATM   14 CL1  UNL     1      -3.950  -1.553  11.940  1.00  0.00    -0.076 Cl
HETATM   15  C15 UNL     1      -3.530   0.870  10.881  1.00  0.00     0.127 A 
HETATM   16  N3  UNL     1      -3.490   2.222  10.828  1.00  0.00    -0.326 N 
ATOM     17  H3  UNL     1      -3.178   2.702   9.984  1.00  0.00     0.169 HD
BRANCH  11  18
HETATM   18  O1  UNL     1      -4.760   0.371  14.267  1.00  0.00    -0.326 OA
BRANCH  18  19
HETATM   19  C11 UNL     1      -4.492   0.359  15.593  1.00  0.00     0.167 A 
HETATM   20  C12 UNL     1      -4.310   1.638  16.371  1.00  0.00     0.075 A 
HETATM   21  C13 UNL     1      -5.580   0.902  16.558  1.00  0.00     0.202 A 
HETATM   22  F1  UNL     1      -5.791   0.263  17.738  1.00  0.00    -0.247 F 
ENDBRANCH  18  19
ENDBRANCH  11  18
BRANCH  15  23
HETATM   23  N2  UNL     1      -3.170   0.184   9.852  1.00  0.00    -0.384 N 
ATOM     24  H22 UNL     1      -3.424  -0.802   9.792  1.00  0.00     0.157 HD
ATOM     25  H21 UNL     1      -2.635   0.661   9.126  1.00  0.00     0.157 HD
ENDBRANCH  15  23
ENDBRANCH   3   9
BRANCH   1  26
HETATM   26  C4  UNL     1      -5.634   7.361  10.385  1.00  0.00     0.062 C 
HETATM   27  C3  UNL     1      -4.902   8.381   9.565  1.00  0.00     0.068 C 
HETATM   28  C2  UNL     1      -5.809   9.032   8.539  1.00  0.00     0.130 C 
HETATM   29  C1  UNL     1      -5.017  10.050   7.749  1.00  0.00     0.040 C 
HETATM   30  O2  UNL     1      -6.335   8.057   7.646  1.00  0.00    -0.317 OA
HETATM   31  C18 UNL     1      -6.390   6.732   8.087  1.00  0.00     0.213 C 
HETATM   32  N5  UNL     1      -6.366   6.501   9.476  1.00  0.00    -0.343 N 
HETATM   33  N6  UNL     1      -6.457   5.819   7.187  1.00  0.00    -0.365 N 
ATOM     34  H5  UNL     1      -6.880   5.704   9.854  1.00  0.00     0.164 HD
ATOM     35  H62 UNL     1      -6.496   4.852   7.509  1.00  0.00     0.159 HD
ATOM     36  H61 UNL     1      -6.473   5.987   6.181  1.00  0.00     0.159 HD
HETATM   37  C5  UNL     1      -6.684   7.998  11.280  1.00  0.00     0.044 C 
ENDBRANCH   1  26
TORSDOF 5
ENDMDL
MODEL 2
REMARK VINA RESULT: -8.008799462      4.894      7.985
REMARK  5 active torsions:
REMARK  status: ('A' for Active; 'I' for Inactive)
REMARK    1  A    between atoms: C4_4  and  C6_6 
REMARK    2  A    between atoms: C8_8  and  C9_9 
REMARK    3  A    between atoms: C10_12  and  O1_13 
REMARK    4  A    between atoms: O1_13  and  C11_14 
REMARK    5  A    between atoms: C15_20  and  N2_21 
ROOT
HETATM    1  C6  UNL     1      -3.261   3.076  12.445  1.00  0.00     0.012 A 
HETATM    2  C7  UNL     1      -2.032   3.163  11.781  1.00  0.00     0.046 A 
HETATM    3  C8  UNL     1      -1.244   4.276  11.859  1.00  0.00     0.077 A 
HETATM    4  N4  UNL     1      -1.625   5.338  12.585  1.00  0.00    -0.360 N 
ATOM      5  H4  UNL     1      -1.033   6.167  12.641  1.00  0.00     0.165 HD
HETATM    6  C16 UNL     1      -2.797   5.292  13.237  1.00  0.00     0.131 A 
HETATM    7  C17 UNL     1      -3.624   4.169  13.177  1.00  0.00     0.140 A 
HETATM    8  F2  UNL     1      -4.782   4.186  13.864  1.00  0.00    -0.204 F 
ENDROOT
BRANCH   3   9
HETATM    9  C9  UNL     1       0.062   4.366  11.152  1.00  0.00     0.136 A 
HETATM   10  N1  UNL     1       1.188   4.445  11.843  1.00  0.00    -0.320 N 
HETATM   11  C10 UNL     1       2.449   4.533  11.322  1.00  0.00     0.170 A 
ATOM     12  H1  UNL     1       1.108   4.440  12.860  1.00  0.00     0.169 HD
HETATM   13  C14 UNL     1       2.514   4.536   9.944  1.00  0.00     0.128 A 
HETATM   14 CL1  UNL     1       4.003   4.638   9.063  1.00  0.00    -0.076 Cl
HETATM   15  C15 UNL     1       1.336   4.453   9.221  1.00  0.00     0.127 A 
HETATM   16  N3  UNL     1       0.122   4.369   9.812  1.00  0.00    -0.326 N 
ATOM     17  H3  UNL     1      -0.728   4.309   9.252  1.00  0.00     0.169 HD
BRANCH  11  18
HETATM   18  O1  UNL     1       3.492   4.606  12.146  1.00  0.00    -0.326 OA
BRANCH  18  19
HETATM   19  C11 UNL     1       4.441   5.465  12.588  1.00  0.00     0.167 A 
HETATM   20  C12 UNL     1       4.576   6.852  12.013  1.00  0.00     0.075 A 
HETATM   21  C13 UNL     1       3.973   6.729  13.358  1.00  0.00     0.202 A 
HETATM   22  F1  UNL     1       4.692   7.148  14.432  1.00  0.00    -0.247 F 
ENDBRANCH  18  19
ENDBRANCH  11  18
BRANCH  15  23
HETATM   23  N2  UNL     1       1.417   4.457   7.936  1.00  0.00    -0.384 N 
ATOM     24  H22 UNL     1       2.335   4.431   7.491  1.00  0.00     0.157 HD
ATOM     25  H21 UNL     1       0.547   4.487   7.405  1.00  0.00     0.157 HD
ENDBRANCH  15  23
ENDBRANCH   3   9
BRANCH   1  26
HETATM   26  C4  UNL     1      -4.139   1.901  12.372  1.00  0.00     0.062 C 
HETATM   27  C3  UNL     1      -3.399   0.684  11.903  1.00  0.00     0.068 C 
HETATM   28  C2  UNL     1      -4.215  -0.579  12.099  1.00  0.00     0.130 C 
HETATM   29  C1  UNL     1      -3.419  -1.766  11.605  1.00  0.00     0.040 C 
HETATM   30  O2  UNL     1      -4.524  -0.766  13.476  1.00  0.00    -0.317 OA
HETATM   31  C18 UNL     1      -4.516   0.360  14.304  1.00  0.00     0.213 C 
HETATM   32  N5  UNL     1      -4.660   1.622  13.697  1.00  0.00    -0.343 N 
HETATM   33  N6  UNL     1      -4.377   0.158  15.563  1.00  0.00    -0.365 N 
ATOM     34  H5  UNL     1      -5.146   2.363  14.204  1.00  0.00     0.164 HD
ATOM     35  H62 UNL     1      -4.371   0.979  16.168  1.00  0.00     0.159 HD
ATOM     36  H61 UNL     1      -4.273  -0.757  16.003  1.00  0.00     0.159 HD
HETATM   37  C5  UNL     1      -5.355   2.196  11.509  1.00  0.00     0.044 C 
ENDBRANCH   1  26
TORSDOF 5
ENDMDL
MODEL 3
REMARK VINA RESULT: -7.941188839      3.355      3.977
REMARK  5 active torsions:
REMARK  status: ('A' for Active; 'I' for Inactive)
REMARK    1  A    between atoms: C4_4  and  C6_6 
REMARK    2  A    between atoms: C8_8  and  C9_9 
REMARK    3  A    between atoms: C10_12  and  O1_13 
REMARK    4  A    between atoms: O1_13  and  C11_14 
REMARK    5  A    between atoms: C15_20  and  N2_21 
ROOT
HETATM    1  C6  UNL     1      -1.908   6.134  12.644  1.00  0.00     0.012 A 
HETATM    2  C7  UNL     1      -2.537   4.884  12.613  1.00  0.00     0.046 A 
HETATM    3  C8  UNL     1      -2.025   3.833  11.907  1.00  0.00     0.077 A 
HETATM    4  N4  UNL     1      -0.885   3.964  11.209  1.00  0.00    -0.360 N 
ATOM      5  H4  UNL     1      -0.506   3.176  10.683  1.00  0.00     0.165 HD
HETATM    6  C16 UNL     1      -0.254   5.148  11.214  1.00  0.00     0.131 A 
HETATM    7  C17 UNL     1      -0.752   6.240  11.926  1.00  0.00     0.140 A 
HETATM    8  F2  UNL     1      -0.062   7.396  11.897  1.00  0.00    -0.204 F 
ENDROOT
BRANCH   3   9
HETATM    9  C9  UNL     1      -2.694   2.505  11.875  1.00  0.00     0.136 A 
HETATM   10  N1  UNL     1      -3.389   2.086  12.922  1.00  0.00    -0.320 N 
HETATM   11  C10 UNL     1      -4.050   0.894  13.025  1.00  0.00     0.170 A 
ATOM     12  H1  UNL     1      -3.436   2.711  13.726  1.00  0.00     0.169 HD
HETATM   13  C14 UNL     1      -3.963   0.078  11.916  1.00  0.00     0.128 A 
HETATM   14 CL1  UNL     1      -4.719  -1.478  11.818  1.00  0.00    -0.076 Cl
HETATM   15  C15 UNL     1      -3.236   0.516  10.822  1.00  0.00     0.127 A 
HETATM   16  N3  UNL     1      -2.607   1.714  10.796  1.00  0.00    -0.326 N 
ATOM     17  H3  UNL     1      -2.079   2.009   9.975  1.00  0.00     0.169 HD
BRANCH  11  18
HETATM   18  O1  UNL     1      -4.711   0.609  14.145  1.00  0.00    -0.326 OA
BRANCH  18  19
HETATM   19  C11 UNL     1      -4.521   0.407  15.470  1.00  0.00     0.167 A 
HETATM   20  C12 UNL     1      -4.303   1.558  16.419  1.00  0.00     0.075 A 
HETATM   21  C13 UNL     1      -5.626   0.896  16.445  1.00  0.00     0.202 A 
HETATM   22  F1  UNL     1      -5.945   0.126  17.517  1.00  0.00    -0.247 F 
ENDBRANCH  18  19
ENDBRANCH  11  18
BRANCH  15  23
HETATM   23  N2  UNL     1      -3.165  -0.259   9.797  1.00  0.00    -0.384 N 
ATOM     24  H22 UNL     1      -2.557  -1.078   9.827  1.00  0.00     0.157 HD
ATOM     25  H21 UNL     1      -3.729  -0.021   8.980  1.00  0.00     0.157 HD
ENDBRANCH  15  23
ENDBRANCH   3   9
BRANCH   1  26
HETATM   26  C4  UNL     1      -2.438   7.288  13.381  1.00  0.00     0.062 C 
HETATM   27  C3  UNL     1      -1.394   7.914  14.255  1.00  0.00     0.068 C 
HETATM   28  C2  UNL     1      -1.842   9.260  14.790  1.00  0.00     0.130 C 
HETATM   29  C1  UNL     1      -0.751   9.836  15.665  1.00  0.00     0.040 C 
HETATM   30  O2  UNL     1      -2.106  10.161  13.720  1.00  0.00    -0.317 OA
HETATM   31  C18 UNL     1      -2.410   9.616  12.470  1.00  0.00     0.213 C 
HETATM   32  N5  UNL     1      -2.881   8.289  12.429  1.00  0.00    -0.343 N 
HETATM   33  N6  UNL     1      -2.236  10.369  11.446  1.00  0.00    -0.365 N 
ATOM     34  H5  UNL     1      -3.553   8.024  11.709  1.00  0.00     0.164 HD
ATOM     35  H62 UNL     1      -2.458   9.971  10.533  1.00  0.00     0.159 HD
ATOM     36  H61 UNL     1      -1.895  11.331  11.476  1.00  0.00     0.159 HD
HETATM   37  C5  UNL     1      -3.679   6.896  14.168  1.00  0.00     0.044 C 
ENDBRANCH   1  26
TORSDOF 5
ENDMDL
MODEL 4
REMARK VINA RESULT: -7.921179605      1.386      1.923
REMARK  5 active torsions:
REMARK  status: ('A' for Active; 'I' for Inactive)
REMARK    1  A    between atoms: C4_4  and  C6_6 
REMARK    2  A    between atoms: C8_8  and  C9_9 
REMARK    3  A    between atoms: C10_12  and  O1_13 
REMARK    4  A    between atoms: O1_13  and  C11_14 
REMARK    5  A    between atoms: C15_20  and  N2_21 
ROOT
HETATM    1  C6  UNL     1      -4.014   6.128  10.937  1.00  0.00     0.012 A 
HETATM    2  C7  UNL     1      -4.190   4.742  11.013  1.00  0.00     0.046 A 
HETATM    3  C8  UNL     1      -3.325   3.939  11.701  1.00  0.00     0.077 A 
HETATM    4  N4  UNL     1      -2.263   4.457  12.336  1.00  0.00    -0.360 N 
ATOM      5  H4  UNL     1      -1.619   3.854  12.848  1.00  0.00     0.165 HD
HETATM    6  C16 UNL     1      -2.061   5.783  12.286  1.00  0.00     0.131 A 
HETATM    7  C17 UNL     1      -2.927   6.630  11.592  1.00  0.00     0.140 A 
HETATM    8  F2  UNL     1      -2.670   7.952  11.591  1.00  0.00    -0.204 F 
ENDROOT
BRANCH   3   9
HETATM    9  C9  UNL     1      -3.514   2.466  11.780  1.00  0.00     0.136 A 
HETATM   10  N1  UNL     1      -3.975   1.913  12.893  1.00  0.00    -0.320 N 
HETATM   11  C10 UNL     1      -4.194   0.580  13.099  1.00  0.00     0.170 A 
ATOM     12  H1  UNL     1      -4.185   2.542  13.667  1.00  0.00     0.169 HD
HETATM   13  C14 UNL     1      -3.897  -0.236  12.027  1.00  0.00     0.128 A 
HETATM   14 CL1  UNL     1      -4.096  -1.957  12.057  1.00  0.00    -0.076 Cl
HETATM   15  C15 UNL     1      -3.416   0.342  10.864  1.00  0.00     0.127 A 
HETATM   16  N3  UNL     1      -3.225   1.675  10.737  1.00  0.00    -0.326 N 
ATOM     17  H3  UNL     1      -2.869   2.071   9.866  1.00  0.00     0.169 HD
BRANCH  11  18
HETATM   18  O1  UNL     1      -4.662   0.171  14.276  1.00  0.00    -0.326 OA
BRANCH  18  19
HETATM   19  C11 UNL     1      -4.428   0.267  15.606  1.00  0.00     0.167 A 
HETATM   20  C12 UNL     1      -4.308   1.606  16.289  1.00  0.00     0.075 A 
HETATM   21  C13 UNL     1      -5.558   0.844  16.502  1.00  0.00     0.202 A 
HETATM   22  F1  UNL     1      -5.779   0.287  17.721  1.00  0.00    -0.247 F 
ENDBRANCH  18  19
ENDBRANCH  11  18
BRANCH  15  23
HETATM   23  N2  UNL     1      -3.145  -0.435   9.874  1.00  0.00    -0.384 N 
ATOM     24  H22 UNL     1      -3.224  -1.445   9.992  1.00  0.00     0.157 HD
ATOM     25  H21 UNL     1      -2.856  -0.004   8.996  1.00  0.00     0.157 HD
ENDBRANCH  15  23
ENDBRANCH   3   9
BRANCH   1  26
HETATM   26  C4  UNL     1      -4.916   7.019  10.196  1.00  0.00     0.062 C 
HETATM   27  C3  UNL     1      -5.896   6.248   9.364  1.00  0.00     0.068 C 
HETATM   28  C2  UNL     1      -7.001   7.138   8.830  1.00  0.00     0.130 C 
HETATM   29  C1  UNL     1      -7.953   6.306   7.999  1.00  0.00     0.040 C 
HETATM   30  O2  UNL     1      -7.722   7.738   9.901  1.00  0.00    -0.317 OA
HETATM   31  C18 UNL     1      -7.076   7.859  11.134  1.00  0.00     0.213 C 
HETATM   32  N5  UNL     1      -5.668   7.819  11.144  1.00  0.00    -0.343 N 
HETATM   33  N6  UNL     1      -7.818   7.997  12.172  1.00  0.00    -0.365 N 
ATOM     34  H5  UNL     1      -5.162   8.370  11.838  1.00  0.00     0.164 HD
ATOM     35  H62 UNL     1      -7.346   8.085  13.072  1.00  0.00     0.159 HD
ATOM     36  H61 UNL     1      -8.838   8.026  12.164  1.00  0.00     0.159 HD
HETATM   37  C5  UNL     1      -4.121   8.012   9.364  1.00  0.00     0.044 C 
ENDBRANCH   1  26
TORSDOF 5
ENDMDL
MODEL 5
REMARK VINA RESULT: -7.817781929      4.803      8.222
REMARK  5 active torsions:
REMARK  status: ('A' for Active; 'I' for Inactive)
REMARK    1  A    between atoms: C4_4  and  C6_6 
REMARK    2  A    between atoms: C8_8  and  C9_9 
REMARK    3  A    between atoms: C10_12  and  O1_13 
REMARK    4  A    between atoms: O1_13  and  C11_14 
REMARK    5  A    between atoms: C15_20  and  N2_21 
ROOT
HETATM    1  C6  UNL     1      -3.004   3.243  12.919  1.00  0.00     0.012 A 
HETATM    2  C7  UNL     1      -1.881   3.335  12.090  1.00  0.00     0.046 A 
HETATM    3  C8  UNL     1      -0.961   4.336  12.224  1.00  0.00     0.077 A 
HETATM    4  N4  UNL     1      -1.105   5.280  13.168  1.00  0.00    -0.360 N 
ATOM      5  H4  UNL     1      -0.416   6.026  13.264  1.00  0.00     0.165 HD
HETATM    6  C16 UNL     1      -2.170   5.225  13.982  1.00  0.00     0.131 A 
HETATM    7  C17 UNL     1      -3.127   4.215  13.871  1.00  0.00     0.140 A 
HETATM    8  F2  UNL     1      -4.165   4.215  14.727  1.00  0.00    -0.204 F 
ENDROOT
BRANCH   3   9
HETATM    9  C9  UNL     1       0.232   4.431  11.341  1.00  0.00     0.136 A 
HETATM   10  N1  UNL     1       0.128   4.157  10.050  1.00  0.00    -0.320 N 
HETATM   11  C10 UNL     1       1.140   4.205   9.132  1.00  0.00     0.170 A 
ATOM     12  H1  UNL     1      -0.793   3.886   9.708  1.00  0.00     0.169 HD
HETATM   13  C14 UNL     1       2.370   4.577   9.635  1.00  0.00     0.128 A 
HETATM   14 CL1  UNL     1       3.796   4.706   8.660  1.00  0.00    -0.076 Cl
HETATM   15  C15 UNL     1       2.479   4.863  10.985  1.00  0.00     0.127 A 
HETATM   16  N3  UNL     1       1.426   4.793  11.833  1.00  0.00    -0.326 N 
ATOM     17  H3  UNL     1       1.538   5.010  12.823  1.00  0.00     0.169 HD
BRANCH  11  18
HETATM   18  O1  UNL     1       0.883   3.901   7.862  1.00  0.00    -0.326 OA
BRANCH  18  19
HETATM   19  C11 UNL     1      -0.107   3.933   6.939  1.00  0.00     0.167 A 
HETATM   20  C12 UNL     1      -0.821   5.216   6.595  1.00  0.00     0.075 A 
HETATM   21  C13 UNL     1       0.159   4.699   5.615  1.00  0.00     0.202 A 
HETATM   22  F1  UNL     1      -0.303   4.176   4.449  1.00  0.00    -0.247 F 
ENDBRANCH  18  19
ENDBRANCH  11  18
BRANCH  15  23
HETATM   23  N2  UNL     1       3.634   5.209  11.436  1.00  0.00    -0.384 N 
ATOM     24  H22 UNL     1       4.086   4.637  12.150  1.00  0.00     0.157 HD
ATOM     25  H21 UNL     1       4.060   6.054  11.056  1.00  0.00     0.157 HD
ENDBRANCH  15  23
ENDBRANCH   3   9
BRANCH   1  26
HETATM   26  C4  UNL     1      -4.019   2.189  12.794  1.00  0.00     0.062 C 
HETATM   27  C3  UNL     1      -3.457   0.951  12.163  1.00  0.00     0.068 C 
HETATM   28  C2  UNL     1      -4.405  -0.225  12.292  1.00  0.00     0.130 C 
HETATM   29  C1  UNL     1      -3.785  -1.438  11.634  1.00  0.00     0.040 C 
HETATM   30  O2  UNL     1      -4.656  -0.516  13.663  1.00  0.00    -0.317 OA
HETATM   31  C18 UNL     1      -4.468   0.510  14.591  1.00  0.00     0.213 C 
HETATM   32  N5  UNL     1      -4.494   1.837  14.119  1.00  0.00    -0.343 N 
HETATM   33  N6  UNL     1      -4.283   0.166  15.814  1.00  0.00    -0.365 N 
ATOM     34  H5  UNL     1      -4.859   2.572  14.726  1.00  0.00     0.164 HD
ATOM     35  H62 UNL     1      -4.145   0.916  16.492  1.00  0.00     0.159 HD
ATOM     36  H61 UNL     1      -4.263  -0.795  16.156  1.00  0.00     0.159 HD
HETATM   37  C5  UNL     1      -5.238   2.707  12.047  1.00  0.00     0.044 C 
ENDBRANCH   1  26
TORSDOF 5
ENDMDL
