MODEL 1
REMARK VINA RESULT: -6.730775445      0.000      0.000
REMARK  9 active torsions:
REMARK  status: ('A' for Active; 'I' for Inactive)
REMARK    1  A    between atoms: C2_2  and  O1_3 
REMARK    2  A    between atoms: O1_3  and  C3_4 
REMARK    3  A    between atoms: C3_4  and  C4_6 
REMARK    4  A    between atoms: C5_7  and  N1_8 
REMARK    5  A    between atoms: N1_8  and  N2_10 
REMARK    6  A    between atoms: N3_17  and  C12_18 
REMARK    7  A    between atoms: C12_18  and  N4_20 
REMARK    8  A    between atoms: N4_20  and  C13_22 
REMARK    9  A    between atoms: C16_28  and  N6_29 
ROOT
HETATM    1  C4  UNL     1      -3.995   1.621  12.967  1.00  0.00     0.131 A 
HETATM    2  C5  UNL     1      -3.491   2.901  12.728  1.00  0.00     0.165 A 
HETATM    3  N3  UNL     1      -3.368   3.108  11.381  1.00  0.00    -0.209 N 
HETATM    4  N5  UNL     1      -3.775   2.009  10.785  1.00  0.00    -0.274 N 
ATOM      5  H5  UNL     1      -3.796   1.870   9.775  1.00  0.00     0.189 HD
HETATM    6  C16 UNL     1      -4.162   1.087  11.696  1.00  0.00     0.134 A 
ENDROOT
BRANCH   2   7
HETATM    7  N1  UNL     1      -3.146   3.825  13.744  1.00  0.00    -0.281 N 
ATOM      8  H1  UNL     1      -2.283   3.650  14.260  1.00  0.00     0.189 HD
BRANCH   7   9
HETATM    9  N2  UNL     1      -3.859   4.918  14.092  1.00  0.00    -0.306 N 
HETATM   10  C6  UNL     1      -3.257   6.139  14.388  1.00  0.00     0.083 C 
HETATM   11  C7  UNL     1      -3.878   7.371  13.800  1.00  0.00     0.046 C 
HETATM   12  C8  UNL     1      -5.324   7.567  14.065  1.00  0.00     0.005 C 
HETATM   13  C9  UNL     1      -5.696   6.898  15.358  1.00  0.00     0.002 C 
HETATM   14  C10 UNL     1      -5.914   5.427  15.234  1.00  0.00     0.022 C 
HETATM   15  C11 UNL     1      -5.267   4.827  14.002  1.00  0.00     0.148 C 
ENDBRANCH   7   9
ENDBRANCH   2   7
BRANCH   1  16
HETATM   16  C3  UNL     1      -4.247   0.981  14.248  1.00  0.00     0.301 C 
HETATM   17  O2  UNL     1      -4.546  -0.230  14.345  1.00  0.00    -0.259 OA
BRANCH  16  18
HETATM   18  O1  UNL     1      -4.166   1.684  15.427  1.00  0.00    -0.318 OA
BRANCH  18  19
HETATM   19  C2  UNL     1      -4.806   1.258  16.633  1.00  0.00     0.174 C 
HETATM   20  C1  UNL     1      -6.156   1.988  16.642  1.00  0.00     0.034 C 
ENDBRANCH  18  19
ENDBRANCH  16  18
ENDBRANCH   1  16
BRANCH   3  21
HETATM   21  C12 UNL     1      -2.880   4.313  10.800  1.00  0.00     0.197 C 
HETATM   22  S1  UNL     1      -3.926   5.546  10.450  1.00  0.00    -0.039 SA
BRANCH  21  23
HETATM   23  N4  UNL     1      -1.524   4.516  10.473  1.00  0.00    -0.330 N 
ATOM     24  H4  UNL     1      -1.319   4.709   9.493  1.00  0.00     0.165 HD
BRANCH  23  25
HETATM   25  C13 UNL     1      -0.400   4.482  11.361  1.00  0.00     0.170 C 
HETATM   26  C14 UNL     1      -0.303   5.731  12.221  1.00  0.00     0.076 C 
HETATM   27  C15 UNL     1       0.833   4.602  10.423  1.00  0.00     0.076 C 
HETATM   28  F1  UNL     1      -0.277   3.389  12.141  1.00  0.00    -0.220 F 
ENDBRANCH  23  25
ENDBRANCH  21  23
ENDBRANCH   3  21
BRANCH   6  29
HETATM   29  N6  UNL     1      -4.623  -0.069  11.392  1.00  0.00    -0.383 N 
ATOM     30  H62 UNL     1      -4.224  -0.946  11.726  1.00  0.00     0.157 HD
ATOM     31  H61 UNL     1      -5.412  -0.280  10.782  1.00  0.00     0.157 HD
ENDBRANCH   6  29
TORSDOF 9
ENDMDL
MODEL 2
REMARK VINA RESULT: -6.687014101      0.095      1.184
REMARK  9 active torsions:
REMARK  status: ('A' for Active; 'I' for Inactive)
REMARK    1  A    between atoms: C2_2  and  O1_3 
REMARK    2  A    between atoms: O1_3  and  C3_4 
REMARK    3  A    between atoms: C3_4  and  C4_6 
REMARK    4  A    between atoms: C5_7  and  N1_8 
REMARK    5  A    between atoms: N1_8  and  N2_10 
REMARK    6  A    between atoms: N3_17  and  C12_18 
REMARK    7  A    between atoms: C12_18  and  N4_20 
REMARK    8  A    between atoms: N4_20  and  C13_22 
REMARK    9  A    between atoms: C16_28  and  N6_29 
ROOT
HETATM    1  C4  UNL     1      -3.983   1.602  12.949  1.00  0.00     0.131 A 
HETATM    2  C5  UNL     1      -3.490   2.884  12.697  1.00  0.00     0.165 A 
HETATM    3  N3  UNL     1      -3.349   3.071  11.349  1.00  0.00    -0.209 N 
HETATM    4  N5  UNL     1      -3.734   1.958  10.764  1.00  0.00    -0.274 N 
ATOM      5  H5  UNL     1      -3.738   1.803   9.756  1.00  0.00     0.189 HD
HETATM    6  C16 UNL     1      -4.125   1.047  11.685  1.00  0.00     0.134 A 
ENDROOT
BRANCH   2   7
HETATM    7  N1  UNL     1      -3.171   3.828  13.704  1.00  0.00    -0.281 N 
ATOM      8  H1  UNL     1      -2.319   3.666  14.241  1.00  0.00     0.189 HD
BRANCH   7   9
HETATM    9  N2  UNL     1      -3.896   4.924  14.015  1.00  0.00    -0.306 N 
HETATM   10  C6  UNL     1      -5.287   4.904  14.082  1.00  0.00     0.083 C 
HETATM   11  C7  UNL     1      -5.928   5.595  15.249  1.00  0.00     0.046 C 
HETATM   12  C8  UNL     1      -5.541   7.010  15.466  1.00  0.00     0.005 C 
HETATM   13  C9  UNL     1      -5.140   7.631  14.158  1.00  0.00     0.002 C 
HETATM   14  C10 UNL     1      -3.744   7.309  13.741  1.00  0.00     0.022 C 
HETATM   15  C11 UNL     1      -3.185   6.077  14.421  1.00  0.00     0.148 C 
ENDBRANCH   7   9
ENDBRANCH   2   7
BRANCH   1  16
HETATM   16  C3  UNL     1      -4.249   0.981  14.236  1.00  0.00     0.301 C 
HETATM   17  O2  UNL     1      -4.555  -0.228  14.346  1.00  0.00    -0.259 OA
BRANCH  16  18
HETATM   18  O1  UNL     1      -4.172   1.697  15.407  1.00  0.00    -0.318 OA
BRANCH  18  19
HETATM   19  C2  UNL     1      -4.841   1.303  16.607  1.00  0.00     0.174 C 
HETATM   20  C1  UNL     1      -6.160   2.086  16.600  1.00  0.00     0.034 C 
ENDBRANCH  18  19
ENDBRANCH  16  18
ENDBRANCH   1  16
BRANCH   3  21
HETATM   21  C12 UNL     1      -2.865   4.272  10.757  1.00  0.00     0.197 C 
HETATM   22  S1  UNL     1      -3.917   5.495  10.386  1.00  0.00    -0.039 SA
BRANCH  21  23
HETATM   23  N4  UNL     1      -1.509   4.480  10.433  1.00  0.00    -0.330 N 
ATOM     24  H4  UNL     1      -1.300   4.660   9.452  1.00  0.00     0.165 HD
BRANCH  23  25
HETATM   25  C13 UNL     1      -0.390   4.466  11.328  1.00  0.00     0.170 C 
HETATM   26  C14 UNL     1      -0.302   5.732  12.164  1.00  0.00     0.076 C 
HETATM   27  C15 UNL     1       0.848   4.573  10.394  1.00  0.00     0.076 C 
HETATM   28  F1  UNL     1      -0.267   3.390  12.129  1.00  0.00    -0.220 F 
ENDBRANCH  23  25
ENDBRANCH  21  23
ENDBRANCH   3  21
BRANCH   6  29
HETATM   29  N6  UNL     1      -4.568  -0.119  11.392  1.00  0.00    -0.383 N 
ATOM     30  H62 UNL     1      -5.036  -0.346  10.514  1.00  0.00     0.157 HD
ATOM     31  H61 UNL     1      -4.540  -0.957  11.973  1.00  0.00     0.157 HD
ENDBRANCH   6  29
TORSDOF 9
ENDMDL
MODEL 3
REMARK VINA RESULT: -6.297063597      0.887      1.001
REMARK  9 active torsions:
REMARK  status: ('A' for Active; 'I' for Inactive)
REMARK    1  A    between atoms: C2_2  and  O1_3 
REMARK    2  A    between atoms: O1_3  and  C3_4 
REMARK    3  A    between atoms: C3_4  and  C4_6 
REMARK    4  A    between atoms: C5_7  and  N1_8 
REMARK    5  A    between atoms: N1_8  and  N2_10 
REMARK    6  A    between atoms: N3_17  and  C12_18 
REMARK    7  A    between atoms: C12_18  and  N4_20 
REMARK    8  A    between atoms: N4_20  and  C13_22 
REMARK    9  A    between atoms: C16_28  and  N6_29 
ROOT
HETATM    1  C4  UNL     1      -4.065   1.654  13.390  1.00  0.00     0.131 A 
HETATM    2  C5  UNL     1      -3.554   2.943  13.221  1.00  0.00     0.165 A 
HETATM    3  N3  UNL     1      -3.260   3.156  11.902  1.00  0.00    -0.209 N 
HETATM    4  N5  UNL     1      -3.567   2.052  11.256  1.00  0.00    -0.274 N 
ATOM      5  H5  UNL     1      -3.453   1.916  10.252  1.00  0.00     0.189 HD
HETATM    6  C16 UNL     1      -4.055   1.122  12.109  1.00  0.00     0.134 A 
ENDROOT
BRANCH   2   7
HETATM    7  N1  UNL     1      -3.361   3.870  14.274  1.00  0.00    -0.281 N 
ATOM      8  H1  UNL     1      -2.710   3.604  15.014  1.00  0.00     0.189 HD
BRANCH   7   9
HETATM    9  N2  UNL     1      -3.962   5.074  14.386  1.00  0.00    -0.306 N 
HETATM   10  C6  UNL     1      -3.240   6.260  14.498  1.00  0.00     0.083 C 
HETATM   11  C7  UNL     1      -3.701   7.424  13.671  1.00  0.00     0.046 C 
HETATM   12  C8  UNL     1      -5.126   7.810  13.818  1.00  0.00     0.005 C 
HETATM   13  C9  UNL     1      -5.615   7.424  15.186  1.00  0.00     0.002 C 
HETATM   14  C10 UNL     1      -5.988   5.984  15.308  1.00  0.00     0.022 C 
HETATM   15  C11 UNL     1      -5.367   5.112  14.237  1.00  0.00     0.148 C 
ENDBRANCH   7   9
ENDBRANCH   2   7
BRANCH   1  16
HETATM   16  C3  UNL     1      -4.473   1.008  14.627  1.00  0.00     0.301 C 
HETATM   17  O2  UNL     1      -4.510  -0.237  14.751  1.00  0.00    -0.259 OA
BRANCH  16  18
HETATM   18  O1  UNL     1      -4.837   1.740  15.732  1.00  0.00    -0.318 OA
BRANCH  18  19
HETATM   19  C2  UNL     1      -5.197   1.141  16.980  1.00  0.00     0.174 C 
HETATM   20  C1  UNL     1      -6.716   1.326  17.083  1.00  0.00     0.034 C 
ENDBRANCH  18  19
ENDBRANCH  16  18
ENDBRANCH   1  16
BRANCH   3  21
HETATM   21  C12 UNL     1      -2.719   4.370  11.391  1.00  0.00     0.197 C 
HETATM   22  S1  UNL     1      -3.673   5.394  10.508  1.00  0.00    -0.039 SA
BRANCH  21  23
HETATM   23  N4  UNL     1      -1.374   4.752  11.575  1.00  0.00    -0.330 N 
ATOM     24  H4  UNL     1      -1.093   4.973  12.529  1.00  0.00     0.165 HD
BRANCH  23  25
HETATM   25  C13 UNL     1      -0.358   4.865  10.571  1.00  0.00     0.170 C 
HETATM   26  C14 UNL     1       0.940   4.189  10.984  1.00  0.00     0.076 C 
HETATM   27  C15 UNL     1       0.014   6.374  10.571  1.00  0.00     0.076 C 
HETATM   28  F1  UNL     1      -0.690   4.475   9.325  1.00  0.00    -0.220 F 
ENDBRANCH  23  25
ENDBRANCH  21  23
ENDBRANCH   3  21
BRANCH   6  29
HETATM   29  N6  UNL     1      -4.454  -0.040  11.746  1.00  0.00    -0.383 N 
ATOM     30  H62 UNL     1      -5.279  -0.503  12.126  1.00  0.00     0.157 HD
ATOM     31  H61 UNL     1      -4.015  -0.661  11.065  1.00  0.00     0.157 HD
ENDBRANCH   6  29
TORSDOF 9
ENDMDL
MODEL 4
REMARK VINA RESULT: -6.256666062      0.912      1.545
REMARK  9 active torsions:
REMARK  status: ('A' for Active; 'I' for Inactive)
REMARK    1  A    between atoms: C2_2  and  O1_3 
REMARK    2  A    between atoms: O1_3  and  C3_4 
REMARK    3  A    between atoms: C3_4  and  C4_6 
REMARK    4  A    between atoms: C5_7  and  N1_8 
REMARK    5  A    between atoms: N1_8  and  N2_10 
REMARK    6  A    between atoms: N3_17  and  C12_18 
REMARK    7  A    between atoms: C12_18  and  N4_20 
REMARK    8  A    between atoms: N4_20  and  C13_22 
REMARK    9  A    between atoms: C16_28  and  N6_29 
ROOT
HETATM    1  C4  UNL     1      -4.097   1.664  13.400  1.00  0.00     0.131 A 
HETATM    2  C5  UNL     1      -3.598   2.954  13.206  1.00  0.00     0.165 A 
HETATM    3  N3  UNL     1      -3.301   3.143  11.884  1.00  0.00    -0.209 N 
HETATM    4  N5  UNL     1      -3.596   2.023  11.260  1.00  0.00    -0.274 N 
ATOM      5  H5  UNL     1      -3.478   1.868  10.259  1.00  0.00     0.189 HD
HETATM    6  C16 UNL     1      -4.079   1.106  12.130  1.00  0.00     0.134 A 
ENDROOT
BRANCH   2   7
HETATM    7  N1  UNL     1      -3.416   3.903  14.242  1.00  0.00    -0.281 N 
ATOM      8  H1  UNL     1      -2.788   3.647  15.003  1.00  0.00     0.189 HD
BRANCH   7   9
HETATM    9  N2  UNL     1      -4.002   5.119  14.309  1.00  0.00    -0.306 N 
HETATM   10  C6  UNL     1      -5.385   5.279  14.336  1.00  0.00     0.083 C 
HETATM   11  C7  UNL     1      -5.942   6.261  15.324  1.00  0.00     0.046 C 
HETATM   12  C8  UNL     1      -5.384   7.634  15.270  1.00  0.00     0.005 C 
HETATM   13  C9  UNL     1      -4.902   7.929  13.879  1.00  0.00     0.002 C 
HETATM   14  C10 UNL     1      -3.553   7.365  13.576  1.00  0.00     0.022 C 
HETATM   15  C11 UNL     1      -3.156   6.234  14.502  1.00  0.00     0.148 C 
ENDBRANCH   7   9
ENDBRANCH   2   7
BRANCH   1  16
HETATM   16  C3  UNL     1      -4.504   1.039  14.649  1.00  0.00     0.301 C 
HETATM   17  O2  UNL     1      -4.510  -0.203  14.805  1.00  0.00    -0.259 OA
BRANCH  16  18
HETATM   18  O1  UNL     1      -4.901   1.789  15.730  1.00  0.00    -0.318 OA
BRANCH  18  19
HETATM   19  C2  UNL     1      -5.229   1.216  16.998  1.00  0.00     0.174 C 
HETATM   20  C1  UNL     1      -6.758   1.303  17.086  1.00  0.00     0.034 C 
ENDBRANCH  18  19
ENDBRANCH  16  18
ENDBRANCH   1  16
BRANCH   3  21
HETATM   21  C12 UNL     1      -2.769   4.351  11.351  1.00  0.00     0.197 C 
HETATM   22  S1  UNL     1      -3.719   5.330  10.414  1.00  0.00    -0.039 SA
BRANCH  21  23
HETATM   23  N4  UNL     1      -1.437   4.764  11.557  1.00  0.00    -0.330 N 
ATOM     24  H4  UNL     1      -1.184   5.017  12.511  1.00  0.00     0.165 HD
BRANCH  23  25
HETATM   25  C13 UNL     1      -0.398   4.868  10.576  1.00  0.00     0.170 C 
HETATM   26  C14 UNL     1       0.902   4.230  11.040  1.00  0.00     0.076 C 
HETATM   27  C15 UNL     1      -0.055   6.383  10.541  1.00  0.00     0.076 C 
HETATM   28  F1  UNL     1      -0.691   4.436   9.334  1.00  0.00    -0.220 F 
ENDBRANCH  23  25
ENDBRANCH  21  23
ENDBRANCH   3  21
BRANCH   6  29
HETATM   29  N6  UNL     1      -4.465  -0.067  11.789  1.00  0.00    -0.383 N 
ATOM     30  H62 UNL     1      -4.895  -0.733  12.431  1.00  0.00     0.157 HD
ATOM     31  H61 UNL     1      -4.389  -0.502  10.869  1.00  0.00     0.157 HD
ENDBRANCH   6  29
TORSDOF 9
ENDMDL
MODEL 5
REMARK VINA RESULT: -6.177345276      1.170      1.338
REMARK  9 active torsions:
REMARK  status: ('A' for Active; 'I' for Inactive)
REMARK    1  A    between atoms: C2_2  and  O1_3 
REMARK    2  A    between atoms: O1_3  and  C3_4 
REMARK    3  A    between atoms: C3_4  and  C4_6 
REMARK    4  A    between atoms: C5_7  and  N1_8 
REMARK    5  A    between atoms: N1_8  and  N2_10 
REMARK    6  A    between atoms: N3_17  and  C12_18 
REMARK    7  A    between atoms: C12_18  and  N4_20 
REMARK    8  A    between atoms: N4_20  and  C13_22 
REMARK    9  A    between atoms: C16_28  and  N6_29 
ROOT
HETATM    1  C4  UNL     1      -3.998   1.717  12.850  1.00  0.00     0.131 A 
HETATM    2  C5  UNL     1      -3.527   3.021  12.690  1.00  0.00     0.165 A 
HETATM    3  N3  UNL     1      -3.446   3.325  11.358  1.00  0.00    -0.209 N 
HETATM    4  N5  UNL     1      -3.845   2.261  10.696  1.00  0.00    -0.274 N 
ATOM      5  H5  UNL     1      -3.891   2.194   9.680  1.00  0.00     0.189 HD
HETATM    6  C16 UNL     1      -4.188   1.270  11.550  1.00  0.00     0.134 A 
ENDROOT
BRANCH   2   7
HETATM    7  N1  UNL     1      -3.174   3.880  13.760  1.00  0.00    -0.281 N 
ATOM      8  H1  UNL     1      -2.350   3.628  14.306  1.00  0.00     0.189 HD
BRANCH   7   9
HETATM    9  N2  UNL     1      -3.833   5.002  14.121  1.00  0.00    -0.306 N 
HETATM   10  C6  UNL     1      -3.172   6.190  14.423  1.00  0.00     0.083 C 
HETATM   11  C7  UNL     1      -3.738   7.455  13.849  1.00  0.00     0.046 C 
HETATM   12  C8  UNL     1      -5.172   7.717  14.126  1.00  0.00     0.005 C 
HETATM   13  C9  UNL     1      -5.567   7.055  15.416  1.00  0.00     0.002 C 
HETATM   14  C10 UNL     1      -5.855   5.597  15.281  1.00  0.00     0.022 C 
HETATM   15  C11 UNL     1      -5.245   4.978  14.040  1.00  0.00     0.148 C 
ENDBRANCH   7   9
ENDBRANCH   2   7
BRANCH   1  16
HETATM   16  C3  UNL     1      -4.202   0.983  14.089  1.00  0.00     0.301 C 
HETATM   17  O2  UNL     1      -4.555  -0.217  14.107  1.00  0.00    -0.259 OA
BRANCH  16  18
HETATM   18  O1  UNL     1      -4.011   1.579  15.314  1.00  0.00    -0.318 OA
BRANCH  18  19
HETATM   19  C2  UNL     1      -4.731   1.195  16.488  1.00  0.00     0.174 C 
HETATM   20  C1  UNL     1      -6.000   2.055  16.472  1.00  0.00     0.034 C 
ENDBRANCH  18  19
ENDBRANCH  16  18
ENDBRANCH   1  16
BRANCH   3  21
HETATM   21  C12 UNL     1      -2.999   4.579  10.852  1.00  0.00     0.197 C 
HETATM   22  S1  UNL     1      -4.097   5.760  10.481  1.00  0.00    -0.039 SA
BRANCH  21  23
HETATM   23  N4  UNL     1      -1.641   4.874  10.616  1.00  0.00    -0.330 N 
ATOM     24  H4  UNL     1      -1.012   4.778  11.413  1.00  0.00     0.165 HD
BRANCH  23  25
HETATM   25  C13 UNL     1      -1.044   5.294   9.384  1.00  0.00     0.170 C 
HETATM   26  C14 UNL     1      -1.650   4.596   8.178  1.00  0.00     0.076 C 
HETATM   27  C15 UNL     1       0.397   4.715   9.440  1.00  0.00     0.076 C 
HETATM   28  F1  UNL     1      -0.994   6.622   9.155  1.00  0.00    -0.220 F 
ENDBRANCH  23  25
ENDBRANCH  21  23
ENDBRANCH   3  21
BRANCH   6  29
HETATM   29  N6  UNL     1      -4.632   0.128  11.177  1.00  0.00    -0.383 N 
ATOM     30  H62 UNL     1      -4.049  -0.607  10.776  1.00  0.00     0.157 HD
ATOM     31  H61 UNL     1      -5.598  -0.201  11.205  1.00  0.00     0.157 HD
ENDBRANCH   6  29
TORSDOF 9
ENDMDL
