MODEL 1
REMARK VINA RESULT: -7.906198368      0.000      0.000
REMARK  12 active torsions:
REMARK  status: ('A' for Active; 'I' for Inactive)
REMARK    1  A    between atoms: C2_2  and  C3_3 
REMARK    2  A    between atoms: C3_3  and  O1_4 
REMARK    3  A    between atoms: O1_4  and  C4_5 
REMARK    4  A    between atoms: C4_5  and  O2_6 
REMARK    5  A    between atoms: O2_6  and  C5_7 
REMARK    6  A    between atoms: C5_7  and  C6_8 
REMARK    7  A    between atoms: C6_8  and  O3_9 
REMARK    8  A    between atoms: C14_18  and  C15_19 
REMARK    9  A    between atoms: C15_19  and  O4_20 
REMARK   10  A    between atoms: C15_19  and  O5_22 
REMARK   11  A    between atoms: O5_22  and  S1_23 
REMARK   12  A    between atoms: C23_34  and  O9_35 
ROOT
HETATM    1  C1  UNL     1      -5.647 109.637 276.164  1.00  0.00     0.025 C 
HETATM    2  C2  UNL     1      -6.616 109.244 275.057  1.00  0.00     0.027 C 
HETATM    3  C7  UNL     1      -6.999 107.829 275.316  1.00  0.00    -0.062 C 
HETATM    4  C8  UNL     1      -7.605 107.325 276.363  1.00  0.00    -0.022 C 
HETATM    5  C9  UNL     1      -7.775 105.876 276.171  1.00  0.00     0.033 C 
HETATM    6  C10 UNL     1      -7.635 105.674 274.682  1.00  0.00     0.006 C 
HETATM    7  C11 UNL     1      -7.308 104.309 274.257  1.00  0.00    -0.001 C 
HETATM    8  C12 UNL     1      -7.826 103.286 275.234  1.00  0.00     0.006 C 
HETATM    9  C13 UNL     1      -6.563 102.605 275.781  1.00  0.00     0.011 C 
HETATM   10  C14 UNL     1      -5.705 102.629 274.560  1.00  0.00     0.050 C 
HETATM   11  C16 UNL     1      -5.848 104.010 274.022  1.00  0.00    -0.032 C 
HETATM   12  C17 UNL     1      -5.530 103.928 272.521  1.00  0.00     0.016 C 
HETATM   13  C18 UNL     1      -4.950 104.984 274.697  1.00  0.00     0.011 C 
HETATM   14  C19 UNL     1      -5.259 106.423 274.395  1.00  0.00     0.015 C 
HETATM   15  C20 UNL     1      -6.695 106.755 274.297  1.00  0.00    -0.012 C 
HETATM   16  C21 UNL     1      -7.122 107.370 272.986  1.00  0.00     0.017 C 
HETATM   17  C22 UNL     1      -6.321 108.573 272.634  1.00  0.00     0.034 C 
HETATM   18  C23 UNL     1      -5.947 109.474 273.752  1.00  0.00     0.132 C 
ENDROOT
BRANCH   2  19
HETATM   19  C3  UNL     1      -7.809 110.174 275.210  1.00  0.00     0.186 C 
BRANCH  19  20
HETATM   20  O1  UNL     1      -7.723 110.833 276.432  1.00  0.00    -0.366 OA
BRANCH  20  21
HETATM   21  C4  UNL     1      -8.779 111.674 276.667  1.00  0.00     0.337 C 
BRANCH  21  22
HETATM   22  O2  UNL     1      -9.129 111.565 278.011  1.00  0.00    -0.365 OA
BRANCH  22  23
HETATM   23  C5  UNL     1     -10.028 110.531 278.233  1.00  0.00     0.196 C 
BRANCH  23  24
HETATM   24  C6  UNL     1      -9.484 109.687 279.365  1.00  0.00     0.190 C 
BRANCH  24  25
HETATM   25  O3  UNL     1      -8.171 109.318 279.097  1.00  0.00    -0.399 OA
ATOM     26  H3  UNL     1      -7.657 109.337 279.896  1.00  0.00     0.209 HD
ENDBRANCH  24  25
ENDBRANCH  23  24
ENDBRANCH  22  23
ENDBRANCH  21  22
ENDBRANCH  20  21
ENDBRANCH  19  20
ENDBRANCH   2  19
BRANCH  18  27
HETATM   27  O9  UNL     1      -4.539 109.556 273.859  1.00  0.00    -0.394 OA
ATOM     28  H9  UNL     1      -4.128 108.715 274.020  1.00  0.00     0.210 HD
ENDBRANCH  18  27
BRANCH  10  29
HETATM   29  C15 UNL     1      -4.320 102.123 274.743  1.00  0.00     0.283 C 
BRANCH  29  30
HETATM   30  O4  UNL     1      -4.289 101.348 275.900  1.00  0.00    -0.370 OA
ATOM     31  H4  UNL     1      -4.351 101.930 276.648  1.00  0.00     0.212 HD
ENDBRANCH  29  30
BRANCH  29  32
HETATM   32  O5  UNL     1      -3.810 101.385 273.722  1.00  0.00    -0.224 OA
BRANCH  32  33
HETATM   33  S1  UNL     1      -2.471 102.183 273.102  1.00  0.00     0.254 S 
HETATM   34  O6  UNL     1      -2.367 103.586 273.595  1.00  0.00    -0.572 OA
HETATM   35  O7  UNL     1      -2.504 102.220 271.592  1.00  0.00    -0.572 OA
HETATM   36  O8  UNL     1      -1.066 101.358 273.539  1.00  0.00    -0.572 OA
ENDBRANCH  32  33
ENDBRANCH  29  32
ENDBRANCH  10  29
TORSDOF 12
ENDMDL
MODEL 2
REMARK VINA RESULT: -7.663853679      2.997      7.720
REMARK  12 active torsions:
REMARK  status: ('A' for Active; 'I' for Inactive)
REMARK    1  A    between atoms: C2_2  and  C3_3 
REMARK    2  A    between atoms: C3_3  and  O1_4 
REMARK    3  A    between atoms: O1_4  and  C4_5 
REMARK    4  A    between atoms: C4_5  and  O2_6 
REMARK    5  A    between atoms: O2_6  and  C5_7 
REMARK    6  A    between atoms: C5_7  and  C6_8 
REMARK    7  A    between atoms: C6_8  and  O3_9 
REMARK    8  A    between atoms: C14_18  and  C15_19 
REMARK    9  A    between atoms: C15_19  and  O4_20 
REMARK   10  A    between atoms: C15_19  and  O5_22 
REMARK   11  A    between atoms: O5_22  and  S1_23 
REMARK   12  A    between atoms: C23_34  and  O9_35 
ROOT
HETATM    1  C1  UNL     1      -5.981 107.985 271.855  1.00  0.00     0.025 C 
HETATM    2  C2  UNL     1      -5.157 107.242 272.899  1.00  0.00     0.027 C 
HETATM    3  C7  UNL     1      -6.114 106.406 273.674  1.00  0.00    -0.062 C 
HETATM    4  C8  UNL     1      -6.892 105.443 273.244  1.00  0.00    -0.022 C 
HETATM    5  C9  UNL     1      -7.662 104.903 274.376  1.00  0.00     0.033 C 
HETATM    6  C10 UNL     1      -6.889 105.333 275.598  1.00  0.00     0.006 C 
HETATM    7  C11 UNL     1      -7.643 105.334 276.855  1.00  0.00    -0.001 C 
HETATM    8  C12 UNL     1      -8.752 104.315 276.837  1.00  0.00     0.006 C 
HETATM    9  C13 UNL     1     -10.038 105.147 276.948  1.00  0.00     0.011 C 
HETATM   10  C14 UNL     1      -9.563 106.244 277.842  1.00  0.00     0.050 C 
HETATM   11  C16 UNL     1      -8.247 106.651 277.276  1.00  0.00    -0.032 C 
HETATM   12  C17 UNL     1      -7.454 107.286 278.430  1.00  0.00     0.016 C 
HETATM   13  C18 UNL     1      -8.380 107.605 276.144  1.00  0.00     0.011 C 
HETATM   14  C19 UNL     1      -7.115 107.820 275.362  1.00  0.00     0.015 C 
HETATM   15  C20 UNL     1      -6.284 106.616 275.161  1.00  0.00    -0.012 C 
HETATM   16  C21 UNL     1      -4.868 106.723 275.675  1.00  0.00     0.017 C 
HETATM   17  C22 UNL     1      -4.151 107.904 275.125  1.00  0.00     0.034 C 
HETATM   18  C23 UNL     1      -4.419 108.245 273.707  1.00  0.00     0.132 C 
ENDROOT
BRANCH   2  19
HETATM   19  C3  UNL     1      -4.185 106.379 272.111  1.00  0.00     0.186 C 
BRANCH  19  20
HETATM   20  O1  UNL     1      -3.641 105.416 272.954  1.00  0.00    -0.366 OA
BRANCH  20  21
HETATM   21  C4  UNL     1      -3.036 104.387 272.279  1.00  0.00     0.337 C 
BRANCH  21  22
HETATM   22  O2  UNL     1      -2.539 103.486 273.218  1.00  0.00    -0.365 OA
BRANCH  22  23
HETATM   23  C5  UNL     1      -3.452 102.483 273.511  1.00  0.00     0.196 C 
BRANCH  23  24
HETATM   24  C6  UNL     1      -2.680 101.311 274.077  1.00  0.00     0.190 C 
BRANCH  24  25
HETATM   25  O3  UNL     1      -1.350 101.379 273.680  1.00  0.00    -0.399 OA
ATOM     26  H3  UNL     1      -0.912 100.556 273.863  1.00  0.00     0.209 HD
ENDBRANCH  24  25
ENDBRANCH  23  24
ENDBRANCH  22  23
ENDBRANCH  21  22
ENDBRANCH  20  21
ENDBRANCH  19  20
ENDBRANCH   2  19
BRANCH  18  27
HETATM   27  O9  UNL     1      -4.971 109.544 273.615  1.00  0.00    -0.394 OA
ATOM     28  H9  UNL     1      -5.256 109.887 274.454  1.00  0.00     0.210 HD
ENDBRANCH  18  27
BRANCH  10  29
HETATM   29  C15 UNL     1     -10.545 107.328 278.100  1.00  0.00     0.283 C 
BRANCH  29  30
HETATM   30  O4  UNL     1     -11.794 106.896 277.663  1.00  0.00    -0.370 OA
ATOM     31  H4  UNL     1     -12.441 107.160 278.306  1.00  0.00     0.212 HD
ENDBRANCH  29  30
BRANCH  29  32
HETATM   32  O5  UNL     1     -10.662 107.738 279.390  1.00  0.00    -0.224 OA
BRANCH  32  33
HETATM   33  S1  UNL     1     -10.560 109.412 279.432  1.00  0.00     0.254 S 
HETATM   34  O6  UNL     1     -11.390 110.004 280.519  1.00  0.00    -0.572 OA
HETATM   35  O7  UNL     1     -11.002 110.023 278.123  1.00  0.00    -0.572 OA
HETATM   36  O8  UNL     1      -8.956 109.876 279.671  1.00  0.00    -0.572 OA
ENDBRANCH  32  33
ENDBRANCH  29  32
ENDBRANCH  10  29
TORSDOF 12
ENDMDL
MODEL 3
REMARK VINA RESULT: -7.649522111      1.301      1.814
REMARK  12 active torsions:
REMARK  status: ('A' for Active; 'I' for Inactive)
REMARK    1  A    between atoms: C2_2  and  C3_3 
REMARK    2  A    between atoms: C3_3  and  O1_4 
REMARK    3  A    between atoms: O1_4  and  C4_5 
REMARK    4  A    between atoms: C4_5  and  O2_6 
REMARK    5  A    between atoms: O2_6  and  C5_7 
REMARK    6  A    between atoms: C5_7  and  C6_8 
REMARK    7  A    between atoms: C6_8  and  O3_9 
REMARK    8  A    between atoms: C14_18  and  C15_19 
REMARK    9  A    between atoms: C15_19  and  O4_20 
REMARK   10  A    between atoms: C15_19  and  O5_22 
REMARK   11  A    between atoms: O5_22  and  S1_23 
REMARK   12  A    between atoms: C23_34  and  O9_35 
ROOT
HETATM    1  C1  UNL     1      -5.492 109.817 276.157  1.00  0.00     0.025 C 
HETATM    2  C2  UNL     1      -6.496 109.426 275.082  1.00  0.00     0.027 C 
HETATM    3  C7  UNL     1      -6.892 108.019 275.365  1.00  0.00    -0.062 C 
HETATM    4  C8  UNL     1      -7.474 107.533 276.433  1.00  0.00    -0.022 C 
HETATM    5  C9  UNL     1      -7.669 106.085 276.261  1.00  0.00     0.033 C 
HETATM    6  C10 UNL     1      -7.574 105.867 274.771  1.00  0.00     0.006 C 
HETATM    7  C11 UNL     1      -7.277 104.494 274.350  1.00  0.00    -0.001 C 
HETATM    8  C12 UNL     1      -7.782 103.487 275.351  1.00  0.00     0.006 C 
HETATM    9  C13 UNL     1      -6.513 102.794 275.869  1.00  0.00     0.011 C 
HETATM   10  C14 UNL     1      -5.689 102.795 274.625  1.00  0.00     0.050 C 
HETATM   11  C16 UNL     1      -5.828 104.173 274.078  1.00  0.00    -0.032 C 
HETATM   12  C17 UNL     1      -5.553 104.072 272.569  1.00  0.00     0.016 C 
HETATM   13  C18 UNL     1      -4.899 105.141 274.718  1.00  0.00     0.011 C 
HETATM   14  C19 UNL     1      -5.197 106.581 274.410  1.00  0.00     0.015 C 
HETATM   15  C20 UNL     1      -6.631 106.931 274.348  1.00  0.00    -0.012 C 
HETATM   16  C21 UNL     1      -7.085 107.540 273.044  1.00  0.00     0.017 C 
HETATM   17  C22 UNL     1      -6.279 108.728 272.658  1.00  0.00     0.034 C 
HETATM   18  C23 UNL     1      -5.861 109.634 273.756  1.00  0.00     0.132 C 
ENDROOT
BRANCH   2  19
HETATM   19  C3  UNL     1      -7.672 110.374 275.258  1.00  0.00     0.186 C 
BRANCH  19  20
HETATM   20  O1  UNL     1      -7.389 111.269 276.284  1.00  0.00    -0.366 OA
BRANCH  20  21
HETATM   21  C4  UNL     1      -8.176 112.391 276.255  1.00  0.00     0.337 C 
BRANCH  21  22
HETATM   22  O2  UNL     1      -7.607 113.343 277.098  1.00  0.00    -0.365 OA
BRANCH  22  23
HETATM   23  C5  UNL     1      -6.586 114.047 276.474  1.00  0.00     0.196 C 
BRANCH  23  24
HETATM   24  C6  UNL     1      -5.886 114.872 277.532  1.00  0.00     0.190 C 
BRANCH  24  25
HETATM   25  O3  UNL     1      -6.112 114.326 278.790  1.00  0.00    -0.399 OA
ATOM     26  H3  UNL     1      -5.868 114.949 279.465  1.00  0.00     0.209 HD
ENDBRANCH  24  25
ENDBRANCH  23  24
ENDBRANCH  22  23
ENDBRANCH  21  22
ENDBRANCH  20  21
ENDBRANCH  19  20
ENDBRANCH   2  19
BRANCH  18  27
HETATM   27  O9  UNL     1      -4.449 109.699 273.824  1.00  0.00    -0.394 OA
ATOM     28  H9  UNL     1      -4.136 110.358 274.432  1.00  0.00     0.210 HD
ENDBRANCH  18  27
BRANCH  10  29
HETATM   29  C15 UNL     1      -4.306 102.272 274.775  1.00  0.00     0.283 C 
BRANCH  29  30
HETATM   30  O4  UNL     1      -4.243 101.545 275.961  1.00  0.00    -0.370 OA
ATOM     31  H4  UNL     1      -3.766 102.061 276.600  1.00  0.00     0.212 HD
ENDBRANCH  29  30
BRANCH  29  32
HETATM   32  O5  UNL     1      -3.850 101.483 273.767  1.00  0.00    -0.224 OA
BRANCH  32  33
HETATM   33  S1  UNL     1      -2.533 102.236 273.052  1.00  0.00     0.254 S 
HETATM   34  O6  UNL     1      -2.359 103.641 273.520  1.00  0.00    -0.572 OA
HETATM   35  O7  UNL     1      -2.661 102.259 271.547  1.00  0.00    -0.572 OA
HETATM   36  O8  UNL     1      -1.125 101.377 273.410  1.00  0.00    -0.572 OA
ENDBRANCH  32  33
ENDBRANCH  29  32
ENDBRANCH  10  29
TORSDOF 12
ENDMDL
MODEL 4
REMARK VINA RESULT: -7.550842496      3.409      8.777
REMARK  12 active torsions:
REMARK  status: ('A' for Active; 'I' for Inactive)
REMARK    1  A    between atoms: C2_2  and  C3_3 
REMARK    2  A    between atoms: C3_3  and  O1_4 
REMARK    3  A    between atoms: O1_4  and  C4_5 
REMARK    4  A    between atoms: C4_5  and  O2_6 
REMARK    5  A    between atoms: O2_6  and  C5_7 
REMARK    6  A    between atoms: C5_7  and  C6_8 
REMARK    7  A    between atoms: C6_8  and  O3_9 
REMARK    8  A    between atoms: C14_18  and  C15_19 
REMARK    9  A    between atoms: C15_19  and  O4_20 
REMARK   10  A    between atoms: C15_19  and  O5_22 
REMARK   11  A    between atoms: O5_22  and  S1_23 
REMARK   12  A    between atoms: C23_34  and  O9_35 
ROOT
HETATM    1  C1  UNL     1      -6.174 102.506 273.564  1.00  0.00     0.025 C 
HETATM    2  C2  UNL     1      -4.737 103.009 273.612  1.00  0.00     0.027 C 
HETATM    3  C7  UNL     1      -4.792 104.388 274.171  1.00  0.00    -0.062 C 
HETATM    4  C8  UNL     1      -5.228 104.778 275.343  1.00  0.00    -0.022 C 
HETATM    5  C9  UNL     1      -5.084 106.238 275.451  1.00  0.00     0.033 C 
HETATM    6  C10 UNL     1      -4.065 106.595 274.396  1.00  0.00     0.006 C 
HETATM    7  C11 UNL     1      -4.061 107.998 273.970  1.00  0.00    -0.001 C 
HETATM    8  C12 UNL     1      -4.541 108.912 275.067  1.00  0.00     0.006 C 
HETATM    9  C13 UNL     1      -5.828 109.537 274.509  1.00  0.00     0.011 C 
HETATM   10  C14 UNL     1      -5.462 109.643 273.066  1.00  0.00     0.050 C 
HETATM   11  C16 UNL     1      -4.856 108.325 272.730  1.00  0.00    -0.032 C 
HETATM   12  C17 UNL     1      -3.935 108.564 271.523  1.00  0.00     0.016 C 
HETATM   13  C18 UNL     1      -5.875 107.289 272.415  1.00  0.00     0.011 C 
HETATM   14  C19 UNL     1      -5.336 105.889 272.353  1.00  0.00     0.015 C 
HETATM   15  C20 UNL     1      -4.302 105.564 273.357  1.00  0.00    -0.012 C 
HETATM   16  C21 UNL     1      -2.987 105.087 272.789  1.00  0.00     0.017 C 
HETATM   17  C22 UNL     1      -3.149 103.930 271.869  1.00  0.00     0.034 C 
HETATM   18  C23 UNL     1      -4.168 102.919 272.244  1.00  0.00     0.132 C 
ENDROOT
BRANCH   2  19
HETATM   19  C3  UNL     1      -4.006 102.064 274.552  1.00  0.00     0.186 C 
BRANCH  19  20
HETATM   20  O1  UNL     1      -3.205 101.205 273.806  1.00  0.00    -0.366 OA
BRANCH  20  21
HETATM   21  C4  UNL     1      -1.892 101.212 274.200  1.00  0.00     0.337 C 
BRANCH  21  22
HETATM   22  O2  UNL     1      -1.097 101.281 273.058  1.00  0.00    -0.365 OA
BRANCH  22  23
HETATM   23  C5  UNL     1       0.036 100.487 273.164  1.00  0.00     0.196 C 
BRANCH  23  24
HETATM   24  C6  UNL     1       0.191 100.100 274.619  1.00  0.00     0.190 C 
BRANCH  24  25
HETATM   25  O3  UNL     1       0.907  98.914 274.723  1.00  0.00    -0.399 OA
ATOM     26  H3  UNL     1       1.828  99.100 274.870  1.00  0.00     0.209 HD
ENDBRANCH  24  25
ENDBRANCH  23  24
ENDBRANCH  22  23
ENDBRANCH  21  22
ENDBRANCH  20  21
ENDBRANCH  19  20
ENDBRANCH   2  19
BRANCH  18  27
HETATM   27  O9  UNL     1      -5.159 102.831 271.238  1.00  0.00    -0.394 OA
ATOM     28  H9  UNL     1      -5.612 103.653 271.089  1.00  0.00     0.210 HD
ENDBRANCH  18  27
BRANCH  10  29
HETATM   29  C15 UNL     1      -6.540 110.132 272.168  1.00  0.00     0.283 C 
BRANCH  29  30
HETATM   30  O4  UNL     1      -7.245 111.129 272.838  1.00  0.00    -0.370 OA
ATOM     31  H4  UNL     1      -7.991 111.375 272.304  1.00  0.00     0.212 HD
ENDBRANCH  29  30
BRANCH  29  32
HETATM   32  O5  UNL     1      -6.143 110.626 270.966  1.00  0.00    -0.224 OA
BRANCH  32  33
HETATM   33  S1  UNL     1      -5.566 112.185 271.192  1.00  0.00     0.254 S 
HETATM   34  O6  UNL     1      -4.633 112.608 270.108  1.00  0.00    -0.572 OA
HETATM   35  O7  UNL     1      -4.841 112.318 272.510  1.00  0.00    -0.572 OA
HETATM   36  O8  UNL     1      -6.860 113.267 271.235  1.00  0.00    -0.572 OA
ENDBRANCH  32  33
ENDBRANCH  29  32
ENDBRANCH  10  29
TORSDOF 12
ENDMDL
MODEL 5
REMARK VINA RESULT: -7.520988203      3.290      8.744
REMARK  12 active torsions:
REMARK  status: ('A' for Active; 'I' for Inactive)
REMARK    1  A    between atoms: C2_2  and  C3_3 
REMARK    2  A    between atoms: C3_3  and  O1_4 
REMARK    3  A    between atoms: O1_4  and  C4_5 
REMARK    4  A    between atoms: C4_5  and  O2_6 
REMARK    5  A    between atoms: O2_6  and  C5_7 
REMARK    6  A    between atoms: C5_7  and  C6_8 
REMARK    7  A    between atoms: C6_8  and  O3_9 
REMARK    8  A    between atoms: C14_18  and  C15_19 
REMARK    9  A    between atoms: C15_19  and  O4_20 
REMARK   10  A    between atoms: C15_19  and  O5_22 
REMARK   11  A    between atoms: O5_22  and  S1_23 
REMARK   12  A    between atoms: C23_34  and  O9_35 
ROOT
HETATM    1  C1  UNL     1      -5.391 104.590 272.354  1.00  0.00     0.025 C 
HETATM    2  C2  UNL     1      -4.585 105.169 273.509  1.00  0.00     0.027 C 
HETATM    3  C7  UNL     1      -5.546 105.928 274.355  1.00  0.00    -0.062 C 
HETATM    4  C8  UNL     1      -6.602 105.484 274.991  1.00  0.00    -0.022 C 
HETATM    5  C9  UNL     1      -7.245 106.603 275.699  1.00  0.00     0.033 C 
HETATM    6  C10 UNL     1      -6.168 107.655 275.798  1.00  0.00     0.006 C 
HETATM    7  C11 UNL     1      -6.640 109.022 276.040  1.00  0.00    -0.001 C 
HETATM    8  C12 UNL     1      -7.945 109.033 276.793  1.00  0.00     0.006 C 
HETATM    9  C13 UNL     1      -8.944 109.672 275.817  1.00  0.00     0.011 C 
HETATM   10  C14 UNL     1      -8.053 110.660 275.141  1.00  0.00     0.050 C 
HETATM   11  C16 UNL     1      -6.813 109.897 274.823  1.00  0.00    -0.032 C 
HETATM   12  C17 UNL     1      -5.682 110.932 274.715  1.00  0.00     0.016 C 
HETATM   13  C18 UNL     1      -6.929 109.112 273.566  1.00  0.00     0.011 C 
HETATM   14  C19 UNL     1      -5.827 108.114 273.357  1.00  0.00     0.015 C 
HETATM   15  C20 UNL     1      -5.367 107.413 274.573  1.00  0.00    -0.012 C 
HETATM   16  C21 UNL     1      -3.896 107.559 274.878  1.00  0.00     0.017 C 
HETATM   17  C22 UNL     1      -3.035 107.158 273.734  1.00  0.00     0.034 C 
HETATM   18  C23 UNL     1      -3.483 105.986 272.942  1.00  0.00     0.132 C 
ENDROOT
BRANCH   2  19
HETATM   19  C3  UNL     1      -4.023 103.970 274.256  1.00  0.00     0.186 C 
BRANCH  19  20
HETATM   20  O1  UNL     1      -2.941 103.456 273.549  1.00  0.00    -0.366 OA
BRANCH  20  21
HETATM   21  C4  UNL     1      -2.867 102.088 273.595  1.00  0.00     0.337 C 
BRANCH  21  22
HETATM   22  O2  UNL     1      -1.579 101.711 273.220  1.00  0.00    -0.365 OA
BRANCH  22  23
HETATM   23  C5  UNL     1      -1.109 100.643 273.972  1.00  0.00     0.196 C 
BRANCH  23  24
HETATM   24  C6  UNL     1       0.237 100.243 273.409  1.00  0.00     0.190 C 
BRANCH  24  25
HETATM   25  O3  UNL     1       0.483 100.931 272.227  1.00  0.00    -0.399 OA
ATOM     26  H3  UNL     1       0.694 100.318 271.531  1.00  0.00     0.209 HD
ENDBRANCH  24  25
ENDBRANCH  23  24
ENDBRANCH  22  23
ENDBRANCH  21  22
ENDBRANCH  20  21
ENDBRANCH  19  20
ENDBRANCH   2  19
BRANCH  18  27
HETATM   27  O9  UNL     1      -3.711 106.366 271.598  1.00  0.00    -0.394 OA
ATOM     28  H9  UNL     1      -3.010 106.896 271.238  1.00  0.00     0.210 HD
ENDBRANCH  18  27
BRANCH  10  29
HETATM   29  C15 UNL     1      -8.673 111.422 274.027  1.00  0.00     0.283 C 
BRANCH  29  30
HETATM   30  O4  UNL     1     -10.033 111.554 274.295  1.00  0.00    -0.370 OA
ATOM     31  H4  UNL     1     -10.261 112.474 274.228  1.00  0.00     0.212 HD
ENDBRANCH  29  30
BRANCH  29  32
HETATM   32  O5  UNL     1      -8.164 112.659 273.787  1.00  0.00    -0.224 OA
BRANCH  32  33
HETATM   33  S1  UNL     1      -8.269 112.972 272.143  1.00  0.00     0.254 S 
HETATM   34  O6  UNL     1      -7.717 114.309 271.783  1.00  0.00    -0.572 OA
HETATM   35  O7  UNL     1      -9.700 112.915 271.663  1.00  0.00    -0.572 OA
HETATM   36  O8  UNL     1      -7.418 111.795 271.285  1.00  0.00    -0.572 OA
ENDBRANCH  32  33
ENDBRANCH  29  32
ENDBRANCH  10  29
TORSDOF 12
ENDMDL
