MODEL 1
REMARK VINA RESULT: -9.112201222      0.000      0.000
REMARK  10 active torsions:
REMARK  status: ('A' for Active; 'I' for Inactive)
REMARK       I    between atoms: C1_2  and  N1_3 
REMARK    1  A    between atoms: C1_2  and  C8_13 
REMARK    2  A    between atoms: N1_3  and  C2_5 
REMARK    3  A    between atoms: C7_10  and  O2_11 
REMARK    4  A    between atoms: C11_16  and  N2_17 
REMARK    5  A    between atoms: C14_22  and  N4_23 
REMARK    6  A    between atoms: N4_23  and  C15_25 
REMARK    7  A    between atoms: C15_25  and  C16_26 
REMARK    8  A    between atoms: C16_26  and  S1_27 
REMARK    9  A    between atoms: S1_27  and  C17_28 
REMARK   10  A    between atoms: C17_28  and  C18_29 
ROOT
HETATM    1  N2  UNL     1      -4.708 107.818 272.581  1.00  0.00    -0.300 N 
HETATM    2  C12 UNL     1      -5.022 106.521 272.475  1.00  0.00     0.188 A 
HETATM    3  N3  UNL     1      -5.589 106.076 273.611  1.00  0.00    -0.346 N 
ATOM      4  H3  UNL     1      -5.920 105.129 273.793  1.00  0.00     0.167 HD
HETATM    5  C13 UNL     1      -5.637 107.119 274.462  1.00  0.00     0.122 A 
HETATM    6  C14 UNL     1      -6.127 107.199 275.768  1.00  0.00     0.133 A 
HETATM    7  N5  UNL     1      -6.026 108.403 276.349  1.00  0.00    -0.337 N 
ATOM      8  H5  UNL     1      -6.372 108.509 277.303  1.00  0.00     0.168 HD
HETATM    9  C24 UNL     1      -5.497 109.472 275.750  1.00  0.00     0.183 A 
HETATM   10  N6  UNL     1      -5.035 109.361 274.491  1.00  0.00    -0.336 N 
ATOM     11  H6  UNL     1      -4.633 110.181 274.036  1.00  0.00     0.168 HD
HETATM   12  C25 UNL     1      -5.088 108.195 273.814  1.00  0.00     0.142 A 
ENDROOT
BRANCH   1  13
HETATM   13  C11 UNL     1      -4.086 108.705 271.619  1.00  0.00     0.231 C 
HETATM   14  C10 UNL     1      -5.113 109.580 270.936  1.00  0.00     0.057 C 
HETATM   15  C9  UNL     1      -4.192 110.686 270.397  1.00  0.00     0.046 C 
HETATM   16  C8  UNL     1      -3.208 110.778 271.544  1.00  0.00     0.216 C 
HETATM   17  O3  UNL     1      -3.272 109.612 272.254  1.00  0.00    -0.352 OA
BRANCH  16  18
HETATM   18  C1  UNL     1      -1.829 111.047 271.129  1.00  0.00     0.247 C 
HETATM   19  O1  UNL     1      -1.081 111.790 271.852  1.00  0.00    -0.271 OA
HETATM   20  N1  UNL     1      -1.241 110.529 269.946  1.00  0.00    -0.352 N 
ATOM     21  H1  UNL     1      -1.807 109.931 269.343  1.00  0.00     0.163 HD
BRANCH  20  22
HETATM   22  C2  UNL     1       0.123 110.811 269.556  1.00  0.00     0.113 C 
HETATM   23  C3  UNL     1       0.096 111.076 268.069  1.00  0.00     0.028 C 
HETATM   24  C4  UNL     1       0.894 110.058 267.288  1.00  0.00     0.002 C 
HETATM   25  C5  UNL     1       2.299 110.081 267.841  1.00  0.00     0.003 C 
HETATM   26  C6  UNL     1       2.313 109.608 269.259  1.00  0.00     0.034 C 
HETATM   27  C7  UNL     1       0.989 109.669 269.951  1.00  0.00     0.140 C 
BRANCH  27  28
HETATM   28  O2  UNL     1       1.246 109.778 271.329  1.00  0.00    -0.394 OA
ATOM     29  H2  UNL     1       1.937 109.163 271.547  1.00  0.00     0.210 HD
ENDBRANCH  27  28
ENDBRANCH  20  22
ENDBRANCH  16  18
ENDBRANCH   1  13
BRANCH   6  30
HETATM   30  N4  UNL     1      -6.635 106.168 276.344  1.00  0.00    -0.374 N 
ATOM     31  H4  UNL     1      -6.068 105.365 276.614  1.00  0.00     0.161 HD
BRANCH  30  32
HETATM   32  C15 UNL     1      -8.098 106.221 276.593  1.00  0.00     0.131 C 
BRANCH  32  33
HETATM   33  C16 UNL     1      -8.555 104.803 276.509  1.00  0.00     0.093 C 
BRANCH  33  34
HETATM   34  S1  UNL     1      -7.917 103.701 275.349  1.00  0.00    -0.167 SA
BRANCH  34  35
HETATM   35  C17 UNL     1      -6.627 102.584 275.555  1.00  0.00     0.078 C 
BRANCH  35  36
HETATM   36  C18 UNL     1      -5.453 102.572 274.680  1.00  0.00    -0.005 C 
HETATM   37  C19 UNL     1      -5.640 102.267 273.249  1.00  0.00     0.005 C 
HETATM   38  C20 UNL     1      -4.435 102.829 272.455  1.00  0.00     0.000 C 
HETATM   39  C21 UNL     1      -3.203 102.718 273.327  1.00  0.00     0.000 C 
HETATM   40  C22 UNL     1      -3.268 101.503 274.208  1.00  0.00     0.000 C 
HETATM   41  C23 UNL     1      -4.350 101.671 275.266  1.00  0.00     0.005 C 
ENDBRANCH  35  36
ENDBRANCH  34  35
ENDBRANCH  33  34
ENDBRANCH  32  33
ENDBRANCH  30  32
ENDBRANCH   6  30
TORSDOF 10
ENDMDL
MODEL 2
REMARK VINA RESULT: -8.791573011      1.373      1.787
REMARK  10 active torsions:
REMARK  status: ('A' for Active; 'I' for Inactive)
REMARK       I    between atoms: C1_2  and  N1_3 
REMARK    1  A    between atoms: C1_2  and  C8_13 
REMARK    2  A    between atoms: N1_3  and  C2_5 
REMARK    3  A    between atoms: C7_10  and  O2_11 
REMARK    4  A    between atoms: C11_16  and  N2_17 
REMARK    5  A    between atoms: C14_22  and  N4_23 
REMARK    6  A    between atoms: N4_23  and  C15_25 
REMARK    7  A    between atoms: C15_25  and  C16_26 
REMARK    8  A    between atoms: C16_26  and  S1_27 
REMARK    9  A    between atoms: S1_27  and  C17_28 
REMARK   10  A    between atoms: C17_28  and  C18_29 
ROOT
HETATM    1  N2  UNL     1      -4.696 108.922 272.065  1.00  0.00    -0.300 N 
HETATM    2  C12 UNL     1      -5.730 108.483 271.339  1.00  0.00     0.188 A 
HETATM    3  N3  UNL     1      -6.367 107.485 271.978  1.00  0.00    -0.346 N 
ATOM      4  H3  UNL     1      -7.186 106.976 271.645  1.00  0.00     0.167 HD
HETATM    5  C13 UNL     1      -5.720 107.286 273.142  1.00  0.00     0.122 A 
HETATM    6  C14 UNL     1      -5.968 106.375 274.172  1.00  0.00     0.133 A 
HETATM    7  N5  UNL     1      -5.124 106.435 275.212  1.00  0.00    -0.337 N 
ATOM      8  H5  UNL     1      -5.269 105.788 275.988  1.00  0.00     0.168 HD
HETATM    9  C24 UNL     1      -4.105 107.293 275.289  1.00  0.00     0.183 A 
HETATM   10  N6  UNL     1      -3.894 108.158 274.280  1.00  0.00    -0.336 N 
ATOM     11  H6  UNL     1      -3.115 108.814 274.344  1.00  0.00     0.168 HD
HETATM   12  C25 UNL     1      -4.684 108.182 273.186  1.00  0.00     0.142 A 
ENDROOT
BRANCH   1  13
HETATM   13  C11 UNL     1      -3.737 109.970 271.776  1.00  0.00     0.231 C 
HETATM   14  C10 UNL     1      -3.970 111.183 272.650  1.00  0.00     0.057 C 
HETATM   15  C9  UNL     1      -2.604 111.871 272.506  1.00  0.00     0.046 C 
HETATM   16  C8  UNL     1      -1.707 110.651 272.476  1.00  0.00     0.216 C 
HETATM   17  O3  UNL     1      -2.468 109.572 272.123  1.00  0.00    -0.352 OA
BRANCH  16  18
HETATM   18  C1  UNL     1      -0.554 110.778 271.580  1.00  0.00     0.247 C 
HETATM   19  O1  UNL     1       0.514 111.343 271.996  1.00  0.00    -0.271 OA
HETATM   20  N1  UNL     1      -0.534 110.307 270.242  1.00  0.00    -0.352 N 
ATOM     21  H1  UNL     1      -1.368 109.849 269.875  1.00  0.00     0.163 HD
BRANCH  20  22
HETATM   22  C2  UNL     1       0.616 110.446 269.376  1.00  0.00     0.113 C 
HETATM   23  C3  UNL     1       0.081 110.814 268.012  1.00  0.00     0.028 C 
HETATM   24  C4  UNL     1       0.386 109.762 266.971  1.00  0.00     0.002 C 
HETATM   25  C5  UNL     1       1.885 109.575 266.959  1.00  0.00     0.003 C 
HETATM   26  C6  UNL     1       2.353 109.007 268.260  1.00  0.00     0.034 C 
HETATM   27  C7  UNL     1       1.399 109.182 269.398  1.00  0.00     0.140 C 
BRANCH  27  28
HETATM   28  O2  UNL     1       2.157 109.164 270.582  1.00  0.00    -0.394 OA
ATOM     29  H2  UNL     1       2.679 108.370 270.582  1.00  0.00     0.210 HD
ENDBRANCH  27  28
ENDBRANCH  20  22
ENDBRANCH  16  18
ENDBRANCH   1  13
BRANCH   6  30
HETATM   30  N4  UNL     1      -6.950 105.548 274.095  1.00  0.00    -0.374 N 
ATOM     31  H4  UNL     1      -7.372 105.289 273.204  1.00  0.00     0.161 HD
BRANCH  30  32
HETATM   32  C15 UNL     1      -7.429 104.991 275.386  1.00  0.00     0.131 C 
BRANCH  32  33
HETATM   33  C16 UNL     1      -7.642 103.537 275.123  1.00  0.00     0.093 C 
BRANCH  33  34
HETATM   34  S1  UNL     1      -6.356 102.394 275.200  1.00  0.00    -0.167 SA
BRANCH  34  35
HETATM   35  C17 UNL     1      -4.673 102.688 275.014  1.00  0.00     0.078 C 
BRANCH  35  36
HETATM   36  C18 UNL     1      -4.082 103.086 273.736  1.00  0.00    -0.005 C 
HETATM   37  C19 UNL     1      -4.937 103.095 272.533  1.00  0.00     0.005 C 
HETATM   38  C20 UNL     1      -4.302 104.030 271.474  1.00  0.00     0.000 C 
HETATM   39  C21 UNL     1      -2.797 103.937 271.605  1.00  0.00     0.000 C 
HETATM   40  C22 UNL     1      -2.372 102.558 272.022  1.00  0.00     0.000 C 
HETATM   41  C23 UNL     1      -2.798 102.282 273.457  1.00  0.00     0.005 C 
ENDBRANCH  35  36
ENDBRANCH  34  35
ENDBRANCH  33  34
ENDBRANCH  32  33
ENDBRANCH  30  32
ENDBRANCH   6  30
TORSDOF 10
ENDMDL
MODEL 3
REMARK VINA RESULT: -8.730320196      1.136      1.251
REMARK  10 active torsions:
REMARK  status: ('A' for Active; 'I' for Inactive)
REMARK       I    between atoms: C1_2  and  N1_3 
REMARK    1  A    between atoms: C1_2  and  C8_13 
REMARK    2  A    between atoms: N1_3  and  C2_5 
REMARK    3  A    between atoms: C7_10  and  O2_11 
REMARK    4  A    between atoms: C11_16  and  N2_17 
REMARK    5  A    between atoms: C14_22  and  N4_23 
REMARK    6  A    between atoms: N4_23  and  C15_25 
REMARK    7  A    between atoms: C15_25  and  C16_26 
REMARK    8  A    between atoms: C16_26  and  S1_27 
REMARK    9  A    between atoms: S1_27  and  C17_28 
REMARK   10  A    between atoms: C17_28  and  C18_29 
ROOT
HETATM    1  N2  UNL     1      -5.056 107.471 273.788  1.00  0.00    -0.300 N 
HETATM    2  C12 UNL     1      -4.745 106.271 274.292  1.00  0.00     0.188 A 
HETATM    3  N3  UNL     1      -5.550 105.968 275.326  1.00  0.00    -0.346 N 
ATOM      4  H3  UNL     1      -5.525 105.115 275.885  1.00  0.00     0.167 HD
HETATM    5  C13 UNL     1      -6.396 107.004 275.483  1.00  0.00     0.122 A 
HETATM    6  C14 UNL     1      -7.426 107.199 276.407  1.00  0.00     0.133 A 
HETATM    7  N5  UNL     1      -8.091 108.358 276.293  1.00  0.00    -0.337 N 
ATOM      8  H5  UNL     1      -8.853 108.543 276.946  1.00  0.00     0.168 HD
HETATM    9  C24 UNL     1      -7.812 109.284 275.373  1.00  0.00     0.183 A 
HETATM   10  N6  UNL     1      -6.814 109.064 274.498  1.00  0.00    -0.336 N 
ATOM     11  H6  UNL     1      -6.605 109.774 273.795  1.00  0.00     0.168 HD
HETATM   12  C25 UNL     1      -6.081 107.931 274.524  1.00  0.00     0.142 A 
ENDROOT
BRANCH   1  13
HETATM   13  C11 UNL     1      -4.461 108.196 272.683  1.00  0.00     0.231 C 
HETATM   14  C10 UNL     1      -5.491 108.521 271.623  1.00  0.00     0.057 C 
HETATM   15  C9  UNL     1      -4.755 109.649 270.884  1.00  0.00     0.046 C 
HETATM   16  C8  UNL     1      -4.087 110.329 272.061  1.00  0.00     0.216 C 
HETATM   17  O3  UNL     1      -4.033 109.436 273.094  1.00  0.00    -0.352 OA
BRANCH  16  18
HETATM   18  C1  UNL     1      -2.749 110.852 271.770  1.00  0.00     0.247 C 
HETATM   19  O1  UNL     1      -2.141 111.562 272.642  1.00  0.00    -0.271 OA
HETATM   20  N1  UNL     1      -2.057 110.626 270.553  1.00  0.00    -0.352 N 
ATOM     21  H1  UNL     1      -2.510 110.063 269.833  1.00  0.00     0.163 HD
BRANCH  20  22
HETATM   22  C2  UNL     1      -0.737 111.156 270.288  1.00  0.00     0.113 C 
HETATM   23  C3  UNL     1      -0.780 111.730 268.891  1.00  0.00     0.028 C 
HETATM   24  C4  UNL     1       0.156 111.014 267.945  1.00  0.00     0.002 C 
HETATM   25  C5  UNL     1       1.538 111.095 268.547  1.00  0.00     0.003 C 
HETATM   26  C6  UNL     1       1.597 110.333 269.831  1.00  0.00     0.034 C 
HETATM   27  C7  UNL     1       0.268 110.074 270.466  1.00  0.00     0.140 C 
BRANCH  27  28
HETATM   28  O2  UNL     1       0.490 109.915 271.845  1.00  0.00    -0.394 OA
ATOM     29  H2  UNL     1      -0.283 109.509 272.220  1.00  0.00     0.210 HD
ENDBRANCH  27  28
ENDBRANCH  20  22
ENDBRANCH  16  18
ENDBRANCH   1  13
BRANCH   6  30
HETATM   30  N4  UNL     1      -7.692 106.307 277.293  1.00  0.00    -0.374 N 
ATOM     31  H4  UNL     1      -7.018 106.036 278.009  1.00  0.00     0.161 HD
BRANCH  30  32
HETATM   32  C15 UNL     1      -9.044 105.696 277.210  1.00  0.00     0.131 C 
BRANCH  32  33
HETATM   33  C16 UNL     1      -8.804 104.223 277.259  1.00  0.00     0.093 C 
BRANCH  33  34
HETATM   34  S1  UNL     1      -8.132 103.359 275.929  1.00  0.00    -0.167 SA
BRANCH  34  35
HETATM   35  C17 UNL     1      -6.811 102.260 275.947  1.00  0.00     0.078 C 
BRANCH  35  36
HETATM   36  C18 UNL     1      -5.687 102.368 275.015  1.00  0.00    -0.005 C 
HETATM   37  C19 UNL     1      -5.928 102.105 273.583  1.00  0.00     0.005 C 
HETATM   38  C20 UNL     1      -4.811 102.785 272.754  1.00  0.00     0.000 C 
HETATM   39  C21 UNL     1      -3.530 102.734 273.557  1.00  0.00     0.000 C 
HETATM   40  C22 UNL     1      -3.459 101.485 274.389  1.00  0.00     0.000 C 
HETATM   41  C23 UNL     1      -4.492 101.531 275.506  1.00  0.00     0.005 C 
ENDBRANCH  35  36
ENDBRANCH  34  35
ENDBRANCH  33  34
ENDBRANCH  32  33
ENDBRANCH  30  32
ENDBRANCH   6  30
TORSDOF 10
ENDMDL
MODEL 4
REMARK VINA RESULT: -8.508009825      6.685     12.805
REMARK  10 active torsions:
REMARK  status: ('A' for Active; 'I' for Inactive)
REMARK       I    between atoms: C1_2  and  N1_3 
REMARK    1  A    between atoms: C1_2  and  C8_13 
REMARK    2  A    between atoms: N1_3  and  C2_5 
REMARK    3  A    between atoms: C7_10  and  O2_11 
REMARK    4  A    between atoms: C11_16  and  N2_17 
REMARK    5  A    between atoms: C14_22  and  N4_23 
REMARK    6  A    between atoms: N4_23  and  C15_25 
REMARK    7  A    between atoms: C15_25  and  C16_26 
REMARK    8  A    between atoms: C16_26  and  S1_27 
REMARK    9  A    between atoms: S1_27  and  C17_28 
REMARK   10  A    between atoms: C17_28  and  C18_29 
ROOT
HETATM    1  N2  UNL     1     -11.459 106.440 278.871  1.00  0.00    -0.300 N 
HETATM    2  C12 UNL     1     -11.119 107.720 278.674  1.00  0.00     0.188 A 
HETATM    3  N3  UNL     1      -9.985 107.803 277.954  1.00  0.00    -0.346 N 
ATOM      4  H3  UNL     1      -9.511 108.659 277.665  1.00  0.00     0.167 HD
HETATM    5  C13 UNL     1      -9.594 106.542 277.688  1.00  0.00     0.122 A 
HETATM    6  C14 UNL     1      -8.488 106.069 276.977  1.00  0.00     0.133 A 
HETATM    7  N5  UNL     1      -8.385 104.734 276.892  1.00  0.00    -0.337 N 
ATOM      8  H5  UNL     1      -7.593 104.344 276.381  1.00  0.00     0.168 HD
HETATM    9  C24 UNL     1      -9.261 103.889 277.438  1.00  0.00     0.183 A 
HETATM   10  N6  UNL     1     -10.316 104.377 278.114  1.00  0.00    -0.336 N 
ATOM     11  H6  UNL     1     -10.984 103.727 278.529  1.00  0.00     0.168 HD
HETATM   12  C25 UNL     1     -10.515 105.704 278.261  1.00  0.00     0.142 A 
ENDROOT
BRANCH   1  13
HETATM   13  C11 UNL     1     -12.589 105.879 279.584  1.00  0.00     0.231 C 
HETATM   14  C10 UNL     1     -13.860 106.643 279.284  1.00  0.00     0.057 C 
HETATM   15  C9  UNL     1     -14.898 105.599 279.724  1.00  0.00     0.046 C 
HETATM   16  C8  UNL     1     -14.199 104.337 279.263  1.00  0.00     0.216 C 
HETATM   17  O3  UNL     1     -12.868 104.613 279.126  1.00  0.00    -0.352 OA
BRANCH  16  18
HETATM   18  C1  UNL     1     -14.392 103.188 280.151  1.00  0.00     0.247 C 
HETATM   19  O1  UNL     1     -15.516 102.579 280.167  1.00  0.00    -0.271 OA
HETATM   20  N1  UNL     1     -13.395 102.684 281.026  1.00  0.00    -0.352 N 
ATOM     21  H1  UNL     1     -12.485 103.144 281.041  1.00  0.00     0.163 HD
BRANCH  20  22
HETATM   22  C2  UNL     1     -13.612 101.549 281.896  1.00  0.00     0.113 C 
HETATM   23  C3  UNL     1     -12.948 101.886 283.210  1.00  0.00     0.028 C 
HETATM   24  C4  UNL     1     -11.811 100.948 283.540  1.00  0.00     0.002 C 
HETATM   25  C5  UNL     1     -12.379  99.549 283.536  1.00  0.00     0.003 C 
HETATM   26  C6  UNL     1     -12.834  99.170 282.163  1.00  0.00     0.034 C 
HETATM   27  C7  UNL     1     -13.074 100.325 281.244  1.00  0.00     0.140 C 
BRANCH  27  28
HETATM   28  O2  UNL     1     -14.007  99.903 280.281  1.00  0.00    -0.394 OA
ATOM     29  H2  UNL     1     -14.819  99.702 280.731  1.00  0.00     0.210 HD
ENDBRANCH  27  28
ENDBRANCH  20  22
ENDBRANCH  16  18
ENDBRANCH   1  13
BRANCH   6  30
HETATM   30  N4  UNL     1      -7.644 106.885 276.453  1.00  0.00    -0.374 N 
ATOM     31  H4  UNL     1      -7.779 107.896 276.483  1.00  0.00     0.161 HD
BRANCH  30  32
HETATM   32  C15 UNL     1      -6.461 106.265 275.803  1.00  0.00     0.131 C 
BRANCH  32  33
HETATM   33  C16 UNL     1      -6.491 106.761 274.396  1.00  0.00     0.093 C 
BRANCH  33  34
HETATM   34  S1  UNL     1      -5.590 106.006 273.138  1.00  0.00    -0.167 SA
BRANCH  34  35
HETATM   35  C17 UNL     1      -4.158 105.066 273.286  1.00  0.00     0.078 C 
BRANCH  35  36
HETATM   36  C18 UNL     1      -4.166 103.702 273.819  1.00  0.00    -0.005 C 
HETATM   37  C19 UNL     1      -3.279 102.697 273.203  1.00  0.00     0.005 C 
HETATM   38  C20 UNL     1      -3.042 101.550 274.216  1.00  0.00     0.000 C 
HETATM   39  C21 UNL     1      -4.304 101.374 275.033  1.00  0.00     0.000 C 
HETATM   40  C22 UNL     1      -5.528 101.671 274.214  1.00  0.00     0.000 C 
HETATM   41  C23 UNL     1      -5.604 103.156 273.891  1.00  0.00     0.005 C 
ENDBRANCH  35  36
ENDBRANCH  34  35
ENDBRANCH  33  34
ENDBRANCH  32  33
ENDBRANCH  30  32
ENDBRANCH   6  30
TORSDOF 10
ENDMDL
MODEL 5
REMARK VINA RESULT: -8.500611203      1.137      1.223
REMARK  10 active torsions:
REMARK  status: ('A' for Active; 'I' for Inactive)
REMARK       I    between atoms: C1_2  and  N1_3 
REMARK    1  A    between atoms: C1_2  and  C8_13 
REMARK    2  A    between atoms: N1_3  and  C2_5 
REMARK    3  A    between atoms: C7_10  and  O2_11 
REMARK    4  A    between atoms: C11_16  and  N2_17 
REMARK    5  A    between atoms: C14_22  and  N4_23 
REMARK    6  A    between atoms: N4_23  and  C15_25 
REMARK    7  A    between atoms: C15_25  and  C16_26 
REMARK    8  A    between atoms: C16_26  and  S1_27 
REMARK    9  A    between atoms: S1_27  and  C17_28 
REMARK   10  A    between atoms: C17_28  and  C18_29 
ROOT
HETATM    1  N2  UNL     1      -4.528 108.075 272.784  1.00  0.00    -0.300 N 
HETATM    2  C12 UNL     1      -4.481 106.739 272.738  1.00  0.00     0.188 A 
HETATM    3  N3  UNL     1      -5.139 106.206 273.783  1.00  0.00    -0.346 N 
ATOM      4  H3  UNL     1      -5.255 105.213 273.985  1.00  0.00     0.167 HD
HETATM    5  C13 UNL     1      -5.617 107.232 274.513  1.00  0.00     0.122 A 
HETATM    6  C14 UNL     1      -6.367 107.232 275.692  1.00  0.00     0.133 A 
HETATM    7  N5  UNL     1      -6.688 108.442 276.171  1.00  0.00    -0.337 N 
ATOM      8  H5  UNL     1      -7.237 108.491 277.030  1.00  0.00     0.168 HD
HETATM    9  C24 UNL     1      -6.331 109.588 275.588  1.00  0.00     0.183 A 
HETATM   10  N6  UNL     1      -5.609 109.552 274.453  1.00  0.00    -0.336 N 
ATOM     11  H6  UNL     1      -5.339 110.431 274.009  1.00  0.00     0.168 HD
HETATM   12  C25 UNL     1      -5.232 108.388 273.885  1.00  0.00     0.142 A 
ENDROOT
BRANCH   1  13
HETATM   13  C11 UNL     1      -3.962 109.056 271.879  1.00  0.00     0.231 C 
HETATM   14  C10 UNL     1      -4.996 109.552 270.892  1.00  0.00     0.057 C 
HETATM   15  C9  UNL     1      -4.315 110.851 270.436  1.00  0.00     0.046 C 
HETATM   16  C8  UNL     1      -3.700 111.290 271.748  1.00  0.00     0.216 C 
HETATM   17  O3  UNL     1      -3.609 110.196 272.562  1.00  0.00    -0.352 OA
BRANCH  16  18
HETATM   18  C1  UNL     1      -2.391 111.933 271.610  1.00  0.00     0.247 C 
HETATM   19  O1  UNL     1      -1.835 112.468 272.630  1.00  0.00    -0.271 OA
HETATM   20  N1  UNL     1      -1.671 112.013 270.391  1.00  0.00    -0.352 N 
ATOM     21  H1  UNL     1      -2.082 111.597 269.555  1.00  0.00     0.163 HD
BRANCH  20  22
HETATM   22  C2  UNL     1      -0.380 112.656 270.279  1.00  0.00     0.113 C 
HETATM   23  C3  UNL     1      -0.410 113.454 268.997  1.00  0.00     0.028 C 
HETATM   24  C4  UNL     1       0.604 112.965 267.990  1.00  0.00     0.002 C 
HETATM   25  C5  UNL     1       1.956 113.023 268.661  1.00  0.00     0.003 C 
HETATM   26  C6  UNL     1       2.018 112.060 269.802  1.00  0.00     0.034 C 
HETATM   27  C7  UNL     1       0.687 111.621 270.322  1.00  0.00     0.140 C 
BRANCH  27  28
HETATM   28  O2  UNL     1       0.869 111.244 271.665  1.00  0.00    -0.394 OA
ATOM     29  H2  UNL     1       0.036 110.927 271.994  1.00  0.00     0.210 HD
ENDBRANCH  27  28
ENDBRANCH  20  22
ENDBRANCH  16  18
ENDBRANCH   1  13
BRANCH   6  30
HETATM   30  N4  UNL     1      -6.709 106.127 276.253  1.00  0.00    -0.374 N 
ATOM     31  H4  UNL     1      -6.046 105.369 276.406  1.00  0.00     0.161 HD
BRANCH  30  32
HETATM   32  C15 UNL     1      -8.133 106.025 276.667  1.00  0.00     0.131 C 
BRANCH  32  33
HETATM   33  C16 UNL     1      -8.505 104.602 276.418  1.00  0.00     0.093 C 
BRANCH  33  34
HETATM   34  S1  UNL     1      -7.715 103.642 275.226  1.00  0.00    -0.167 SA
BRANCH  34  35
HETATM   35  C17 UNL     1      -6.384 102.576 275.446  1.00  0.00     0.078 C 
BRANCH  35  36
HETATM   36  C18 UNL     1      -5.218 102.583 274.561  1.00  0.00    -0.005 C 
HETATM   37  C19 UNL     1      -5.422 102.344 273.120  1.00  0.00     0.005 C 
HETATM   38  C20 UNL     1      -4.215 102.922 272.340  1.00  0.00     0.000 C 
HETATM   39  C21 UNL     1      -2.978 102.754 273.195  1.00  0.00     0.000 C 
HETATM   40  C22 UNL     1      -3.054 101.503 274.023  1.00  0.00     0.000 C 
HETATM   41  C23 UNL     1      -4.124 101.641 275.097  1.00  0.00     0.005 C 
ENDBRANCH  35  36
ENDBRANCH  34  35
ENDBRANCH  33  34
ENDBRANCH  32  33
ENDBRANCH  30  32
ENDBRANCH   6  30
TORSDOF 10
ENDMDL
