MODEL 1
REMARK VINA RESULT: -8.263535429      0.000      0.000
REMARK  4 active torsions:
REMARK  status: ('A' for Active; 'I' for Inactive)
REMARK    1  A    between atoms: C5_8  and  C6_9 
REMARK    2  A    between atoms: C6_9  and  N1_10 
REMARK    3  A    between atoms: N1_10  and  N2_12 
REMARK    4  A    between atoms: N2_12  and  C7_14 
ROOT
HETATM    1  N2  UNL     1       5.754 -28.989 -12.101  1.00  0.00    -0.285 N 
ATOM      2  H2  UNL     1       5.889 -29.483 -12.983  1.00  0.00     0.188 HD
ENDROOT
BRANCH   1   3
HETATM    3  N1  UNL     1       4.787 -29.456 -11.215  1.00  0.00    -0.309 N 
ATOM      4  H1  UNL     1       4.839 -30.417 -10.878  1.00  0.00     0.186 HD
BRANCH   3   5
HETATM    5  C6  UNL     1       3.836 -28.705 -10.815  1.00  0.00     0.122 C 
BRANCH   5   6
HETATM    6  C5  UNL     1       2.452 -29.195 -10.673  1.00  0.00     0.028 A 
HETATM    7  C4  UNL     1       2.033 -29.840  -9.532  1.00  0.00     0.069 A 
HETATM    8  C3  UNL     1       0.731 -30.282  -9.443  1.00  0.00     0.058 A 
HETATM    9 CL3  UNL     1       3.154 -30.096  -8.210  1.00  0.00    -0.082 Cl
HETATM   10  C2  UNL     1      -0.164 -30.083 -10.487  1.00  0.00     0.051 A 
HETATM   11 CL2  UNL     1       0.149 -31.113  -8.003  1.00  0.00    -0.082 Cl
HETATM   12  C1  UNL     1       0.242 -29.435 -11.642  1.00  0.00     0.058 A 
HETATM   13 CL1  UNL     1      -0.875 -29.175 -12.972  1.00  0.00    -0.082 Cl
HETATM   14  C14 UNL     1       1.555 -29.013 -11.683  1.00  0.00     0.069 A 
HETATM   15 CL4  UNL     1       2.053 -28.188 -13.167  1.00  0.00    -0.082 Cl
ENDBRANCH   5   6
ENDBRANCH   3   5
ENDBRANCH   1   3
BRANCH   1  16
HETATM   16  C7  UNL     1       6.486 -27.955 -11.849  1.00  0.00     0.129 A 
HETATM   17  N3  UNL     1       7.336 -28.045 -10.825  1.00  0.00    -0.337 N 
HETATM   18  C8  UNL     1       8.097 -26.987 -10.554  1.00  0.00     0.182 A 
ATOM     19  H3  UNL     1       7.401 -28.897 -10.268  1.00  0.00     0.168 HD
HETATM   20  N4  UNL     1       8.010 -25.882 -11.281  1.00  0.00    -0.355 N 
HETATM   21  C9  UNL     1       7.157 -25.736 -12.339  1.00  0.00     0.021 A 
ATOM     22  H4  UNL     1       8.612 -25.096 -11.036  1.00  0.00     0.166 HD
HETATM   23  C10 UNL     1       6.372 -26.800 -12.634  1.00  0.00     0.019 A 
HETATM   24  C13 UNL     1       7.221 -24.435 -13.005  1.00  0.00     0.068 C 
HETATM   25  C11 UNL     1       5.373 -26.888 -13.729  1.00  0.00     0.118 C 
HETATM   26  S1  UNL     1       4.955 -25.236 -14.338  1.00  0.00    -0.164 SA
HETATM   27  C12 UNL     1       6.530 -24.306 -14.306  1.00  0.00     0.080 C 
ENDBRANCH   1  16
TORSDOF 4
ENDMDL
MODEL 2
REMARK VINA RESULT: -8.252669351      0.075      2.472
REMARK  4 active torsions:
REMARK  status: ('A' for Active; 'I' for Inactive)
REMARK    1  A    between atoms: C5_8  and  C6_9 
REMARK    2  A    between atoms: C6_9  and  N1_10 
REMARK    3  A    between atoms: N1_10  and  N2_12 
REMARK    4  A    between atoms: N2_12  and  C7_14 
ROOT
HETATM    1  N2  UNL     1       5.660 -28.939 -12.093  1.00  0.00    -0.285 N 
ATOM      2  H2  UNL     1       5.738 -29.404 -12.998  1.00  0.00     0.188 HD
ENDROOT
BRANCH   1   3
HETATM    3  N1  UNL     1       4.735 -29.420 -11.171  1.00  0.00    -0.309 N 
ATOM      4  H1  UNL     1       4.828 -30.373 -10.819  1.00  0.00     0.186 HD
BRANCH   3   5
HETATM    5  C6  UNL     1       3.772 -28.693 -10.757  1.00  0.00     0.122 C 
BRANCH   5   6
HETATM    6  C5  UNL     1       2.385 -29.189 -10.685  1.00  0.00     0.028 A 
HETATM    7  C4  UNL     1       1.501 -29.002 -11.722  1.00  0.00     0.069 A 
HETATM    8  C3  UNL     1       0.214 -29.481 -11.612  1.00  0.00     0.058 A 
HETATM    9 CL3  UNL     1       2.017 -28.156 -13.167  1.00  0.00    -0.082 Cl
HETATM   10  C2  UNL     1      -0.202 -30.153 -10.469  1.00  0.00     0.051 A 
HETATM   11 CL2  UNL     1      -0.953 -29.264 -12.913  1.00  0.00    -0.082 Cl
HETATM   12  C1  UNL     1       0.676 -30.350  -9.415  1.00  0.00     0.058 A 
HETATM   13 CL1  UNL     1       0.168 -31.196  -7.963  1.00  0.00    -0.082 Cl
HETATM   14  C14 UNL     1       1.952 -29.851  -9.574  1.00  0.00     0.069 A 
HETATM   15 CL4  UNL     1       3.058 -30.114  -8.217  1.00  0.00    -0.082 Cl
ENDBRANCH   5   6
ENDBRANCH   3   5
ENDBRANCH   1   3
BRANCH   1  16
HETATM   16  C7  UNL     1       6.424 -27.927 -11.848  1.00  0.00     0.129 A 
HETATM   17  N3  UNL     1       7.285 -28.045 -10.836  1.00  0.00    -0.337 N 
HETATM   18  C8  UNL     1       8.079 -27.009 -10.572  1.00  0.00     0.182 A 
ATOM     19  H3  UNL     1       7.333 -28.900 -10.283  1.00  0.00     0.168 HD
HETATM   20  N4  UNL     1       8.013 -25.899 -11.293  1.00  0.00    -0.355 N 
HETATM   21  C9  UNL     1       7.150 -25.725 -12.340  1.00  0.00     0.021 A 
ATOM     22  H4  UNL     1       8.640 -25.132 -11.054  1.00  0.00     0.166 HD
HETATM   23  C10 UNL     1       6.332 -26.767 -12.627  1.00  0.00     0.019 A 
HETATM   24  C13 UNL     1       7.242 -24.425 -13.002  1.00  0.00     0.068 C 
HETATM   25  C11 UNL     1       5.317 -26.822 -13.709  1.00  0.00     0.118 C 
HETATM   26  S1  UNL     1       4.936 -25.156 -14.307  1.00  0.00    -0.164 SA
HETATM   27  C12 UNL     1       6.537 -24.271 -14.293  1.00  0.00     0.080 C 
ENDBRANCH   1  16
TORSDOF 4
ENDMDL
MODEL 3
REMARK VINA RESULT: -8.193960900      3.669      6.531
REMARK  4 active torsions:
REMARK  status: ('A' for Active; 'I' for Inactive)
REMARK    1  A    between atoms: C5_8  and  C6_9 
REMARK    2  A    between atoms: C6_9  and  N1_10 
REMARK    3  A    between atoms: N1_10  and  N2_12 
REMARK    4  A    between atoms: N2_12  and  C7_14 
ROOT
HETATM    1  N2  UNL     1       2.579 -27.980 -12.862  1.00  0.00    -0.285 N 
ATOM      2  H2  UNL     1       2.523 -27.911 -13.878  1.00  0.00     0.188 HD
ENDROOT
BRANCH   1   3
HETATM    3  N1  UNL     1       3.704 -28.570 -12.293  1.00  0.00    -0.309 N 
ATOM      4  H1  UNL     1       3.613 -29.073 -11.410  1.00  0.00     0.186 HD
BRANCH   3   5
HETATM    5  C6  UNL     1       4.848 -28.496 -12.854  1.00  0.00     0.122 C 
BRANCH   5   6
HETATM    6  C5  UNL     1       5.860 -27.503 -12.449  1.00  0.00     0.028 A 
HETATM    7  C4  UNL     1       6.684 -27.716 -11.368  1.00  0.00     0.069 A 
HETATM    8  C3  UNL     1       7.615 -26.761 -11.026  1.00  0.00     0.058 A 
HETATM    9 CL3  UNL     1       6.539 -29.195 -10.439  1.00  0.00    -0.082 Cl
HETATM   10  C2  UNL     1       7.735 -25.586 -11.758  1.00  0.00     0.051 A 
HETATM   11 CL2  UNL     1       8.691 -26.990  -9.650  1.00  0.00    -0.082 Cl
HETATM   12  C1  UNL     1       6.914 -25.356 -12.850  1.00  0.00     0.058 A 
HETATM   13 CL1  UNL     1       7.051 -23.877 -13.787  1.00  0.00    -0.082 Cl
HETATM   14  C14 UNL     1       5.998 -26.342 -13.151  1.00  0.00     0.069 A 
HETATM   15 CL4  UNL     1       4.959 -26.028 -14.549  1.00  0.00    -0.082 Cl
ENDBRANCH   5   6
ENDBRANCH   3   5
ENDBRANCH   1   3
BRANCH   1  16
HETATM   16  C7  UNL     1       1.605 -27.514 -12.153  1.00  0.00     0.129 A 
HETATM   17  N3  UNL     1       1.498 -27.957 -10.899  1.00  0.00    -0.337 N 
HETATM   18  C8  UNL     1       0.498 -27.486 -10.157  1.00  0.00     0.182 A 
ATOM     19  H3  UNL     1       2.161 -28.635 -10.522  1.00  0.00     0.168 HD
HETATM   20  N4  UNL     1      -0.361 -26.606 -10.651  1.00  0.00    -0.355 N 
HETATM   21  C9  UNL     1      -0.297 -26.119 -11.927  1.00  0.00     0.021 A 
ATOM     22  H4  UNL     1      -1.110 -26.273 -10.046  1.00  0.00     0.166 HD
HETATM   23  C10 UNL     1       0.713 -26.584 -12.702  1.00  0.00     0.019 A 
HETATM   24  C13 UNL     1      -1.342 -25.155 -12.269  1.00  0.00     0.068 C 
HETATM   25  C11 UNL     1       0.992 -26.210 -14.111  1.00  0.00     0.118 C 
HETATM   26  S1  UNL     1      -0.458 -25.425 -14.858  1.00  0.00    -0.164 SA
HETATM   27  C12 UNL     1      -1.177 -24.396 -13.527  1.00  0.00     0.080 C 
ENDBRANCH   1  16
TORSDOF 4
ENDMDL
MODEL 4
REMARK VINA RESULT: -8.165036234      3.679      6.960
REMARK  4 active torsions:
REMARK  status: ('A' for Active; 'I' for Inactive)
REMARK    1  A    between atoms: C5_8  and  C6_9 
REMARK    2  A    between atoms: C6_9  and  N1_10 
REMARK    3  A    between atoms: N1_10  and  N2_12 
REMARK    4  A    between atoms: N2_12  and  C7_14 
ROOT
HETATM    1  N2  UNL     1       2.605 -27.915 -12.890  1.00  0.00    -0.285 N 
ATOM      2  H2  UNL     1       2.570 -27.791 -13.902  1.00  0.00     0.188 HD
ENDROOT
BRANCH   1   3
HETATM    3  N1  UNL     1       3.705 -28.564 -12.334  1.00  0.00    -0.309 N 
ATOM      4  H1  UNL     1       3.586 -29.102 -11.476  1.00  0.00     0.186 HD
BRANCH   3   5
HETATM    5  C6  UNL     1       4.858 -28.498 -12.876  1.00  0.00     0.122 C 
BRANCH   5   6
HETATM    6  C5  UNL     1       5.843 -27.464 -12.509  1.00  0.00     0.028 A 
HETATM    7  C4  UNL     1       5.966 -26.301 -13.233  1.00  0.00     0.069 A 
HETATM    8  C3  UNL     1       6.901 -25.362 -12.855  1.00  0.00     0.058 A 
HETATM    9 CL3  UNL     1       4.939 -26.026 -14.627  1.00  0.00    -0.082 Cl
HETATM   10  C2  UNL     1       7.718 -25.573 -11.752  1.00  0.00     0.051 A 
HETATM   11 CL2  UNL     1       7.095 -23.859 -13.752  1.00  0.00    -0.082 Cl
HETATM   12  C1  UNL     1       7.607 -26.738 -11.011  1.00  0.00     0.058 A 
HETATM   13 CL1  UNL     1       8.632 -27.023  -9.614  1.00  0.00    -0.082 Cl
HETATM   14  C14 UNL     1       6.658 -27.647 -11.431  1.00  0.00     0.069 A 
HETATM   15 CL4  UNL     1       6.531 -29.129 -10.472  1.00  0.00    -0.082 Cl
ENDBRANCH   5   6
ENDBRANCH   3   5
ENDBRANCH   1   3
BRANCH   1  16
HETATM   16  C7  UNL     1       1.630 -27.464 -12.174  1.00  0.00     0.129 A 
HETATM   17  N3  UNL     1       1.528 -27.920 -10.925  1.00  0.00    -0.337 N 
HETATM   18  C8  UNL     1       0.526 -27.463 -10.176  1.00  0.00     0.182 A 
ATOM     19  H3  UNL     1       2.196 -28.597 -10.556  1.00  0.00     0.168 HD
HETATM   20  N4  UNL     1      -0.339 -26.583 -10.660  1.00  0.00    -0.355 N 
HETATM   21  C9  UNL     1      -0.282 -26.083 -11.931  1.00  0.00     0.021 A 
ATOM     22  H4  UNL     1      -1.090 -26.262 -10.050  1.00  0.00     0.166 HD
HETATM   23  C10 UNL     1       0.730 -26.534 -12.712  1.00  0.00     0.019 A 
HETATM   24  C13 UNL     1      -1.334 -25.123 -12.262  1.00  0.00     0.068 C 
HETATM   25  C11 UNL     1       1.004 -26.143 -14.118  1.00  0.00     0.118 C 
HETATM   26  S1  UNL     1      -0.453 -25.361 -14.854  1.00  0.00    -0.164 SA
HETATM   27  C12 UNL     1      -1.176 -24.350 -13.512  1.00  0.00     0.080 C 
ENDBRANCH   1  16
TORSDOF 4
ENDMDL
MODEL 5
REMARK VINA RESULT: -8.061211265      4.049      6.548
REMARK  4 active torsions:
REMARK  status: ('A' for Active; 'I' for Inactive)
REMARK    1  A    between atoms: C5_8  and  C6_9 
REMARK    2  A    between atoms: C6_9  and  N1_10 
REMARK    3  A    between atoms: N1_10  and  N2_12 
REMARK    4  A    between atoms: N2_12  and  C7_14 
ROOT
HETATM    1  N2  UNL     1       2.574 -26.443 -13.509  1.00  0.00    -0.285 N 
ATOM      2  H2  UNL     1       2.460 -26.725 -14.483  1.00  0.00     0.188 HD
ENDROOT
BRANCH   1   3
HETATM    3  N1  UNL     1       3.854 -26.159 -13.040  1.00  0.00    -0.309 N 
ATOM      4  H1  UNL     1       4.008 -25.318 -12.485  1.00  0.00     0.186 HD
BRANCH   3   5
HETATM    5  C6  UNL     1       4.838 -26.932 -13.290  1.00  0.00     0.122 C 
BRANCH   5   6
HETATM    6  C5  UNL     1       5.664 -27.525 -12.223  1.00  0.00     0.028 A 
HETATM    7  C4  UNL     1       6.807 -26.905 -11.771  1.00  0.00     0.069 A 
HETATM    8  C3  UNL     1       7.549 -27.495 -10.772  1.00  0.00     0.058 A 
HETATM    9 CL3  UNL     1       7.305 -25.377 -12.469  1.00  0.00    -0.082 Cl
HETATM   10  C2  UNL     1       7.160 -28.706 -10.215  1.00  0.00     0.051 A 
HETATM   11 CL2  UNL     1       9.018 -26.739 -10.162  1.00  0.00    -0.082 Cl
HETATM   12  C1  UNL     1       6.013 -29.344 -10.657  1.00  0.00     0.058 A 
HETATM   13 CL1  UNL     1       5.505 -30.876  -9.964  1.00  0.00    -0.082 Cl
HETATM   14  C14 UNL     1       5.305 -28.713 -11.659  1.00  0.00     0.069 A 
HETATM   15 CL4  UNL     1       3.842 -29.543 -12.211  1.00  0.00    -0.082 Cl
ENDBRANCH   5   6
ENDBRANCH   3   5
ENDBRANCH   1   3
BRANCH   1  16
HETATM   16  C7  UNL     1       1.525 -26.361 -12.760  1.00  0.00     0.129 A 
HETATM   17  N3  UNL     1       1.519 -27.084 -11.639  1.00  0.00    -0.337 N 
HETATM   18  C8  UNL     1       0.444 -27.011 -10.857  1.00  0.00     0.182 A 
ATOM     19  H3  UNL     1       2.313 -27.675 -11.390  1.00  0.00     0.168 HD
HETATM   20  N4  UNL     1      -0.585 -26.242 -11.185  1.00  0.00    -0.355 N 
HETATM   21  C9  UNL     1      -0.631 -25.481 -12.320  1.00  0.00     0.021 A 
ATOM     22  H4  UNL     1      -1.386 -26.217 -10.556  1.00  0.00     0.166 HD
HETATM   23  C10 UNL     1       0.452 -25.541 -13.132  1.00  0.00     0.019 A 
HETATM   24  C13 UNL     1      -1.859 -24.706 -12.490  1.00  0.00     0.068 C 
HETATM   25  C11 UNL     1       0.640 -24.812 -14.412  1.00  0.00     0.118 C 
HETATM   26  S1  UNL     1      -0.947 -24.202 -15.033  1.00  0.00    -0.164 SA
HETATM   27  C12 UNL     1      -1.865 -23.668 -13.543  1.00  0.00     0.080 C 
ENDBRANCH   1  16
TORSDOF 4
ENDMDL
