MODEL 1
REMARK VINA RESULT: -8.612909040      0.000      0.000
REMARK  2 active torsions:
REMARK  status: ('A' for Active; 'I' for Inactive)
REMARK    1  A    between atoms: C6_10  and  N2_11 
REMARK       I    between atoms: N2_11  and  C7_13 
REMARK    2  A    between atoms: C7_13  and  C8_15 
ROOT
HETATM    1  N2  UNL     1       2.052 -27.486 -11.785  1.00  0.00    -0.326 N 
ATOM      2  H2  UNL     1       1.815 -26.500 -11.671  1.00  0.00     0.169 HD
HETATM    3  C7  UNL     1       3.268 -27.748 -12.406  1.00  0.00     0.230 C 
HETATM    4  O2  UNL     1       3.664 -28.910 -12.609  1.00  0.00    -0.272 OA
ENDROOT
BRANCH   1   5
HETATM    5  C6  UNL     1       1.096 -28.414 -11.289  1.00  0.00     0.038 A 
HETATM    6  C5  UNL     1       1.366 -29.029 -10.093  1.00  0.00     0.054 A 
HETATM    7  C4  UNL     1       0.426 -29.959  -9.662  1.00  0.00     0.055 A 
HETATM    8  C3  UNL     1      -0.712 -30.227 -10.425  1.00  0.00     0.059 A 
HETATM    9 CL1  UNL     1       0.594 -30.842  -8.171  1.00  0.00    -0.083 Cl
HETATM   10  S1  UNL     1      -2.056 -31.281 -10.234  1.00  0.00    -0.025 SA
HETATM   11  C16 UNL     1      -0.989 -29.619 -11.616  1.00  0.00     0.058 A 
HETATM   12  C2  UNL     1      -2.873 -30.883 -11.666  1.00  0.00     0.291 A 
HETATM   13  N1  UNL     1      -2.100 -29.968 -12.236  1.00  0.00    -0.311 N 
HETATM   14  O1  UNL     1      -3.974 -31.348 -12.103  1.00  0.00    -0.259 OA
HETATM   15  C1  UNL     1      -2.530 -29.382 -13.548  1.00  0.00     0.160 C 
HETATM   16  C15 UNL     1      -0.037 -28.676 -12.052  1.00  0.00     0.060 A 
ENDBRANCH   1   5
BRANCH   3  17
HETATM   17  C8  UNL     1       4.174 -26.640 -12.869  1.00  0.00     0.043 C 
HETATM   18  C9  UNL     1       3.386 -25.371 -12.996  1.00  0.00     0.025 C 
HETATM   19  C10 UNL     1       4.768 -26.967 -14.220  1.00  0.00     0.065 C 
HETATM   20  C11 UNL     1       6.247 -26.739 -14.121  1.00  0.00     0.136 C 
HETATM   21  C12 UNL     1       7.042 -27.878 -14.736  1.00  0.00     0.055 C 
HETATM   22  F1  UNL     1       6.617 -25.593 -14.827  1.00  0.00    -0.240 F 
HETATM   23  C13 UNL     1       6.591 -26.519 -12.682  1.00  0.00     0.149 C 
HETATM   24 CL2  UNL     1       7.671 -27.792 -12.045  1.00  0.00    -0.098 Cl
HETATM   25 CL3  UNL     1       7.429 -24.957 -12.444  1.00  0.00    -0.098 Cl
HETATM   26  C14 UNL     1       5.302 -26.498 -11.913  1.00  0.00     0.064 C 
ENDBRANCH   3  17
TORSDOF 2
ENDMDL
MODEL 2
REMARK VINA RESULT: -8.584140883      4.721      7.643
REMARK  2 active torsions:
REMARK  status: ('A' for Active; 'I' for Inactive)
REMARK    1  A    between atoms: C6_10  and  N2_11 
REMARK       I    between atoms: N2_11  and  C7_13 
REMARK    2  A    between atoms: C7_13  and  C8_15 
ROOT
HETATM    1  N2  UNL     1       2.006 -27.258 -13.402  1.00  0.00    -0.326 N 
ATOM      2  H2  UNL     1       1.853 -27.815 -14.243  1.00  0.00     0.169 HD
HETATM    3  C7  UNL     1       0.893 -26.582 -12.914  1.00  0.00     0.230 C 
HETATM    4  O2  UNL     1       0.953 -25.865 -11.899  1.00  0.00    -0.272 OA
ENDROOT
BRANCH   1   5
HETATM    5  C6  UNL     1       3.328 -27.271 -12.881  1.00  0.00     0.038 A 
HETATM    6  C5  UNL     1       4.192 -26.296 -13.310  1.00  0.00     0.054 A 
HETATM    7  C4  UNL     1       5.488 -26.368 -12.809  1.00  0.00     0.055 A 
HETATM    8  C3  UNL     1       5.853 -27.385 -11.924  1.00  0.00     0.059 A 
HETATM    9 CL1  UNL     1       6.726 -25.222 -13.237  1.00  0.00    -0.083 Cl
HETATM   10  S1  UNL     1       7.314 -27.798 -11.119  1.00  0.00    -0.025 SA
HETATM   11  C16 UNL     1       5.000 -28.359 -11.492  1.00  0.00     0.058 A 
HETATM   12  C2  UNL     1       6.748 -29.168 -10.294  1.00  0.00     0.291 A 
HETATM   13  N1  UNL     1       5.477 -29.263 -10.657  1.00  0.00    -0.311 N 
HETATM   14  O1  UNL     1       7.388 -29.935  -9.505  1.00  0.00    -0.259 OA
HETATM   15  C1  UNL     1       4.653 -30.386 -10.101  1.00  0.00     0.160 C 
HETATM   16  C15 UNL     1       3.687 -28.286 -12.000  1.00  0.00     0.060 A 
ENDBRANCH   1   5
BRANCH   3  17
HETATM   17  C8  UNL     1      -0.450 -26.682 -13.586  1.00  0.00     0.043 C 
HETATM   18  C9  UNL     1      -0.790 -28.124 -13.811  1.00  0.00     0.025 C 
HETATM   19  C10 UNL     1      -0.426 -25.984 -14.928  1.00  0.00     0.065 C 
HETATM   20  C11 UNL     1      -1.620 -25.079 -14.977  1.00  0.00     0.136 C 
HETATM   21  C12 UNL     1      -1.267 -23.698 -15.503  1.00  0.00     0.055 C 
HETATM   22  F1  UNL     1      -2.584 -25.583 -15.852  1.00  0.00    -0.240 F 
HETATM   23  C13 UNL     1      -2.227 -25.028 -13.612  1.00  0.00     0.149 C 
HETATM   24 CL2  UNL     1      -2.160 -23.389 -12.905  1.00  0.00    -0.098 Cl
HETATM   25 CL3  UNL     1      -3.948 -25.513 -13.644  1.00  0.00    -0.098 Cl
HETATM   26  C14 UNL     1      -1.469 -25.996 -12.750  1.00  0.00     0.064 C 
ENDBRANCH   3  17
TORSDOF 2
ENDMDL
MODEL 3
REMARK VINA RESULT: -8.481473289      4.378      7.796
REMARK  2 active torsions:
REMARK  status: ('A' for Active; 'I' for Inactive)
REMARK    1  A    between atoms: C6_10  and  N2_11 
REMARK       I    between atoms: N2_11  and  C7_13 
REMARK    2  A    between atoms: C7_13  and  C8_15 
ROOT
HETATM    1  N2  UNL     1       2.502 -27.263 -13.726  1.00  0.00    -0.326 N 
ATOM      2  H2  UNL     1       2.526 -27.454 -14.728  1.00  0.00     0.169 HD
HETATM    3  C7  UNL     1       1.239 -27.086 -13.173  1.00  0.00     0.230 C 
HETATM    4  O2  UNL     1       1.079 -26.841 -11.964  1.00  0.00    -0.272 OA
ENDROOT
BRANCH   1   5
HETATM    5  C6  UNL     1       3.765 -27.212 -13.075  1.00  0.00     0.038 A 
HETATM    6  C5  UNL     1       4.586 -26.150 -13.359  1.00  0.00     0.054 A 
HETATM    7  C4  UNL     1       5.828 -26.159 -12.734  1.00  0.00     0.055 A 
HETATM    8  C3  UNL     1       6.186 -27.200 -11.875  1.00  0.00     0.059 A 
HETATM    9 CL1  UNL     1       7.006 -24.899 -12.969  1.00  0.00    -0.083 Cl
HETATM   10  S1  UNL     1       7.590 -27.554 -10.950  1.00  0.00    -0.025 SA
HETATM   11  C16 UNL     1       5.376 -28.260 -11.587  1.00  0.00     0.058 A 
HETATM   12  C2  UNL     1       7.059 -29.012 -10.265  1.00  0.00     0.291 A 
HETATM   13  N1  UNL     1       5.840 -29.177 -10.760  1.00  0.00    -0.311 N 
HETATM   14  O1  UNL     1       7.678 -29.778  -9.459  1.00  0.00    -0.259 OA
HETATM   15  C1  UNL     1       5.059 -30.392 -10.354  1.00  0.00     0.160 C 
HETATM   16  C15 UNL     1       4.117 -28.251 -12.220  1.00  0.00     0.060 A 
ENDBRANCH   1   5
BRANCH   3  17
HETATM   17  C8  UNL     1      -0.009 -27.181 -14.009  1.00  0.00     0.043 C 
HETATM   18  C9  UNL     1       0.273 -27.991 -15.237  1.00  0.00     0.025 C 
HETATM   19  C10 UNL     1      -0.468 -25.806 -14.440  1.00  0.00     0.065 C 
HETATM   20  C11 UNL     1      -1.929 -25.706 -14.119  1.00  0.00     0.136 C 
HETATM   21  C12 UNL     1      -2.275 -24.389 -13.444  1.00  0.00     0.055 C 
HETATM   22  F1  UNL     1      -2.693 -25.745 -15.287  1.00  0.00    -0.240 F 
HETATM   23  C13 UNL     1      -2.308 -26.888 -13.286  1.00  0.00     0.149 C 
HETATM   24 CL2  UNL     1      -2.855 -26.414 -11.652  1.00  0.00    -0.098 Cl
HETATM   25 CL3  UNL     1      -3.644 -27.812 -14.036  1.00  0.00    -0.098 Cl
HETATM   26  C14 UNL     1      -1.101 -27.775 -13.193  1.00  0.00     0.064 C 
ENDBRANCH   3  17
TORSDOF 2
ENDMDL
MODEL 4
REMARK VINA RESULT: -8.468415826      3.039      3.821
REMARK  2 active torsions:
REMARK  status: ('A' for Active; 'I' for Inactive)
REMARK    1  A    between atoms: C6_10  and  N2_11 
REMARK       I    between atoms: N2_11  and  C7_13 
REMARK    2  A    between atoms: C7_13  and  C8_15 
ROOT
HETATM    1  N2  UNL     1       2.410 -27.294 -12.911  1.00  0.00    -0.326 N 
ATOM      2  H2  UNL     1       2.745 -27.783 -13.741  1.00  0.00     0.169 HD
HETATM    3  C7  UNL     1       3.331 -27.151 -11.879  1.00  0.00     0.230 C 
HETATM    4  O2  UNL     1       3.039 -26.580 -10.813  1.00  0.00    -0.272 OA
ENDROOT
BRANCH   1   5
HETATM    5  C6  UNL     1       1.061 -26.847 -12.959  1.00  0.00     0.038 A 
HETATM    6  C5  UNL     1       0.820 -25.605 -13.490  1.00  0.00     0.054 A 
HETATM    7  C4  UNL     1      -0.507 -25.188 -13.481  1.00  0.00     0.055 A 
HETATM    8  C3  UNL     1      -1.507 -26.008 -12.956  1.00  0.00     0.059 A 
HETATM    9 CL1  UNL     1      -1.010 -23.645 -14.110  1.00  0.00    -0.083 Cl
HETATM   10  S1  UNL     1      -3.208 -25.845 -12.769  1.00  0.00    -0.025 SA
HETATM   11  C16 UNL     1      -1.276 -27.245 -12.427  1.00  0.00     0.058 A 
HETATM   12  C2  UNL     1      -3.509 -27.345 -12.038  1.00  0.00     0.291 A 
HETATM   13  N1  UNL     1      -2.314 -27.915 -11.961  1.00  0.00    -0.311 N 
HETATM   14  O1  UNL     1      -4.622 -27.825 -11.648  1.00  0.00    -0.259 OA
HETATM   15  C1  UNL     1      -2.207 -29.282 -11.355  1.00  0.00     0.160 C 
HETATM   16  C15 UNL     1       0.068 -27.668 -12.436  1.00  0.00     0.060 A 
ENDBRANCH   1   5
BRANCH   3  17
HETATM   17  C8  UNL     1       4.734 -27.681 -11.994  1.00  0.00     0.043 C 
HETATM   18  C9  UNL     1       4.849 -28.962 -11.225  1.00  0.00     0.025 C 
HETATM   19  C10 UNL     1       5.725 -26.693 -11.421  1.00  0.00     0.065 C 
HETATM   20  C11 UNL     1       6.811 -26.513 -12.440  1.00  0.00     0.136 C 
HETATM   21  C12 UNL     1       7.163 -25.050 -12.645  1.00  0.00     0.055 C 
HETATM   22  F1  UNL     1       7.989 -27.131 -12.016  1.00  0.00    -0.240 F 
HETATM   23  C13 UNL     1       6.379 -27.177 -13.707  1.00  0.00     0.149 C 
HETATM   24 CL2  UNL     1       6.190 -26.011 -15.048  1.00  0.00    -0.098 Cl
HETATM   25 CL3  UNL     1       7.569 -28.400 -14.242  1.00  0.00    -0.098 Cl
HETATM   26  C14 UNL     1       5.073 -27.864 -13.429  1.00  0.00     0.064 C 
ENDBRANCH   3  17
TORSDOF 2
ENDMDL
MODEL 5
REMARK VINA RESULT: -8.385631199      1.904      2.541
REMARK  2 active torsions:
REMARK  status: ('A' for Active; 'I' for Inactive)
REMARK    1  A    between atoms: C6_10  and  N2_11 
REMARK       I    between atoms: N2_11  and  C7_13 
REMARK    2  A    between atoms: C7_13  and  C8_15 
ROOT
HETATM    1  N2  UNL     1       1.870 -27.267 -12.104  1.00  0.00    -0.326 N 
ATOM      2  H2  UNL     1       1.662 -26.281 -11.944  1.00  0.00     0.169 HD
HETATM    3  C7  UNL     1       3.103 -27.538 -12.685  1.00  0.00     0.230 C 
HETATM    4  O2  UNL     1       3.469 -28.700 -12.937  1.00  0.00    -0.272 OA
ENDROOT
BRANCH   1   5
HETATM    5  C6  UNL     1       0.861 -28.185 -11.706  1.00  0.00     0.038 A 
HETATM    6  C5  UNL     1      -0.356 -28.109 -12.336  1.00  0.00     0.054 A 
HETATM    7  C4  UNL     1      -1.328 -28.997 -11.889  1.00  0.00     0.055 A 
HETATM    8  C3  UNL     1      -1.049 -29.899 -10.860  1.00  0.00     0.059 A 
HETATM    9 CL1  UNL     1      -2.932 -29.051 -12.564  1.00  0.00    -0.083 Cl
HETATM   10  S1  UNL     1      -1.965 -31.111 -10.056  1.00  0.00    -0.025 SA
HETATM   11  C16 UNL     1       0.157 -29.982 -10.229  1.00  0.00     0.058 A 
HETATM   12  C2  UNL     1      -0.764 -31.638  -8.981  1.00  0.00     0.291 A 
HETATM   13  N1  UNL     1       0.285 -30.880  -9.269  1.00  0.00    -0.311 N 
HETATM   14  O1  UNL     1      -0.840 -32.551  -8.098  1.00  0.00    -0.259 OA
HETATM   15  C1  UNL     1       1.552 -31.082  -8.493  1.00  0.00     0.160 C 
HETATM   16  C15 UNL     1       1.143 -29.083 -10.681  1.00  0.00     0.060 A 
ENDBRANCH   1   5
BRANCH   3  17
HETATM   17  C8  UNL     1       4.067 -26.439 -13.042  1.00  0.00     0.043 C 
HETATM   18  C9  UNL     1       3.338 -25.131 -13.087  1.00  0.00     0.025 C 
HETATM   19  C10 UNL     1       4.681 -26.689 -14.401  1.00  0.00     0.065 C 
HETATM   20  C11 UNL     1       6.165 -26.536 -14.253  1.00  0.00     0.136 C 
HETATM   21  C12 UNL     1       6.925 -27.659 -14.937  1.00  0.00     0.055 C 
HETATM   22  F1  UNL     1       6.601 -25.357 -14.861  1.00  0.00    -0.240 F 
HETATM   23  C13 UNL     1       6.482 -26.441 -12.795  1.00  0.00     0.149 C 
HETATM   24 CL2  UNL     1       7.490 -27.805 -12.234  1.00  0.00    -0.098 Cl
HETATM   25 CL3  UNL     1       7.380 -24.940 -12.419  1.00  0.00    -0.098 Cl
HETATM   26  C14 UNL     1       5.177 -26.421 -12.054  1.00  0.00     0.064 C 
ENDBRANCH   3  17
TORSDOF 2
ENDMDL
