MODEL 1
REMARK VINA RESULT: -8.305782577      0.000      0.000
REMARK  16 active torsions:
REMARK  status: ('A' for Active; 'I' for Inactive)
REMARK       I    between atoms: N1_2  and  C2_4 
REMARK    1  A    between atoms: C2_4  and  C3_6 
REMARK    2  A    between atoms: C5_8  and  N2_9 
REMARK    3  A    between atoms: N2_9  and  C6_11 
REMARK    4  A    between atoms: C7_16  and  S1_17 
REMARK    5  A    between atoms: S1_17  and  C8_19 
REMARK    6  A    between atoms: C8_19  and  N5_20 
REMARK    7  A    between atoms: C8_19  and  O3_24 
REMARK    8  A    between atoms: N6_26  and  C9_27 
REMARK    9  A    between atoms: C10_30  and  N8_31 
REMARK   10  A    between atoms: N8_31  and  C11_33 
REMARK   11  A    between atoms: C11_33  and  C12_34 
REMARK   12  A    between atoms: C12_34  and  O4_35 
REMARK   13  A    between atoms: C13_39  and  N10_40 
REMARK   14  A    between atoms: N10_40  and  C14_42 
REMARK   15  A    between atoms: C15_45  and  N12_46 
REMARK   16  A    between atoms: C18_51  and  N14_52 
ROOT
HETATM    1  C9  UNL     1      22.545  44.176  14.074  1.00  0.00     0.734 A 
HETATM    2  N7  UNL     1      21.581  45.094  13.907  1.00  0.00    -0.020 N 
ATOM      3  H7  UNL     1      21.022  45.091  13.055  1.00  0.00     0.203 HD
HETATM    4  C10 UNL     1      21.347  46.018  14.851  1.00  0.00     0.707 A 
HETATM    5  N9  UNL     1      22.107  45.989  15.957  1.00  0.00    -0.021 N 
ATOM      6  H9  UNL     1      21.929  46.690  16.675  1.00  0.00     0.203 HD
HETATM    7  C13 UNL     1      23.086  45.095  16.180  1.00  0.00     0.726 A 
HETATM    8  N16 UNL     1      23.283  44.182  15.196  1.00  0.00    -0.019 N 
ATOM      9  H16 UNL     1      24.013  43.479  15.312  1.00  0.00     0.203 HD
ENDROOT
BRANCH   1  10
HETATM   10  N6  UNL     1      22.738  43.224  13.025  1.00  0.00     0.051 N 
HETATM   11  C6  UNL     1      21.931  42.174  12.793  1.00  0.00     0.720 A 
HETATM   12  N3  UNL     1      22.459  41.540  11.732  1.00  0.00    -0.129 N 
HETATM   13  N4  UNL     1      23.561  42.169  11.313  1.00  0.00    -0.262 N 
ATOM     14  H3  UNL     1      22.074  40.696  11.307  1.00  0.00     0.205 HD
HETATM   15  C7  UNL     1      23.742  43.228  12.122  1.00  0.00     0.235 A 
ATOM     16  H4  UNL     1      24.153  41.897  10.528  1.00  0.00     0.189 HD
BRANCH  11  17
HETATM   17  N2  UNL     1      20.871  41.829  13.436  1.00  0.00    -0.189 N 
ATOM     18  H2  UNL     1      20.238  42.541  13.801  1.00  0.00     0.184 HD
BRANCH  17  19
HETATM   19  C5  UNL     1      20.587  40.454  13.635  1.00  0.00     0.052 A 
HETATM   20  C4  UNL     1      21.331  39.606  14.432  1.00  0.00     0.065 A 
HETATM   21  C3  UNL     1      21.024  38.283  14.598  1.00  0.00     0.102 A 
HETATM   22  N17 UNL     1      19.951  37.806  13.952  1.00  0.00    -0.361 N 
HETATM   23  C20 UNL     1      19.180  38.589  13.155  1.00  0.00     0.090 A 
ATOM     24  H17 UNL     1      19.706  36.822  14.063  1.00  0.00     0.165 HD
HETATM   25  C19 UNL     1      19.494  39.919  12.991  1.00  0.00     0.047 A 
BRANCH  21  26
HETATM   26  C2  UNL     1      21.794  37.377  15.433  1.00  0.00     0.267 C 
HETATM   27  N1  UNL     1      21.154  36.352  16.183  1.00  0.00    -0.360 N 
HETATM   28  C1  UNL     1      21.904  35.455  17.008  1.00  0.00     0.149 C 
ATOM     29  H1  UNL     1      20.140  36.255  16.131  1.00  0.00     0.162 HD
HETATM   30  O1  UNL     1      23.034  37.513  15.480  1.00  0.00    -0.266 OA
ENDBRANCH  21  26
ENDBRANCH  17  19
ENDBRANCH  11  17
BRANCH  15  31
HETATM   31  S1  UNL     1      25.065  44.365  11.965  1.00  0.00     0.144 S 
HETATM   32  O2  UNL     1      26.372  43.747  11.574  1.00  0.00    -0.245 OA
BRANCH  31  33
HETATM   33  C8  UNL     1      24.624  45.767  10.930  1.00  0.00     0.419 C 
BRANCH  33  34
HETATM   34  N5  UNL     1      24.211  46.893  11.743  1.00  0.00    -0.041 N 
ATOM     35  H53 UNL     1      23.202  46.899  11.896  1.00  0.00     0.278 HD
ATOM     36  H52 UNL     1      24.512  46.790  12.712  1.00  0.00     0.278 HD
ATOM     37  H51 UNL     1      24.538  47.769  11.337  1.00  0.00     0.278 HD
ENDBRANCH  33  34
BRANCH  33  38
HETATM   38  O3  UNL     1      25.729  46.171  10.177  1.00  0.00    -0.360 OA
ATOM     39  H3  UNL     1      26.169  46.894  10.608  1.00  0.00     0.213 HD
ENDBRANCH  33  38
ENDBRANCH  31  33
ENDBRANCH  15  31
ENDBRANCH   1  10
BRANCH   4  40
HETATM   40  N8  UNL     1      20.405  46.921  14.700  1.00  0.00    -0.223 N 
ATOM     41  H8  UNL     1      19.435  46.617  14.618  1.00  0.00     0.177 HD
BRANCH  40  42
HETATM   42  C11 UNL     1      20.703  48.321  14.648  1.00  0.00     0.164 C 
BRANCH  42  43
HETATM   43  C12 UNL     1      21.573  48.689  13.466  1.00  0.00     0.184 C 
BRANCH  43  44
HETATM   44  O4  UNL     1      22.873  48.887  13.930  1.00  0.00    -0.399 OA
ATOM     45  H4  UNL     1      22.916  49.748  14.331  1.00  0.00     0.209 HD
ENDBRANCH  43  44
ENDBRANCH  42  43
ENDBRANCH  40  42
ENDBRANCH   4  40
BRANCH   7  46
HETATM   46  N10 UNL     1      23.852  45.122  17.376  1.00  0.00    -0.020 N 
ATOM     47  H10 UNL     1      24.730  45.641  17.372  1.00  0.00     0.203 HD
BRANCH  46  48
HETATM   48  C14 UNL     1      23.504  44.531  18.465  1.00  0.00     0.726 A 
HETATM   49  N11 UNL     1      23.835  43.261  18.684  1.00  0.00    -0.021 N 
HETATM   50  C15 UNL     1      23.501  42.583  19.806  1.00  0.00     0.708 A 
ATOM     51  H11 UNL     1      24.370  42.772  17.967  1.00  0.00     0.203 HD
HETATM   52  N13 UNL     1      22.792  43.251  20.743  1.00  0.00    -0.022 N 
HETATM   53  C18 UNL     1      22.431  44.541  20.568  1.00  0.00     0.705 A 
ATOM     54  H13 UNL     1      22.522  42.771  21.602  1.00  0.00     0.203 HD
HETATM   55  N15 UNL     1      22.799  45.150  19.425  1.00  0.00    -0.021 N 
ATOM     56  H15 UNL     1      22.530  46.124  19.282  1.00  0.00     0.203 HD
BRANCH  50  57
HETATM   57  N12 UNL     1      23.883  41.228  19.983  1.00  0.00    -0.225 N 
HETATM   58  C16 UNL     1      24.178  40.401  18.838  1.00  0.00     0.168 C 
HETATM   59  C17 UNL     1      23.973  40.681  21.305  1.00  0.00     0.168 C 
ENDBRANCH  50  57
BRANCH  53  60
HETATM   60  N14 UNL     1      21.755  45.143  21.485  1.00  0.00    -0.234 N 
ATOM     61 2H14 UNL     1      20.750  45.297  21.409  1.00  0.00     0.174 HD
ATOM     62 1H14 UNL     1      22.231  45.482  22.321  1.00  0.00     0.174 HD
ENDBRANCH  53  60
ENDBRANCH  46  48
ENDBRANCH   7  46
TORSDOF 16
ENDMDL
MODEL 2
REMARK VINA RESULT: -8.164695490      3.093      8.019
REMARK  16 active torsions:
REMARK  status: ('A' for Active; 'I' for Inactive)
REMARK       I    between atoms: N1_2  and  C2_4 
REMARK    1  A    between atoms: C2_4  and  C3_6 
REMARK    2  A    between atoms: C5_8  and  N2_9 
REMARK    3  A    between atoms: N2_9  and  C6_11 
REMARK    4  A    between atoms: C7_16  and  S1_17 
REMARK    5  A    between atoms: S1_17  and  C8_19 
REMARK    6  A    between atoms: C8_19  and  N5_20 
REMARK    7  A    between atoms: C8_19  and  O3_24 
REMARK    8  A    between atoms: N6_26  and  C9_27 
REMARK    9  A    between atoms: C10_30  and  N8_31 
REMARK   10  A    between atoms: N8_31  and  C11_33 
REMARK   11  A    between atoms: C11_33  and  C12_34 
REMARK   12  A    between atoms: C12_34  and  O4_35 
REMARK   13  A    between atoms: C13_39  and  N10_40 
REMARK   14  A    between atoms: N10_40  and  C14_42 
REMARK   15  A    between atoms: C15_45  and  N12_46 
REMARK   16  A    between atoms: C18_51  and  N14_52 
ROOT
HETATM    1  C9  UNL     1      23.222  45.130  14.322  1.00  0.00     0.734 A 
HETATM    2  N7  UNL     1      24.294  45.337  13.542  1.00  0.00    -0.020 N 
ATOM      3  H7  UNL     1      24.967  46.062  13.790  1.00  0.00     0.203 HD
HETATM    4  C10 UNL     1      24.489  44.600  12.440  1.00  0.00     0.707 A 
HETATM    5  N9  UNL     1      23.579  43.656  12.149  1.00  0.00    -0.021 N 
ATOM      6  H9  UNL     1      23.726  43.095  11.310  1.00  0.00     0.203 HD
HETATM    7  C13 UNL     1      22.487  43.404  12.890  1.00  0.00     0.726 A 
HETATM    8  N16 UNL     1      22.335  44.177  13.995  1.00  0.00    -0.019 N 
ATOM      9  H16 UNL     1      21.524  44.030  14.595  1.00  0.00     0.203 HD
ENDROOT
BRANCH   1  10
HETATM   10  N6  UNL     1      23.080  45.956  15.480  1.00  0.00     0.051 N 
HETATM   11  C6  UNL     1      23.295  45.541  16.741  1.00  0.00     0.720 A 
HETATM   12  N3  UNL     1      23.054  46.611  17.519  1.00  0.00    -0.129 N 
HETATM   13  N4  UNL     1      22.700  47.660  16.773  1.00  0.00    -0.262 N 
ATOM     14  H3  UNL     1      23.131  46.619  18.537  1.00  0.00     0.205 HD
HETATM   15  C7  UNL     1      22.713  47.256  15.491  1.00  0.00     0.235 A 
ATOM     16  H4  UNL     1      22.464  48.593  17.112  1.00  0.00     0.189 HD
BRANCH  11  17
HETATM   17  N2  UNL     1      23.656  44.373  17.142  1.00  0.00    -0.189 N 
ATOM     18  H2  UNL     1      23.641  43.582  16.498  1.00  0.00     0.184 HD
BRANCH  17  19
HETATM   19  C5  UNL     1      24.073  44.190  18.485  1.00  0.00     0.052 A 
HETATM   20  C4  UNL     1      23.642  43.169  19.309  1.00  0.00     0.065 A 
HETATM   21  C3  UNL     1      24.070  43.027  20.602  1.00  0.00     0.102 A 
HETATM   22  N17 UNL     1      24.944  43.927  21.072  1.00  0.00    -0.361 N 
HETATM   23  C20 UNL     1      25.404  44.953  20.312  1.00  0.00     0.090 A 
ATOM     24  H17 UNL     1      25.274  43.839  22.033  1.00  0.00     0.165 HD
HETATM   25  C19 UNL     1      24.971  45.091  19.012  1.00  0.00     0.047 A 
BRANCH  21  26
HETATM   26  C2  UNL     1      23.629  41.958  21.482  1.00  0.00     0.267 C 
HETATM   27  N1  UNL     1      23.984  41.952  22.859  1.00  0.00    -0.360 N 
HETATM   28  C1  UNL     1      23.555  40.904  23.734  1.00  0.00     0.149 C 
ATOM     29  H1  UNL     1      24.557  42.711  23.230  1.00  0.00     0.162 HD
HETATM   30  O1  UNL     1      22.928  41.041  21.007  1.00  0.00    -0.266 OA
ENDBRANCH  21  26
ENDBRANCH  17  19
ENDBRANCH  11  17
BRANCH  15  31
HETATM   31  S1  UNL     1      22.318  48.290  14.133  1.00  0.00     0.144 S 
HETATM   32  O2  UNL     1      22.784  47.776  12.806  1.00  0.00    -0.245 OA
BRANCH  31  33
HETATM   33  C8  UNL     1      20.580  48.751  14.127  1.00  0.00     0.419 C 
BRANCH  33  34
HETATM   34  N5  UNL     1      19.757  47.645  14.574  1.00  0.00    -0.041 N 
ATOM     35  H53 UNL     1      20.241  46.752  14.483  1.00  0.00     0.278 HD
ATOM     36  H52 UNL     1      19.635  47.650  15.587  1.00  0.00     0.278 HD
ATOM     37  H51 UNL     1      18.862  47.643  14.085  1.00  0.00     0.278 HD
ENDBRANCH  33  34
BRANCH  33  38
HETATM   38  O3  UNL     1      20.367  49.819  15.001  1.00  0.00    -0.360 OA
ATOM     39  H3  UNL     1      19.438  50.006  15.065  1.00  0.00     0.213 HD
ENDBRANCH  33  38
ENDBRANCH  31  33
ENDBRANCH  15  31
ENDBRANCH   1  10
BRANCH   4  40
HETATM   40  N8  UNL     1      25.536  44.791  11.669  1.00  0.00    -0.223 N 
ATOM     41  H8  UNL     1      26.225  44.045  11.575  1.00  0.00     0.177 HD
BRANCH  40  42
HETATM   42  C11 UNL     1      25.736  46.018  10.958  1.00  0.00     0.164 C 
BRANCH  42  43
HETATM   43  C12 UNL     1      24.512  46.446  10.178  1.00  0.00     0.184 C 
BRANCH  43  44
HETATM   44  O4  UNL     1      24.902  47.420   9.260  1.00  0.00    -0.399 OA
ATOM     45  H4  UNL     1      24.124  47.885   8.975  1.00  0.00     0.209 HD
ENDBRANCH  43  44
ENDBRANCH  42  43
ENDBRANCH  40  42
ENDBRANCH   4  40
BRANCH   7  46
HETATM   46  N10 UNL     1      21.563  42.389  12.522  1.00  0.00    -0.020 N 
ATOM     47  H10 UNL     1      20.743  42.250  13.113  1.00  0.00     0.203 HD
BRANCH  46  48
HETATM   48  C14 UNL     1      21.700  41.636  11.488  1.00  0.00     0.726 A 
HETATM   49  N11 UNL     1      21.170  41.984  10.318  1.00  0.00    -0.021 N 
HETATM   50  C15 UNL     1      21.279  41.239   9.196  1.00  0.00     0.708 A 
ATOM     51  H11 UNL     1      20.654  42.862  10.267  1.00  0.00     0.203 HD
HETATM   52  N13 UNL     1      21.968  40.079   9.288  1.00  0.00    -0.022 N 
HETATM   53  C18 UNL     1      22.524  39.682  10.452  1.00  0.00     0.705 A 
ATOM     54  H13 UNL     1      22.069  39.492   8.460  1.00  0.00     0.203 HD
HETATM   55  N15 UNL     1      22.374  40.475  11.529  1.00  0.00    -0.021 N 
ATOM     56  H15 UNL     1      22.790  40.183  12.413  1.00  0.00     0.203 HD
BRANCH  50  57
HETATM   57  N12 UNL     1      20.691  41.663   7.975  1.00  0.00    -0.225 N 
HETATM   58  C16 UNL     1      20.143  42.993   7.858  1.00  0.00     0.168 C 
HETATM   59  C17 UNL     1      20.641  40.766   6.859  1.00  0.00     0.168 C 
ENDBRANCH  50  57
BRANCH  53  60
HETATM   60  N14 UNL     1      23.174  38.569  10.500  1.00  0.00    -0.234 N 
ATOM     61 2H14 UNL     1      23.906  38.335   9.830  1.00  0.00     0.174 HD
ATOM     62 1H14 UNL     1      22.958  37.891  11.230  1.00  0.00     0.174 HD
ENDBRANCH  53  60
ENDBRANCH  46  48
ENDBRANCH   7  46
TORSDOF 16
ENDMDL
MODEL 3
REMARK VINA RESULT: -8.160962227      2.362      7.006
REMARK  16 active torsions:
REMARK  status: ('A' for Active; 'I' for Inactive)
REMARK       I    between atoms: N1_2  and  C2_4 
REMARK    1  A    between atoms: C2_4  and  C3_6 
REMARK    2  A    between atoms: C5_8  and  N2_9 
REMARK    3  A    between atoms: N2_9  and  C6_11 
REMARK    4  A    between atoms: C7_16  and  S1_17 
REMARK    5  A    between atoms: S1_17  and  C8_19 
REMARK    6  A    between atoms: C8_19  and  N5_20 
REMARK    7  A    between atoms: C8_19  and  O3_24 
REMARK    8  A    between atoms: N6_26  and  C9_27 
REMARK    9  A    between atoms: C10_30  and  N8_31 
REMARK   10  A    between atoms: N8_31  and  C11_33 
REMARK   11  A    between atoms: C11_33  and  C12_34 
REMARK   12  A    between atoms: C12_34  and  O4_35 
REMARK   13  A    between atoms: C13_39  and  N10_40 
REMARK   14  A    between atoms: N10_40  and  C14_42 
REMARK   15  A    between atoms: C15_45  and  N12_46 
REMARK   16  A    between atoms: C18_51  and  N14_52 
ROOT
HETATM    1  C9  UNL     1      23.162  45.072  14.314  1.00  0.00     0.734 A 
HETATM    2  N7  UNL     1      24.241  45.244  13.535  1.00  0.00    -0.020 N 
ATOM      3  H7  UNL     1      24.929  45.957  13.776  1.00  0.00     0.203 HD
HETATM    4  C10 UNL     1      24.423  44.488  12.444  1.00  0.00     0.707 A 
HETATM    5  N9  UNL     1      23.492  43.562  12.161  1.00  0.00    -0.021 N 
ATOM      6  H9  UNL     1      23.630  42.987  11.331  1.00  0.00     0.203 HD
HETATM    7  C13 UNL     1      22.392  43.345  12.902  1.00  0.00     0.726 A 
HETATM    8  N16 UNL     1      22.254  44.135  13.996  1.00  0.00    -0.019 N 
ATOM      9  H16 UNL     1      21.437  44.014  14.594  1.00  0.00     0.203 HD
ENDROOT
BRANCH   1  10
HETATM   10  N6  UNL     1      23.035  45.916  15.461  1.00  0.00     0.051 N 
HETATM   11  C6  UNL     1      23.251  45.517  16.726  1.00  0.00     0.720 A 
HETATM   12  N3  UNL     1      23.026  46.600  17.490  1.00  0.00    -0.129 N 
HETATM   13  N4  UNL     1      22.679  47.643  16.731  1.00  0.00    -0.262 N 
ATOM     14  H3  UNL     1      23.108  46.623  18.507  1.00  0.00     0.205 HD
HETATM   15  C7  UNL     1      22.682  47.220  15.454  1.00  0.00     0.235 A 
ATOM     16  H4  UNL     1      22.455  48.583  17.058  1.00  0.00     0.189 HD
BRANCH  11  17
HETATM   17  N2  UNL     1      23.601  44.351  17.143  1.00  0.00    -0.189 N 
ATOM     18  H2  UNL     1      23.569  43.550  16.512  1.00  0.00     0.184 HD
BRANCH  17  19
HETATM   19  C5  UNL     1      24.032  44.185  18.483  1.00  0.00     0.052 A 
HETATM   20  C4  UNL     1      23.616  43.169  19.321  1.00  0.00     0.065 A 
HETATM   21  C3  UNL     1      24.056  43.043  20.612  1.00  0.00     0.102 A 
HETATM   22  N17 UNL     1      24.928  43.954  21.065  1.00  0.00    -0.361 N 
HETATM   23  C20 UNL     1      25.375  44.975  20.290  1.00  0.00     0.090 A 
ATOM     24  H17 UNL     1      25.267  43.877  22.023  1.00  0.00     0.165 HD
HETATM   25  C19 UNL     1      24.928  45.097  18.993  1.00  0.00     0.047 A 
BRANCH  21  26
HETATM   26  C2  UNL     1      23.631  41.980  21.507  1.00  0.00     0.267 C 
HETATM   27  N1  UNL     1      23.940  42.025  22.894  1.00  0.00    -0.360 N 
HETATM   28  C1  UNL     1      23.525  40.983  23.783  1.00  0.00     0.149 C 
ATOM     29  H1  UNL     1      24.469  42.816  23.262  1.00  0.00     0.162 HD
HETATM   30  O1  UNL     1      22.984  41.022  21.035  1.00  0.00    -0.266 OA
ENDBRANCH  21  26
ENDBRANCH  17  19
ENDBRANCH  11  17
BRANCH  15  31
HETATM   31  S1  UNL     1      22.290  48.239  14.084  1.00  0.00     0.144 S 
HETATM   32  O2  UNL     1      22.678  47.667  12.756  1.00  0.00    -0.245 OA
BRANCH  31  33
HETATM   33  C8  UNL     1      20.581  48.792  14.128  1.00  0.00     0.419 C 
BRANCH  33  34
HETATM   34  N5  UNL     1      19.713  47.731  14.596  1.00  0.00    -0.041 N 
ATOM     35  H53 UNL     1      20.217  47.054  15.169  1.00  0.00     0.278 HD
ATOM     36  H52 UNL     1      19.053  48.063  15.299  1.00  0.00     0.278 HD
ATOM     37  H51 UNL     1      19.237  47.283  13.813  1.00  0.00     0.278 HD
ENDBRANCH  33  34
BRANCH  33  38
HETATM   38  O3  UNL     1      20.450  49.867  15.010  1.00  0.00    -0.360 OA
ATOM     39  H3  UNL     1      20.376  49.549  15.901  1.00  0.00     0.213 HD
ENDBRANCH  33  38
ENDBRANCH  31  33
ENDBRANCH  15  31
ENDBRANCH   1  10
BRANCH   4  40
HETATM   40  N8  UNL     1      25.476  44.646  11.674  1.00  0.00    -0.223 N 
ATOM     41  H8  UNL     1      26.132  43.872  11.567  1.00  0.00     0.177 HD
BRANCH  40  42
HETATM   42  C11 UNL     1      25.729  45.874  10.982  1.00  0.00     0.164 C 
BRANCH  42  43
HETATM   43  C12 UNL     1      24.521  46.374  10.221  1.00  0.00     0.184 C 
BRANCH  43  44
HETATM   44  O4  UNL     1      24.949  47.346   9.318  1.00  0.00    -0.399 OA
ATOM     45  H4  UNL     1      24.426  47.267   8.529  1.00  0.00     0.209 HD
ENDBRANCH  43  44
ENDBRANCH  42  43
ENDBRANCH  40  42
ENDBRANCH   4  40
BRANCH   7  46
HETATM   46  N10 UNL     1      21.446  42.346  12.544  1.00  0.00    -0.020 N 
ATOM     47  H10 UNL     1      20.691  42.606  11.909  1.00  0.00     0.203 HD
BRANCH  46  48
HETATM   48  C14 UNL     1      21.487  41.134  12.974  1.00  0.00     0.726 A 
HETATM   49  N11 UNL     1      22.304  40.242  12.417  1.00  0.00    -0.021 N 
HETATM   50  C15 UNL     1      22.394  38.955  12.822  1.00  0.00     0.708 A 
ATOM     51  H11 UNL     1      22.893  40.547  11.643  1.00  0.00     0.203 HD
HETATM   52  N13 UNL     1      21.604  38.574  13.850  1.00  0.00    -0.022 N 
HETATM   53  C18 UNL     1      20.759  39.440  14.448  1.00  0.00     0.705 A 
ATOM     54  H13 UNL     1      21.646  37.610  14.181  1.00  0.00     0.203 HD
HETATM   55  N15 UNL     1      20.722  40.706  13.991  1.00  0.00    -0.021 N 
ATOM     56  H15 UNL     1      20.086  41.368  14.435  1.00  0.00     0.203 HD
BRANCH  50  57
HETATM   57  N12 UNL     1      23.285  38.050  12.188  1.00  0.00    -0.225 N 
HETATM   58  C16 UNL     1      24.397  38.548  11.415  1.00  0.00     0.168 C 
HETATM   59  C17 UNL     1      23.076  36.638  12.317  1.00  0.00     0.168 C 
ENDBRANCH  50  57
BRANCH  53  60
HETATM   60  N14 UNL     1      20.021  39.038  15.425  1.00  0.00    -0.234 N 
ATOM     61 2H14 UNL     1      19.617  38.103  15.455  1.00  0.00     0.174 HD
ATOM     62 1H14 UNL     1      19.828  39.669  16.203  1.00  0.00     0.174 HD
ENDBRANCH  53  60
ENDBRANCH  46  48
ENDBRANCH   7  46
TORSDOF 16
ENDMDL
MODEL 4
REMARK VINA RESULT: -8.157824357      2.304      7.193
REMARK  16 active torsions:
REMARK  status: ('A' for Active; 'I' for Inactive)
REMARK       I    between atoms: N1_2  and  C2_4 
REMARK    1  A    between atoms: C2_4  and  C3_6 
REMARK    2  A    between atoms: C5_8  and  N2_9 
REMARK    3  A    between atoms: N2_9  and  C6_11 
REMARK    4  A    between atoms: C7_16  and  S1_17 
REMARK    5  A    between atoms: S1_17  and  C8_19 
REMARK    6  A    between atoms: C8_19  and  N5_20 
REMARK    7  A    between atoms: C8_19  and  O3_24 
REMARK    8  A    between atoms: N6_26  and  C9_27 
REMARK    9  A    between atoms: C10_30  and  N8_31 
REMARK   10  A    between atoms: N8_31  and  C11_33 
REMARK   11  A    between atoms: C11_33  and  C12_34 
REMARK   12  A    between atoms: C12_34  and  O4_35 
REMARK   13  A    between atoms: C13_39  and  N10_40 
REMARK   14  A    between atoms: N10_40  and  C14_42 
REMARK   15  A    between atoms: C15_45  and  N12_46 
REMARK   16  A    between atoms: C18_51  and  N14_52 
ROOT
HETATM    1  C9  UNL     1      23.134  45.152  14.289  1.00  0.00     0.734 A 
HETATM    2  N7  UNL     1      24.219  45.301  13.515  1.00  0.00    -0.020 N 
ATOM      3  H7  UNL     1      24.932  45.984  13.772  1.00  0.00     0.203 HD
HETATM    4  C10 UNL     1      24.376  44.562  12.409  1.00  0.00     0.707 A 
HETATM    5  N9  UNL     1      23.413  43.675  12.106  1.00  0.00    -0.021 N 
ATOM      6  H9  UNL     1      23.532  43.112  11.265  1.00  0.00     0.203 HD
HETATM    7  C13 UNL     1      22.304  43.482  12.841  1.00  0.00     0.726 A 
HETATM    8  N16 UNL     1      22.193  44.255  13.951  1.00  0.00    -0.019 N 
ATOM      9  H16 UNL     1      21.372  44.151  14.546  1.00  0.00     0.203 HD
ENDROOT
BRANCH   1  10
HETATM   10  N6  UNL     1      23.035  45.977  15.453  1.00  0.00     0.051 N 
HETATM   11  C6  UNL     1      23.263  45.552  16.707  1.00  0.00     0.720 A 
HETATM   12  N3  UNL     1      23.064  46.623  17.494  1.00  0.00    -0.129 N 
HETATM   13  N4  UNL     1      22.722  47.685  16.759  1.00  0.00    -0.262 N 
ATOM     14  H3  UNL     1      23.162  46.626  18.510  1.00  0.00     0.205 HD
HETATM   15  C7  UNL     1      22.700  47.286  15.475  1.00  0.00     0.235 A 
ATOM     16  H4  UNL     1      22.515  48.622  17.106  1.00  0.00     0.189 HD
BRANCH  11  17
HETATM   17  N2  UNL     1      23.603  44.373  17.098  1.00  0.00    -0.189 N 
ATOM     18  H2  UNL     1      23.516  43.578  16.464  1.00  0.00     0.184 HD
BRANCH  17  19
HETATM   19  C5  UNL     1      24.098  44.185  18.413  1.00  0.00     0.052 A 
HETATM   20  C4  UNL     1      23.671  43.197  19.278  1.00  0.00     0.065 A 
HETATM   21  C3  UNL     1      24.174  43.048  20.543  1.00  0.00     0.102 A 
HETATM   22  N17 UNL     1      25.121  43.908  20.942  1.00  0.00    -0.361 N 
HETATM   23  C20 UNL     1      25.582  44.900  20.138  1.00  0.00     0.090 A 
ATOM     24  H17 UNL     1      25.508  43.813  21.881  1.00  0.00     0.165 HD
HETATM   25  C19 UNL     1      25.072  45.045  18.868  1.00  0.00     0.047 A 
BRANCH  21  26
HETATM   26  C2  UNL     1      23.739  42.013  21.465  1.00  0.00     0.267 C 
HETATM   27  N1  UNL     1      24.226  41.973  22.801  1.00  0.00    -0.360 N 
HETATM   28  C1  UNL     1      23.803  40.958  23.717  1.00  0.00     0.149 C 
ATOM     29  H1  UNL     1      24.890  42.682  23.112  1.00  0.00     0.162 HD
HETATM   30  O1  UNL     1      22.925  41.156  21.064  1.00  0.00    -0.266 OA
ENDBRANCH  21  26
ENDBRANCH  17  19
ENDBRANCH  11  17
BRANCH  15  31
HETATM   31  S1  UNL     1      22.304  48.334  14.129  1.00  0.00     0.144 S 
HETATM   32  O2  UNL     1      22.776  47.839  12.797  1.00  0.00    -0.245 OA
BRANCH  31  33
HETATM   33  C8  UNL     1      20.564  48.787  14.123  1.00  0.00     0.419 C 
BRANCH  33  34
HETATM   34  N5  UNL     1      19.748  47.683  14.586  1.00  0.00    -0.041 N 
ATOM     35  H53 UNL     1      20.301  46.989  15.090  1.00  0.00     0.278 HD
ATOM     36  H52 UNL     1      19.127  47.963  15.345  1.00  0.00     0.278 HD
ATOM     37  H51 UNL     1      19.233  47.266  13.810  1.00  0.00     0.278 HD
ENDBRANCH  33  34
BRANCH  33  38
HETATM   38  O3  UNL     1      20.349  49.864  14.985  1.00  0.00    -0.360 OA
ATOM     39  H3  UNL     1      20.550  49.611  15.878  1.00  0.00     0.213 HD
ENDBRANCH  33  38
ENDBRANCH  31  33
ENDBRANCH  15  31
ENDBRANCH   1  10
BRANCH   4  40
HETATM   40  N8  UNL     1      25.436  44.697  11.644  1.00  0.00    -0.223 N 
ATOM     41  H8  UNL     1      26.080  43.912  11.546  1.00  0.00     0.177 HD
BRANCH  40  42
HETATM   42  C11 UNL     1      25.711  45.915  10.943  1.00  0.00     0.164 C 
BRANCH  42  43
HETATM   43  C12 UNL     1      24.501  46.454  10.212  1.00  0.00     0.184 C 
BRANCH  43  44
HETATM   44  O4  UNL     1      24.942  47.381   9.268  1.00  0.00    -0.399 OA
ATOM     45  H4  UNL     1      24.359  47.340   8.519  1.00  0.00     0.209 HD
ENDBRANCH  43  44
ENDBRANCH  42  43
ENDBRANCH  40  42
ENDBRANCH   4  40
BRANCH   7  46
HETATM   46  N10 UNL     1      21.325  42.526  12.462  1.00  0.00    -0.020 N 
ATOM     47  H10 UNL     1      20.431  42.869  12.109  1.00  0.00     0.203 HD
BRANCH  46  48
HETATM   48  C14 UNL     1      21.499  41.253  12.537  1.00  0.00     0.726 A 
HETATM   49  N11 UNL     1      20.571  40.471  13.084  1.00  0.00    -0.021 N 
HETATM   50  C15 UNL     1      20.692  39.129  13.192  1.00  0.00     0.708 A 
ATOM     51  H11 UNL     1      19.722  40.909  13.440  1.00  0.00     0.203 HD
HETATM   52  N13 UNL     1      21.826  38.570  12.712  1.00  0.00    -0.022 N 
HETATM   53  C18 UNL     1      22.797  39.320  12.149  1.00  0.00     0.705 A 
ATOM     54  H13 UNL     1      21.951  37.560  12.778  1.00  0.00     0.203 HD
HETATM   55  N15 UNL     1      22.607  40.651  12.076  1.00  0.00    -0.021 N 
ATOM     56  H15 UNL     1      23.335  41.227  11.654  1.00  0.00     0.203 HD
BRANCH  50  57
HETATM   57  N12 UNL     1      19.666  38.347  13.786  1.00  0.00    -0.225 N 
HETATM   58  C16 UNL     1      18.488  38.001  13.029  1.00  0.00     0.168 C 
HETATM   59  C17 UNL     1      19.805  37.903  15.142  1.00  0.00     0.168 C 
ENDBRANCH  50  57
BRANCH  53  60
HETATM   60  N14 UNL     1      23.864  38.750  11.703  1.00  0.00    -0.234 N 
ATOM     61 2H14 UNL     1      24.711  38.666  12.263  1.00  0.00     0.174 HD
ATOM     62 1H14 UNL     1      23.872  38.365  10.759  1.00  0.00     0.174 HD
ENDBRANCH  53  60
ENDBRANCH  46  48
ENDBRANCH   7  46
TORSDOF 16
ENDMDL
MODEL 5
REMARK VINA RESULT: -8.151632846      1.388      2.322
REMARK  16 active torsions:
REMARK  status: ('A' for Active; 'I' for Inactive)
REMARK       I    between atoms: N1_2  and  C2_4 
REMARK    1  A    between atoms: C2_4  and  C3_6 
REMARK    2  A    between atoms: C5_8  and  N2_9 
REMARK    3  A    between atoms: N2_9  and  C6_11 
REMARK    4  A    between atoms: C7_16  and  S1_17 
REMARK    5  A    between atoms: S1_17  and  C8_19 
REMARK    6  A    between atoms: C8_19  and  N5_20 
REMARK    7  A    between atoms: C8_19  and  O3_24 
REMARK    8  A    between atoms: N6_26  and  C9_27 
REMARK    9  A    between atoms: C10_30  and  N8_31 
REMARK   10  A    between atoms: N8_31  and  C11_33 
REMARK   11  A    between atoms: C11_33  and  C12_34 
REMARK   12  A    between atoms: C12_34  and  O4_35 
REMARK   13  A    between atoms: C13_39  and  N10_40 
REMARK   14  A    between atoms: N10_40  and  C14_42 
REMARK   15  A    between atoms: C15_45  and  N12_46 
REMARK   16  A    between atoms: C18_51  and  N14_52 
ROOT
HETATM    1  C9  UNL     1      22.551  44.168  14.090  1.00  0.00     0.734 A 
HETATM    2  N7  UNL     1      21.588  45.085  13.917  1.00  0.00    -0.020 N 
ATOM      3  H7  UNL     1      21.031  45.078  13.063  1.00  0.00     0.203 HD
HETATM    4  C10 UNL     1      21.351  46.011  14.857  1.00  0.00     0.707 A 
HETATM    5  N9  UNL     1      22.108  45.986  15.966  1.00  0.00    -0.021 N 
ATOM      6  H9  UNL     1      21.928  46.691  16.681  1.00  0.00     0.203 HD
HETATM    7  C13 UNL     1      23.086  45.093  16.194  1.00  0.00     0.726 A 
HETATM    8  N16 UNL     1      23.287  44.177  15.214  1.00  0.00    -0.019 N 
ATOM      9  H16 UNL     1      24.017  43.476  15.334  1.00  0.00     0.203 HD
ENDROOT
BRANCH   1  10
HETATM   10  N6  UNL     1      22.747  43.212  13.045  1.00  0.00     0.051 N 
HETATM   11  C6  UNL     1      21.949  42.154  12.822  1.00  0.00     0.720 A 
HETATM   12  N3  UNL     1      22.477  41.519  11.761  1.00  0.00    -0.129 N 
HETATM   13  N4  UNL     1      23.571  42.156  11.334  1.00  0.00    -0.262 N 
ATOM     14  H3  UNL     1      22.096  40.670  11.342  1.00  0.00     0.205 HD
HETATM   15  C7  UNL     1      23.748  43.220  12.137  1.00  0.00     0.235 A 
ATOM     16  H4  UNL     1      24.162  41.885  10.547  1.00  0.00     0.189 HD
BRANCH  11  17
HETATM   17  N2  UNL     1      20.894  41.804  13.471  1.00  0.00    -0.189 N 
ATOM     18  H2  UNL     1      20.357  42.499  13.990  1.00  0.00     0.184 HD
BRANCH  17  19
HETATM   19  C5  UNL     1      20.483  40.447  13.462  1.00  0.00     0.052 A 
HETATM   20  C4  UNL     1      19.457  39.943  12.687  1.00  0.00     0.065 A 
HETATM   21  C3  UNL     1      19.090  38.624  12.706  1.00  0.00     0.102 A 
HETATM   22  N17 UNL     1      19.766  37.801  13.519  1.00  0.00    -0.361 N 
HETATM   23  C20 UNL     1      20.783  38.236  14.306  1.00  0.00     0.090 A 
ATOM     24  H17 UNL     1      19.507  36.815  13.548  1.00  0.00     0.165 HD
HETATM   25  C19 UNL     1      21.148  39.563  14.282  1.00  0.00     0.047 A 
BRANCH  21  26
HETATM   26  C2  UNL     1      18.015  38.076  11.896  1.00  0.00     0.267 C 
HETATM   27  N1  UNL     1      17.754  38.579  10.592  1.00  0.00    -0.360 N 
HETATM   28  C1  UNL     1      16.698  38.045   9.787  1.00  0.00     0.149 C 
ATOM     29  H1  UNL     1      18.331  39.336  10.224  1.00  0.00     0.162 HD
HETATM   30  O1  UNL     1      17.323  37.150  12.367  1.00  0.00    -0.266 OA
ENDBRANCH  21  26
ENDBRANCH  17  19
ENDBRANCH  11  17
BRANCH  15  31
HETATM   31  S1  UNL     1      25.061  44.367  11.969  1.00  0.00     0.144 S 
HETATM   32  O2  UNL     1      26.370  43.758  11.574  1.00  0.00    -0.245 OA
BRANCH  31  33
HETATM   33  C8  UNL     1      24.603  45.760  10.929  1.00  0.00     0.419 C 
BRANCH  33  34
HETATM   34  N5  UNL     1      24.179  46.884  11.739  1.00  0.00    -0.041 N 
ATOM     35  H53 UNL     1      23.471  47.446  11.266  1.00  0.00     0.278 HD
ATOM     36  H52 UNL     1      23.625  46.585  12.541  1.00  0.00     0.278 HD
ATOM     37  H51 UNL     1      24.981  47.447  12.021  1.00  0.00     0.278 HD
ENDBRANCH  33  34
BRANCH  33  38
HETATM   38  O3  UNL     1      25.703  46.173  10.173  1.00  0.00    -0.360 OA
ATOM     39  H3  UNL     1      25.469  46.214   9.254  1.00  0.00     0.213 HD
ENDBRANCH  33  38
ENDBRANCH  31  33
ENDBRANCH  15  31
ENDBRANCH   1  10
BRANCH   4  40
HETATM   40  N8  UNL     1      20.409  46.914  14.700  1.00  0.00    -0.223 N 
ATOM     41  H8  UNL     1      19.440  46.609  14.607  1.00  0.00     0.177 HD
BRANCH  40  42
HETATM   42  C11 UNL     1      20.705  48.315  14.657  1.00  0.00     0.164 C 
BRANCH  42  43
HETATM   43  C12 UNL     1      21.563  48.693  13.470  1.00  0.00     0.184 C 
BRANCH  43  44
HETATM   44  O4  UNL     1      22.869  48.880  13.921  1.00  0.00    -0.399 OA
ATOM     45  H4  UNL     1      23.447  48.862  13.167  1.00  0.00     0.209 HD
ENDBRANCH  43  44
ENDBRANCH  42  43
ENDBRANCH  40  42
ENDBRANCH   4  40
BRANCH   7  46
HETATM   46  N10 UNL     1      23.849  45.125  17.392  1.00  0.00    -0.020 N 
ATOM     47  H10 UNL     1      24.726  45.648  17.390  1.00  0.00     0.203 HD
BRANCH  46  48
HETATM   48  C14 UNL     1      23.501  44.533  18.480  1.00  0.00     0.726 A 
HETATM   49  N11 UNL     1      23.833  43.263  18.700  1.00  0.00    -0.021 N 
HETATM   50  C15 UNL     1      23.498  42.585  19.821  1.00  0.00     0.708 A 
ATOM     51  H11 UNL     1      24.369  42.775  17.983  1.00  0.00     0.203 HD
HETATM   52  N13 UNL     1      22.788  43.253  20.758  1.00  0.00    -0.022 N 
HETATM   53  C18 UNL     1      22.427  44.542  20.583  1.00  0.00     0.705 A 
ATOM     54  H13 UNL     1      22.519  42.772  21.616  1.00  0.00     0.203 HD
HETATM   55  N15 UNL     1      22.795  45.152  19.440  1.00  0.00    -0.021 N 
ATOM     56  H15 UNL     1      22.526  46.126  19.298  1.00  0.00     0.203 HD
BRANCH  50  57
HETATM   57  N12 UNL     1      23.882  41.230  19.998  1.00  0.00    -0.225 N 
HETATM   58  C16 UNL     1      24.183  40.405  18.853  1.00  0.00     0.168 C 
HETATM   59  C17 UNL     1      23.967  40.682  21.320  1.00  0.00     0.168 C 
ENDBRANCH  50  57
BRANCH  53  60
HETATM   60  N14 UNL     1      21.750  45.143  21.499  1.00  0.00    -0.234 N 
ATOM     61 2H14 UNL     1      21.042  45.845  21.283  1.00  0.00     0.174 HD
ATOM     62 1H14 UNL     1      21.918  44.918  22.480  1.00  0.00     0.174 HD
ENDBRANCH  53  60
ENDBRANCH  46  48
ENDBRANCH   7  46
TORSDOF 16
ENDMDL
