MODEL 1
REMARK VINA RESULT: -7.870370745      0.000      0.000
REMARK  6 active torsions:
REMARK  status: ('A' for Active; 'I' for Inactive)
REMARK    1  A    between atoms: S1_2  and  C1_4 
REMARK    2  A    between atoms: S1_2  and  C12_22 
REMARK    3  A    between atoms: C1_4  and  C2_5 
REMARK    4  A    between atoms: C2_5  and  C3_6 
REMARK    5  A    between atoms: C3_6  and  O3_7 
REMARK    6  A    between atoms: N1_9  and  O4_11 
ROOT
HETATM    1  C2  UNL     1      17.950 -12.302   7.616  1.00  0.00     0.043 C 
HETATM    2  C4  UNL     1      17.156 -13.449   7.108  1.00  0.00     0.049 C 
HETATM    3  C5  UNL     1      16.295 -14.163   8.088  1.00  0.00     0.274 C 
HETATM    4  N2  UNL     1      15.562 -13.375   9.013  1.00  0.00     0.093 N 
HETATM    5  C6  UNL     1      14.135 -13.573   8.975  1.00  0.00     0.273 C 
HETATM    6  C7  UNL     1      13.381 -12.408   9.574  1.00  0.00     0.030 C 
HETATM    7  C8  UNL     1      14.168 -11.831  10.716  1.00  0.00     0.004 C 
HETATM    8  C9  UNL     1      15.424 -11.197  10.133  1.00  0.00     0.036 C 
HETATM    9  C10 UNL     1      15.960 -12.012   8.978  1.00  0.00     0.224 C 
HETATM   10  C11 UNL     1      17.472 -11.996   9.063  1.00  0.00     0.055 C 
ENDROOT
BRANCH   1  11
HETATM   11  C1  UNL     1      19.425 -12.471   7.654  1.00  0.00     0.163 C 
BRANCH  11  12
HETATM   12  S1  UNL     1      20.016 -13.910   6.866  1.00  0.00     0.176 S 
HETATM   13  O1  UNL     1      19.474 -14.027   5.475  1.00  0.00    -0.223 OA
HETATM   14  O2  UNL     1      19.746 -15.182   7.631  1.00  0.00    -0.223 OA
BRANCH  12  15
HETATM   15  C12 UNL     1      21.780 -13.868   6.687  1.00  0.00     0.059 A 
HETATM   16  C13 UNL     1      22.389 -13.109   5.718  1.00  0.00     0.023 A 
HETATM   17  C14 UNL     1      23.754 -13.078   5.584  1.00  0.00     0.002 A 
HETATM   18  C15 UNL     1      24.555 -13.826   6.437  1.00  0.00     0.000 A 
HETATM   19  C16 UNL     1      23.959 -14.586   7.406  1.00  0.00     0.002 A 
HETATM   20  C17 UNL     1      22.580 -14.605   7.528  1.00  0.00     0.023 A 
ENDBRANCH  12  15
ENDBRANCH  11  12
ENDBRANCH   1  11
BRANCH   1  21
HETATM   21  C3  UNL     1      17.590 -11.050   6.876  1.00  0.00     0.145 C 
HETATM   22  N1  UNL     1      18.261  -9.967   7.111  1.00  0.00    -0.250 N 
ATOM     23  H1  UNL     1      19.016 -10.009   7.797  1.00  0.00     0.196 HD
BRANCH  21  24
HETATM   24  O3  UNL     1      16.557 -11.000   5.946  1.00  0.00    -0.347 OA
ATOM     25  H3  UNL     1      16.414 -10.250   5.381  1.00  0.00     0.219 HD
ENDBRANCH  21  24
BRANCH  22  26
HETATM   26  O4  UNL     1      18.020  -8.782   6.501  1.00  0.00    -0.288 OA
ATOM     27  H4  UNL     1      18.699  -8.160   6.265  1.00  0.00     0.244 HD
ENDBRANCH  22  26
ENDBRANCH   1  21
TORSDOF 6
ENDMDL
MODEL 2
REMARK VINA RESULT: -7.319771745      1.090      1.259
REMARK  6 active torsions:
REMARK  status: ('A' for Active; 'I' for Inactive)
REMARK    1  A    between atoms: S1_2  and  C1_4 
REMARK    2  A    between atoms: S1_2  and  C12_22 
REMARK    3  A    between atoms: C1_4  and  C2_5 
REMARK    4  A    between atoms: C2_5  and  C3_6 
REMARK    5  A    between atoms: C3_6  and  O3_7 
REMARK    6  A    between atoms: N1_9  and  O4_11 
ROOT
HETATM    1  C2  UNL     1      17.572 -11.682   6.984  1.00  0.00     0.043 C 
HETATM    2  C4  UNL     1      16.495 -12.482   6.350  1.00  0.00     0.049 C 
HETATM    3  C5  UNL     1      15.681 -13.350   7.242  1.00  0.00     0.274 C 
HETATM    4  N2  UNL     1      15.279 -12.812   8.491  1.00  0.00     0.093 N 
HETATM    5  C6  UNL     1      13.855 -12.789   8.708  1.00  0.00     0.273 C 
HETATM    6  C7  UNL     1      13.454 -11.790   9.768  1.00  0.00     0.030 C 
HETATM    7  C8  UNL     1      14.515 -11.727  10.830  1.00  0.00     0.004 C 
HETATM    8  C9  UNL     1      15.760 -11.117  10.198  1.00  0.00     0.036 C 
HETATM    9  C10 UNL     1      15.928 -11.579   8.769  1.00  0.00     0.224 C 
HETATM   10  C11 UNL     1      17.407 -11.798   8.526  1.00  0.00     0.055 C 
ENDROOT
BRANCH   1  11
HETATM   11  C1  UNL     1      18.971 -12.054   6.652  1.00  0.00     0.163 C 
BRANCH  11  12
HETATM   12  S1  UNL     1      19.293 -13.768   6.663  1.00  0.00     0.176 S 
HETATM   13  O1  UNL     1      18.959 -14.391   5.343  1.00  0.00    -0.223 OA
HETATM   14  O2  UNL     1      18.595 -14.515   7.774  1.00  0.00    -0.223 OA
BRANCH  12  15
HETATM   15  C12 UNL     1      21.016 -14.099   6.923  1.00  0.00     0.059 A 
HETATM   16  C13 UNL     1      21.992 -13.427   6.228  1.00  0.00     0.023 A 
HETATM   17  C14 UNL     1      23.324 -13.685   6.434  1.00  0.00     0.002 A 
HETATM   18  C15 UNL     1      23.713 -14.644   7.359  1.00  0.00     0.000 A 
HETATM   19  C16 UNL     1      22.749 -15.320   8.057  1.00  0.00     0.002 A 
HETATM   20  C17 UNL     1      21.409 -15.047   7.838  1.00  0.00     0.023 A 
ENDBRANCH  12  15
ENDBRANCH  11  12
ENDBRANCH   1  11
BRANCH   1  21
HETATM   21  C3  UNL     1      17.351 -10.221   6.737  1.00  0.00     0.145 C 
HETATM   22  N1  UNL     1      16.268  -9.842   6.136  1.00  0.00    -0.250 N 
ATOM     23  H1  UNL     1      15.601 -10.560   5.852  1.00  0.00     0.196 HD
BRANCH  21  24
HETATM   24  O3  UNL     1      18.267  -9.249   7.125  1.00  0.00    -0.347 OA
ATOM     25  H3  UNL     1      18.008  -8.445   7.559  1.00  0.00     0.219 HD
ENDBRANCH  21  24
BRANCH  22  26
HETATM   26  O4  UNL     1      15.968  -8.550   5.863  1.00  0.00    -0.288 OA
ATOM     27  H4  UNL     1      15.108  -8.167   5.990  1.00  0.00     0.244 HD
ENDBRANCH  22  26
ENDBRANCH   1  21
TORSDOF 6
ENDMDL
MODEL 3
REMARK VINA RESULT: -7.139729235      1.859      2.516
REMARK  6 active torsions:
REMARK  status: ('A' for Active; 'I' for Inactive)
REMARK    1  A    between atoms: S1_2  and  C1_4 
REMARK    2  A    between atoms: S1_2  and  C12_22 
REMARK    3  A    between atoms: C1_4  and  C2_5 
REMARK    4  A    between atoms: C2_5  and  C3_6 
REMARK    5  A    between atoms: C3_6  and  O3_7 
REMARK    6  A    between atoms: N1_9  and  O4_11 
ROOT
HETATM    1  C2  UNL     1      18.230 -13.249   7.128  1.00  0.00     0.043 C 
HETATM    2  C4  UNL     1      17.847 -13.236   5.695  1.00  0.00     0.049 C 
HETATM    3  C5  UNL     1      16.581 -13.924   5.326  1.00  0.00     0.274 C 
HETATM    4  N2  UNL     1      15.462 -13.740   6.178  1.00  0.00     0.093 N 
HETATM    5  C6  UNL     1      14.298 -13.189   5.532  1.00  0.00     0.273 C 
HETATM    6  C7  UNL     1      13.345 -12.555   6.519  1.00  0.00     0.030 C 
HETATM    7  C8  UNL     1      13.364 -13.326   7.808  1.00  0.00     0.004 C 
HETATM    8  C9  UNL     1      14.737 -13.127   8.439  1.00  0.00     0.036 C 
HETATM    9  C10 UNL     1      15.820 -13.085   7.387  1.00  0.00     0.224 C 
HETATM   10  C11 UNL     1      17.028 -13.814   7.938  1.00  0.00     0.055 C 
ENDROOT
BRANCH   1  11
HETATM   11  C1  UNL     1      19.432 -14.040   7.496  1.00  0.00     0.163 C 
BRANCH  11  12
HETATM   12  S1  UNL     1      20.940 -13.392   6.907  1.00  0.00     0.176 S 
HETATM   13  O1  UNL     1      21.224 -12.049   7.505  1.00  0.00    -0.223 OA
HETATM   14  O2  UNL     1      21.026 -13.311   5.402  1.00  0.00    -0.223 OA
BRANCH  12  15
HETATM   15  C12 UNL     1      22.309 -14.419   7.373  1.00  0.00     0.059 A 
HETATM   16  C13 UNL     1      22.128 -15.596   8.055  1.00  0.00     0.023 A 
HETATM   17  C14 UNL     1      23.190 -16.388   8.413  1.00  0.00     0.002 A 
HETATM   18  C15 UNL     1      24.484 -16.007   8.086  1.00  0.00     0.000 A 
HETATM   19  C16 UNL     1      24.676 -14.835   7.406  1.00  0.00     0.002 A 
HETATM   20  C17 UNL     1      23.594 -14.048   7.053  1.00  0.00     0.023 A 
ENDBRANCH  12  15
ENDBRANCH  11  12
ENDBRANCH   1  11
BRANCH   1  21
HETATM   21  C3  UNL     1      18.350 -11.850   7.649  1.00  0.00     0.145 C 
HETATM   22  N1  UNL     1      18.263 -10.860   6.817  1.00  0.00    -0.250 N 
ATOM     23  H1  UNL     1      18.114 -11.074   5.831  1.00  0.00     0.196 HD
BRANCH  21  24
HETATM   24  O3  UNL     1      18.558 -11.566   8.995  1.00  0.00    -0.347 OA
ATOM     25  H3  UNL     1      18.109 -10.860   9.444  1.00  0.00     0.219 HD
ENDBRANCH  21  24
BRANCH  22  26
HETATM   26  O4  UNL     1      18.358  -9.558   7.180  1.00  0.00    -0.288 OA
ATOM     27  H4  UNL     1      19.181  -9.111   7.338  1.00  0.00     0.244 HD
ENDBRANCH  22  26
ENDBRANCH   1  21
TORSDOF 6
ENDMDL
MODEL 4
REMARK VINA RESULT: -7.069857220      1.185      1.731
REMARK  6 active torsions:
REMARK  status: ('A' for Active; 'I' for Inactive)
REMARK    1  A    between atoms: S1_2  and  C1_4 
REMARK    2  A    between atoms: S1_2  and  C12_22 
REMARK    3  A    between atoms: C1_4  and  C2_5 
REMARK    4  A    between atoms: C2_5  and  C3_6 
REMARK    5  A    between atoms: C3_6  and  O3_7 
REMARK    6  A    between atoms: N1_9  and  O4_11 
ROOT
HETATM    1  C2  UNL     1      17.856 -12.225   7.209  1.00  0.00     0.043 C 
HETATM    2  C4  UNL     1      17.317 -12.706   5.913  1.00  0.00     0.049 C 
HETATM    3  C5  UNL     1      16.315 -13.804   5.962  1.00  0.00     0.274 C 
HETATM    4  N2  UNL     1      15.312 -13.733   6.962  1.00  0.00     0.093 N 
HETATM    5  C6  UNL     1      13.961 -13.737   6.462  1.00  0.00     0.273 C 
HETATM    6  C7  UNL     1      12.981 -13.168   7.461  1.00  0.00     0.030 C 
HETATM    7  C8  UNL     1      13.413 -13.528   8.855  1.00  0.00     0.004 C 
HETATM    8  C9  UNL     1      14.709 -12.778   9.139  1.00  0.00     0.036 C 
HETATM    9  C10 UNL     1      15.579 -12.705   7.906  1.00  0.00     0.224 C 
HETATM   10  C11 UNL     1      17.018 -12.878   8.345  1.00  0.00     0.055 C 
ENDROOT
BRANCH   1  11
HETATM   11  C1  UNL     1      19.288 -12.505   7.488  1.00  0.00     0.163 C 
BRANCH  11  12
HETATM   12  S1  UNL     1      19.906 -13.956   6.743  1.00  0.00     0.176 S 
HETATM   13  O1  UNL     1      19.484 -14.051   5.309  1.00  0.00    -0.223 OA
HETATM   14  O2  UNL     1      19.535 -15.224   7.472  1.00  0.00    -0.223 OA
BRANCH  12  15
HETATM   15  C12 UNL     1      21.679 -13.962   6.718  1.00  0.00     0.059 A 
HETATM   16  C13 UNL     1      22.410 -14.707   7.611  1.00  0.00     0.023 A 
HETATM   17  C14 UNL     1      23.782 -14.710   7.587  1.00  0.00     0.002 A 
HETATM   18  C15 UNL     1      24.465 -13.949   6.648  1.00  0.00     0.000 A 
HETATM   19  C16 UNL     1      23.746 -13.202   5.754  1.00  0.00     0.002 A 
HETATM   20  C17 UNL     1      22.362 -13.211   5.791  1.00  0.00     0.023 A 
ENDBRANCH  12  15
ENDBRANCH  11  12
ENDBRANCH   1  11
BRANCH   1  21
HETATM   21  C3  UNL     1      17.569 -10.765   7.385  1.00  0.00     0.145 C 
HETATM   22  N1  UNL     1      17.249 -10.059   6.346  1.00  0.00    -0.250 N 
ATOM     23  H1  UNL     1      17.205 -10.528   5.441  1.00  0.00     0.196 HD
BRANCH  21  24
HETATM   24  O3  UNL     1      17.636 -10.131   8.621  1.00  0.00    -0.347 OA
ATOM     25  H3  UNL     1      18.300 -10.340   9.267  1.00  0.00     0.219 HD
ENDBRANCH  21  24
BRANCH  22  26
HETATM   26  O4  UNL     1      16.971  -8.734   6.391  1.00  0.00    -0.288 OA
ATOM     27  H4  UNL     1      17.298  -8.146   7.063  1.00  0.00     0.244 HD
ENDBRANCH  22  26
ENDBRANCH   1  21
TORSDOF 6
ENDMDL
MODEL 5
REMARK VINA RESULT: -6.983562014      1.189      1.677
REMARK  6 active torsions:
REMARK  status: ('A' for Active; 'I' for Inactive)
REMARK    1  A    between atoms: S1_2  and  C1_4 
REMARK    2  A    between atoms: S1_2  and  C12_22 
REMARK    3  A    between atoms: C1_4  and  C2_5 
REMARK    4  A    between atoms: C2_5  and  C3_6 
REMARK    5  A    between atoms: C3_6  and  O3_7 
REMARK    6  A    between atoms: N1_9  and  O4_11 
ROOT
HETATM    1  C2  UNL     1      17.674 -12.420   6.570  1.00  0.00     0.043 C 
HETATM    2  C4  UNL     1      16.437 -12.710   5.802  1.00  0.00     0.049 C 
HETATM    3  C5  UNL     1      15.423 -13.580   6.457  1.00  0.00     0.274 C 
HETATM    4  N2  UNL     1      15.157 -13.356   7.831  1.00  0.00     0.093 N 
HETATM    5  C6  UNL     1      13.781 -13.054   8.137  1.00  0.00     0.273 C 
HETATM    6  C7  UNL     1      13.634 -12.348   9.466  1.00  0.00     0.030 C 
HETATM    7  C8  UNL     1      14.666 -12.862  10.429  1.00  0.00     0.004 C 
HETATM    8  C9  UNL     1      16.030 -12.413   9.921  1.00  0.00     0.036 C 
HETATM    9  C10 UNL     1      16.091 -12.456   8.412  1.00  0.00     0.224 C 
HETATM   10  C11 UNL     1      17.470 -12.945   8.019  1.00  0.00     0.055 C 
ENDROOT
BRANCH   1  11
HETATM   11  C1  UNL     1      18.939 -13.004   6.053  1.00  0.00     0.163 C 
BRANCH  11  12
HETATM   12  S1  UNL     1      20.029 -13.587   7.283  1.00  0.00     0.176 S 
HETATM   13  O1  UNL     1      19.730 -15.009   7.642  1.00  0.00    -0.223 OA
HETATM   14  O2  UNL     1      20.056 -12.737   8.530  1.00  0.00    -0.223 OA
BRANCH  12  15
HETATM   15  C12 UNL     1      21.707 -13.583   6.710  1.00  0.00     0.059 A 
HETATM   16  C13 UNL     1      22.703 -14.239   7.391  1.00  0.00     0.023 A 
HETATM   17  C14 UNL     1      24.000 -14.235   6.943  1.00  0.00     0.002 A 
HETATM   18  C15 UNL     1      24.333 -13.558   5.777  1.00  0.00     0.000 A 
HETATM   19  C16 UNL     1      23.348 -12.902   5.090  1.00  0.00     0.002 A 
HETATM   20  C17 UNL     1      22.044 -12.916   5.555  1.00  0.00     0.023 A 
ENDBRANCH  12  15
ENDBRANCH  11  12
ENDBRANCH   1  11
BRANCH   1  21
HETATM   21  C3  UNL     1      17.829 -10.944   6.771  1.00  0.00     0.145 C 
HETATM   22  N1  UNL     1      17.051 -10.136   6.122  1.00  0.00    -0.250 N 
ATOM     23  H1  UNL     1      16.357 -10.540   5.492  1.00  0.00     0.196 HD
BRANCH  21  24
HETATM   24  O3  UNL     1      18.780 -10.400   7.627  1.00  0.00    -0.347 OA
ATOM     25  H3  UNL     1      19.484  -9.840   7.321  1.00  0.00     0.219 HD
ENDBRANCH  21  24
BRANCH  22  26
HETATM   26  O4  UNL     1      17.104  -8.787   6.229  1.00  0.00    -0.288 OA
ATOM     27  H4  UNL     1      16.683  -8.190   5.621  1.00  0.00     0.244 HD
ENDBRANCH  22  26
ENDBRANCH   1  21
TORSDOF 6
ENDMDL
