MODEL 1
REMARK VINA RESULT: -7.371493843      0.000      0.000
REMARK  6 active torsions:
REMARK  status: ('A' for Active; 'I' for Inactive)
REMARK    1  A    between atoms: N1_2  and  C1_4 
REMARK    2  A    between atoms: C3_6  and  O3_7 
REMARK    3  A    between atoms: C5_10  and  N2_11 
REMARK    4  A    between atoms: N2_11  and  C6_13 
REMARK    5  A    between atoms: C6_13  and  N3_15 
REMARK    6  A    between atoms: N3_15  and  C7_17 
ROOT
HETATM    1  N2  UNL     1      64.103  35.869  23.522  1.00  0.00    -0.333 N 
ATOM      2  H2  UNL     1      63.702  35.485  22.666  1.00  0.00     0.168 HD
ENDROOT
BRANCH   1   3
HETATM    3  C5  UNL     1      64.178  35.010  24.623  1.00  0.00     0.039 A 
HETATM    4  C4  UNL     1      63.140  34.636  25.440  1.00  0.00     0.066 A 
HETATM    5  C3  UNL     1      63.304  33.751  26.490  1.00  0.00     0.070 A 
HETATM    6  C2  UNL     1      64.527  33.200  26.767  1.00  0.00     0.072 A 
HETATM    7  C1  UNL     1      65.594  33.542  25.982  1.00  0.00     0.107 A 
HETATM    8  C13 UNL     1      65.417  34.412  24.955  1.00  0.00     0.065 A 
BRANCH   5   9
HETATM    9  O3  UNL     1      62.220  33.408  27.281  1.00  0.00    -0.361 OA
ATOM     10  H3  UNL     1      61.400  33.873  27.163  1.00  0.00     0.217 HD
ENDBRANCH   5   9
BRANCH   7  11
HETATM   11  N1  UNL     1      66.867  32.977  26.261  1.00  0.00    -0.116 N 
HETATM   12  O1  UNL     1      67.071  31.784  25.976  1.00  0.00    -0.532 OA
HETATM   13  O2  UNL     1      67.892  33.687  26.831  1.00  0.00    -0.532 OA
ENDBRANCH   7  11
ENDBRANCH   1   3
BRANCH   1  14
HETATM   14  C6  UNL     1      64.523  37.200  23.479  1.00  0.00     0.172 C 
HETATM   15  S1  UNL     1      65.014  37.822  22.054  1.00  0.00    -0.041 SA
BRANCH  14  16
HETATM   16  N3  UNL     1      64.568  38.014  24.672  1.00  0.00    -0.362 N 
ATOM     17  H3  UNL     1      63.679  38.396  24.998  1.00  0.00     0.162 HD
BRANCH  16  18
HETATM   18  C7  UNL     1      65.706  38.336  25.432  1.00  0.00     0.083 C 
HETATM   19  C8  UNL     1      65.603  38.144  26.925  1.00  0.00     0.025 C 
HETATM   20  C9  UNL     1      66.765  38.864  27.577  1.00  0.00     0.002 C 
HETATM   21  C10 UNL     1      68.038  38.191  27.167  1.00  0.00     0.000 C 
HETATM   22  C11 UNL     1      67.810  37.168  26.108  1.00  0.00     0.002 C 
HETATM   23  C12 UNL     1      66.938  37.616  24.966  1.00  0.00     0.025 C 
ENDBRANCH  16  18
ENDBRANCH  14  16
ENDBRANCH   1  14
TORSDOF 6
ENDMDL
MODEL 2
REMARK VINA RESULT: -7.154100444      0.362      1.148
REMARK  6 active torsions:
REMARK  status: ('A' for Active; 'I' for Inactive)
REMARK    1  A    between atoms: N1_2  and  C1_4 
REMARK    2  A    between atoms: C3_6  and  O3_7 
REMARK    3  A    between atoms: C5_10  and  N2_11 
REMARK    4  A    between atoms: N2_11  and  C6_13 
REMARK    5  A    between atoms: C6_13  and  N3_15 
REMARK    6  A    between atoms: N3_15  and  C7_17 
ROOT
HETATM    1  N2  UNL     1      64.023  35.866  23.730  1.00  0.00    -0.333 N 
ATOM      2  H2  UNL     1      63.550  35.551  22.883  1.00  0.00     0.168 HD
ENDROOT
BRANCH   1   3
HETATM    3  C5  UNL     1      64.101  34.952  24.785  1.00  0.00     0.039 A 
HETATM    4  C4  UNL     1      63.072  34.559  25.604  1.00  0.00     0.066 A 
HETATM    5  C3  UNL     1      63.239  33.620  26.606  1.00  0.00     0.070 A 
HETATM    6  C2  UNL     1      64.454  33.030  26.828  1.00  0.00     0.072 A 
HETATM    7  C1  UNL     1      65.512  33.388  26.038  1.00  0.00     0.107 A 
HETATM    8  C13 UNL     1      65.333  34.311  25.059  1.00  0.00     0.065 A 
BRANCH   5   9
HETATM    9  O3  UNL     1      62.164  33.261  27.402  1.00  0.00    -0.361 OA
ATOM     10  H3  UNL     1      61.917  33.827  28.124  1.00  0.00     0.217 HD
ENDBRANCH   5   9
BRANCH   7  11
HETATM   11  N1  UNL     1      66.778  32.782  26.261  1.00  0.00    -0.116 N 
HETATM   12  O1  UNL     1      66.925  31.579  25.988  1.00  0.00    -0.532 OA
HETATM   13  O2  UNL     1      67.855  33.465  26.764  1.00  0.00    -0.532 OA
ENDBRANCH   7  11
ENDBRANCH   1   3
BRANCH   1  14
HETATM   14  C6  UNL     1      64.528  37.167  23.721  1.00  0.00     0.172 C 
HETATM   15  S1  UNL     1      64.876  37.865  22.289  1.00  0.00    -0.041 SA
BRANCH  14  16
HETATM   16  N3  UNL     1      64.784  37.884  24.950  1.00  0.00    -0.362 N 
ATOM     17  H3  UNL     1      64.079  38.562  25.238  1.00  0.00     0.162 HD
BRANCH  16  18
HETATM   18  C7  UNL     1      65.903  37.746  25.791  1.00  0.00     0.083 C 
HETATM   19  C8  UNL     1      67.229  38.206  25.239  1.00  0.00     0.025 C 
HETATM   20  C9  UNL     1      68.328  37.659  26.126  1.00  0.00     0.002 C 
HETATM   21  C10 UNL     1      68.210  38.288  27.479  1.00  0.00     0.000 C 
HETATM   22  C11 UNL     1      66.962  39.089  27.614  1.00  0.00     0.002 C 
HETATM   23  C12 UNL     1      65.712  38.410  27.124  1.00  0.00     0.025 C 
ENDBRANCH  16  18
ENDBRANCH  14  16
ENDBRANCH   1  14
TORSDOF 6
ENDMDL
MODEL 3
REMARK VINA RESULT: -6.853633139      2.564      3.997
REMARK  6 active torsions:
REMARK  status: ('A' for Active; 'I' for Inactive)
REMARK    1  A    between atoms: N1_2  and  C1_4 
REMARK    2  A    between atoms: C3_6  and  O3_7 
REMARK    3  A    between atoms: C5_10  and  N2_11 
REMARK    4  A    between atoms: N2_11  and  C6_13 
REMARK    5  A    between atoms: C6_13  and  N3_15 
REMARK    6  A    between atoms: N3_15  and  C7_17 
ROOT
HETATM    1  N2  UNL     1      66.971  35.872  25.270  1.00  0.00    -0.333 N 
ATOM      2  H2  UNL     1      67.783  35.255  25.281  1.00  0.00     0.168 HD
ENDROOT
BRANCH   1   3
HETATM    3  C5  UNL     1      65.717  35.262  25.160  1.00  0.00     0.039 A 
HETATM    4  C4  UNL     1      64.867  35.328  24.085  1.00  0.00     0.066 A 
HETATM    5  C3  UNL     1      63.655  34.662  24.055  1.00  0.00     0.070 A 
HETATM    6  C2  UNL     1      63.243  33.894  25.111  1.00  0.00     0.072 A 
HETATM    7  C1  UNL     1      64.055  33.797  26.207  1.00  0.00     0.107 A 
HETATM    8  C13 UNL     1      65.241  34.457  26.223  1.00  0.00     0.065 A 
BRANCH   5   9
HETATM    9  O3  UNL     1      62.838  34.764  22.941  1.00  0.00    -0.361 OA
ATOM     10  H3  UNL     1      63.218  34.639  22.079  1.00  0.00     0.217 HD
ENDBRANCH   5   9
BRANCH   7  11
HETATM   11  N1  UNL     1      63.636  33.003  27.310  1.00  0.00    -0.116 N 
HETATM   12  O1  UNL     1      64.405  32.132  27.749  1.00  0.00    -0.532 OA
HETATM   13  O2  UNL     1      62.417  33.154  27.919  1.00  0.00    -0.532 OA
ENDBRANCH   7  11
ENDBRANCH   1   3
BRANCH   1  14
HETATM   14  C6  UNL     1      67.221  37.242  25.365  1.00  0.00     0.172 C 
HETATM   15  S1  UNL     1      66.858  38.011  26.757  1.00  0.00    -0.041 SA
BRANCH  14  16
HETATM   16  N3  UNL     1      67.750  37.990  24.248  1.00  0.00    -0.362 N 
ATOM     17  H3  UNL     1      68.719  38.301  24.325  1.00  0.00     0.162 HD
BRANCH  16  18
HETATM   18  C7  UNL     1      67.073  38.337  23.065  1.00  0.00     0.083 C 
HETATM   19  C8  UNL     1      67.122  37.337  21.937  1.00  0.00     0.025 C 
HETATM   20  C9  UNL     1      66.657  38.027  20.671  1.00  0.00     0.002 C 
HETATM   21  C10 UNL     1      65.214  38.394  20.828  1.00  0.00     0.000 C 
HETATM   22  C11 UNL     1      64.728  38.163  22.216  1.00  0.00     0.002 C 
HETATM   23  C12 UNL     1      65.632  38.682  23.303  1.00  0.00     0.025 C 
ENDBRANCH  16  18
ENDBRANCH  14  16
ENDBRANCH   1  14
TORSDOF 6
ENDMDL
MODEL 4
REMARK VINA RESULT: -6.782023946      2.253      3.446
REMARK  6 active torsions:
REMARK  status: ('A' for Active; 'I' for Inactive)
REMARK    1  A    between atoms: N1_2  and  C1_4 
REMARK    2  A    between atoms: C3_6  and  O3_7 
REMARK    3  A    between atoms: C5_10  and  N2_11 
REMARK    4  A    between atoms: N2_11  and  C6_13 
REMARK    5  A    between atoms: C6_13  and  N3_15 
REMARK    6  A    between atoms: N3_15  and  C7_17 
ROOT
HETATM    1  N2  UNL     1      63.823  36.046  24.412  1.00  0.00    -0.333 N 
ATOM      2  H2  UNL     1      62.948  36.130  23.896  1.00  0.00     0.168 HD
ENDROOT
BRANCH   1   3
HETATM    3  C5  UNL     1      63.943  34.954  25.277  1.00  0.00     0.039 A 
HETATM    4  C4  UNL     1      62.938  34.384  26.019  1.00  0.00     0.066 A 
HETATM    5  C3  UNL     1      63.146  33.280  26.825  1.00  0.00     0.070 A 
HETATM    6  C2  UNL     1      64.380  32.695  26.920  1.00  0.00     0.072 A 
HETATM    7  C1  UNL     1      65.415  33.225  26.200  1.00  0.00     0.107 A 
HETATM    8  C13 UNL     1      65.196  34.310  25.413  1.00  0.00     0.065 A 
BRANCH   5   9
HETATM    9  O3  UNL     1      62.094  32.747  27.551  1.00  0.00    -0.361 OA
ATOM     10  H3  UNL     1      61.224  32.746  27.168  1.00  0.00     0.217 HD
ENDBRANCH   5   9
BRANCH   7  11
HETATM   11  N1  UNL     1      66.700  32.626  26.292  1.00  0.00    -0.116 N 
HETATM   12  O1  UNL     1      66.831  31.432  25.974  1.00  0.00    -0.532 OA
HETATM   13  O2  UNL     1      67.813  33.306  26.716  1.00  0.00    -0.532 OA
ENDBRANCH   7  11
ENDBRANCH   1   3
BRANCH   1  14
HETATM   14  C6  UNL     1      64.784  37.034  24.187  1.00  0.00     0.172 C 
HETATM   15  S1  UNL     1      64.781  38.362  25.134  1.00  0.00    -0.041 SA
BRANCH  14  16
HETATM   16  N3  UNL     1      65.745  36.919  23.114  1.00  0.00    -0.362 N 
ATOM     17  H3  UNL     1      66.218  36.020  23.020  1.00  0.00     0.162 HD
BRANCH  16  18
HETATM   18  C7  UNL     1      66.097  37.914  22.185  1.00  0.00     0.083 C 
HETATM   19  C8  UNL     1      67.278  37.624  21.293  1.00  0.00     0.025 C 
HETATM   20  C9  UNL     1      67.707  38.919  20.636  1.00  0.00     0.002 C 
HETATM   21  C10 UNL     1      66.611  39.381  19.725  1.00  0.00     0.000 C 
HETATM   22  C11 UNL     1      65.377  38.563  19.881  1.00  0.00     0.002 C 
HETATM   23  C12 UNL     1      64.951  38.316  21.303  1.00  0.00     0.025 C 
ENDBRANCH  16  18
ENDBRANCH  14  16
ENDBRANCH   1  14
TORSDOF 6
ENDMDL
MODEL 5
REMARK VINA RESULT: -6.765374471      1.435      2.878
REMARK  6 active torsions:
REMARK  status: ('A' for Active; 'I' for Inactive)
REMARK    1  A    between atoms: N1_2  and  C1_4 
REMARK    2  A    between atoms: C3_6  and  O3_7 
REMARK    3  A    between atoms: C5_10  and  N2_11 
REMARK    4  A    between atoms: N2_11  and  C6_13 
REMARK    5  A    between atoms: C6_13  and  N3_15 
REMARK    6  A    between atoms: N3_15  and  C7_17 
ROOT
HETATM    1  N2  UNL     1      63.877  35.273  24.452  1.00  0.00    -0.333 N 
ATOM      2  H2  UNL     1      63.096  34.961  23.875  1.00  0.00     0.168 HD
ENDROOT
BRANCH   1   3
HETATM    3  C5  UNL     1      64.428  34.333  25.328  1.00  0.00     0.039 A 
HETATM    4  C4  UNL     1      65.746  33.956  25.399  1.00  0.00     0.066 A 
HETATM    5  C3  UNL     1      66.206  33.037  26.325  1.00  0.00     0.070 A 
HETATM    6  C2  UNL     1      65.356  32.455  27.227  1.00  0.00     0.072 A 
HETATM    7  C1  UNL     1      64.032  32.798  27.197  1.00  0.00     0.107 A 
HETATM    8  C13 UNL     1      63.595  33.701  26.282  1.00  0.00     0.065 A 
BRANCH   5   9
HETATM    9  O3  UNL     1      67.548  32.695  26.351  1.00  0.00    -0.361 OA
ATOM     10  H3  UNL     1      68.177  33.327  26.678  1.00  0.00     0.217 HD
ENDBRANCH   5   9
BRANCH   7  11
HETATM   11  N1  UNL     1      63.141  32.199  28.128  1.00  0.00    -0.116 N 
HETATM   12  O1  UNL     1      61.952  32.040  27.805  1.00  0.00    -0.532 OA
HETATM   13  O2  UNL     1      63.531  31.782  29.374  1.00  0.00    -0.532 OA
ENDBRANCH   7  11
ENDBRANCH   1   3
BRANCH   1  14
HETATM   14  C6  UNL     1      64.290  36.597  24.289  1.00  0.00     0.172 C 
HETATM   15  S1  UNL     1      64.527  37.165  22.778  1.00  0.00    -0.041 SA
BRANCH  14  16
HETATM   16  N3  UNL     1      64.548  37.450  25.426  1.00  0.00    -0.362 N 
ATOM     17  H3  UNL     1      63.810  38.107  25.681  1.00  0.00     0.162 HD
BRANCH  16  18
HETATM   18  C7  UNL     1      65.709  37.473  26.219  1.00  0.00     0.083 C 
HETATM   19  C8  UNL     1      67.027  37.566  25.492  1.00  0.00     0.025 C 
HETATM   20  C9  UNL     1      68.133  37.223  26.469  1.00  0.00     0.002 C 
HETATM   21  C10 UNL     1      68.179  38.277  27.531  1.00  0.00     0.000 C 
HETATM   22  C11 UNL     1      67.027  39.216  27.434  1.00  0.00     0.002 C 
HETATM   23  C12 UNL     1      65.684  38.561  27.253  1.00  0.00     0.025 C 
ENDBRANCH  16  18
ENDBRANCH  14  16
ENDBRANCH   1  14
TORSDOF 6
ENDMDL
