MODEL 1
REMARK VINA RESULT: -6.585012652      0.000      0.000
REMARK  4 active torsions:
REMARK  status: ('A' for Active; 'I' for Inactive)
REMARK    1  A    between atoms: C2_2  and  C3_3 
REMARK    2  A    between atoms: C3_3  and  C4_5 
REMARK    3  A    between atoms: N1_7  and  C6_8 
REMARK    4  A    between atoms: C13_17  and  N3_18 
ROOT
HETATM    1  C4  UNL     1      64.817  35.792  25.407  1.00  0.00     0.042 A 
HETATM    2  C5  UNL     1      65.696  36.613  26.137  1.00  0.00     0.109 A 
HETATM    3  N1  UNL     1      66.158  37.620  25.373  1.00  0.00    -0.336 N 
HETATM    4  C12 UNL     1      65.629  37.520  24.143  1.00  0.00     0.138 A 
HETATM    5  N2  UNL     1      65.787  38.287  23.057  1.00  0.00    -0.176 N 
ATOM      6  H2  UNL     1      66.398  39.104  23.072  1.00  0.00     0.186 HD
HETATM    7  C13 UNL     1      65.101  37.938  21.924  1.00  0.00     0.678 A 
HETATM    8  N4  UNL     1      64.300  36.869  21.903  1.00  0.00    -0.181 N 
ATOM      9  H4  UNL     1      63.805  36.640  21.041  1.00  0.00     0.185 HD
HETATM   10  C14 UNL     1      64.122  36.072  23.001  1.00  0.00     0.131 A 
HETATM   11  S1  UNL     1      63.107  34.805  22.863  1.00  0.00    -0.059 SA
HETATM   12  C15 UNL     1      64.799  36.394  24.159  1.00  0.00     0.062 A 
ENDROOT
BRANCH   3  13
HETATM   13  C6  UNL     1      67.074  38.637  25.806  1.00  0.00     0.091 C 
HETATM   14  C7  UNL     1      66.454  39.918  26.261  1.00  0.00     0.026 C 
HETATM   15  C8  UNL     1      67.528  40.986  26.131  1.00  0.00     0.002 C 
HETATM   16  C9  UNL     1      68.900  40.449  25.920  1.00  0.00     0.000 C 
HETATM   17  C10 UNL     1      69.258  39.220  26.668  1.00  0.00     0.002 C 
HETATM   18  C11 UNL     1      68.112  38.211  26.790  1.00  0.00     0.026 C 
ENDBRANCH   3  13
BRANCH   1  19
HETATM   19  C3  UNL     1      64.170  34.612  25.919  1.00  0.00     0.161 C 
HETATM   20  O1  UNL     1      63.020  34.473  26.297  1.00  0.00    -0.292 OA
BRANCH  19  21
HETATM   21  C2  UNL     1      65.021  33.362  26.010  1.00  0.00     0.079 C 
HETATM   22  C1  UNL     1      64.755  32.580  27.254  1.00  0.00     0.013 C 
ENDBRANCH  19  21
ENDBRANCH   1  19
BRANCH   7  23
HETATM   23  N3  UNL     1      65.246  38.666  20.874  1.00  0.00    -0.234 N 
ATOM     24  H32 UNL     1      66.146  38.712  20.396  1.00  0.00     0.174 HD
ATOM     25  H31 UNL     1      64.441  39.192  20.535  1.00  0.00     0.174 HD
ENDBRANCH   7  23
TORSDOF 4
ENDMDL
MODEL 2
REMARK VINA RESULT: -6.017022054      4.107      7.190
REMARK  4 active torsions:
REMARK  status: ('A' for Active; 'I' for Inactive)
REMARK    1  A    between atoms: C2_2  and  C3_3 
REMARK    2  A    between atoms: C3_3  and  C4_5 
REMARK    3  A    between atoms: N1_7  and  C6_8 
REMARK    4  A    between atoms: C13_17  and  N3_18 
ROOT
HETATM    1  C4  UNL     1      66.574  41.294  26.301  1.00  0.00     0.042 A 
HETATM    2  C5  UNL     1      66.005  40.179  25.659  1.00  0.00     0.109 A 
HETATM    3  N1  UNL     1      66.336  39.039  26.292  1.00  0.00    -0.336 N 
HETATM    4  C12 UNL     1      67.112  39.330  27.348  1.00  0.00     0.138 A 
HETATM    5  N2  UNL     1      67.674  38.535  28.268  1.00  0.00    -0.176 N 
ATOM      6  H2  UNL     1      67.549  37.523  28.237  1.00  0.00     0.186 HD
HETATM    7  C13 UNL     1      68.423  39.126  29.250  1.00  0.00     0.678 A 
HETATM    8  N4  UNL     1      68.587  40.451  29.292  1.00  0.00    -0.181 N 
ATOM      9  H4  UNL     1      69.151  40.856  30.039  1.00  0.00     0.185 HD
HETATM   10  C14 UNL     1      68.021  41.283  28.364  1.00  0.00     0.131 A 
HETATM   11  S1  UNL     1      68.276  42.884  28.525  1.00  0.00    -0.059 SA
HETATM   12  C15 UNL     1      67.261  40.721  27.359  1.00  0.00     0.062 A 
ENDROOT
BRANCH   3  13
HETATM   13  C6  UNL     1      65.924  37.722  25.899  1.00  0.00     0.091 C 
HETATM   14  C7  UNL     1      64.695  37.650  25.052  1.00  0.00     0.026 C 
HETATM   15  C8  UNL     1      64.137  36.247  25.222  1.00  0.00     0.002 C 
HETATM   16  C9  UNL     1      65.075  35.291  25.870  1.00  0.00     0.000 C 
HETATM   17  C10 UNL     1      66.507  35.407  25.502  1.00  0.00     0.002 C 
HETATM   18  C11 UNL     1      66.983  36.851  25.311  1.00  0.00     0.026 C 
ENDBRANCH   3  13
BRANCH   1  19
HETATM   19  C3  UNL     1      66.439  42.659  25.863  1.00  0.00     0.161 C 
HETATM   20  O1  UNL     1      67.060  43.249  24.997  1.00  0.00    -0.292 OA
BRANCH  19  21
HETATM   21  C2  UNL     1      65.387  43.493  26.565  1.00  0.00     0.079 C 
HETATM   22  C1  UNL     1      64.095  43.528  25.817  1.00  0.00     0.013 C 
ENDBRANCH  19  21
ENDBRANCH   1  19
BRANCH   7  23
HETATM   23  N3  UNL     1      68.969  38.372  30.138  1.00  0.00    -0.234 N 
ATOM     24  H32 UNL     1      69.965  38.157  30.093  1.00  0.00     0.174 HD
ATOM     25  H31 UNL     1      68.382  38.000  30.884  1.00  0.00     0.174 HD
ENDBRANCH   7  23
TORSDOF 4
ENDMDL
MODEL 3
REMARK VINA RESULT: -5.974096820      3.012      6.069
REMARK  4 active torsions:
REMARK  status: ('A' for Active; 'I' for Inactive)
REMARK    1  A    between atoms: C2_2  and  C3_3 
REMARK    2  A    between atoms: C3_3  and  C4_5 
REMARK    3  A    between atoms: N1_7  and  C6_8 
REMARK    4  A    between atoms: C13_17  and  N3_18 
ROOT
HETATM    1  C4  UNL     1      66.342  37.703  23.276  1.00  0.00     0.042 A 
HETATM    2  C5  UNL     1      65.634  36.506  23.487  1.00  0.00     0.109 A 
HETATM    3  N1  UNL     1      65.394  36.314  24.796  1.00  0.00    -0.336 N 
HETATM    4  C12 UNL     1      65.911  37.337  25.495  1.00  0.00     0.138 A 
HETATM    5  N2  UNL     1      65.917  37.584  26.811  1.00  0.00    -0.176 N 
ATOM      6  H2  UNL     1      65.482  36.939  27.471  1.00  0.00     0.186 HD
HETATM    7  C13 UNL     1      66.527  38.732  27.242  1.00  0.00     0.678 A 
HETATM    8  N4  UNL     1      67.096  39.578  26.378  1.00  0.00    -0.181 N 
ATOM      9  H4  UNL     1      67.541  40.423  26.736  1.00  0.00     0.185 HD
HETATM   10  C14 UNL     1      67.102  39.346  25.030  1.00  0.00     0.131 A 
HETATM   11  S1  UNL     1      67.812  40.456  24.072  1.00  0.00    -0.059 SA
HETATM   12  C15 UNL     1      66.497  38.198  24.562  1.00  0.00     0.062 A 
ENDROOT
BRANCH   3  13
HETATM   13  C6  UNL     1      64.695  35.192  25.356  1.00  0.00     0.091 C 
HETATM   14  C7  UNL     1      63.469  34.756  24.620  1.00  0.00     0.026 C 
HETATM   15  C8  UNL     1      62.617  33.992  25.619  1.00  0.00     0.002 C 
HETATM   16  C9  UNL     1      63.329  33.623  26.873  1.00  0.00     0.000 C 
HETATM   17  C10 UNL     1      64.746  33.207  26.738  1.00  0.00     0.002 C 
HETATM   18  C11 UNL     1      65.527  33.997  25.684  1.00  0.00     0.026 C 
ENDBRANCH   3  13
BRANCH   1  19
HETATM   19  C3  UNL     1      66.782  38.190  21.994  1.00  0.00     0.161 C 
HETATM   20  O1  UNL     1      67.911  38.464  21.626  1.00  0.00    -0.292 OA
BRANCH  19  21
HETATM   21  C2  UNL     1      65.708  38.398  20.947  1.00  0.00     0.079 C 
HETATM   22  C1  UNL     1      66.071  37.793  19.631  1.00  0.00     0.013 C 
ENDBRANCH  19  21
ENDBRANCH   1  19
BRANCH   7  23
HETATM   23  N3  UNL     1      66.539  38.980  28.504  1.00  0.00    -0.234 N 
ATOM     24  H32 UNL     1      66.768  38.245  29.173  1.00  0.00     0.174 HD
ATOM     25  H31 UNL     1      66.316  39.926  28.813  1.00  0.00     0.174 HD
ENDBRANCH   7  23
TORSDOF 4
ENDMDL
MODEL 4
REMARK VINA RESULT: -5.841268068      2.440      5.537
REMARK  4 active torsions:
REMARK  status: ('A' for Active; 'I' for Inactive)
REMARK    1  A    between atoms: C2_2  and  C3_3 
REMARK    2  A    between atoms: C3_3  and  C4_5 
REMARK    3  A    between atoms: N1_7  and  C6_8 
REMARK    4  A    between atoms: C13_17  and  N3_18 
ROOT
HETATM    1  C4  UNL     1      66.081  36.244  24.571  1.00  0.00     0.042 A 
HETATM    2  C5  UNL     1      66.071  35.323  25.635  1.00  0.00     0.109 A 
HETATM    3  N1  UNL     1      64.947  34.585  25.619  1.00  0.00    -0.336 N 
HETATM    4  C12 UNL     1      64.183  34.964  24.582  1.00  0.00     0.138 A 
HETATM    5  N2  UNL     1      62.992  34.518  24.163  1.00  0.00    -0.176 N 
ATOM      6  H2  UNL     1      62.505  33.770  24.657  1.00  0.00     0.186 HD
HETATM    7  C13 UNL     1      62.448  35.102  23.050  1.00  0.00     0.678 A 
HETATM    8  N4  UNL     1      63.085  36.082  22.403  1.00  0.00    -0.181 N 
ATOM      9  H4  UNL     1      62.649  36.493  21.577  1.00  0.00     0.185 HD
HETATM   10  C14 UNL     1      64.302  36.552  22.812  1.00  0.00     0.131 A 
HETATM   11  S1  UNL     1      64.992  37.739  21.934  1.00  0.00    -0.059 SA
HETATM   12  C15 UNL     1      64.879  35.987  23.930  1.00  0.00     0.062 A 
ENDROOT
BRANCH   3  13
HETATM   13  C6  UNL     1      64.618  33.555  26.563  1.00  0.00     0.091 C 
HETATM   14  C7  UNL     1      63.161  33.266  26.730  1.00  0.00     0.026 C 
HETATM   15  C8  UNL     1      63.006  32.611  28.092  1.00  0.00     0.002 C 
HETATM   16  C9  UNL     1      64.286  32.161  28.703  1.00  0.00     0.000 C 
HETATM   17  C10 UNL     1      65.296  31.580  27.786  1.00  0.00     0.002 C 
HETATM   18  C11 UNL     1      65.364  32.270  26.420  1.00  0.00     0.026 C 
ENDBRANCH   3  13
BRANCH   1  19
HETATM   19  C3  UNL     1      67.125  37.203  24.316  1.00  0.00     0.161 C 
HETATM   20  O1  UNL     1      67.583  37.570  23.249  1.00  0.00    -0.292 OA
BRANCH  19  21
HETATM   21  C2  UNL     1      67.752  37.856  25.531  1.00  0.00     0.079 C 
HETATM   22  C1  UNL     1      66.882  38.916  26.121  1.00  0.00     0.013 C 
ENDBRANCH  19  21
ENDBRANCH   1  19
BRANCH   7  23
HETATM   23  N3  UNL     1      61.304  34.683  22.638  1.00  0.00    -0.234 N 
ATOM     24  H32 UNL     1      60.678  34.183  23.270  1.00  0.00     0.174 HD
ATOM     25  H31 UNL     1      61.041  34.865  21.670  1.00  0.00     0.174 HD
ENDBRANCH   7  23
TORSDOF 4
ENDMDL
MODEL 5
REMARK VINA RESULT: -5.823926295      2.886      5.955
REMARK  4 active torsions:
REMARK  status: ('A' for Active; 'I' for Inactive)
REMARK    1  A    between atoms: C2_2  and  C3_3 
REMARK    2  A    between atoms: C3_3  and  C4_5 
REMARK    3  A    between atoms: N1_7  and  C6_8 
REMARK    4  A    between atoms: C13_17  and  N3_18 
ROOT
HETATM    1  C4  UNL     1      65.803  37.342  23.151  1.00  0.00     0.042 A 
HETATM    2  C5  UNL     1      65.100  36.200  23.577  1.00  0.00     0.109 A 
HETATM    3  N1  UNL     1      65.458  35.854  24.827  1.00  0.00    -0.336 N 
HETATM    4  C12 UNL     1      66.383  36.717  25.276  1.00  0.00     0.138 A 
HETATM    5  N2  UNL     1      67.026  36.781  26.449  1.00  0.00    -0.176 N 
ATOM      6  H2  UNL     1      66.849  36.096  27.185  1.00  0.00     0.186 HD
HETATM    7  C13 UNL     1      67.928  37.795  26.629  1.00  0.00     0.678 A 
HETATM    8  N4  UNL     1      68.159  38.693  25.666  1.00  0.00    -0.181 N 
ATOM      9  H4  UNL     1      68.838  39.435  25.837  1.00  0.00     0.185 HD
HETATM   10  C14 UNL     1      67.514  38.648  24.461  1.00  0.00     0.131 A 
HETATM   11  S1  UNL     1      67.865  39.806  23.369  1.00  0.00    -0.059 SA
HETATM   12  C15 UNL     1      66.599  37.639  24.246  1.00  0.00     0.062 A 
ENDROOT
BRANCH   3  13
HETATM   13  C6  UNL     1      64.934  34.738  25.562  1.00  0.00     0.091 C 
HETATM   14  C7  UNL     1      63.553  34.305  25.189  1.00  0.00     0.026 C 
HETATM   15  C8  UNL     1      63.002  33.550  26.387  1.00  0.00     0.002 C 
HETATM   16  C9  UNL     1      64.026  33.183  27.402  1.00  0.00     0.000 C 
HETATM   17  C10 UNL     1      65.351  32.759  26.890  1.00  0.00     0.002 C 
HETATM   18  C11 UNL     1      65.820  33.541  25.659  1.00  0.00     0.026 C 
ENDBRANCH   3  13
BRANCH   1  19
HETATM   19  C3  UNL     1      65.676  37.955  21.854  1.00  0.00     0.161 C 
HETATM   20  O1  UNL     1      64.915  38.836  21.496  1.00  0.00    -0.292 OA
BRANCH  19  21
HETATM   21  C2  UNL     1      66.610  37.449  20.774  1.00  0.00     0.079 C 
HETATM   22  C1  UNL     1      66.093  37.721  19.400  1.00  0.00     0.013 C 
ENDBRANCH  19  21
ENDBRANCH   1  19
BRANCH   7  23
HETATM   23  N3  UNL     1      68.552  37.865  27.751  1.00  0.00    -0.234 N 
ATOM     24  H32 UNL     1      69.355  37.264  27.936  1.00  0.00     0.174 HD
ATOM     25  H31 UNL     1      68.224  38.536  28.446  1.00  0.00     0.174 HD
ENDBRANCH   7  23
TORSDOF 4
ENDMDL
