MODEL 1
REMARK VINA RESULT: -6.921051790      0.000      0.000
REMARK  4 active torsions:
REMARK  status: ('A' for Active; 'I' for Inactive)
REMARK    1  A    between atoms: S1_2  and  C2_3 
REMARK    2  A    between atoms: C7_8  and  C8_9 
REMARK    3  A    between atoms: C8_9  and  N1_10 
REMARK       I    between atoms: N1_10  and  C9_12 
REMARK       I    between atoms: C9_12  and  N2_14 
REMARK       I    between atoms: N2_14  and  C10_16 
REMARK       I    between atoms: C10_16  and  N3_17 
REMARK       I    between atoms: C10_16  and  N4_20 
REMARK    4  A    between atoms: N4_20  and  C11_22 
ROOT
HETATM    1  N1  UNL     1      66.905  36.448  26.040  1.00  0.00    -0.338 N 
ATOM      2  H1  UNL     1      66.952  36.173  27.021  1.00  0.00     0.164 HD
HETATM    3  C9  UNL     1      67.715  37.513  25.666  1.00  0.00     0.334 C 
HETATM    4  O1  UNL     1      67.807  37.974  24.519  1.00  0.00    -0.246 OA
HETATM    5  N2  UNL     1      68.557  38.200  26.678  1.00  0.00    -0.142 N 
ATOM      6  H2  UNL     1      68.559  37.876  27.645  1.00  0.00     0.189 HD
HETATM    7  C10 UNL     1      69.337  39.279  26.308  1.00  0.00     0.676 C 
HETATM    8  N3  UNL     1      69.972  40.148  26.033  1.00  0.00    -0.235 N 
ATOM      9  H31 UNL     1      70.549  40.944  25.760  1.00  0.00     0.174 HD
ATOM     10  H32 UNL     1      69.673  40.030  25.065  1.00  0.00     0.174 HD
HETATM   11  N4  UNL     1      69.854  39.481  27.983  1.00  0.00    -0.218 N 
ATOM     12  H4  UNL     1      70.680  39.047  28.396  1.00  0.00     0.178 HD
ENDROOT
BRANCH   1  13
HETATM   13  C8  UNL     1      65.993  35.673  25.200  1.00  0.00     0.164 C 
BRANCH  13  14
HETATM   14  C7  UNL     1      66.031  34.241  25.605  1.00  0.00    -0.024 A 
HETATM   15  C2  UNL     1      64.777  33.632  25.785  1.00  0.00     0.008 A 
HETATM   16  C3  UNL     1      64.667  32.333  26.209  1.00  0.00     0.019 A 
HETATM   17  C4  UNL     1      65.790  31.593  26.473  1.00  0.00     0.001 A 
HETATM   18  C5  UNL     1      67.038  32.207  26.292  1.00  0.00     0.001 A 
HETATM   19  C6  UNL     1      67.153  33.510  25.866  1.00  0.00     0.010 A 
BRANCH  15  20
HETATM   20  S1  UNL     1      63.327  34.560  25.342  1.00  0.00    -0.134 SA
HETATM   21  C1  UNL     1      63.185  34.770  23.569  1.00  0.00     0.095 C 
ENDBRANCH  15  20
ENDBRANCH  13  14
ENDBRANCH   1  13
BRANCH  11  22
HETATM   22  C11 UNL     1      68.989  40.302  28.642  1.00  0.00     0.036 C 
HETATM   23  C12 UNL     1      68.588  39.596  29.963  1.00  0.00     0.038 C 
HETATM   24  C13 UNL     1      67.699  40.700  27.958  1.00  0.00     0.038 C 
HETATM   25  C14 UNL     1      69.610  41.646  29.096  1.00  0.00     0.038 C 
ENDBRANCH  11  22
TORSDOF 4
ENDMDL
MODEL 2
REMARK VINA RESULT: -6.860085566      0.954      1.153
REMARK  4 active torsions:
REMARK  status: ('A' for Active; 'I' for Inactive)
REMARK    1  A    between atoms: S1_2  and  C2_3 
REMARK    2  A    between atoms: C7_8  and  C8_9 
REMARK    3  A    between atoms: C8_9  and  N1_10 
REMARK       I    between atoms: N1_10  and  C9_12 
REMARK       I    between atoms: C9_12  and  N2_14 
REMARK       I    between atoms: N2_14  and  C10_16 
REMARK       I    between atoms: C10_16  and  N3_17 
REMARK       I    between atoms: C10_16  and  N4_20 
REMARK    4  A    between atoms: N4_20  and  C11_22 
ROOT
HETATM    1  N1  UNL     1      67.211  35.655  25.927  1.00  0.00    -0.338 N 
ATOM      2  H1  UNL     1      67.370  35.325  26.879  1.00  0.00     0.164 HD
HETATM    3  C9  UNL     1      67.756  36.895  25.613  1.00  0.00     0.334 C 
HETATM    4  O1  UNL     1      67.685  37.449  24.507  1.00  0.00    -0.246 OA
HETATM    5  N2  UNL     1      68.487  37.670  26.647  1.00  0.00    -0.142 N 
ATOM      6  H2  UNL     1      68.611  37.283  27.583  1.00  0.00     0.189 HD
HETATM    7  C10 UNL     1      68.999  38.916  26.341  1.00  0.00     0.676 C 
HETATM    8  N3  UNL     1      69.420  39.920  26.116  1.00  0.00    -0.235 N 
ATOM      9  H31 UNL     1      69.798  40.839  25.890  1.00  0.00     0.174 HD
ATOM     10  H32 UNL     1      69.100  39.813  25.153  1.00  0.00     0.174 HD
HETATM   11  N4  UNL     1      69.553  39.101  28.005  1.00  0.00    -0.218 N 
ATOM     12  H4  UNL     1      70.473  38.825  28.349  1.00  0.00     0.178 HD
ENDROOT
BRANCH   1  13
HETATM   13  C8  UNL     1      66.439  34.766  25.060  1.00  0.00     0.164 C 
BRANCH  13  14
HETATM   14  C7  UNL     1      65.586  33.872  25.888  1.00  0.00    -0.024 A 
HETATM   15  C2  UNL     1      64.221  34.208  25.927  1.00  0.00     0.008 A 
HETATM   16  C3  UNL     1      63.333  33.500  26.695  1.00  0.00     0.019 A 
HETATM   17  C4  UNL     1      63.761  32.441  27.452  1.00  0.00     0.001 A 
HETATM   18  C5  UNL     1      65.124  32.112  27.409  1.00  0.00     0.001 A 
HETATM   19  C6  UNL     1      66.019  32.818  26.639  1.00  0.00     0.010 A 
BRANCH  15  20
HETATM   20  S1  UNL     1      63.653  35.514  24.866  1.00  0.00    -0.134 SA
HETATM   21  C1  UNL     1      63.454  34.961  23.174  1.00  0.00     0.095 C 
ENDBRANCH  15  20
ENDBRANCH  13  14
ENDBRANCH   1  13
BRANCH  11  22
HETATM   22  C11 UNL     1      68.571  39.664  28.764  1.00  0.00     0.036 C 
HETATM   23  C12 UNL     1      68.702  39.093  30.199  1.00  0.00     0.038 C 
HETATM   24  C13 UNL     1      67.128  39.466  28.351  1.00  0.00     0.038 C 
HETATM   25  C14 UNL     1      68.709  41.195  28.944  1.00  0.00     0.038 C 
ENDBRANCH  11  22
TORSDOF 4
ENDMDL
MODEL 3
REMARK VINA RESULT: -6.736960424      1.931      2.344
REMARK  4 active torsions:
REMARK  status: ('A' for Active; 'I' for Inactive)
REMARK    1  A    between atoms: S1_2  and  C2_3 
REMARK    2  A    between atoms: C7_8  and  C8_9 
REMARK    3  A    between atoms: C8_9  and  N1_10 
REMARK       I    between atoms: N1_10  and  C9_12 
REMARK       I    between atoms: C9_12  and  N2_14 
REMARK       I    between atoms: N2_14  and  C10_16 
REMARK       I    between atoms: C10_16  and  N3_17 
REMARK       I    between atoms: C10_16  and  N4_20 
REMARK    4  A    between atoms: N4_20  and  C11_22 
ROOT
HETATM    1  N1  UNL     1      65.683  36.516  26.044  1.00  0.00    -0.338 N 
ATOM      2  H1  UNL     1      66.656  36.240  26.180  1.00  0.00     0.164 HD
HETATM    3  C9  UNL     1      65.444  37.882  25.951  1.00  0.00     0.334 C 
HETATM    4  O1  UNL     1      64.336  38.404  25.767  1.00  0.00    -0.246 OA
HETATM    5  N2  UNL     1      66.567  38.844  26.081  1.00  0.00    -0.142 N 
ATOM      6  H2  UNL     1      67.519  38.503  26.216  1.00  0.00     0.189 HD
HETATM    7  C10 UNL     1      66.322  40.202  26.019  1.00  0.00     0.676 C 
HETATM    8  N3  UNL     1      66.147  41.299  25.972  1.00  0.00    -0.235 N 
ATOM      9  H31 UNL     1      65.966  42.301  25.926  1.00  0.00     0.174 HD
ATOM     10  H32 UNL     1      65.160  41.110  25.794  1.00  0.00     0.174 HD
HETATM   11  N4  UNL     1      68.028  40.528  26.326  1.00  0.00    -0.218 N 
ATOM     12  H4  UNL     1      68.741  40.641  25.605  1.00  0.00     0.178 HD
ENDROOT
BRANCH   1  13
HETATM   13  C8  UNL     1      64.711  35.425  25.972  1.00  0.00     0.164 C 
BRANCH  13  14
HETATM   14  C7  UNL     1      65.421  34.117  25.997  1.00  0.00    -0.024 A 
HETATM   15  C2  UNL     1      64.671  33.034  26.488  1.00  0.00     0.008 A 
HETATM   16  C3  UNL     1      65.220  31.785  26.614  1.00  0.00     0.019 A 
HETATM   17  C4  UNL     1      66.526  31.562  26.264  1.00  0.00     0.001 A 
HETATM   18  C5  UNL     1      67.268  32.647  25.776  1.00  0.00     0.001 A 
HETATM   19  C6  UNL     1      66.722  33.903  25.646  1.00  0.00     0.010 A 
BRANCH  15  20
HETATM   20  S1  UNL     1      62.951  33.302  26.842  1.00  0.00    -0.134 SA
HETATM   21  C1  UNL     1      62.360  32.218  28.140  1.00  0.00     0.095 C 
ENDBRANCH  15  20
ENDBRANCH  13  14
ENDBRANCH   1  13
BRANCH  11  22
HETATM   22  C11 UNL     1      68.254  40.605  27.667  1.00  0.00     0.036 C 
HETATM   23  C12 UNL     1      69.781  40.453  27.894  1.00  0.00     0.038 C 
HETATM   24  C13 UNL     1      67.581  39.600  28.578  1.00  0.00     0.038 C 
HETATM   25  C14 UNL     1      67.906  41.978  28.291  1.00  0.00     0.038 C 
ENDBRANCH  11  22
TORSDOF 4
ENDMDL
MODEL 4
REMARK VINA RESULT: -6.626857612      2.444      3.677
REMARK  4 active torsions:
REMARK  status: ('A' for Active; 'I' for Inactive)
REMARK    1  A    between atoms: S1_2  and  C2_3 
REMARK    2  A    between atoms: C7_8  and  C8_9 
REMARK    3  A    between atoms: C8_9  and  N1_10 
REMARK       I    between atoms: N1_10  and  C9_12 
REMARK       I    between atoms: C9_12  and  N2_14 
REMARK       I    between atoms: N2_14  and  C10_16 
REMARK       I    between atoms: C10_16  and  N3_17 
REMARK       I    between atoms: C10_16  and  N4_20 
REMARK    4  A    between atoms: N4_20  and  C11_22 
ROOT
HETATM    1  N1  UNL     1      65.946  37.908  26.709  1.00  0.00    -0.338 N 
ATOM      2  H1  UNL     1      65.169  38.561  26.612  1.00  0.00     0.164 HD
HETATM    3  C9  UNL     1      67.052  38.374  27.409  1.00  0.00     0.334 C 
HETATM    4  O1  UNL     1      68.078  37.721  27.645  1.00  0.00    -0.246 OA
HETATM    5  N2  UNL     1      67.068  39.762  27.936  1.00  0.00    -0.142 N 
ATOM      6  H2  UNL     1      66.257  40.368  27.805  1.00  0.00     0.189 HD
HETATM    7  C10 UNL     1      68.181  40.233  28.604  1.00  0.00     0.676 C 
HETATM    8  N3  UNL     1      69.066  40.632  29.145  1.00  0.00    -0.235 N 
ATOM      9  H31 UNL     1      69.888  40.980  29.638  1.00  0.00     0.174 HD
ATOM     10  H32 UNL     1      69.507  39.717  29.053  1.00  0.00     0.174 HD
HETATM   11  N4  UNL     1      67.420  41.817  28.763  1.00  0.00    -0.218 N 
ATOM     12  H4  UNL     1      66.843  42.111  29.552  1.00  0.00     0.178 HD
ENDROOT
BRANCH   1  13
HETATM   13  C8  UNL     1      65.759  36.594  26.094  1.00  0.00     0.164 C 
BRANCH  13  14
HETATM   14  C7  UNL     1      65.077  36.746  24.780  1.00  0.00    -0.024 A 
HETATM   15  C2  UNL     1      64.479  35.580  24.273  1.00  0.00     0.008 A 
HETATM   16  C3  UNL     1      63.863  35.567  23.048  1.00  0.00     0.019 A 
HETATM   17  C4  UNL     1      63.820  36.702  22.282  1.00  0.00     0.001 A 
HETATM   18  C5  UNL     1      64.420  37.862  22.793  1.00  0.00     0.001 A 
HETATM   19  C6  UNL     1      65.037  37.881  24.022  1.00  0.00     0.010 A 
BRANCH  15  20
HETATM   20  S1  UNL     1      64.445  34.139  25.312  1.00  0.00    -0.134 SA
HETATM   21  C1  UNL     1      62.922  34.028  26.249  1.00  0.00     0.095 C 
ENDBRANCH  15  20
ENDBRANCH  13  14
ENDBRANCH   1  13
BRANCH  11  22
HETATM   22  C11 UNL     1      67.714  42.587  27.679  1.00  0.00     0.036 C 
HETATM   23  C12 UNL     1      66.381  43.167  27.140  1.00  0.00     0.038 C 
HETATM   24  C13 UNL     1      68.414  41.946  26.499  1.00  0.00     0.038 C 
HETATM   25  C14 UNL     1      68.575  43.833  28.001  1.00  0.00     0.038 C 
ENDBRANCH  11  22
TORSDOF 4
ENDMDL
MODEL 5
REMARK VINA RESULT: -6.616852380      2.436      3.804
REMARK  4 active torsions:
REMARK  status: ('A' for Active; 'I' for Inactive)
REMARK    1  A    between atoms: S1_2  and  C2_3 
REMARK    2  A    between atoms: C7_8  and  C8_9 
REMARK    3  A    between atoms: C8_9  and  N1_10 
REMARK       I    between atoms: N1_10  and  C9_12 
REMARK       I    between atoms: C9_12  and  N2_14 
REMARK       I    between atoms: N2_14  and  C10_16 
REMARK       I    between atoms: C10_16  and  N3_17 
REMARK       I    between atoms: C10_16  and  N4_20 
REMARK    4  A    between atoms: N4_20  and  C11_22 
ROOT
HETATM    1  N1  UNL     1      66.134  38.550  26.655  1.00  0.00    -0.338 N 
ATOM      2  H1  UNL     1      65.735  39.480  26.533  1.00  0.00     0.164 HD
HETATM    3  C9  UNL     1      67.482  38.504  26.989  1.00  0.00     0.334 C 
HETATM    4  O1  UNL     1      68.134  37.470  27.196  1.00  0.00    -0.246 OA
HETATM    5  N2  UNL     1      68.261  39.761  27.115  1.00  0.00    -0.142 N 
ATOM      6  H2  UNL     1      67.802  40.662  26.979  1.00  0.00     0.189 HD
HETATM    7  C10 UNL     1      69.609  39.710  27.415  1.00  0.00     0.676 C 
HETATM    8  N3  UNL     1      70.694  39.692  27.657  1.00  0.00    -0.235 N 
ATOM      9  H31 UNL     1      71.688  39.655  27.879  1.00  0.00     0.174 HD
ATOM     10  H32 UNL     1      70.636  38.677  27.732  1.00  0.00     0.174 HD
HETATM   11  N4  UNL     1      69.707  41.467  27.285  1.00  0.00    -0.218 N 
ATOM     12  H4  UNL     1      69.576  42.119  28.059  1.00  0.00     0.178 HD
ENDROOT
BRANCH   1  13
HETATM   13  C8  UNL     1      65.217  37.428  26.458  1.00  0.00     0.164 C 
BRANCH  13  14
HETATM   14  C7  UNL     1      64.798  37.366  25.031  1.00  0.00    -0.024 A 
HETATM   15  C2  UNL     1      64.563  36.075  24.528  1.00  0.00     0.008 A 
HETATM   16  C3  UNL     1      64.224  35.870  23.216  1.00  0.00     0.019 A 
HETATM   17  C4  UNL     1      64.108  36.931  22.356  1.00  0.00     0.001 A 
HETATM   18  C5  UNL     1      64.344  38.216  22.865  1.00  0.00     0.001 A 
HETATM   19  C6  UNL     1      64.683  38.427  24.181  1.00  0.00     0.010 A 
BRANCH  15  20
HETATM   20  S1  UNL     1      64.613  34.713  25.668  1.00  0.00    -0.134 SA
HETATM   21  C1  UNL     1      62.970  34.137  26.092  1.00  0.00     0.095 C 
ENDBRANCH  15  20
ENDBRANCH  13  14
ENDBRANCH   1  13
BRANCH  11  22
HETATM   22  C11 UNL     1      69.983  41.825  26.000  1.00  0.00     0.036 C 
HETATM   23  C12 UNL     1      69.992  43.374  25.937  1.00  0.00     0.038 C 
HETATM   24  C13 UNL     1      69.056  41.354  24.899  1.00  0.00     0.038 C 
HETATM   25  C14 UNL     1      71.393  41.411  25.514  1.00  0.00     0.038 C 
ENDBRANCH  11  22
TORSDOF 4
ENDMDL
