MODEL 1
REMARK VINA RESULT: -7.797937493      0.000      0.000
REMARK  5 active torsions:
REMARK  status: ('A' for Active; 'I' for Inactive)
REMARK    1  A    between atoms: C2_2  and  C3_3 
REMARK    2  A    between atoms: C2_2  and  C4_6 
REMARK    3  A    between atoms: C5_8  and  O4_9 
REMARK    4  A    between atoms: C13_18  and  C14_19 
REMARK    5  A    between atoms: C14_19  and  O5_20 
ROOT
HETATM    1  C4  UNL     1      65.057  34.810  24.816  1.00  0.00     0.102 A 
HETATM    2  O3  UNL     1      64.095  34.394  23.982  1.00  0.00    -0.286 OA
HETATM    3  C5  UNL     1      63.715  35.333  23.183  1.00  0.00     0.191 A 
HETATM    4  C6  UNL     1      64.462  36.440  23.499  1.00  0.00     0.018 A 
HETATM    5  C7  UNL     1      65.328  36.113  24.553  1.00  0.00     0.001 A 
HETATM    6  C8  UNL     1      66.197  37.197  25.061  1.00  0.00     0.004 C 
HETATM    7  C9  UNL     1      66.770  36.978  26.430  1.00  0.00     0.025 C 
HETATM    8  C10 UNL     1      65.319  38.434  25.147  1.00  0.00    -0.016 C 
HETATM    9  C11 UNL     1      64.527  38.716  24.131  1.00  0.00    -0.020 C 
HETATM   10  C12 UNL     1      64.509  37.820  22.928  1.00  0.00     0.055 C 
HETATM   11  C13 UNL     1      65.784  38.082  22.171  1.00  0.00     0.058 C 
HETATM   12  C15 UNL     1      66.935  37.264  22.657  1.00  0.00     0.012 C 
HETATM   13  C16 UNL     1      67.306  37.549  24.091  1.00  0.00     0.019 C 
ENDROOT
BRANCH   1  14
HETATM   14  C2  UNL     1      65.656  33.949  25.807  1.00  0.00     0.066 C 
HETATM   15  C1  UNL     1      66.932  33.687  25.783  1.00  0.00     0.033 C 
BRANCH  14  16
HETATM   16  C3  UNL     1      64.815  33.379  26.837  1.00  0.00     0.211 C 
HETATM   17  O1  UNL     1      63.568  33.551  26.810  1.00  0.00    -0.644 OA
HETATM   18  O2  UNL     1      65.423  32.636  27.855  1.00  0.00    -0.644 OA
ENDBRANCH  14  16
ENDBRANCH   1  14
BRANCH   3  19
HETATM   19  O4  UNL     1      62.724  35.254  22.177  1.00  0.00    -0.340 OA
ATOM     20  H4  UNL     1      61.841  35.600  22.211  1.00  0.00     0.220 HD
ENDBRANCH   3  19
BRANCH  11  21
HETATM   21  C14 UNL     1      65.568  37.791  20.705  1.00  0.00     0.309 C 
HETATM   22  F1  UNL     1      64.837  38.761  20.054  1.00  0.00    -0.220 F 
BRANCH  21  23
HETATM   23  O5  UNL     1      66.761  37.493  20.039  1.00  0.00    -0.366 OA
ATOM     24  H5  UNL     1      67.118  38.245  19.581  1.00  0.00     0.213 HD
ENDBRANCH  21  23
ENDBRANCH  11  21
TORSDOF 5
ENDMDL
MODEL 2
REMARK VINA RESULT: -6.893641511      1.204      1.507
REMARK  5 active torsions:
REMARK  status: ('A' for Active; 'I' for Inactive)
REMARK    1  A    between atoms: C2_2  and  C3_3 
REMARK    2  A    between atoms: C2_2  and  C4_6 
REMARK    3  A    between atoms: C5_8  and  O4_9 
REMARK    4  A    between atoms: C13_18  and  C14_19 
REMARK    5  A    between atoms: C14_19  and  O5_20 
ROOT
HETATM    1  C4  UNL     1      64.841  35.001  24.927  1.00  0.00     0.102 A 
HETATM    2  O3  UNL     1      64.031  34.596  23.940  1.00  0.00    -0.286 OA
HETATM    3  C5  UNL     1      63.812  35.536  23.083  1.00  0.00     0.191 A 
HETATM    4  C6  UNL     1      64.515  36.632  23.519  1.00  0.00     0.018 A 
HETATM    5  C7  UNL     1      65.179  36.297  24.708  1.00  0.00     0.001 A 
HETATM    6  C8  UNL     1      65.967  37.368  25.355  1.00  0.00     0.004 C 
HETATM    7  C9  UNL     1      66.291  37.149  26.803  1.00  0.00     0.025 C 
HETATM    8  C10 UNL     1      65.112  38.621  25.282  1.00  0.00    -0.016 C 
HETATM    9  C11 UNL     1      64.513  38.910  24.143  1.00  0.00    -0.020 C 
HETATM   10  C12 UNL     1      64.687  38.006  22.959  1.00  0.00     0.055 C 
HETATM   11  C13 UNL     1      66.079  38.239  22.433  1.00  0.00     0.058 C 
HETATM   12  C15 UNL     1      67.112  37.403  23.115  1.00  0.00     0.012 C 
HETATM   13  C16 UNL     1      67.234  37.692  24.590  1.00  0.00     0.019 C 
ENDROOT
BRANCH   1  14
HETATM   14  C2  UNL     1      65.243  34.137  26.010  1.00  0.00     0.066 C 
HETATM   15  C1  UNL     1      64.411  33.828  26.963  1.00  0.00     0.033 C 
BRANCH  14  16
HETATM   16  C3  UNL     1      66.591  33.614  26.023  1.00  0.00     0.211 C 
HETATM   17  O1  UNL     1      67.558  34.349  26.357  1.00  0.00    -0.644 OA
HETATM   18  O2  UNL     1      66.789  32.278  25.657  1.00  0.00    -0.644 OA
ENDBRANCH  14  16
ENDBRANCH   1  14
BRANCH   3  19
HETATM   19  O4  UNL     1      63.010  35.467  21.921  1.00  0.00    -0.340 OA
ATOM     20  H4  UNL     1      62.263  34.899  21.771  1.00  0.00     0.220 HD
ENDBRANCH   3  19
BRANCH  11  21
HETATM   21  C14 UNL     1      66.114  37.941  20.954  1.00  0.00     0.309 C 
HETATM   22  F1  UNL     1      67.123  37.073  20.591  1.00  0.00    -0.220 F 
BRANCH  21  23
HETATM   23  O5  UNL     1      64.870  37.539  20.460  1.00  0.00    -0.366 OA
ATOM     24  H5  UNL     1      64.642  36.656  20.726  1.00  0.00     0.213 HD
ENDBRANCH  21  23
ENDBRANCH  11  21
TORSDOF 5
ENDMDL
MODEL 3
REMARK VINA RESULT: -6.887507728      2.858      4.526
REMARK  5 active torsions:
REMARK  status: ('A' for Active; 'I' for Inactive)
REMARK    1  A    between atoms: C2_2  and  C3_3 
REMARK    2  A    between atoms: C2_2  and  C4_6 
REMARK    3  A    between atoms: C5_8  and  O4_9 
REMARK    4  A    between atoms: C13_18  and  C14_19 
REMARK    5  A    between atoms: C14_19  and  O5_20 
ROOT
HETATM    1  C4  UNL     1      65.083  35.405  24.681  1.00  0.00     0.102 A 
HETATM    2  O3  UNL     1      65.955  34.613  25.319  1.00  0.00    -0.286 OA
HETATM    3  C5  UNL     1      66.992  35.267  25.721  1.00  0.00     0.191 A 
HETATM    4  C6  UNL     1      66.807  36.570  25.331  1.00  0.00     0.018 A 
HETATM    5  C7  UNL     1      65.580  36.668  24.657  1.00  0.00     0.001 A 
HETATM    6  C8  UNL     1      65.217  37.999  24.126  1.00  0.00     0.004 C 
HETATM    7  C9  UNL     1      64.166  38.004  23.055  1.00  0.00     0.025 C 
HETATM    8  C10 UNL     1      66.482  38.560  23.499  1.00  0.00    -0.016 C 
HETATM    9  C11 UNL     1      67.614  38.461  24.168  1.00  0.00    -0.020 C 
HETATM   10  C12 UNL     1      67.628  37.803  25.517  1.00  0.00     0.055 C 
HETATM   11  C13 UNL     1      66.996  38.772  26.481  1.00  0.00     0.058 C 
HETATM   12  C15 UNL     1      65.507  38.659  26.536  1.00  0.00     0.012 C 
HETATM   13  C16 UNL     1      64.837  38.973  25.222  1.00  0.00     0.019 C 
ENDROOT
BRANCH   1  14
HETATM   14  C2  UNL     1      63.840  34.917  24.135  1.00  0.00     0.066 C 
HETATM   15  C1  UNL     1      63.627  34.918  22.850  1.00  0.00     0.033 C 
BRANCH  14  16
HETATM   16  C3  UNL     1      62.826  34.424  25.040  1.00  0.00     0.211 C 
HETATM   17  O1  UNL     1      61.682  34.117  24.612  1.00  0.00    -0.644 OA
HETATM   18  O2  UNL     1      63.150  34.298  26.396  1.00  0.00    -0.644 OA
ENDBRANCH  14  16
ENDBRANCH   1  14
BRANCH   3  19
HETATM   19  O4  UNL     1      68.107  34.757  26.424  1.00  0.00    -0.340 OA
ATOM     20  H4  UNL     1      68.104  34.096  27.106  1.00  0.00     0.220 HD
ENDBRANCH   3  19
BRANCH  11  21
HETATM   21  C14 UNL     1      67.550  38.539  27.865  1.00  0.00     0.309 C 
HETATM   22  F1  UNL     1      68.911  38.746  27.955  1.00  0.00    -0.220 F 
BRANCH  21  23
HETATM   23  O5  UNL     1      66.844  39.239  28.848  1.00  0.00    -0.366 OA
ATOM     24  H5  UNL     1      66.924  38.840  29.706  1.00  0.00     0.213 HD
ENDBRANCH  21  23
ENDBRANCH  11  21
TORSDOF 5
ENDMDL
MODEL 4
REMARK VINA RESULT: -6.547706495      2.745      4.038
REMARK  5 active torsions:
REMARK  status: ('A' for Active; 'I' for Inactive)
REMARK    1  A    between atoms: C2_2  and  C3_3 
REMARK    2  A    between atoms: C2_2  and  C4_6 
REMARK    3  A    between atoms: C5_8  and  O4_9 
REMARK    4  A    between atoms: C13_18  and  C14_19 
REMARK    5  A    between atoms: C14_19  and  O5_20 
ROOT
HETATM    1  C4  UNL     1      65.249  35.478  25.052  1.00  0.00     0.102 A 
HETATM    2  O3  UNL     1      66.226  35.199  25.925  1.00  0.00    -0.286 OA
HETATM    3  C5  UNL     1      67.125  36.125  25.950  1.00  0.00     0.191 A 
HETATM    4  C6  UNL     1      66.730  37.077  25.044  1.00  0.00     0.018 A 
HETATM    5  C7  UNL     1      65.522  36.667  24.458  1.00  0.00     0.001 A 
HETATM    6  C8  UNL     1      64.951  37.554  23.422  1.00  0.00     0.004 C 
HETATM    7  C9  UNL     1      63.944  36.918  22.510  1.00  0.00     0.025 C 
HETATM    8  C10 UNL     1      66.118  37.987  22.550  1.00  0.00    -0.016 C 
HETATM    9  C11 UNL     1      67.232  38.378  23.137  1.00  0.00    -0.020 C 
HETATM   10  C12 UNL     1      67.323  38.386  24.634  1.00  0.00     0.055 C 
HETATM   11  C13 UNL     1      66.509  39.558  25.114  1.00  0.00     0.058 C 
HETATM   12  C15 UNL     1      65.061  39.236  25.289  1.00  0.00     0.012 C 
HETATM   13  C16 UNL     1      64.381  38.830  24.006  1.00  0.00     0.019 C 
ENDROOT
BRANCH   1  14
HETATM   14  C2  UNL     1      64.123  34.603  24.837  1.00  0.00     0.066 C 
HETATM   15  C1  UNL     1      63.625  34.434  23.645  1.00  0.00     0.033 C 
BRANCH  14  16
HETATM   16  C3  UNL     1      63.549  33.911  25.969  1.00  0.00     0.211 C 
HETATM   17  O1  UNL     1      62.479  34.321  26.494  1.00  0.00    -0.644 OA
HETATM   18  O2  UNL     1      64.211  32.782  26.464  1.00  0.00    -0.644 OA
ENDBRANCH  14  16
ENDBRANCH   1  14
BRANCH   3  19
HETATM   19  O4  UNL     1      68.292  36.164  26.746  1.00  0.00    -0.340 OA
ATOM     20  H4  UNL     1      68.863  36.909  26.895  1.00  0.00     0.220 HD
ENDBRANCH   3  19
BRANCH  11  21
HETATM   21  C14 UNL     1      67.059  40.047  26.432  1.00  0.00     0.309 C 
HETATM   22  F1  UNL     1      66.469  39.454  27.528  1.00  0.00    -0.220 F 
BRANCH  21  23
HETATM   23  O5  UNL     1      68.454  39.983  26.485  1.00  0.00    -0.366 OA
ATOM     24  H5  UNL     1      68.847  39.907  25.624  1.00  0.00     0.213 HD
ENDBRANCH  21  23
ENDBRANCH  11  21
TORSDOF 5
ENDMDL
MODEL 5
REMARK VINA RESULT: -6.205672572      5.421      7.374
REMARK  5 active torsions:
REMARK  status: ('A' for Active; 'I' for Inactive)
REMARK    1  A    between atoms: C2_2  and  C3_3 
REMARK    2  A    between atoms: C2_2  and  C4_6 
REMARK    3  A    between atoms: C5_8  and  O4_9 
REMARK    4  A    between atoms: C13_18  and  C14_19 
REMARK    5  A    between atoms: C14_19  and  O5_20 
ROOT
HETATM    1  C4  UNL     1      67.602  38.640  26.278  1.00  0.00     0.102 A 
HETATM    2  O3  UNL     1      67.741  37.768  27.285  1.00  0.00    -0.286 OA
HETATM    3  C5  UNL     1      68.574  38.192  28.175  1.00  0.00     0.191 A 
HETATM    4  C6  UNL     1      69.019  39.416  27.741  1.00  0.00     0.018 A 
HETATM    5  C7  UNL     1      68.400  39.711  26.516  1.00  0.00     0.001 A 
HETATM    6  C8  UNL     1      68.783  40.984  25.868  1.00  0.00     0.004 C 
HETATM    7  C9  UNL     1      68.478  41.080  24.402  1.00  0.00     0.025 C 
HETATM    8  C10 UNL     1      70.292  41.090  26.008  1.00  0.00    -0.016 C 
HETATM    9  C11 UNL     1      70.836  40.817  27.178  1.00  0.00    -0.020 C 
HETATM   10  C12 UNL     1      69.965  40.411  28.330  1.00  0.00     0.055 C 
HETATM   11  C13 UNL     1      69.263  41.656  28.804  1.00  0.00     0.058 C 
HETATM   12  C15 UNL     1      68.000  41.938  28.059  1.00  0.00     0.012 C 
HETATM   13  C16 UNL     1      68.219  42.190  26.589  1.00  0.00     0.019 C 
ENDROOT
BRANCH   1  14
HETATM   14  C2  UNL     1      66.726  38.403  25.156  1.00  0.00     0.066 C 
HETATM   15  C1  UNL     1      67.116  37.686  24.142  1.00  0.00     0.033 C 
BRANCH  14  16
HETATM   16  C3  UNL     1      65.399  38.977  25.174  1.00  0.00     0.211 C 
HETATM   17  O1  UNL     1      65.236  40.215  25.011  1.00  0.00    -0.644 OA
HETATM   18  O2  UNL     1      64.308  38.123  25.377  1.00  0.00    -0.644 OA
ENDBRANCH  14  16
ENDBRANCH   1  14
BRANCH   3  19
HETATM   19  O4  UNL     1      68.963  37.537  29.366  1.00  0.00    -0.340 OA
ATOM     20  H4  UNL     1      69.479  37.896  30.078  1.00  0.00     0.220 HD
ENDBRANCH   3  19
BRANCH  11  21
HETATM   21  C14 UNL     1      68.939  41.521  30.273  1.00  0.00     0.309 C 
HETATM   22  F1  UNL     1      69.641  42.398  31.073  1.00  0.00    -0.220 F 
BRANCH  21  23
HETATM   23  O5  UNL     1      67.564  41.565  30.522  1.00  0.00    -0.366 OA
ATOM     24  H5  UNL     1      67.346  41.277  31.400  1.00  0.00     0.213 HD
ENDBRANCH  21  23
ENDBRANCH  11  21
TORSDOF 5
ENDMDL
