MODEL 1
REMARK VINA RESULT: -6.411148549      0.000      0.000
REMARK  8 active torsions:
REMARK  status: ('A' for Active; 'I' for Inactive)
REMARK    1  A    between atoms: C2_2  and  N1_3 
REMARK    2  A    between atoms: C3_5  and  C4_6 
REMARK    3  A    between atoms: C3_5  and  N2_15 
REMARK    4  A    between atoms: C4_6  and  C5_7 
REMARK    5  A    between atoms: C6_8  and  C7_9 
REMARK    6  A    between atoms: C8_10  and  C10_12 
REMARK    7  A    between atoms: N3_17  and  C12_19 
REMARK    8  A    between atoms: C15_26  and  N6_27 
ROOT
HETATM    1  C10 UNL     1      64.081  34.426  25.516  1.00  0.00    -0.054 C 
HETATM    2  C11 UNL     1      63.719  33.502  26.202  1.00  0.00     0.010 C 
HETATM    3 CL1  UNL     1      63.226  32.163  27.199  1.00  0.00    -0.023 Cl
ENDROOT
BRANCH   1   4
HETATM    4  C8  UNL     1      64.503  35.537  24.720  1.00  0.00     0.001 C 
HETATM    5  C7  UNL     1      64.480  35.463  23.417  1.00  0.00     0.080 C 
HETATM    6  C9  UNL     1      64.962  36.766  25.393  1.00  0.00     0.059 C 
BRANCH   5   7
HETATM    7  C6  UNL     1      64.900  36.570  22.623  1.00  0.00    -0.077 C 
HETATM    8  C5  UNL     1      65.237  37.518  21.957  1.00  0.00    -0.094 C 
BRANCH   8   9
HETATM    9  C4  UNL     1      65.631  38.684  21.154  1.00  0.00     0.171 C 
BRANCH   9  10
HETATM   10  C3  UNL     1      66.382  38.267  19.930  1.00  0.00     0.102 C 
HETATM   11  N1  UNL     1      67.661  38.324  19.940  1.00  0.00    -0.378 N 
ATOM     12  H1  UNL     1      68.164  38.039  19.100  1.00  0.00     0.160 HD
BRANCH  11  13
HETATM   13  C2  UNL     1      68.424  38.770  21.072  1.00  0.00     0.116 C 
HETATM   14  C1  UNL     1      69.109  40.063  20.688  1.00  0.00     0.026 C 
ENDBRANCH  11  13
BRANCH  10  15
HETATM   15  N2  UNL     1      65.701  37.817  18.773  1.00  0.00    -0.288 N 
HETATM   16  N3  UNL     1      65.713  38.527  17.742  1.00  0.00    -0.294 N 
ATOM     17  H3  UNL     1      65.210  38.166  16.931  1.00  0.00     0.187 HD
ATOM     18  H2  UNL     1      65.206  36.925  18.779  1.00  0.00     0.188 HD
BRANCH  16  19
HETATM   19  C12 UNL     1      66.347  39.766  17.588  1.00  0.00     0.116 A 
HETATM   20  C13 UNL     1      65.841  40.991  18.037  1.00  0.00     0.053 A 
HETATM   21  C14 UNL     1      64.560  41.233  18.755  1.00  0.00     0.072 C 
HETATM   22  N4  UNL     1      66.770  41.894  17.676  1.00  0.00    -0.301 N 
HETATM   23  N5  UNL     1      67.775  41.303  17.054  1.00  0.00    -0.284 N 
ATOM     24  H4  UNL     1      66.707  42.896  17.857  1.00  0.00     0.186 HD
HETATM   25  C15 UNL     1      67.562  39.977  16.971  1.00  0.00     0.144 A 
ATOM     26  H5  UNL     1      68.596  41.784  16.687  1.00  0.00     0.188 HD
BRANCH  25  27
HETATM   27  N6  UNL     1      68.368  39.134  16.418  1.00  0.00    -0.382 N 
ATOM     28  H62 UNL     1      69.366  39.288  16.277  1.00  0.00     0.157 HD
ATOM     29  H61 UNL     1      68.184  38.206  16.037  1.00  0.00     0.157 HD
ENDBRANCH  25  27
ENDBRANCH  16  19
ENDBRANCH  10  15
ENDBRANCH   9  10
ENDBRANCH   8   9
ENDBRANCH   5   7
ENDBRANCH   1   4
TORSDOF 8
ENDMDL
MODEL 2
REMARK VINA RESULT: -6.247012324      5.892      9.428
REMARK  8 active torsions:
REMARK  status: ('A' for Active; 'I' for Inactive)
REMARK    1  A    between atoms: C2_2  and  N1_3 
REMARK    2  A    between atoms: C3_5  and  C4_6 
REMARK    3  A    between atoms: C3_5  and  N2_15 
REMARK    4  A    between atoms: C4_6  and  C5_7 
REMARK    5  A    between atoms: C6_8  and  C7_9 
REMARK    6  A    between atoms: C8_10  and  C10_12 
REMARK    7  A    between atoms: N3_17  and  C12_19 
REMARK    8  A    between atoms: C15_26  and  N6_27 
ROOT
HETATM    1  C10 UNL     1      65.605  38.498  20.308  1.00  0.00    -0.054 C 
HETATM    2  C11 UNL     1      65.467  39.093  19.267  1.00  0.00     0.010 C 
HETATM    3 CL1  UNL     1      65.258  39.923  17.751  1.00  0.00    -0.023 Cl
ENDROOT
BRANCH   1   4
HETATM    4  C8  UNL     1      65.749  37.804  21.550  1.00  0.00     0.001 C 
HETATM    5  C7  UNL     1      64.700  37.532  22.280  1.00  0.00     0.080 C 
HETATM    6  C9  UNL     1      67.095  37.401  21.993  1.00  0.00     0.059 C 
BRANCH   5   7
HETATM    7  C6  UNL     1      64.843  36.840  23.517  1.00  0.00    -0.077 C 
HETATM    8  C5  UNL     1      64.984  36.257  24.565  1.00  0.00    -0.094 C 
BRANCH   8   9
HETATM    9  C4  UNL     1      65.179  35.553  25.841  1.00  0.00     0.171 C 
BRANCH   9  10
HETATM   10  C3  UNL     1      66.294  34.563  25.745  1.00  0.00     0.102 C 
HETATM   11  N1  UNL     1      67.404  34.822  26.328  1.00  0.00    -0.378 N 
ATOM     12  H1  UNL     1      68.159  34.140  26.256  1.00  0.00     0.160 HD
BRANCH  11  13
HETATM   13  C2  UNL     1      67.641  36.023  27.080  1.00  0.00     0.116 C 
HETATM   14  C1  UNL     1      68.255  37.040  26.144  1.00  0.00     0.026 C 
ENDBRANCH  11  13
BRANCH  10  15
HETATM   15  N2  UNL     1      66.139  33.355  25.021  1.00  0.00    -0.288 N 
HETATM   16  N3  UNL     1      65.372  32.472  25.465  1.00  0.00    -0.294 N 
ATOM     17  H3  UNL     1      65.289  31.617  24.913  1.00  0.00     0.187 HD
ATOM     18  H2  UNL     1      66.646  33.207  24.148  1.00  0.00     0.188 HD
BRANCH  16  19
HETATM   19  C12 UNL     1      64.616  32.535  26.642  1.00  0.00     0.116 A 
HETATM   20  C13 UNL     1      65.026  32.053  27.890  1.00  0.00     0.053 A 
HETATM   21  C14 UNL     1      66.315  31.391  28.226  1.00  0.00     0.072 C 
HETATM   22  N4  UNL     1      63.996  32.324  28.712  1.00  0.00    -0.301 N 
HETATM   23  N5  UNL     1      63.020  32.922  28.052  1.00  0.00    -0.284 N 
ATOM     24  H4  UNL     1      63.973  32.099  29.707  1.00  0.00     0.186 HD
HETATM   25  C15 UNL     1      63.353  33.078  26.758  1.00  0.00     0.144 A 
ATOM     26  H5  UNL     1      62.137  33.223  28.466  1.00  0.00     0.188 HD
BRANCH  25  27
HETATM   27  N6  UNL     1      62.603  33.629  25.865  1.00  0.00    -0.382 N 
ATOM     28  H62 UNL     1      61.945  33.129  25.267  1.00  0.00     0.157 HD
ATOM     29  H61 UNL     1      62.520  34.608  25.593  1.00  0.00     0.157 HD
ENDBRANCH  25  27
ENDBRANCH  16  19
ENDBRANCH  10  15
ENDBRANCH   9  10
ENDBRANCH   8   9
ENDBRANCH   5   7
ENDBRANCH   1   4
TORSDOF 8
ENDMDL
MODEL 3
REMARK VINA RESULT: -6.187189642      5.908      8.484
REMARK  8 active torsions:
REMARK  status: ('A' for Active; 'I' for Inactive)
REMARK    1  A    between atoms: C2_2  and  N1_3 
REMARK    2  A    between atoms: C3_5  and  C4_6 
REMARK    3  A    between atoms: C3_5  and  N2_15 
REMARK    4  A    between atoms: C4_6  and  C5_7 
REMARK    5  A    between atoms: C6_8  and  C7_9 
REMARK    6  A    between atoms: C8_10  and  C10_12 
REMARK    7  A    between atoms: N3_17  and  C12_19 
REMARK    8  A    between atoms: C15_26  and  N6_27 
ROOT
HETATM    1  C10 UNL     1      70.068  40.889  28.608  1.00  0.00    -0.054 C 
HETATM    2  C11 UNL     1      70.524  41.924  29.029  1.00  0.00     0.010 C 
HETATM    3 CL1  UNL     1      71.209  43.407  29.628  1.00  0.00    -0.023 Cl
ENDROOT
BRANCH   1   4
HETATM    4  C8  UNL     1      69.518  39.675  28.089  1.00  0.00     0.001 C 
HETATM    5  C7  UNL     1      69.185  39.585  26.829  1.00  0.00     0.080 C 
HETATM    6  C9  UNL     1      69.336  38.526  28.995  1.00  0.00     0.059 C 
BRANCH   5   7
HETATM    7  C6  UNL     1      68.638  38.375  26.312  1.00  0.00    -0.077 C 
HETATM    8  C5  UNL     1      68.193  37.347  25.862  1.00  0.00    -0.094 C 
BRANCH   8   9
HETATM    9  C4  UNL     1      67.672  36.090  25.307  1.00  0.00     0.171 C 
BRANCH   9  10
HETATM   10  C3  UNL     1      66.485  35.611  26.079  1.00  0.00     0.102 C 
HETATM   11  N1  UNL     1      66.432  34.382  26.433  1.00  0.00    -0.378 N 
ATOM     12  H1  UNL     1      65.618  34.065  26.959  1.00  0.00     0.160 HD
BRANCH  11  13
HETATM   13  C2  UNL     1      67.461  33.426  26.128  1.00  0.00     0.116 C 
HETATM   14  C1  UNL     1      67.111  32.132  26.828  1.00  0.00     0.026 C 
ENDBRANCH  11  13
BRANCH  10  15
HETATM   15  N2  UNL     1      65.429  36.492  26.419  1.00  0.00    -0.288 N 
HETATM   16  N3  UNL     1      64.427  36.560  25.672  1.00  0.00    -0.294 N 
ATOM     17  H3  UNL     1      63.690  37.207  25.952  1.00  0.00     0.187 HD
ATOM     18  H2  UNL     1      65.485  37.065  27.261  1.00  0.00     0.188 HD
BRANCH  16  19
HETATM   19  C12 UNL     1      64.214  35.839  24.490  1.00  0.00     0.116 A 
HETATM   20  C13 UNL     1      64.617  36.247  23.214  1.00  0.00     0.053 A 
HETATM   21  C14 UNL     1      65.338  37.496  22.848  1.00  0.00     0.072 C 
HETATM   22  N4  UNL     1      64.209  35.259  22.398  1.00  0.00    -0.301 N 
HETATM   23  N5  UNL     1      63.600  34.309  23.087  1.00  0.00    -0.284 N 
ATOM     24  H4  UNL     1      64.348  35.245  21.387  1.00  0.00     0.186 HD
HETATM   25  C15 UNL     1      63.576  34.620  24.396  1.00  0.00     0.144 A 
ATOM     26  H5  UNL     1      63.205  33.460  22.684  1.00  0.00     0.188 HD
BRANCH  25  27
HETATM   27  N6  UNL     1      63.050  33.887  25.319  1.00  0.00    -0.382 N 
ATOM     28  H62 UNL     1      62.113  34.013  25.700  1.00  0.00     0.157 HD
ATOM     29  H61 UNL     1      63.437  33.088  25.819  1.00  0.00     0.157 HD
ENDBRANCH  25  27
ENDBRANCH  16  19
ENDBRANCH  10  15
ENDBRANCH   9  10
ENDBRANCH   8   9
ENDBRANCH   5   7
ENDBRANCH   1   4
TORSDOF 8
ENDMDL
MODEL 4
REMARK VINA RESULT: -6.088700683      5.716      8.431
REMARK  8 active torsions:
REMARK  status: ('A' for Active; 'I' for Inactive)
REMARK    1  A    between atoms: C2_2  and  N1_3 
REMARK    2  A    between atoms: C3_5  and  C4_6 
REMARK    3  A    between atoms: C3_5  and  N2_15 
REMARK    4  A    between atoms: C4_6  and  C5_7 
REMARK    5  A    between atoms: C6_8  and  C7_9 
REMARK    6  A    between atoms: C8_10  and  C10_12 
REMARK    7  A    between atoms: N3_17  and  C12_19 
REMARK    8  A    between atoms: C15_26  and  N6_27 
ROOT
HETATM    1  C10 UNL     1      70.125  40.927  28.532  1.00  0.00    -0.054 C 
HETATM    2  C11 UNL     1      70.617  41.940  28.965  1.00  0.00     0.010 C 
HETATM    3 CL1  UNL     1      71.320  43.392  29.619  1.00  0.00    -0.023 Cl
ENDROOT
BRANCH   1   4
HETATM    4  C8  UNL     1      69.563  39.717  28.015  1.00  0.00     0.001 C 
HETATM    5  C7  UNL     1      69.250  39.621  26.751  1.00  0.00     0.080 C 
HETATM    6  C9  UNL     1      69.346  38.581  28.930  1.00  0.00     0.059 C 
BRANCH   5   7
HETATM    7  C6  UNL     1      68.691  38.416  26.236  1.00  0.00    -0.077 C 
HETATM    8  C5  UNL     1      68.237  37.386  25.800  1.00  0.00    -0.094 C 
BRANCH   8   9
HETATM    9  C4  UNL     1      67.704  36.121  25.275  1.00  0.00     0.171 C 
BRANCH   9  10
HETATM   10  C3  UNL     1      66.542  35.648  26.087  1.00  0.00     0.102 C 
HETATM   11  N1  UNL     1      66.516  34.430  26.481  1.00  0.00    -0.378 N 
ATOM     12  H1  UNL     1      65.718  34.117  27.033  1.00  0.00     0.160 HD
BRANCH  11  13
HETATM   13  C2  UNL     1      67.553  33.481  26.184  1.00  0.00     0.116 C 
HETATM   14  C1  UNL     1      66.954  32.095  26.285  1.00  0.00     0.026 C 
ENDBRANCH  11  13
BRANCH  10  15
HETATM   15  N2  UNL     1      65.479  36.523  26.421  1.00  0.00    -0.288 N 
HETATM   16  N3  UNL     1      64.487  36.595  25.662  1.00  0.00    -0.294 N 
ATOM     17  H3  UNL     1      63.744  37.237  25.938  1.00  0.00     0.187 HD
ATOM     18  H2  UNL     1      65.522  37.088  27.269  1.00  0.00     0.188 HD
BRANCH  16  19
HETATM   19  C12 UNL     1      64.291  35.883  24.472  1.00  0.00     0.116 A 
HETATM   20  C13 UNL     1      63.739  34.601  24.381  1.00  0.00     0.053 A 
HETATM   21  C14 UNL     1      63.255  33.743  25.496  1.00  0.00     0.072 C 
HETATM   22  N4  UNL     1      63.744  34.322  23.065  1.00  0.00    -0.301 N 
HETATM   23  N5  UNL     1      64.253  35.331  22.379  1.00  0.00    -0.284 N 
ATOM     24  H4  UNL     1      63.403  33.452  22.654  1.00  0.00     0.186 HD
HETATM   25  C15 UNL     1      64.610  36.330  23.206  1.00  0.00     0.144 A 
ATOM     26  H5  UNL     1      64.359  35.349  21.365  1.00  0.00     0.188 HD
BRANCH  25  27
HETATM   27  N6  UNL     1      65.135  37.447  22.830  1.00  0.00    -0.382 N 
ATOM     28  H62 UNL     1      64.878  38.364  23.194  1.00  0.00     0.157 HD
ATOM     29  H61 UNL     1      65.864  37.628  22.140  1.00  0.00     0.157 HD
ENDBRANCH  25  27
ENDBRANCH  16  19
ENDBRANCH  10  15
ENDBRANCH   9  10
ENDBRANCH   8   9
ENDBRANCH   5   7
ENDBRANCH   1   4
TORSDOF 8
ENDMDL
MODEL 5
REMARK VINA RESULT: -5.997089713      3.736      5.986
REMARK  8 active torsions:
REMARK  status: ('A' for Active; 'I' for Inactive)
REMARK    1  A    between atoms: C2_2  and  N1_3 
REMARK    2  A    between atoms: C3_5  and  C4_6 
REMARK    3  A    between atoms: C3_5  and  N2_15 
REMARK    4  A    between atoms: C4_6  and  C5_7 
REMARK    5  A    between atoms: C6_8  and  C7_9 
REMARK    6  A    between atoms: C8_10  and  C10_12 
REMARK    7  A    between atoms: N3_17  and  C12_19 
REMARK    8  A    between atoms: C15_26  and  N6_27 
ROOT
HETATM    1  C10 UNL     1      63.632  32.541  27.088  1.00  0.00    -0.054 C 
HETATM    2  C11 UNL     1      63.006  31.811  27.817  1.00  0.00     0.010 C 
HETATM    3 CL1  UNL     1      62.129  30.750  28.882  1.00  0.00    -0.023 Cl
ENDROOT
BRANCH   1   4
HETATM    4  C8  UNL     1      64.366  33.426  26.237  1.00  0.00     0.001 C 
HETATM    5  C7  UNL     1      63.742  34.182  25.374  1.00  0.00     0.080 C 
HETATM    6  C9  UNL     1      65.835  33.472  26.349  1.00  0.00     0.059 C 
BRANCH   5   7
HETATM    7  C6  UNL     1      64.473  35.064  24.527  1.00  0.00    -0.077 C 
HETATM    8  C5  UNL     1      65.090  35.827  23.823  1.00  0.00    -0.094 C 
BRANCH   8   9
HETATM    9  C4  UNL     1      65.842  36.771  22.984  1.00  0.00     0.171 C 
BRANCH   9  10
HETATM   10  C3  UNL     1      67.183  37.066  23.575  1.00  0.00     0.102 C 
HETATM   11  N1  UNL     1      67.862  38.045  23.110  1.00  0.00    -0.378 N 
ATOM     12  H1  UNL     1      68.777  38.238  23.519  1.00  0.00     0.160 HD
BRANCH  11  13
HETATM   13  C2  UNL     1      67.404  38.889  22.040  1.00  0.00     0.116 C 
HETATM   14  C1  UNL     1      68.216  38.555  20.808  1.00  0.00     0.026 C 
ENDBRANCH  11  13
BRANCH  10  15
HETATM   15  N2  UNL     1      67.705  36.279  24.632  1.00  0.00    -0.288 N 
HETATM   16  N3  UNL     1      67.871  36.802  25.756  1.00  0.00    -0.294 N 
ATOM     17  H3  UNL     1      68.249  36.201  26.489  1.00  0.00     0.187 HD
ATOM     18  H2  UNL     1      67.943  35.300  24.477  1.00  0.00     0.188 HD
BRANCH  16  19
HETATM   19  C12 UNL     1      67.591  38.127  26.113  1.00  0.00     0.116 A 
HETATM   20  C13 UNL     1      66.324  38.622  26.439  1.00  0.00     0.053 A 
HETATM   21  C14 UNL     1      65.040  37.872  26.477  1.00  0.00     0.072 C 
HETATM   22  N4  UNL     1      66.528  39.924  26.710  1.00  0.00    -0.301 N 
HETATM   23  N5  UNL     1      67.806  40.232  26.570  1.00  0.00    -0.284 N 
ATOM     24  H4  UNL     1      65.799  40.582  26.985  1.00  0.00     0.186 HD
HETATM   25  C15 UNL     1      68.513  39.148  26.199  1.00  0.00     0.144 A 
ATOM     26  H5  UNL     1      68.201  41.160  26.721  1.00  0.00     0.188 HD
BRANCH  25  27
HETATM   27  N6  UNL     1      69.785  39.136  25.985  1.00  0.00    -0.382 N 
ATOM     28  H62 UNL     1      70.328  38.307  25.744  1.00  0.00     0.157 HD
ATOM     29  H61 UNL     1      70.461  39.900  26.011  1.00  0.00     0.157 HD
ENDBRANCH  25  27
ENDBRANCH  16  19
ENDBRANCH  10  15
ENDBRANCH   9  10
ENDBRANCH   8   9
ENDBRANCH   5   7
ENDBRANCH   1   4
TORSDOF 8
ENDMDL
