MODEL 1
REMARK VINA RESULT: -8.053985482      0.000      0.000
REMARK  5 active torsions:
REMARK  status: ('A' for Active; 'I' for Inactive)
REMARK    1  A    between atoms: C2_2  and  S1_4 
REMARK    2  A    between atoms: S1_4  and  C4_5 
REMARK    3  A    between atoms: C7_11  and  N2_12 
REMARK    4  A    between atoms: N2_12  and  C8_14 
REMARK    5  A    between atoms: N3_17  and  C11_18 
ROOT
HETATM    1  N2  UNL     1       0.578  35.887  25.295  1.00  0.00    -0.381 N 
ATOM      2  H2  UNL     1       0.696  36.475  26.119  1.00  0.00     0.160 HD
ENDROOT
BRANCH   1   3
HETATM    3  C7  UNL     1       1.041  34.563  25.385  1.00  0.00     0.096 A 
HETATM    4  C6  UNL     1       0.158  33.515  25.586  1.00  0.00     0.160 A 
HETATM    5  C5  UNL     1       0.607  32.219  25.698  1.00  0.00     0.133 A 
HETATM    6  F1  UNL     1      -1.166  33.773  25.673  1.00  0.00    -0.202 F 
HETATM    7  N1  UNL     1       1.914  31.942  25.614  1.00  0.00    -0.356 N 
HETATM    8  C4  UNL     1       2.807  32.915  25.421  1.00  0.00     0.097 A 
ATOM      9  H1  UNL     1       2.231  30.976  25.698  1.00  0.00     0.166 HD
HETATM   10  C21 UNL     1       2.369  34.239  25.305  1.00  0.00     0.109 A 
HETATM   11  N4  UNL     1       3.372  35.233  25.128  1.00  0.00    -0.097 NA
BRANCH   8  12
HETATM   12  S1  UNL     1       4.536  32.495  25.318  1.00  0.00    -0.106 SA
BRANCH  12  13
HETATM   13  C2  UNL     1       4.707  30.741  24.890  1.00  0.00     0.045 C 
HETATM   14  C1  UNL     1       6.159  30.366  25.035  1.00  0.00     0.021 C 
HETATM   15  C3  UNL     1       4.165  30.441  23.530  1.00  0.00     0.021 C 
ENDBRANCH  12  13
ENDBRANCH   8  12
ENDBRANCH   1   3
BRANCH   1  16
HETATM   16  C8  UNL     1      -0.051  36.490  24.143  1.00  0.00     0.085 C 
HETATM   17  C9  UNL     1       0.356  35.890  22.849  1.00  0.00     0.055 C 
HETATM   18  C10 UNL     1       1.540  36.695  22.315  1.00  0.00     0.275 C 
HETATM   19  N3  UNL     1       1.018  37.959  21.871  1.00  0.00     0.098 N 
HETATM   20  C19 UNL     1       0.246  38.642  22.849  1.00  0.00     0.275 C 
HETATM   21  C20 UNL     1       0.202  37.981  24.206  1.00  0.00     0.055 C 
BRANCH  19  22
HETATM   22  C11 UNL     1       2.014  38.767  21.190  1.00  0.00     0.156 C 
HETATM   23  C12 UNL     1       2.006  40.093  21.904  1.00  0.00     0.049 C 
HETATM   24  C13 UNL     1       3.309  38.050  21.249  1.00  0.00     0.041 C 
HETATM   25  C14 UNL     1       4.541  38.913  21.243  1.00  0.00     0.002 C 
HETATM   26  C15 UNL     1       4.868  39.510  19.925  1.00  0.00     0.000 C 
HETATM   27  C16 UNL     1       3.744  40.014  19.101  1.00  0.00     0.000 C 
HETATM   28  C17 UNL     1       2.673  39.034  18.774  1.00  0.00     0.002 C 
HETATM   29  C18 UNL     1       1.550  38.976  19.781  1.00  0.00     0.041 C 
ENDBRANCH  19  22
ENDBRANCH   1  16
TORSDOF 5
ENDMDL
MODEL 2
REMARK VINA RESULT: -7.943365886      0.526      1.067
REMARK  5 active torsions:
REMARK  status: ('A' for Active; 'I' for Inactive)
REMARK    1  A    between atoms: C2_2  and  S1_4 
REMARK    2  A    between atoms: S1_4  and  C4_5 
REMARK    3  A    between atoms: C7_11  and  N2_12 
REMARK    4  A    between atoms: N2_12  and  C8_14 
REMARK    5  A    between atoms: N3_17  and  C11_18 
ROOT
HETATM    1  N2  UNL     1       0.567  35.972  25.274  1.00  0.00    -0.381 N 
ATOM      2  H2  UNL     1       0.709  36.590  26.073  1.00  0.00     0.160 HD
ENDROOT
BRANCH   1   3
HETATM    3  C7  UNL     1       1.030  34.651  25.399  1.00  0.00     0.096 A 
HETATM    4  C6  UNL     1       0.150  33.613  25.657  1.00  0.00     0.160 A 
HETATM    5  C5  UNL     1       0.599  32.321  25.804  1.00  0.00     0.133 A 
HETATM    6  F1  UNL     1      -1.172  33.878  25.766  1.00  0.00    -0.202 F 
HETATM    7  N1  UNL     1       1.903  32.037  25.699  1.00  0.00    -0.356 N 
HETATM    8  C4  UNL     1       2.793  33.001  25.452  1.00  0.00     0.097 A 
ATOM      9  H1  UNL     1       2.220  31.075  25.809  1.00  0.00     0.166 HD
HETATM   10  C21 UNL     1       2.355  34.322  25.300  1.00  0.00     0.109 A 
HETATM   11  N4  UNL     1       3.356  35.306  25.065  1.00  0.00    -0.097 NA
BRANCH   8  12
HETATM   12  S1  UNL     1       4.518  32.573  25.323  1.00  0.00    -0.106 SA
BRANCH  12  13
HETATM   13  C2  UNL     1       4.675  30.819  24.890  1.00  0.00     0.045 C 
HETATM   14  C1  UNL     1       6.122  30.429  25.046  1.00  0.00     0.021 C 
HETATM   15  C3  UNL     1       4.141  30.530  23.525  1.00  0.00     0.021 C 
ENDBRANCH  12  13
ENDBRANCH   8  12
ENDBRANCH   1   3
BRANCH   1  16
HETATM   16  C8  UNL     1      -0.092  36.535  24.118  1.00  0.00     0.085 C 
HETATM   17  C9  UNL     1       0.279  35.887  22.836  1.00  0.00     0.055 C 
HETATM   18  C10 UNL     1       1.450  36.669  22.242  1.00  0.00     0.275 C 
HETATM   19  N3  UNL     1       0.919  37.918  21.766  1.00  0.00     0.098 N 
HETATM   20  C19 UNL     1       0.175  38.638  22.739  1.00  0.00     0.275 C 
HETATM   21  C20 UNL     1       0.167  38.027  24.120  1.00  0.00     0.055 C 
BRANCH  19  22
HETATM   22  C11 UNL     1       1.898  38.697  21.030  1.00  0.00     0.156 C 
HETATM   23  C12 UNL     1       1.150  39.261  19.850  1.00  0.00     0.049 C 
HETATM   24  C13 UNL     1       2.457  39.719  21.944  1.00  0.00     0.041 C 
HETATM   25  C14 UNL     1       2.926  40.994  21.298  1.00  0.00     0.002 C 
HETATM   26  C15 UNL     1       4.206  40.876  20.558  1.00  0.00     0.000 C 
HETATM   27  C16 UNL     1       4.425  39.648  19.757  1.00  0.00     0.000 C 
HETATM   28  C17 UNL     1       4.334  38.356  20.488  1.00  0.00     0.002 C 
HETATM   29  C18 UNL     1       2.949  37.755  20.527  1.00  0.00     0.041 C 
ENDBRANCH  19  22
ENDBRANCH   1  16
TORSDOF 5
ENDMDL
MODEL 3
REMARK VINA RESULT: -7.548419149      1.312      1.985
REMARK  5 active torsions:
REMARK  status: ('A' for Active; 'I' for Inactive)
REMARK    1  A    between atoms: C2_2  and  S1_4 
REMARK    2  A    between atoms: S1_4  and  C4_5 
REMARK    3  A    between atoms: C7_11  and  N2_12 
REMARK    4  A    between atoms: N2_12  and  C8_14 
REMARK    5  A    between atoms: N3_17  and  C11_18 
ROOT
HETATM    1  N2  UNL     1       0.015  37.207  24.451  1.00  0.00    -0.381 N 
ATOM      2  H2  UNL     1       0.002  37.948  25.151  1.00  0.00     0.160 HD
ENDROOT
BRANCH   1   3
HETATM    3  C7  UNL     1       0.294  35.906  24.903  1.00  0.00     0.096 A 
HETATM    4  C6  UNL     1      -0.725  34.986  25.086  1.00  0.00     0.160 A 
HETATM    5  C5  UNL     1      -0.463  33.717  25.551  1.00  0.00     0.133 A 
HETATM    6  F1  UNL     1      -1.999  35.343  24.802  1.00  0.00    -0.202 F 
HETATM    7  N1  UNL     1       0.790  33.344  25.837  1.00  0.00    -0.356 N 
HETATM    8  C4  UNL     1       1.809  34.193  25.679  1.00  0.00     0.097 A 
ATOM      9  H1  UNL     1       0.969  32.400  26.179  1.00  0.00     0.166 HD
HETATM   10  C21 UNL     1       1.561  35.487  25.207  1.00  0.00     0.109 A 
HETATM   11  N4  UNL     1       2.685  36.352  25.087  1.00  0.00    -0.097 NA
BRANCH   8  12
HETATM   12  S1  UNL     1       3.458  33.648  26.076  1.00  0.00    -0.106 SA
BRANCH  12  13
HETATM   13  C2  UNL     1       3.947  32.321  24.939  1.00  0.00     0.045 C 
HETATM   14  C1  UNL     1       2.904  31.236  25.015  1.00  0.00     0.021 C 
HETATM   15  C3  UNL     1       5.326  31.820  25.224  1.00  0.00     0.021 C 
ENDBRANCH  12  13
ENDBRANCH   8  12
ENDBRANCH   1   3
BRANCH   1  16
HETATM   16  C8  UNL     1      -0.256  37.591  23.085  1.00  0.00     0.085 C 
HETATM   17  C9  UNL     1       0.288  36.652  22.073  1.00  0.00     0.055 C 
HETATM   18  C10 UNL     1       1.677  37.150  21.677  1.00  0.00     0.275 C 
HETATM   19  N3  UNL     1       1.485  38.327  20.873  1.00  0.00     0.098 N 
HETATM   20  C19 UNL     1       0.667  39.315  21.482  1.00  0.00     0.275 C 
HETATM   21  C20 UNL     1       0.238  39.010  22.897  1.00  0.00     0.055 C 
BRANCH  19  22
HETATM   22  C11 UNL     1       2.723  38.815  20.292  1.00  0.00     0.156 C 
HETATM   23  C12 UNL     1       2.442  38.957  18.820  1.00  0.00     0.049 C 
HETATM   24  C13 UNL     1       3.084  40.081  20.970  1.00  0.00     0.041 C 
HETATM   25  C14 UNL     1       3.867  41.068  20.148  1.00  0.00     0.002 C 
HETATM   26  C15 UNL     1       5.291  40.708  19.944  1.00  0.00     0.000 C 
HETATM   27  C16 UNL     1       5.608  39.284  19.685  1.00  0.00     0.000 C 
HETATM   28  C17 UNL     1       5.155  38.308  20.713  1.00  0.00     0.002 C 
HETATM   29  C18 UNL     1       3.767  37.757  20.483  1.00  0.00     0.041 C 
ENDBRANCH  19  22
ENDBRANCH   1  16
TORSDOF 5
ENDMDL
MODEL 4
REMARK VINA RESULT: -7.465769044      3.506      5.134
REMARK  5 active torsions:
REMARK  status: ('A' for Active; 'I' for Inactive)
REMARK    1  A    between atoms: C2_2  and  S1_4 
REMARK    2  A    between atoms: S1_4  and  C4_5 
REMARK    3  A    between atoms: C7_11  and  N2_12 
REMARK    4  A    between atoms: N2_12  and  C8_14 
REMARK    5  A    between atoms: N3_17  and  C11_18 
ROOT
HETATM    1  N2  UNL     1       5.607  37.210  27.027  1.00  0.00    -0.381 N 
ATOM      2  H2  UNL     1       5.611  37.407  28.027  1.00  0.00     0.160 HD
ENDROOT
BRANCH   1   3
HETATM    3  C7  UNL     1       6.212  36.012  26.611  1.00  0.00     0.096 A 
HETATM    4  C6  UNL     1       7.575  35.953  26.369  1.00  0.00     0.160 A 
HETATM    5  C5  UNL     1       8.171  34.789  25.939  1.00  0.00     0.133 A 
HETATM    6  F1  UNL     1       8.329  37.059  26.559  1.00  0.00    -0.202 F 
HETATM    7  N1  UNL     1       7.442  33.683  25.746  1.00  0.00    -0.356 N 
HETATM    8  C4  UNL     1       6.125  33.686  25.964  1.00  0.00     0.097 A 
ATOM      9  H1  UNL     1       7.898  32.828  25.428  1.00  0.00     0.166 HD
HETATM   10  C21 UNL     1       5.502  34.861  26.401  1.00  0.00     0.109 A 
HETATM   11  N4  UNL     1       4.092  34.806  26.589  1.00  0.00    -0.097 NA
BRANCH   8  12
HETATM   12  S1  UNL     1       5.199  32.189  25.690  1.00  0.00    -0.106 SA
BRANCH  12  13
HETATM   13  C2  UNL     1       6.218  31.009  24.762  1.00  0.00     0.045 C 
HETATM   14  C1  UNL     1       5.367  29.806  24.448  1.00  0.00     0.021 C 
HETATM   15  C3  UNL     1       7.472  30.656  25.494  1.00  0.00     0.021 C 
ENDBRANCH  12  13
ENDBRANCH   8  12
ENDBRANCH   1   3
BRANCH   1  16
HETATM   16  C8  UNL     1       4.980  38.187  26.168  1.00  0.00     0.085 C 
HETATM   17  C9  UNL     1       3.681  38.693  26.675  1.00  0.00     0.055 C 
HETATM   18  C10 UNL     1       2.577  37.823  26.076  1.00  0.00     0.275 C 
HETATM   19  N3  UNL     1       2.477  38.175  24.685  1.00  0.00     0.098 N 
HETATM   20  C19 UNL     1       3.710  38.113  23.982  1.00  0.00     0.275 C 
HETATM   21  C20 UNL     1       4.877  37.586  24.782  1.00  0.00     0.055 C 
BRANCH  19  22
HETATM   22  C11 UNL     1       1.353  37.535  24.026  1.00  0.00     0.156 C 
HETATM   23  C12 UNL     1       0.183  38.456  24.252  1.00  0.00     0.049 C 
HETATM   24  C13 UNL     1       1.706  37.334  22.601  1.00  0.00     0.041 C 
HETATM   25  C14 UNL     1       0.556  37.339  21.631  1.00  0.00     0.002 C 
HETATM   26  C15 UNL     1      -0.276  36.112  21.655  1.00  0.00     0.000 C 
HETATM   27  C16 UNL     1      -0.573  35.509  22.976  1.00  0.00     0.000 C 
HETATM   28  C17 UNL     1       0.601  35.140  23.813  1.00  0.00     0.002 C 
HETATM   29  C18 UNL     1       1.087  36.238  24.729  1.00  0.00     0.041 C 
ENDBRANCH  19  22
ENDBRANCH   1  16
TORSDOF 5
ENDMDL
MODEL 5
REMARK VINA RESULT: -7.387912678      1.336      1.694
REMARK  5 active torsions:
REMARK  status: ('A' for Active; 'I' for Inactive)
REMARK    1  A    between atoms: C2_2  and  S1_4 
REMARK    2  A    between atoms: S1_4  and  C4_5 
REMARK    3  A    between atoms: C7_11  and  N2_12 
REMARK    4  A    between atoms: N2_12  and  C8_14 
REMARK    5  A    between atoms: N3_17  and  C11_18 
ROOT
HETATM    1  N2  UNL     1      -0.150  37.096  24.565  1.00  0.00    -0.381 N 
ATOM      2  H2  UNL     1      -0.345  37.759  25.314  1.00  0.00     0.160 HD
ENDROOT
BRANCH   1   3
HETATM    3  C7  UNL     1       0.153  35.777  24.944  1.00  0.00     0.096 A 
HETATM    4  C6  UNL     1      -0.837  34.809  24.994  1.00  0.00     0.160 A 
HETATM    5  C5  UNL     1      -0.552  33.521  25.387  1.00  0.00     0.133 A 
HETATM    6  F1  UNL     1      -2.103  35.139  24.651  1.00  0.00    -0.202 F 
HETATM    7  N1  UNL     1       0.695  33.174  25.729  1.00  0.00    -0.356 N 
HETATM    8  C4  UNL     1       1.685  34.069  25.699  1.00  0.00     0.097 A 
ATOM      9  H1  UNL     1       0.890  32.216  26.017  1.00  0.00     0.166 HD
HETATM   10  C21 UNL     1       1.414  35.384  25.303  1.00  0.00     0.109 A 
HETATM   11  N4  UNL     1       2.507  36.296  25.317  1.00  0.00    -0.097 NA
BRANCH   8  12
HETATM   12  S1  UNL     1       3.327  33.558  26.166  1.00  0.00    -0.106 SA
BRANCH  12  13
HETATM   13  C2  UNL     1       3.940  32.332  24.978  1.00  0.00     0.045 C 
HETATM   14  C1  UNL     1       2.993  31.160  24.988  1.00  0.00     0.021 C 
HETATM   15  C3  UNL     1       5.353  31.937  25.261  1.00  0.00     0.021 C 
ENDBRANCH  12  13
ENDBRANCH   8  12
ENDBRANCH   1   3
BRANCH   1  16
HETATM   16  C8  UNL     1      -0.210  37.598  23.212  1.00  0.00     0.085 C 
HETATM   17  C9  UNL     1       0.432  36.713  22.210  1.00  0.00     0.055 C 
HETATM   18  C10 UNL     1       1.882  37.166  22.050  1.00  0.00     0.275 C 
HETATM   19  N3  UNL     1       1.854  38.410  21.329  1.00  0.00     0.098 N 
HETATM   20  C19 UNL     1       0.999  39.390  21.900  1.00  0.00     0.275 C 
HETATM   21  C20 UNL     1       0.364  39.000  23.213  1.00  0.00     0.055 C 
BRANCH  19  22
HETATM   22  C11 UNL     1       3.180  38.876  20.966  1.00  0.00     0.156 C 
HETATM   23  C12 UNL     1       3.741  39.495  22.219  1.00  0.00     0.049 C 
HETATM   24  C13 UNL     1       3.953  37.719  20.458  1.00  0.00     0.041 C 
HETATM   25  C14 UNL     1       5.442  37.780  20.664  1.00  0.00     0.002 C 
HETATM   26  C15 UNL     1       6.151  38.720  19.763  1.00  0.00     0.000 C 
HETATM   27  C16 UNL     1       5.502  40.023  19.481  1.00  0.00     0.000 C 
HETATM   28  C17 UNL     1       4.131  39.967  18.904  1.00  0.00     0.002 C 
HETATM   29  C18 UNL     1       3.022  39.947  19.929  1.00  0.00     0.041 C 
ENDBRANCH  19  22
ENDBRANCH   1  16
TORSDOF 5
ENDMDL
