MODEL 1
REMARK VINA RESULT: -6.109168406      0.000      0.000
REMARK  10 active torsions:
REMARK  status: ('A' for Active; 'I' for Inactive)
REMARK    1  A    between atoms: C4_6  and  O1_7 
REMARK    2  A    between atoms: O1_7  and  C5_8 
REMARK    3  A    between atoms: C5_8  and  C6_9 
REMARK    4  A    between atoms: C6_9  and  O2_10 
REMARK    5  A    between atoms: C6_9  and  O3_12 
REMARK    6  A    between atoms: O3_12  and  C7_13 
REMARK       I    between atoms: N2_18  and  C12_19 
REMARK    7  A    between atoms: C12_19  and  O5_21 
REMARK    8  A    between atoms: O5_21  and  C13_22 
REMARK    9  A    between atoms: C13_22  and  C14_24 
REMARK   10  A    between atoms: C16_29  and  O6_31 
ROOT
HETATM    1  C7  UNL     1      -8.915   6.404  -2.438  1.00  0.00     0.162 C 
HETATM    2  C8  UNL     1      -8.501   6.148  -3.844  1.00  0.00     0.065 C 
HETATM    3  C9  UNL     1      -7.552   4.969  -3.875  1.00  0.00     0.033 C 
HETATM    4  C10 UNL     1      -7.472   4.500  -5.328  1.00  0.00     0.038 C 
HETATM    5  C11 UNL     1      -6.133   5.457  -3.547  1.00  0.00     0.038 C 
HETATM    6  N2  UNL     1      -7.932   3.881  -3.011  1.00  0.00    -0.316 N 
HETATM    7  C12 UNL     1      -7.680   2.516  -3.311  1.00  0.00     0.365 C 
HETATM    8  O4  UNL     1      -8.037   1.628  -2.525  1.00  0.00    -0.238 OA
HETATM    9  C15 UNL     1      -8.612   4.126  -1.727  1.00  0.00     0.169 C 
HETATM   10  C16 UNL     1      -9.665   5.188  -1.964  1.00  0.00     0.096 C 
HETATM   11  C17 UNL     1     -10.599   4.631  -3.009  1.00  0.00     0.050 C 
ENDROOT
BRANCH   1  12
HETATM   12  O3  UNL     1      -9.547   7.601  -2.220  1.00  0.00    -0.351 OA
BRANCH  12  13
HETATM   13  C6  UNL     1      -8.918   8.467  -1.363  1.00  0.00     0.281 C 
BRANCH  13  14
HETATM   14  C5  UNL     1      -9.963   9.063  -0.442  1.00  0.00     0.238 C 
BRANCH  14  15
HETATM   15  O1  UNL     1     -10.809   8.045   0.090  1.00  0.00    -0.328 OA
BRANCH  15  16
HETATM   16  C4  UNL     1     -12.165   8.226   0.254  1.00  0.00     0.198 A 
HETATM   17  C3  UNL     1     -13.169   7.545  -0.371  1.00  0.00     0.185 A 
HETATM   18  C2  UNL     1     -14.356   8.061   0.100  1.00  0.00     0.156 A 
HETATM   19  F1  UNL     1     -13.079   6.546  -1.285  1.00  0.00    -0.200 F 
HETATM   20  N1  UNL     1     -14.075   9.033   0.992  1.00  0.00    -0.303 N 
HETATM   21  C1  UNL     1     -15.033   9.851   1.739  1.00  0.00     0.177 C 
HETATM   22  N3  UNL     1     -12.767   9.115   1.068  1.00  0.00    -0.276 N 
ATOM     23  H3  UNL     1     -12.268   9.771   1.668  1.00  0.00     0.189 HD
ENDBRANCH  15  16
ENDBRANCH  14  15
ENDBRANCH  13  14
BRANCH  13  24
HETATM   24  O2  UNL     1      -8.485   9.555  -2.162  1.00  0.00    -0.369 OA
ATOM     25  H2  UNL     1      -8.163   9.152  -2.959  1.00  0.00     0.212 HD
ENDBRANCH  13  24
ENDBRANCH  12  13
ENDBRANCH   1  12
BRANCH  10  26
HETATM   26  O6  UNL     1     -10.354   5.367  -0.794  1.00  0.00    -0.386 OA
ATOM     27  H6  UNL     1     -10.831   6.186  -0.740  1.00  0.00     0.210 HD
ENDBRANCH  10  26
BRANCH   7  28
HETATM   28  O5  UNL     1      -7.052   2.034  -4.430  1.00  0.00    -0.278 OA
BRANCH  28  29
HETATM   29  C13 UNL     1      -5.888   1.345  -4.547  1.00  0.00     0.283 C 
HETATM   30 CL1  UNL     1      -4.877   1.768  -3.114  1.00  0.00    -0.090 Cl
BRANCH  29  31
HETATM   31  C14 UNL     1      -5.852  -0.114  -4.675  1.00  0.00     0.228 C 
HETATM   32 CL2  UNL     1      -6.298  -1.010  -3.219  1.00  0.00    -0.080 Cl
HETATM   33 CL3  UNL     1      -4.410  -0.765  -5.466  1.00  0.00    -0.080 Cl
HETATM   34 CL4  UNL     1      -7.185  -0.505  -5.842  1.00  0.00    -0.080 Cl
ENDBRANCH  29  31
ENDBRANCH  28  29
ENDBRANCH   7  28
TORSDOF 10
ENDMDL
MODEL 2
REMARK VINA RESULT: -6.082584368      1.385      1.765
REMARK  10 active torsions:
REMARK  status: ('A' for Active; 'I' for Inactive)
REMARK    1  A    between atoms: C4_6  and  O1_7 
REMARK    2  A    between atoms: O1_7  and  C5_8 
REMARK    3  A    between atoms: C5_8  and  C6_9 
REMARK    4  A    between atoms: C6_9  and  O2_10 
REMARK    5  A    between atoms: C6_9  and  O3_12 
REMARK    6  A    between atoms: O3_12  and  C7_13 
REMARK       I    between atoms: N2_18  and  C12_19 
REMARK    7  A    between atoms: C12_19  and  O5_21 
REMARK    8  A    between atoms: O5_21  and  C13_22 
REMARK    9  A    between atoms: C13_22  and  C14_24 
REMARK   10  A    between atoms: C16_29  and  O6_31 
ROOT
HETATM    1  C7  UNL     1      -9.483   6.906  -2.385  1.00  0.00     0.162 C 
HETATM    2  C8  UNL     1      -8.932   6.642  -3.742  1.00  0.00     0.065 C 
HETATM    3  C9  UNL     1      -7.910   5.530  -3.655  1.00  0.00     0.033 C 
HETATM    4  C10 UNL     1      -7.673   5.031  -5.081  1.00  0.00     0.038 C 
HETATM    5  C11 UNL     1      -6.560   6.120  -3.222  1.00  0.00     0.038 C 
HETATM    6  N2  UNL     1      -8.293   4.441  -2.794  1.00  0.00    -0.316 N 
HETATM    7  C12 UNL     1      -7.928   3.088  -3.029  1.00  0.00     0.365 C 
HETATM    8  O4  UNL     1      -8.295   2.198  -2.250  1.00  0.00    -0.238 OA
HETATM    9  C15 UNL     1      -9.098   4.672  -1.581  1.00  0.00     0.169 C 
HETATM   10  C16 UNL     1     -10.192   5.654  -1.941  1.00  0.00     0.096 C 
HETATM   11  C17 UNL     1     -10.993   5.010  -3.044  1.00  0.00     0.050 C 
ENDROOT
BRANCH   1  12
HETATM   12  O3  UNL     1     -10.209   8.063  -2.259  1.00  0.00    -0.351 OA
BRANCH  12  13
HETATM   13  C6  UNL     1      -9.568   9.110  -1.649  1.00  0.00     0.281 C 
BRANCH  13  14
HETATM   14  C5  UNL     1      -9.672   8.918  -0.149  1.00  0.00     0.238 C 
BRANCH  14  15
HETATM   15  O1  UNL     1     -10.846   9.548   0.362  1.00  0.00    -0.328 OA
BRANCH  15  16
HETATM   16  C4  UNL     1     -12.070   8.915   0.384  1.00  0.00     0.198 A 
HETATM   17  C3  UNL     1     -12.815   8.598   1.482  1.00  0.00     0.185 A 
HETATM   18  C2  UNL     1     -13.957   7.978   1.027  1.00  0.00     0.156 A 
HETATM   19  F1  UNL     1     -12.538   8.824   2.792  1.00  0.00    -0.200 F 
HETATM   20  N1  UNL     1     -13.903   7.921  -0.320  1.00  0.00    -0.303 N 
HETATM   21  C1  UNL     1     -14.904   7.346  -1.221  1.00  0.00     0.177 C 
HETATM   22  N3  UNL     1     -12.774   8.483  -0.681  1.00  0.00    -0.276 N 
ATOM     23  H3  UNL     1     -12.466   8.581  -1.649  1.00  0.00     0.189 HD
ENDBRANCH  15  16
ENDBRANCH  14  15
ENDBRANCH  13  14
BRANCH  13  24
HETATM   24  O2  UNL     1     -10.360  10.256  -1.916  1.00  0.00    -0.369 OA
ATOM     25  H2  UNL     1     -10.245  10.413  -2.846  1.00  0.00     0.212 HD
ENDBRANCH  13  24
ENDBRANCH  12  13
ENDBRANCH   1  12
BRANCH  10  26
HETATM   26  O6  UNL     1     -10.992   5.816  -0.840  1.00  0.00    -0.386 OA
ATOM     27  H6  UNL     1     -11.362   5.009  -0.501  1.00  0.00     0.210 HD
ENDBRANCH  10  26
BRANCH   7  28
HETATM   28  O5  UNL     1      -7.175   2.622  -4.075  1.00  0.00    -0.278 OA
BRANCH  28  29
HETATM   29  C13 UNL     1      -6.926   1.347  -4.468  1.00  0.00     0.283 C 
HETATM   30 CL1  UNL     1      -6.781   1.368  -6.267  1.00  0.00    -0.090 Cl
BRANCH  29  31
HETATM   31  C14 UNL     1      -5.786   0.580  -3.960  1.00  0.00     0.228 C 
HETATM   32 CL2  UNL     1      -4.870   1.358  -2.666  1.00  0.00    -0.080 Cl
HETATM   33 CL3  UNL     1      -4.748  -0.136  -5.201  1.00  0.00    -0.080 Cl
HETATM   34 CL4  UNL     1      -6.529  -0.863  -3.149  1.00  0.00    -0.080 Cl
ENDBRANCH  29  31
ENDBRANCH  28  29
ENDBRANCH   7  28
TORSDOF 10
ENDMDL
MODEL 3
REMARK VINA RESULT: -6.065149591      6.566      9.946
REMARK  10 active torsions:
REMARK  status: ('A' for Active; 'I' for Inactive)
REMARK    1  A    between atoms: C4_6  and  O1_7 
REMARK    2  A    between atoms: O1_7  and  C5_8 
REMARK    3  A    between atoms: C5_8  and  C6_9 
REMARK    4  A    between atoms: C6_9  and  O2_10 
REMARK    5  A    between atoms: C6_9  and  O3_12 
REMARK    6  A    between atoms: O3_12  and  C7_13 
REMARK       I    between atoms: N2_18  and  C12_19 
REMARK    7  A    between atoms: C12_19  and  O5_21 
REMARK    8  A    between atoms: O5_21  and  C13_22 
REMARK    9  A    between atoms: C13_22  and  C14_24 
REMARK   10  A    between atoms: C16_29  and  O6_31 
ROOT
HETATM    1  C7  UNL     1     -12.874   6.544  -2.088  1.00  0.00     0.162 C 
HETATM    2  C8  UNL     1     -13.572   7.795  -2.491  1.00  0.00     0.065 C 
HETATM    3  C9  UNL     1     -14.471   8.247  -1.360  1.00  0.00     0.033 C 
HETATM    4  C10 UNL     1     -14.847   9.701  -1.646  1.00  0.00     0.038 C 
HETATM    5  C11 UNL     1     -15.800   7.481  -1.437  1.00  0.00     0.038 C 
HETATM    6  N2  UNL     1     -13.884   8.123  -0.052  1.00  0.00    -0.316 N 
HETATM    7  C12 UNL     1     -14.155   9.016   1.019  1.00  0.00     0.365 C 
HETATM    8  O4  UNL     1     -13.612   8.855   2.120  1.00  0.00    -0.238 OA
HETATM    9  C15 UNL     1     -12.951   7.027   0.267  1.00  0.00     0.169 C 
HETATM   10  C16 UNL     1     -12.005   6.879  -0.905  1.00  0.00     0.096 C 
HETATM   11  C17 UNL     1     -11.301   8.205  -1.051  1.00  0.00     0.050 C 
ENDROOT
BRANCH   1  12
HETATM   12  O3  UNL     1     -12.244   5.869  -3.102  1.00  0.00    -0.351 OA
BRANCH  12  13
HETATM   13  C6  UNL     1     -12.664   4.582  -3.320  1.00  0.00     0.281 C 
BRANCH  13  14
HETATM   14  C5  UNL     1     -11.626   3.885  -4.176  1.00  0.00     0.238 C 
BRANCH  14  15
HETATM   15  O1  UNL     1     -10.676   3.199  -3.362  1.00  0.00    -0.328 OA
BRANCH  15  16
HETATM   16  C4  UNL     1      -9.567   3.827  -2.838  1.00  0.00     0.198 A 
HETATM   17  C3  UNL     1      -8.570   3.260  -2.099  1.00  0.00     0.185 A 
HETATM   18  C2  UNL     1      -7.676   4.262  -1.795  1.00  0.00     0.156 A 
HETATM   19  F1  UNL     1      -8.431   1.966  -1.709  1.00  0.00    -0.200 F 
HETATM   20  N1  UNL     1      -8.124   5.412  -2.339  1.00  0.00    -0.303 N 
HETATM   21  C1  UNL     1      -7.490   6.730  -2.266  1.00  0.00     0.177 C 
HETATM   22  N3  UNL     1      -9.249   5.131  -2.953  1.00  0.00    -0.276 N 
ATOM     23  H3  UNL     1      -9.814   5.816  -3.456  1.00  0.00     0.189 HD
ENDBRANCH  15  16
ENDBRANCH  14  15
ENDBRANCH  13  14
BRANCH  13  24
HETATM   24  O2  UNL     1     -13.805   4.685  -4.156  1.00  0.00    -0.369 OA
ATOM     25  H2  UNL     1     -14.542   4.608  -3.563  1.00  0.00     0.212 HD
ENDBRANCH  13  24
ENDBRANCH  12  13
ENDBRANCH   1  12
BRANCH  10  26
HETATM   26  O6  UNL     1     -11.086   5.914  -0.585  1.00  0.00    -0.386 OA
ATOM     27  H6  UNL     1     -10.311   5.912  -1.135  1.00  0.00     0.210 HD
ENDBRANCH  10  26
BRANCH   7  28
HETATM   28  O5  UNL     1     -14.994  10.099   0.978  1.00  0.00    -0.278 OA
BRANCH  28  29
HETATM   29  C13 UNL     1     -16.213  10.279   1.548  1.00  0.00     0.283 C 
HETATM   30 CL1  UNL     1     -15.929  10.912   3.214  1.00  0.00    -0.090 Cl
BRANCH  29  31
HETATM   31  C14 UNL     1     -17.242  11.127   0.943  1.00  0.00     0.228 C 
HETATM   32 CL2  UNL     1     -18.247  12.026   2.085  1.00  0.00    -0.080 Cl
HETATM   33 CL3  UNL     1     -18.184  10.364  -0.346  1.00  0.00    -0.080 Cl
HETATM   34 CL4  UNL     1     -16.316  12.424   0.077  1.00  0.00    -0.080 Cl
ENDBRANCH  29  31
ENDBRANCH  28  29
ENDBRANCH   7  28
TORSDOF 10
ENDMDL
MODEL 4
REMARK VINA RESULT: -5.996468770      6.762     10.055
REMARK  10 active torsions:
REMARK  status: ('A' for Active; 'I' for Inactive)
REMARK    1  A    between atoms: C4_6  and  O1_7 
REMARK    2  A    between atoms: O1_7  and  C5_8 
REMARK    3  A    between atoms: C5_8  and  C6_9 
REMARK    4  A    between atoms: C6_9  and  O2_10 
REMARK    5  A    between atoms: C6_9  and  O3_12 
REMARK    6  A    between atoms: O3_12  and  C7_13 
REMARK       I    between atoms: N2_18  and  C12_19 
REMARK    7  A    between atoms: C12_19  and  O5_21 
REMARK    8  A    between atoms: O5_21  and  C13_22 
REMARK    9  A    between atoms: C13_22  and  C14_24 
REMARK   10  A    between atoms: C16_29  and  O6_31 
ROOT
HETATM    1  C7  UNL     1     -13.373   8.917  -0.302  1.00  0.00     0.162 C 
HETATM    2  C8  UNL     1     -14.018   9.261  -1.598  1.00  0.00     0.065 C 
HETATM    3  C9  UNL     1     -15.177   8.319  -1.842  1.00  0.00     0.033 C 
HETATM    4  C10 UNL     1     -16.031   8.941  -2.946  1.00  0.00     0.038 C 
HETATM    5  C11 UNL     1     -14.645   7.014  -2.452  1.00  0.00     0.038 C 
HETATM    6  N2  UNL     1     -15.975   8.049  -0.674  1.00  0.00    -0.316 N 
HETATM    7  C12 UNL     1     -17.375   7.811  -0.717  1.00  0.00     0.365 C 
HETATM    8  O4  UNL     1     -18.003   7.589   0.327  1.00  0.00    -0.238 OA
HETATM    9  C15 UNL     1     -15.371   7.992   0.670  1.00  0.00     0.169 C 
HETATM   10  C16 UNL     1     -14.396   9.146   0.779  1.00  0.00     0.096 C 
HETATM   11  C17 UNL     1     -15.203  10.402   0.568  1.00  0.00     0.050 C 
ENDROOT
BRANCH   1  12
HETATM   12  O3  UNL     1     -12.151   9.497  -0.080  1.00  0.00    -0.351 OA
BRANCH  12  13
HETATM   13  C6  UNL     1     -11.097   8.636   0.080  1.00  0.00     0.281 C 
BRANCH  13  14
HETATM   14  C5  UNL     1     -11.508   7.280  -0.460  1.00  0.00     0.238 C 
BRANCH  14  15
HETATM   15  O1  UNL     1     -10.370   6.551  -0.915  1.00  0.00    -0.328 OA
BRANCH  15  16
HETATM   16  C4  UNL     1     -10.470   5.531  -1.838  1.00  0.00     0.198 A 
HETATM   17  C3  UNL     1      -9.448   4.815  -2.389  1.00  0.00     0.185 A 
HETATM   18  C2  UNL     1     -10.017   3.906  -3.253  1.00  0.00     0.156 A 
HETATM   19  F1  UNL     1      -8.113   4.929  -2.169  1.00  0.00    -0.200 F 
HETATM   20  N1  UNL     1     -11.355   4.069  -3.224  1.00  0.00    -0.303 N 
HETATM   21  C1  UNL     1     -12.354   3.317  -3.986  1.00  0.00     0.177 C 
HETATM   22  N3  UNL     1     -11.603   5.041  -2.377  1.00  0.00    -0.276 N 
ATOM     23  H3  UNL     1     -12.538   5.383  -2.154  1.00  0.00     0.189 HD
ENDBRANCH  15  16
ENDBRANCH  14  15
ENDBRANCH  13  14
BRANCH  13  24
HETATM   24  O2  UNL     1     -10.968   8.438   1.478  1.00  0.00    -0.369 OA
ATOM     25  H2  UNL     1     -10.629   9.262   1.805  1.00  0.00     0.212 HD
ENDBRANCH  13  24
ENDBRANCH  12  13
ENDBRANCH   1  12
BRANCH  10  26
HETATM   26  O6  UNL     1     -13.887   9.147   2.051  1.00  0.00    -0.386 OA
ATOM     27  H6  UNL     1     -14.526   8.967   2.731  1.00  0.00     0.210 HD
ENDBRANCH  10  26
BRANCH   7  28
HETATM   28  O5  UNL     1     -18.160   7.795  -1.841  1.00  0.00    -0.278 OA
BRANCH  28  29
HETATM   29  C13 UNL     1     -19.296   8.484  -2.119  1.00  0.00     0.283 C 
HETATM   30 CL1  UNL     1     -19.311   8.779  -3.899  1.00  0.00    -0.090 Cl
BRANCH  29  31
HETATM   31  C14 UNL     1     -20.624   7.979  -1.762  1.00  0.00     0.228 C 
HETATM   32 CL2  UNL     1     -21.582   9.044  -0.728  1.00  0.00    -0.080 Cl
HETATM   33 CL3  UNL     1     -20.672   6.290  -1.240  1.00  0.00    -0.080 Cl
HETATM   34 CL4  UNL     1     -21.544   7.963  -3.326  1.00  0.00    -0.080 Cl
ENDBRANCH  29  31
ENDBRANCH  28  29
ENDBRANCH   7  28
TORSDOF 10
ENDMDL
MODEL 5
REMARK VINA RESULT: -5.870791506      6.644     10.059
REMARK  10 active torsions:
REMARK  status: ('A' for Active; 'I' for Inactive)
REMARK    1  A    between atoms: C4_6  and  O1_7 
REMARK    2  A    between atoms: O1_7  and  C5_8 
REMARK    3  A    between atoms: C5_8  and  C6_9 
REMARK    4  A    between atoms: C6_9  and  O2_10 
REMARK    5  A    between atoms: C6_9  and  O3_12 
REMARK    6  A    between atoms: O3_12  and  C7_13 
REMARK       I    between atoms: N2_18  and  C12_19 
REMARK    7  A    between atoms: C12_19  and  O5_21 
REMARK    8  A    between atoms: O5_21  and  C13_22 
REMARK    9  A    between atoms: C13_22  and  C14_24 
REMARK   10  A    between atoms: C16_29  and  O6_31 
ROOT
HETATM    1  C7  UNL     1     -13.332   8.887  -0.258  1.00  0.00     0.162 C 
HETATM    2  C8  UNL     1     -13.970   9.236  -1.557  1.00  0.00     0.065 C 
HETATM    3  C9  UNL     1     -15.132   8.300  -1.807  1.00  0.00     0.033 C 
HETATM    4  C10 UNL     1     -15.979   8.928  -2.913  1.00  0.00     0.038 C 
HETATM    5  C11 UNL     1     -14.603   6.994  -2.418  1.00  0.00     0.038 C 
HETATM    6  N2  UNL     1     -15.936   8.032  -0.643  1.00  0.00    -0.316 N 
HETATM    7  C12 UNL     1     -17.337   7.800  -0.693  1.00  0.00     0.365 C 
HETATM    8  O4  UNL     1     -17.970   7.578   0.349  1.00  0.00    -0.238 OA
HETATM    9  C15 UNL     1     -15.337   7.969   0.703  1.00  0.00     0.169 C 
HETATM   10  C16 UNL     1     -14.359   9.118   0.819  1.00  0.00     0.096 C 
HETATM   11  C17 UNL     1     -15.159  10.379   0.607  1.00  0.00     0.050 C 
ENDROOT
BRANCH   1  12
HETATM   12  O3  UNL     1     -12.108   9.462  -0.031  1.00  0.00    -0.351 OA
BRANCH  12  13
HETATM   13  C6  UNL     1     -11.060   8.595   0.139  1.00  0.00     0.281 C 
BRANCH  13  14
HETATM   14  C5  UNL     1     -11.436   7.269  -0.491  1.00  0.00     0.238 C 
BRANCH  14  15
HETATM   15  O1  UNL     1     -10.693   7.049  -1.688  1.00  0.00    -0.328 OA
BRANCH  15  16
HETATM   16  C4  UNL     1     -10.322   5.788  -2.103  1.00  0.00     0.198 A 
HETATM   17  C3  UNL     1     -10.854   5.068  -3.132  1.00  0.00     0.185 A 
HETATM   18  C2  UNL     1     -10.174   3.871  -3.178  1.00  0.00     0.156 A 
HETATM   19  F1  UNL     1     -11.856   5.411  -3.981  1.00  0.00    -0.200 F 
HETATM   20  N1  UNL     1      -9.250   3.868  -2.195  1.00  0.00    -0.303 N 
HETATM   21  C1  UNL     1      -8.305   2.796  -1.875  1.00  0.00     0.177 C 
HETATM   22  N3  UNL     1      -9.355   5.016  -1.568  1.00  0.00    -0.276 N 
ATOM     23  H3  UNL     1      -8.777   5.290  -0.774  1.00  0.00     0.189 HD
ENDBRANCH  15  16
ENDBRANCH  14  15
ENDBRANCH  13  14
BRANCH  13  24
HETATM   24  O2  UNL     1     -11.003   8.325   1.530  1.00  0.00    -0.369 OA
ATOM     25  H2  UNL     1     -11.857   8.579   1.857  1.00  0.00     0.212 HD
ENDBRANCH  13  24
ENDBRANCH  12  13
ENDBRANCH   1  12
BRANCH  10  26
HETATM   26  O6  UNL     1     -13.854   9.115   2.093  1.00  0.00    -0.386 OA
ATOM     27  H6  UNL     1     -14.511   9.174   2.776  1.00  0.00     0.210 HD
ENDBRANCH  10  26
BRANCH   7  28
HETATM   28  O5  UNL     1     -18.118   7.790  -1.819  1.00  0.00    -0.278 OA
BRANCH  28  29
HETATM   29  C13 UNL     1     -19.245   8.490  -2.104  1.00  0.00     0.283 C 
HETATM   30 CL1  UNL     1     -19.236   8.804  -3.881  1.00  0.00    -0.090 Cl
BRANCH  29  31
HETATM   31  C14 UNL     1     -20.581   7.993  -1.768  1.00  0.00     0.228 C 
HETATM   32 CL2  UNL     1     -21.544   9.056  -0.737  1.00  0.00    -0.080 Cl
HETATM   33 CL3  UNL     1     -20.648   6.300  -1.260  1.00  0.00    -0.080 Cl
HETATM   34 CL4  UNL     1     -21.481   7.996  -3.343  1.00  0.00    -0.080 Cl
ENDBRANCH  29  31
ENDBRANCH  28  29
ENDBRANCH   7  28
TORSDOF 10
ENDMDL
