MODEL 1
REMARK VINA RESULT: -5.949348056      0.000      0.000
REMARK  11 active torsions:
REMARK  status: ('A' for Active; 'I' for Inactive)
REMARK    1  A    between atoms: C2_2  and  C3_3 
REMARK    2  A    between atoms: C3_3  and  C4_4 
REMARK    3  A    between atoms: C4_4  and  C5_5 
REMARK    4  A    between atoms: C6_6  and  C7_7 
REMARK    5  A    between atoms: C7_7  and  C8_8 
REMARK    6  A    between atoms: C7_7  and  C16_17 
REMARK    7  A    between atoms: C8_8  and  N1_9 
REMARK    8  A    between atoms: N1_9  and  C10_11 
REMARK    9  A    between atoms: N1_9  and  C12_13 
REMARK   10  A    between atoms: C12_13  and  C13_14 
REMARK   11  A    between atoms: C13_14  and  C14_15 
ROOT
HETATM    1  C7  UNL     1     -20.028 -39.425 -24.607  1.00  0.00     0.039 C 
ENDROOT
BRANCH   1   2
HETATM    2  C6  UNL     1     -18.576 -39.017 -24.483  1.00  0.00    -0.011 C 
HETATM    3  C5  UNL     1     -17.873 -39.631 -23.528  1.00  0.00     0.061 C 
BRANCH   3   4
HETATM    4  C4  UNL     1     -16.559 -39.393 -23.244  1.00  0.00    -0.074 C 
BRANCH   4   5
HETATM    5  C3  UNL     1     -15.359 -39.192 -22.996  1.00  0.00    -0.075 C 
BRANCH   5   6
HETATM    6  C2  UNL     1     -14.031 -38.953 -22.721  1.00  0.00     0.054 C 
HETATM    7  C1  UNL     1     -13.121 -39.977 -22.663  1.00  0.00     0.020 C 
ENDBRANCH   5   6
ENDBRANCH   4   5
ENDBRANCH   3   4
ENDBRANCH   1   2
BRANCH   1   8
HETATM    8  C8  UNL     1     -20.132 -40.612 -25.427  1.00  0.00     0.245 C 
BRANCH   8   9
HETATM    9  N1  UNL     1     -20.500 -41.859 -24.822  1.00  0.00    -0.071 N 
HETATM   10  C9  UNL     1     -21.572 -42.331 -25.811  1.00  0.00     0.272 C 
BRANCH   9  11
HETATM   11  C10 UNL     1     -19.600 -42.937 -24.807  1.00  0.00     0.232 C 
HETATM   12  C11 UNL     1     -18.237 -42.818 -25.367  1.00  0.00     0.035 C 
ENDBRANCH   9  11
BRANCH   9  13
HETATM   13  C12 UNL     1     -21.305 -41.609 -23.654  1.00  0.00     0.237 C 
BRANCH  13  14
HETATM   14  C13 UNL     1     -20.703 -42.047 -22.368  1.00  0.00     0.027 C 
BRANCH  14  15
HETATM   15  C14 UNL     1     -20.544 -40.975 -21.316  1.00  0.00    -0.003 C 
HETATM   16  C15 UNL     1     -21.623 -39.936 -21.299  1.00  0.00     0.005 C 
ENDBRANCH  14  15
ENDBRANCH  13  14
ENDBRANCH   9  13
ENDBRANCH   8   9
ENDBRANCH   1   8
BRANCH   1  17
HETATM   17  C16 UNL     1     -20.731 -38.173 -25.107  1.00  0.00    -0.005 A 
HETATM   18  C17 UNL     1     -20.771 -36.917 -24.301  1.00  0.00     0.005 A 
HETATM   19  C18 UNL     1     -21.978 -37.718 -24.276  1.00  0.00     0.005 A 
ENDBRANCH   1  17
TORSDOF 11
ENDMDL
MODEL 2
REMARK VINA RESULT: -5.920726393      1.689      3.007
REMARK  11 active torsions:
REMARK  status: ('A' for Active; 'I' for Inactive)
REMARK    1  A    between atoms: C2_2  and  C3_3 
REMARK    2  A    between atoms: C3_3  and  C4_4 
REMARK    3  A    between atoms: C4_4  and  C5_5 
REMARK    4  A    between atoms: C6_6  and  C7_7 
REMARK    5  A    between atoms: C7_7  and  C8_8 
REMARK    6  A    between atoms: C7_7  and  C16_17 
REMARK    7  A    between atoms: C8_8  and  N1_9 
REMARK    8  A    between atoms: N1_9  and  C10_11 
REMARK    9  A    between atoms: N1_9  and  C12_13 
REMARK   10  A    between atoms: C12_13  and  C13_14 
REMARK   11  A    between atoms: C13_14  and  C14_15 
ROOT
HETATM    1  C7  UNL     1     -20.983 -40.087 -23.667  1.00  0.00     0.039 C 
ENDROOT
BRANCH   1   2
HETATM    2  C6  UNL     1     -19.571 -39.778 -24.112  1.00  0.00    -0.011 C 
HETATM    3  C5  UNL     1     -18.612 -39.969 -23.201  1.00  0.00     0.061 C 
BRANCH   3   4
HETATM    4  C4  UNL     1     -17.283 -39.732 -23.398  1.00  0.00    -0.074 C 
BRANCH   4   5
HETATM    5  C3  UNL     1     -16.076 -39.496 -23.573  1.00  0.00    -0.075 C 
BRANCH   5   6
HETATM    6  C2  UNL     1     -14.735 -39.245 -23.753  1.00  0.00     0.054 C 
HETATM    7  C1  UNL     1     -13.898 -39.048 -22.686  1.00  0.00     0.020 C 
ENDBRANCH   5   6
ENDBRANCH   4   5
ENDBRANCH   3   4
ENDBRANCH   1   2
BRANCH   1   8
HETATM    8  C8  UNL     1     -21.293 -41.472 -23.952  1.00  0.00     0.245 C 
BRANCH   8   9
HETATM    9  N1  UNL     1     -21.998 -42.254 -22.978  1.00  0.00    -0.071 N 
HETATM   10  C9  UNL     1     -21.482 -41.604 -21.689  1.00  0.00     0.272 C 
BRANCH   9  11
HETATM   11  C10 UNL     1     -23.391 -42.138 -22.844  1.00  0.00     0.232 C 
HETATM   12  C11 UNL     1     -24.004 -41.311 -21.782  1.00  0.00     0.035 C 
ENDBRANCH   9  11
BRANCH   9  13
HETATM   13  C12 UNL     1     -21.396 -43.558 -22.880  1.00  0.00     0.237 C 
BRANCH  13  14
HETATM   14  C13 UNL     1     -20.143 -43.617 -22.083  1.00  0.00     0.027 C 
BRANCH  14  15
HETATM   15  C14 UNL     1     -18.916 -44.101 -22.818  1.00  0.00    -0.003 C 
HETATM   16  C15 UNL     1     -18.295 -45.348 -22.268  1.00  0.00     0.005 C 
ENDBRANCH  14  15
ENDBRANCH  13  14
ENDBRANCH   9  13
ENDBRANCH   8   9
ENDBRANCH   1   8
BRANCH   1  17
HETATM   17  C16 UNL     1     -21.835 -39.031 -24.352  1.00  0.00    -0.005 A 
HETATM   18  C17 UNL     1     -21.373 -37.619 -24.499  1.00  0.00     0.005 A 
HETATM   19  C18 UNL     1     -22.328 -37.859 -23.437  1.00  0.00     0.005 A 
ENDBRANCH   1  17
TORSDOF 11
ENDMDL
MODEL 3
REMARK VINA RESULT: -5.907427944      1.357      3.592
REMARK  11 active torsions:
REMARK  status: ('A' for Active; 'I' for Inactive)
REMARK    1  A    between atoms: C2_2  and  C3_3 
REMARK    2  A    between atoms: C3_3  and  C4_4 
REMARK    3  A    between atoms: C4_4  and  C5_5 
REMARK    4  A    between atoms: C6_6  and  C7_7 
REMARK    5  A    between atoms: C7_7  and  C8_8 
REMARK    6  A    between atoms: C7_7  and  C16_17 
REMARK    7  A    between atoms: C8_8  and  N1_9 
REMARK    8  A    between atoms: N1_9  and  C10_11 
REMARK    9  A    between atoms: N1_9  and  C12_13 
REMARK   10  A    between atoms: C12_13  and  C13_14 
REMARK   11  A    between atoms: C13_14  and  C14_15 
ROOT
HETATM    1  C7  UNL     1     -19.854 -41.063 -24.113  1.00  0.00     0.039 C 
ENDROOT
BRANCH   1   2
HETATM    2  C6  UNL     1     -18.405 -40.972 -23.687  1.00  0.00    -0.011 C 
HETATM    3  C5  UNL     1     -17.880 -39.745 -23.648  1.00  0.00     0.061 C 
BRANCH   3   4
HETATM    4  C4  UNL     1     -16.590 -39.452 -23.310  1.00  0.00    -0.074 C 
BRANCH   4   5
HETATM    5  C3  UNL     1     -15.411 -39.192 -23.021  1.00  0.00    -0.075 C 
BRANCH   5   6
HETATM    6  C2  UNL     1     -14.108 -38.902 -22.684  1.00  0.00     0.054 C 
HETATM    7  C1  UNL     1     -13.174 -39.895 -22.535  1.00  0.00     0.020 C 
ENDBRANCH   5   6
ENDBRANCH   4   5
ENDBRANCH   3   4
ENDBRANCH   1   2
BRANCH   1   8
HETATM    8  C8  UNL     1     -20.678 -41.397 -22.971  1.00  0.00     0.245 C 
BRANCH   8   9
HETATM    9  N1  UNL     1     -21.968 -40.788 -22.827  1.00  0.00    -0.071 N 
HETATM   10  C9  UNL     1     -22.857 -41.915 -23.366  1.00  0.00     0.272 C 
BRANCH   9  11
HETATM   11  C10 UNL     1     -22.508 -40.554 -21.552  1.00  0.00     0.232 C 
HETATM   12  C11 UNL     1     -23.918 -40.867 -21.236  1.00  0.00     0.035 C 
ENDBRANCH   9  11
BRANCH   9  13
HETATM   13  C12 UNL     1     -22.148 -39.792 -23.852  1.00  0.00     0.237 C 
BRANCH  13  14
HETATM   14  C13 UNL     1     -22.199 -38.389 -23.366  1.00  0.00     0.027 C 
BRANCH  14  15
HETATM   15  C14 UNL     1     -21.785 -37.331 -24.361  1.00  0.00    -0.003 C 
HETATM   16  C15 UNL     1     -21.245 -37.854 -25.658  1.00  0.00     0.005 C 
ENDBRANCH  14  15
ENDBRANCH  13  14
ENDBRANCH   9  13
ENDBRANCH   8   9
ENDBRANCH   1   8
BRANCH   1  17
HETATM   17  C16 UNL     1     -19.847 -42.045 -25.273  1.00  0.00    -0.005 A 
HETATM   18  C17 UNL     1     -19.073 -41.782 -26.523  1.00  0.00     0.005 A 
HETATM   19  C18 UNL     1     -20.497 -41.529 -26.601  1.00  0.00     0.005 A 
ENDBRANCH   1  17
TORSDOF 11
ENDMDL
MODEL 4
REMARK VINA RESULT: -5.896374754      1.258      2.422
REMARK  11 active torsions:
REMARK  status: ('A' for Active; 'I' for Inactive)
REMARK    1  A    between atoms: C2_2  and  C3_3 
REMARK    2  A    between atoms: C3_3  and  C4_4 
REMARK    3  A    between atoms: C4_4  and  C5_5 
REMARK    4  A    between atoms: C6_6  and  C7_7 
REMARK    5  A    between atoms: C7_7  and  C8_8 
REMARK    6  A    between atoms: C7_7  and  C16_17 
REMARK    7  A    between atoms: C8_8  and  N1_9 
REMARK    8  A    between atoms: N1_9  and  C10_11 
REMARK    9  A    between atoms: N1_9  and  C12_13 
REMARK   10  A    between atoms: C12_13  and  C13_14 
REMARK   11  A    between atoms: C13_14  and  C14_15 
ROOT
HETATM    1  C7  UNL     1     -19.775 -40.269 -24.885  1.00  0.00     0.039 C 
ENDROOT
BRANCH   1   2
HETATM    2  C6  UNL     1     -18.275 -40.201 -24.704  1.00  0.00    -0.011 C 
HETATM    3  C5  UNL     1     -17.843 -39.587 -23.599  1.00  0.00     0.061 C 
BRANCH   3   4
HETATM    4  C4  UNL     1     -16.533 -39.406 -23.262  1.00  0.00    -0.074 C 
BRANCH   4   5
HETATM    5  C3  UNL     1     -15.342 -39.221 -22.961  1.00  0.00    -0.075 C 
BRANCH   5   6
HETATM    6  C2  UNL     1     -14.027 -39.014 -22.611  1.00  0.00     0.054 C 
HETATM    7  C1  UNL     1     -13.086 -39.998 -22.770  1.00  0.00     0.020 C 
ENDBRANCH   5   6
ENDBRANCH   4   5
ENDBRANCH   3   4
ENDBRANCH   1   2
BRANCH   1   8
HETATM    8  C8  UNL     1     -20.274 -41.523 -24.363  1.00  0.00     0.245 C 
BRANCH   8   9
HETATM    9  N1  UNL     1     -21.086 -41.524 -23.181  1.00  0.00    -0.071 N 
HETATM   10  C9  UNL     1     -21.847 -42.839 -23.381  1.00  0.00     0.272 C 
BRANCH   9  11
HETATM   11  C10 UNL     1     -20.503 -41.696 -21.915  1.00  0.00     0.232 C 
HETATM   12  C11 UNL     1     -20.474 -43.013 -21.245  1.00  0.00     0.035 C 
ENDBRANCH   9  11
BRANCH   9  13
HETATM   13  C12 UNL     1     -22.155 -40.571 -23.330  1.00  0.00     0.237 C 
BRANCH  13  14
HETATM   14  C13 UNL     1     -22.004 -39.324 -22.535  1.00  0.00     0.027 C 
BRANCH  14  15
HETATM   15  C14 UNL     1     -22.447 -38.051 -23.216  1.00  0.00    -0.003 C 
HETATM   16  C15 UNL     1     -21.337 -37.166 -23.695  1.00  0.00     0.005 C 
ENDBRANCH  14  15
ENDBRANCH  13  14
ENDBRANCH   9  13
ENDBRANCH   8   9
ENDBRANCH   1   8
BRANCH   1  17
HETATM   17  C16 UNL     1     -19.990 -40.000 -26.366  1.00  0.00    -0.005 A 
HETATM   18  C17 UNL     1     -20.014 -38.614 -26.920  1.00  0.00     0.005 A 
HETATM   19  C18 UNL     1     -21.308 -39.237 -26.732  1.00  0.00     0.005 A 
ENDBRANCH   1  17
TORSDOF 11
ENDMDL
MODEL 5
REMARK VINA RESULT: -5.880403242      1.267      1.531
REMARK  11 active torsions:
REMARK  status: ('A' for Active; 'I' for Inactive)
REMARK    1  A    between atoms: C2_2  and  C3_3 
REMARK    2  A    between atoms: C3_3  and  C4_4 
REMARK    3  A    between atoms: C4_4  and  C5_5 
REMARK    4  A    between atoms: C6_6  and  C7_7 
REMARK    5  A    between atoms: C7_7  and  C8_8 
REMARK    6  A    between atoms: C7_7  and  C16_17 
REMARK    7  A    between atoms: C8_8  and  N1_9 
REMARK    8  A    between atoms: N1_9  and  C10_11 
REMARK    9  A    between atoms: N1_9  and  C12_13 
REMARK   10  A    between atoms: C12_13  and  C13_14 
REMARK   11  A    between atoms: C13_14  and  C14_15 
ROOT
HETATM    1  C7  UNL     1     -20.564 -39.728 -24.070  1.00  0.00     0.039 C 
ENDROOT
BRANCH   1   2
HETATM    2  C6  UNL     1     -19.139 -39.239 -24.200  1.00  0.00    -0.011 C 
HETATM    3  C5  UNL     1     -18.227 -39.888 -23.469  1.00  0.00     0.061 C 
BRANCH   3   4
HETATM    4  C4  UNL     1     -16.895 -39.591 -23.431  1.00  0.00    -0.074 C 
BRANCH   4   5
HETATM    5  C3  UNL     1     -15.683 -39.329 -23.377  1.00  0.00    -0.075 C 
BRANCH   5   6
HETATM    6  C2  UNL     1     -14.342 -39.025 -23.307  1.00  0.00     0.054 C 
HETATM    7  C1  UNL     1     -13.536 -39.581 -22.347  1.00  0.00     0.020 C 
ENDBRANCH   5   6
ENDBRANCH   4   5
ENDBRANCH   3   4
ENDBRANCH   1   2
BRANCH   1   8
HETATM    8  C8  UNL     1     -20.702 -41.011 -24.724  1.00  0.00     0.245 C 
BRANCH   8   9
HETATM    9  N1  UNL     1     -21.118 -42.152 -23.962  1.00  0.00    -0.071 N 
HETATM   10  C9  UNL     1     -22.298 -42.628 -24.816  1.00  0.00     0.272 C 
BRANCH   9  11
HETATM   11  C10 UNL     1     -20.308 -43.297 -23.891  1.00  0.00     0.232 C 
HETATM   12  C11 UNL     1     -19.871 -43.860 -22.595  1.00  0.00     0.035 C 
ENDBRANCH   9  11
BRANCH   9  13
HETATM   13  C12 UNL     1     -21.807 -41.713 -22.775  1.00  0.00     0.237 C 
BRANCH  13  14
HETATM   14  C13 UNL     1     -23.254 -42.045 -22.726  1.00  0.00     0.027 C 
BRANCH  14  15
HETATM   15  C14 UNL     1     -24.079 -41.253 -21.740  1.00  0.00    -0.003 C 
HETATM   16  C15 UNL     1     -23.346 -40.148 -21.040  1.00  0.00     0.005 C 
ENDBRANCH  14  15
ENDBRANCH  13  14
ENDBRANCH   9  13
ENDBRANCH   8   9
ENDBRANCH   1   8
BRANCH   1  17
HETATM   17  C16 UNL     1     -21.407 -38.582 -24.609  1.00  0.00    -0.005 A 
HETATM   18  C17 UNL     1     -21.122 -37.160 -24.253  1.00  0.00     0.005 A 
HETATM   19  C18 UNL     1     -22.221 -37.778 -23.539  1.00  0.00     0.005 A 
ENDBRANCH   1  17
TORSDOF 11
ENDMDL
