MODEL 1
REMARK VINA RESULT: -7.723774894      0.000      0.000
REMARK  6 active torsions:
REMARK  status: ('A' for Active; 'I' for Inactive)
REMARK    1  A    between atoms: C4_4  and  C5_5 
REMARK    2  A    between atoms: C5_5  and  C6_6 
REMARK    3  A    between atoms: C8_8  and  C9_9 
REMARK    4  A    between atoms: C12_12  and  O1_13 
REMARK    5  A    between atoms: O1_13  and  C13_14 
REMARK    6  A    between atoms: C13_14  and  C15_16 
ROOT
HETATM    1  C9  UNL     1      -7.787  -4.559  11.692  1.00  0.00    -0.000 C 
HETATM    2  C10 UNL     1      -7.683  -3.615  12.869  1.00  0.00     0.021 C 
HETATM    3  C11 UNL     1      -6.436  -5.172  11.423  1.00  0.00     0.050 C 
HETATM    4  C12 UNL     1      -5.792  -4.390  10.296  1.00  0.00     0.160 C 
HETATM    5  C19 UNL     1      -6.848  -3.527   9.694  1.00  0.00     0.116 C 
HETATM    6  C20 UNL     1      -7.144  -3.893   8.239  1.00  0.00     0.052 C 
HETATM    7  O2  UNL     1      -6.552  -2.143   9.733  1.00  0.00    -0.288 OA
HETATM    8  C21 UNL     1      -7.684  -1.441  10.103  1.00  0.00     0.361 C 
HETATM    9  O3  UNL     1      -7.860  -0.221   9.870  1.00  0.00    -0.238 OA
HETATM   10  N1  UNL     1      -8.536  -2.389  10.768  1.00  0.00    -0.328 N 
ATOM     11  H1  UNL     1      -9.327  -2.147  11.364  1.00  0.00     0.165 HD
HETATM   12  C22 UNL     1      -8.107  -3.727  10.468  1.00  0.00     0.136 C 
ENDROOT
BRANCH   1  13
HETATM   13  C8  UNL     1      -8.865  -5.564  11.835  1.00  0.00    -0.013 C 
HETATM   14  C6  UNL     1      -8.982  -6.465  12.786  1.00  0.00    -0.083 C 
HETATM   15  C7  UNL     1      -7.983  -6.570  13.878  1.00  0.00     0.043 C 
BRANCH  14  16
HETATM   16  C5  UNL     1     -10.124  -7.424  12.816  1.00  0.00     0.060 C 
BRANCH  16  17
HETATM   17  C4  UNL     1      -9.814  -8.666  12.055  1.00  0.00    -0.020 C 
HETATM   18  C2  UNL     1      -9.563  -9.824  12.655  1.00  0.00    -0.091 C 
HETATM   19  C1  UNL     1      -9.577  -9.943  14.139  1.00  0.00     0.042 C 
HETATM   20  C3  UNL     1      -9.257 -11.050  11.868  1.00  0.00     0.042 C 
ENDBRANCH  16  17
ENDBRANCH  14  16
ENDBRANCH   1  13
BRANCH   4  21
HETATM   21  O1  UNL     1      -5.383  -5.314   9.348  1.00  0.00    -0.374 OA
BRANCH  21  22
HETATM   22  C13 UNL     1      -4.008  -5.418   9.228  1.00  0.00     0.141 C 
HETATM   23  C14 UNL     1      -3.518  -5.455   7.826  1.00  0.00     0.044 C 
BRANCH  22  24
HETATM   24  C15 UNL     1      -3.633  -6.738   9.863  1.00  0.00     0.006 C 
HETATM   25  C16 UNL     1      -3.014  -6.813  11.013  1.00  0.00    -0.089 C 
HETATM   26  C17 UNL     1      -2.668  -8.133  11.589  1.00  0.00     0.042 C 
HETATM   27  C18 UNL     1      -2.653  -5.577  11.746  1.00  0.00     0.042 C 
ENDBRANCH  22  24
ENDBRANCH  21  22
ENDBRANCH   4  21
TORSDOF 6
ENDMDL
MODEL 2
REMARK VINA RESULT: -7.667761966      3.013      6.722
REMARK  6 active torsions:
REMARK  status: ('A' for Active; 'I' for Inactive)
REMARK    1  A    between atoms: C4_4  and  C5_5 
REMARK    2  A    between atoms: C5_5  and  C6_6 
REMARK    3  A    between atoms: C8_8  and  C9_9 
REMARK    4  A    between atoms: C12_12  and  O1_13 
REMARK    5  A    between atoms: O1_13  and  C13_14 
REMARK    6  A    between atoms: C13_14  and  C15_16 
ROOT
HETATM    1  C9  UNL     1      -8.225  -2.648  10.104  1.00  0.00    -0.000 C 
HETATM    2  C10 UNL     1      -9.298  -3.558   9.547  1.00  0.00     0.021 C 
HETATM    3  C11 UNL     1      -6.880  -3.315   9.958  1.00  0.00     0.050 C 
HETATM    4  C12 UNL     1      -6.539  -3.960  11.286  1.00  0.00     0.160 C 
HETATM    5  C19 UNL     1      -7.504  -3.436  12.295  1.00  0.00     0.116 C 
HETATM    6  C20 UNL     1      -6.818  -2.619  13.391  1.00  0.00     0.052 C 
HETATM    7  O2  UNL     1      -8.274  -4.439  12.931  1.00  0.00    -0.288 OA
HETATM    8  C21 UNL     1      -9.589  -4.022  13.021  1.00  0.00     0.361 C 
HETATM    9  O3  UNL     1     -10.419  -4.489  13.839  1.00  0.00    -0.238 OA
HETATM   10  N1  UNL     1      -9.748  -3.000  12.023  1.00  0.00    -0.328 N 
ATOM     11  H1  UNL     1     -10.642  -2.660  11.670  1.00  0.00     0.165 HD
HETATM   12  C22 UNL     1      -8.460  -2.529  11.596  1.00  0.00     0.136 C 
ENDROOT
BRANCH   1  13
HETATM   13  C8  UNL     1      -8.261  -1.279   9.542  1.00  0.00    -0.013 C 
HETATM   14  C6  UNL     1      -8.305  -0.950   8.269  1.00  0.00    -0.083 C 
HETATM   15  C7  UNL     1      -8.324  -1.983   7.205  1.00  0.00     0.043 C 
BRANCH  14  16
HETATM   16  C5  UNL     1      -8.338   0.476   7.833  1.00  0.00     0.060 C 
BRANCH  16  17
HETATM   17  C4  UNL     1      -7.979   1.397   8.946  1.00  0.00    -0.020 C 
HETATM   18  C2  UNL     1      -8.306   2.684   8.937  1.00  0.00    -0.091 C 
HETATM   19  C1  UNL     1      -9.056   3.282   7.799  1.00  0.00     0.042 C 
HETATM   20  C3  UNL     1      -7.934   3.581  10.066  1.00  0.00     0.042 C 
ENDBRANCH  16  17
ENDBRANCH  14  16
ENDBRANCH   1  13
BRANCH   4  21
HETATM   21  O1  UNL     1      -5.267  -3.531  11.627  1.00  0.00    -0.374 OA
BRANCH  21  22
HETATM   22  C13 UNL     1      -4.287  -4.489  11.440  1.00  0.00     0.141 C 
HETATM   23  C14 UNL     1      -3.038  -4.243  12.207  1.00  0.00     0.044 C 
BRANCH  22  24
HETATM   24  C15 UNL     1      -3.922  -4.431   9.974  1.00  0.00     0.006 C 
HETATM   25  C16 UNL     1      -3.819  -5.506   9.234  1.00  0.00    -0.089 C 
HETATM   26  C17 UNL     1      -3.457  -5.393   7.802  1.00  0.00     0.042 C 
HETATM   27  C18 UNL     1      -4.061  -6.843   9.824  1.00  0.00     0.042 C 
ENDBRANCH  22  24
ENDBRANCH  21  22
ENDBRANCH   4  21
TORSDOF 6
ENDMDL
MODEL 3
REMARK VINA RESULT: -7.658180495      3.444      7.328
REMARK  6 active torsions:
REMARK  status: ('A' for Active; 'I' for Inactive)
REMARK    1  A    between atoms: C4_4  and  C5_5 
REMARK    2  A    between atoms: C5_5  and  C6_6 
REMARK    3  A    between atoms: C8_8  and  C9_9 
REMARK    4  A    between atoms: C12_12  and  O1_13 
REMARK    5  A    between atoms: O1_13  and  C13_14 
REMARK    6  A    between atoms: C13_14  and  C15_16 
ROOT
HETATM    1  C9  UNL     1      -6.500  -8.692  12.514  1.00  0.00    -0.000 C 
HETATM    2  C10 UNL     1      -5.727  -9.879  13.046  1.00  0.00     0.021 C 
HETATM    3  C11 UNL     1      -6.834  -7.763  13.653  1.00  0.00     0.050 C 
HETATM    4  C12 UNL     1      -8.255  -8.056  14.086  1.00  0.00     0.160 C 
HETATM    5  C19 UNL     1      -8.869  -8.922  13.039  1.00  0.00     0.116 C 
HETATM    6  C20 UNL     1     -10.043  -8.243  12.331  1.00  0.00     0.052 C 
HETATM    7  O2  UNL     1      -9.328 -10.172  13.521  1.00  0.00    -0.288 OA
HETATM    8  C21 UNL     1      -8.974 -11.167  12.629  1.00  0.00     0.361 C 
HETATM    9  O3  UNL     1      -9.538 -12.286  12.568  1.00  0.00    -0.238 OA
HETATM   10  N1  UNL     1      -7.886 -10.635  11.856  1.00  0.00    -0.328 N 
ATOM     11  H1  UNL     1      -7.247 -11.189  11.286  1.00  0.00     0.165 HD
HETATM   12  C22 UNL     1      -7.831  -9.207  12.006  1.00  0.00     0.136 C 
ENDROOT
BRANCH   1  13
HETATM   13  C8  UNL     1      -5.832  -8.011  11.382  1.00  0.00    -0.013 C 
HETATM   14  C6  UNL     1      -4.573  -7.633  11.321  1.00  0.00    -0.083 C 
HETATM   15  C7  UNL     1      -3.642  -7.865  12.453  1.00  0.00     0.043 C 
BRANCH  14  16
HETATM   16  C5  UNL     1      -4.020  -6.953  10.115  1.00  0.00     0.060 C 
BRANCH  16  17
HETATM   17  C4  UNL     1      -4.168  -5.474  10.205  1.00  0.00    -0.020 C 
HETATM   18  C2  UNL     1      -4.020  -4.679   9.151  1.00  0.00    -0.091 C 
HETATM   19  C1  UNL     1      -3.693  -5.230   7.808  1.00  0.00     0.042 C 
HETATM   20  C3  UNL     1      -4.176  -3.203   9.272  1.00  0.00     0.042 C 
ENDBRANCH  16  17
ENDBRANCH  14  16
ENDBRANCH   1  13
BRANCH   4  21
HETATM   21  O1  UNL     1      -8.928  -6.845  14.107  1.00  0.00    -0.374 OA
BRANCH  21  22
HETATM   22  C13 UNL     1      -8.095  -5.747  14.222  1.00  0.00     0.141 C 
HETATM   23  C14 UNL     1      -7.772  -5.368  15.622  1.00  0.00     0.044 C 
BRANCH  22  24
HETATM   24  C15 UNL     1      -8.848  -4.587  13.612  1.00  0.00     0.006 C 
HETATM   25  C16 UNL     1      -8.626  -4.168  12.393  1.00  0.00    -0.089 C 
HETATM   26  C17 UNL     1      -9.392  -3.024  11.846  1.00  0.00     0.042 C 
HETATM   27  C18 UNL     1      -7.603  -4.833  11.552  1.00  0.00     0.042 C 
ENDBRANCH  22  24
ENDBRANCH  21  22
ENDBRANCH   4  21
TORSDOF 6
ENDMDL
MODEL 4
REMARK VINA RESULT: -7.606891160      2.654      6.089
REMARK  6 active torsions:
REMARK  status: ('A' for Active; 'I' for Inactive)
REMARK    1  A    between atoms: C4_4  and  C5_5 
REMARK    2  A    between atoms: C5_5  and  C6_6 
REMARK    3  A    between atoms: C8_8  and  C9_9 
REMARK    4  A    between atoms: C12_12  and  O1_13 
REMARK    5  A    between atoms: O1_13  and  C13_14 
REMARK    6  A    between atoms: C13_14  and  C15_16 
ROOT
HETATM    1  C9  UNL     1      -7.993  -3.962   9.765  1.00  0.00    -0.000 C 
HETATM    2  C10 UNL     1      -9.058  -5.037   9.750  1.00  0.00     0.021 C 
HETATM    3  C11 UNL     1      -6.756  -4.476   9.072  1.00  0.00     0.050 C 
HETATM    4  C12 UNL     1      -5.796  -4.958  10.140  1.00  0.00     0.160 C 
HETATM    5  C19 UNL     1      -6.307  -4.466  11.452  1.00  0.00     0.116 C 
HETATM    6  C20 UNL     1      -5.348  -3.481  12.122  1.00  0.00     0.052 C 
HETATM    7  O2  UNL     1      -6.583  -5.494  12.386  1.00  0.00    -0.288 OA
HETATM    8  C21 UNL     1      -7.781  -5.228  13.022  1.00  0.00     0.361 C 
HETATM    9  O3  UNL     1      -8.110  -5.718  14.130  1.00  0.00    -0.238 OA
HETATM   10  N1  UNL     1      -8.492  -4.324  12.162  1.00  0.00    -0.328 N 
ATOM     11  H1  UNL     1      -9.491  -4.123  12.220  1.00  0.00     0.165 HD
HETATM   12  C22 UNL     1      -7.589  -3.742  11.208  1.00  0.00     0.136 C 
ENDROOT
BRANCH   1  13
HETATM   13  C8  UNL     1      -8.460  -2.661   9.236  1.00  0.00    -0.013 C 
HETATM   14  C6  UNL     1      -8.417  -2.257   7.984  1.00  0.00    -0.083 C 
HETATM   15  C7  UNL     1      -7.860  -3.119   6.914  1.00  0.00     0.043 C 
BRANCH  14  16
HETATM   16  C5  UNL     1      -8.924  -0.914   7.580  1.00  0.00     0.060 C 
BRANCH  16  17
HETATM   17  C4  UNL     1      -8.189   0.180   8.274  1.00  0.00    -0.020 C 
HETATM   18  C2  UNL     1      -8.524   1.458   8.140  1.00  0.00    -0.091 C 
HETATM   19  C1  UNL     1      -9.665   1.871   7.277  1.00  0.00     0.042 C 
HETATM   20  C3  UNL     1      -7.771   2.530   8.847  1.00  0.00     0.042 C 
ENDBRANCH  16  17
ENDBRANCH  14  16
ENDBRANCH   1  13
BRANCH   4  21
HETATM   21  O1  UNL     1      -4.576  -4.353   9.887  1.00  0.00    -0.374 OA
BRANCH  21  22
HETATM   22  C13 UNL     1      -3.633  -5.206   9.342  1.00  0.00     0.141 C 
HETATM   23  C14 UNL     1      -3.632  -5.245   7.856  1.00  0.00     0.044 C 
BRANCH  22  24
HETATM   24  C15 UNL     1      -4.000  -6.592   9.819  1.00  0.00     0.006 C 
HETATM   25  C16 UNL     1      -3.232  -7.283  10.623  1.00  0.00    -0.089 C 
HETATM   26  C17 UNL     1      -3.639  -8.640  11.059  1.00  0.00     0.042 C 
HETATM   27  C18 UNL     1      -1.950  -6.715  11.100  1.00  0.00     0.042 C 
ENDBRANCH  22  24
ENDBRANCH  21  22
ENDBRANCH   4  21
TORSDOF 6
ENDMDL
MODEL 5
REMARK VINA RESULT: -7.541703664      3.348      6.191
REMARK  6 active torsions:
REMARK  status: ('A' for Active; 'I' for Inactive)
REMARK    1  A    between atoms: C4_4  and  C5_5 
REMARK    2  A    between atoms: C5_5  and  C6_6 
REMARK    3  A    between atoms: C8_8  and  C9_9 
REMARK    4  A    between atoms: C12_12  and  O1_13 
REMARK    5  A    between atoms: O1_13  and  C13_14 
REMARK    6  A    between atoms: C13_14  and  C15_16 
ROOT
HETATM    1  C9  UNL     1      -8.062  -6.082  12.889  1.00  0.00    -0.000 C 
HETATM    2  C10 UNL     1      -9.090  -5.023  13.219  1.00  0.00     0.021 C 
HETATM    3  C11 UNL     1      -8.762  -7.387  12.608  1.00  0.00     0.050 C 
HETATM    4  C12 UNL     1      -8.708  -8.220  13.872  1.00  0.00     0.160 C 
HETATM    5  C19 UNL     1      -7.735  -7.566  14.794  1.00  0.00     0.116 C 
HETATM    6  C20 UNL     1      -6.518  -8.447  15.081  1.00  0.00     0.052 C 
HETATM    7  O2  UNL     1      -8.289  -7.185  16.041  1.00  0.00    -0.288 OA
HETATM    8  C21 UNL     1      -7.835  -5.924  16.379  1.00  0.00     0.361 C 
HETATM    9  O3  UNL     1      -7.830  -5.472  17.550  1.00  0.00    -0.238 OA
HETATM   10  N1  UNL     1      -7.407  -5.316  15.150  1.00  0.00    -0.328 N 
ATOM     11  H1  UNL     1      -7.246  -4.318  15.015  1.00  0.00     0.165 HD
HETATM   12  C22 UNL     1      -7.239  -6.322  14.138  1.00  0.00     0.136 C 
ENDROOT
BRANCH   1  13
HETATM   13  C8  UNL     1      -7.124  -5.680  11.816  1.00  0.00    -0.013 C 
HETATM   14  C6  UNL     1      -7.439  -5.276  10.604  1.00  0.00    -0.083 C 
HETATM   15  C7  UNL     1      -8.853  -5.178  10.166  1.00  0.00     0.043 C 
BRANCH  14  16
HETATM   16  C5  UNL     1      -6.393  -4.897   9.611  1.00  0.00     0.060 C 
BRANCH  16  17
HETATM   17  C4  UNL     1      -5.114  -5.618   9.863  1.00  0.00    -0.020 C 
HETATM   18  C2  UNL     1      -4.104  -5.595   9.001  1.00  0.00    -0.091 C 
HETATM   19  C1  UNL     1      -4.198  -4.840   7.721  1.00  0.00     0.042 C 
HETATM   20  C3  UNL     1      -2.837  -6.324   9.280  1.00  0.00     0.042 C 
ENDBRANCH  16  17
ENDBRANCH  14  16
ENDBRANCH   1  13
BRANCH   4  21
HETATM   21  O1  UNL     1      -8.210  -9.463  13.515  1.00  0.00    -0.374 OA
BRANCH  21  22
HETATM   22  C13 UNL     1      -8.177  -9.678  12.148  1.00  0.00     0.141 C 
HETATM   23  C14 UNL     1      -9.406 -10.309  11.599  1.00  0.00     0.044 C 
BRANCH  22  24
HETATM   24  C15 UNL     1      -7.039 -10.641  11.905  1.00  0.00     0.006 C 
HETATM   25  C16 UNL     1      -5.843 -10.241  11.555  1.00  0.00    -0.089 C 
HETATM   26  C17 UNL     1      -4.762 -11.229  11.327  1.00  0.00     0.042 C 
HETATM   27  C18 UNL     1      -5.563  -8.796  11.381  1.00  0.00     0.042 C 
ENDBRANCH  22  24
ENDBRANCH  21  22
ENDBRANCH   4  21
TORSDOF 6
ENDMDL
