MODEL 1
REMARK VINA RESULT: -7.936607399      0.000      0.000
REMARK  9 active torsions:
REMARK  status: ('A' for Active; 'I' for Inactive)
REMARK    1  A    between atoms: N1_1  and  C1_4 
REMARK    2  A    between atoms: C2_7  and  N3_8 
REMARK    3  A    between atoms: C6_16  and  O2_17 
REMARK    4  A    between atoms: C7_19  and  C8_20 
REMARK    5  A    between atoms: C8_20  and  O3_21 
REMARK    6  A    between atoms: C8_20  and  O4_23 
REMARK    7  A    between atoms: C9_25  and  C10_26 
REMARK    8  A    between atoms: C10_26  and  N6_27 
REMARK    9  A    between atoms: C10_26  and  O5_31 
ROOT
HETATM    1  C1  UNL     1     132.553  11.488  73.300  1.00  0.00     0.680 A 
HETATM    2  N2  UNL     1     132.329  10.206  73.615  1.00  0.00    -0.174 N 
ATOM      3  H2  UNL     1     132.779   9.813  74.442  1.00  0.00     0.186 HD
HETATM    4  C2  UNL     1     131.513   9.406  72.859  1.00  0.00     0.155 A 
HETATM    5  C9  UNL     1     130.936   9.991  71.757  1.00  0.00     0.112 A 
HETATM    6  C11 UNL     1     131.163  11.326  71.420  1.00  0.00     0.274 A 
HETATM    7  O6  UNL     1     130.654  11.886  70.427  1.00  0.00    -0.267 OA
HETATM    8  N7  UNL     1     131.970  12.038  72.208  1.00  0.00    -0.156 N 
ATOM      9  H7  UNL     1     132.152  13.017  71.983  1.00  0.00     0.187 HD
ENDROOT
BRANCH   4  10
HETATM   10  N3  UNL     1     131.347   8.087  73.230  1.00  0.00    -0.250 N 
HETATM   11  N4  UNL     1     131.906   7.037  72.565  1.00  0.00    -0.314 N 
HETATM   12  C3  UNL     1     131.429   5.711  72.661  1.00  0.00     0.222 C 
ATOM     13  H4  UNL     1     132.712   7.217  71.966  1.00  0.00     0.181 HD
HETATM   14  C4  UNL     1     130.037   5.713  73.402  1.00  0.00     0.248 C 
HETATM   15  C6  UNL     1     132.206   5.004  73.804  1.00  0.00     0.169 C 
HETATM   16  O1  UNL     1     129.026   5.172  72.930  1.00  0.00    -0.271 OA
HETATM   17  N5  UNL     1     130.606   6.443  74.461  1.00  0.00    -0.320 N 
HETATM   18  C5  UNL     1     131.463   5.498  75.124  1.00  0.00     0.162 C 
HETATM   19  C7  UNL     1     130.514   7.863  74.500  1.00  0.00     0.267 C 
BRANCH  19  20
HETATM   20  C8  UNL     1     129.199   8.510  74.410  1.00  0.00     0.298 C 
BRANCH  20  21
HETATM   21  O3  UNL     1     128.450   8.109  73.329  1.00  0.00    -0.368 OA
ATOM     22  H3  UNL     1     128.021   7.269  73.445  1.00  0.00     0.212 HD
ENDBRANCH  20  21
BRANCH  20  23
HETATM   23  O4  UNL     1     128.439   8.420  75.581  1.00  0.00    -0.368 OA
ATOM     24  H4  UNL     1     127.760   7.756  75.552  1.00  0.00     0.212 HD
ENDBRANCH  20  23
ENDBRANCH  19  20
BRANCH  15  25
HETATM   25  O2  UNL     1     132.002   3.649  73.642  1.00  0.00    -0.391 OA
ATOM     26  H2  UNL     1     131.148   3.549  73.236  1.00  0.00     0.210 HD
ENDBRANCH  15  25
ENDBRANCH   4  10
BRANCH   5  27
HETATM   27  C10 UNL     1     130.038   9.242  70.862  1.00  0.00     0.359 C 
BRANCH  27  28
HETATM   28  N6  UNL     1     130.637   9.352  69.520  1.00  0.00    -0.048 N 
ATOM     29  H63 UNL     1     130.131   8.836  68.801  1.00  0.00     0.277 HD
ATOM     30  H62 UNL     1     130.533  10.276  69.099  1.00  0.00     0.277 HD
ATOM     31  H61 UNL     1     131.608   9.058  69.629  1.00  0.00     0.277 HD
ENDBRANCH  27  28
BRANCH  27  32
HETATM   32  O5  UNL     1     128.817   9.965  70.849  1.00  0.00    -0.366 OA
ATOM     33  H5  UNL     1     128.172   9.387  71.237  1.00  0.00     0.212 HD
ENDBRANCH  27  32
ENDBRANCH   5  27
BRANCH   1  34
HETATM   34  N1  UNL     1     133.345  12.199  74.067  1.00  0.00    -0.234 N 
ATOM     35  H12 UNL     1     133.751  11.797  74.911  1.00  0.00     0.174 HD
ATOM     36  H11 UNL     1     133.549  13.164  73.804  1.00  0.00     0.174 HD
ENDBRANCH   1  34
TORSDOF 9
ENDMDL
MODEL 2
REMARK VINA RESULT: -7.900504533      1.895      5.616
REMARK  9 active torsions:
REMARK  status: ('A' for Active; 'I' for Inactive)
REMARK    1  A    between atoms: N1_1  and  C1_4 
REMARK    2  A    between atoms: C2_7  and  N3_8 
REMARK    3  A    between atoms: C6_16  and  O2_17 
REMARK    4  A    between atoms: C7_19  and  C8_20 
REMARK    5  A    between atoms: C8_20  and  O3_21 
REMARK    6  A    between atoms: C8_20  and  O4_23 
REMARK    7  A    between atoms: C9_25  and  C10_26 
REMARK    8  A    between atoms: C10_26  and  N6_27 
REMARK    9  A    between atoms: C10_26  and  O5_31 
ROOT
HETATM    1  C1  UNL     1     133.056   5.842  74.399  1.00  0.00     0.680 A 
HETATM    2  N2  UNL     1     132.839   6.882  73.584  1.00  0.00    -0.174 N 
ATOM      3  H2  UNL     1     133.618   7.261  73.047  1.00  0.00     0.186 HD
HETATM    4  C2  UNL     1     131.600   7.451  73.451  1.00  0.00     0.155 A 
HETATM    5  C9  UNL     1     130.590   6.897  74.201  1.00  0.00     0.112 A 
HETATM    6  C11 UNL     1     130.807   5.814  75.054  1.00  0.00     0.274 A 
HETATM    7  O6  UNL     1     129.911   5.288  75.748  1.00  0.00    -0.267 OA
HETATM    8  N7  UNL     1     132.042   5.316  75.127  1.00  0.00    -0.156 N 
ATOM      9  H7  UNL     1     132.226   4.524  75.743  1.00  0.00     0.187 HD
ENDROOT
BRANCH   4  10
HETATM   10  N3  UNL     1     131.454   8.535  72.610  1.00  0.00    -0.250 N 
HETATM   11  N4  UNL     1     131.175   9.798  73.043  1.00  0.00    -0.314 N 
HETATM   12  C3  UNL     1     130.623  10.801  72.217  1.00  0.00     0.222 C 
ATOM     13  H4  UNL     1     131.377  10.031  74.016  1.00  0.00     0.181 HD
HETATM   14  C4  UNL     1     130.143  10.151  70.862  1.00  0.00     0.248 C 
HETATM   15  C6  UNL     1     131.795  11.604  71.590  1.00  0.00     0.169 C 
HETATM   16  O1  UNL     1     128.997  10.301  70.415  1.00  0.00    -0.271 OA
HETATM   17  N5  UNL     1     131.416   9.577  70.691  1.00  0.00    -0.320 N 
HETATM   18  C5  UNL     1     132.269  10.691  70.375  1.00  0.00     0.162 C 
HETATM   19  C7  UNL     1     131.679   8.245  71.120  1.00  0.00     0.267 C 
BRANCH  19  20
HETATM   20  C8  UNL     1     130.828   7.146  70.645  1.00  0.00     0.298 C 
BRANCH  20  21
HETATM   21  O3  UNL     1     129.498   7.288  70.965  1.00  0.00    -0.368 OA
ATOM     22  H3  UNL     1     129.313   7.201  71.893  1.00  0.00     0.212 HD
ENDBRANCH  20  21
BRANCH  20  23
HETATM   23  O4  UNL     1     130.966   6.868  69.281  1.00  0.00    -0.368 OA
ATOM     24  H4  UNL     1     130.343   7.324  68.727  1.00  0.00     0.212 HD
ENDBRANCH  20  23
ENDBRANCH  19  20
BRANCH  15  25
HETATM   25  O2  UNL     1     131.253  12.776  71.101  1.00  0.00    -0.391 OA
ATOM     26  H2  UNL     1     131.873  13.118  70.467  1.00  0.00     0.210 HD
ENDBRANCH  15  25
ENDBRANCH   4  10
BRANCH   5  27
HETATM   27  C10 UNL     1     129.212   7.414  74.150  1.00  0.00     0.359 C 
BRANCH  27  28
HETATM   28  N6  UNL     1     128.867   7.755  75.542  1.00  0.00    -0.048 N 
ATOM     29  H63 UNL     1     129.045   7.001  76.205  1.00  0.00     0.277 HD
ATOM     30  H62 UNL     1     129.496   8.438  75.965  1.00  0.00     0.277 HD
ATOM     31  H61 UNL     1     127.892   8.055  75.516  1.00  0.00     0.277 HD
ENDBRANCH  27  28
BRANCH  27  32
HETATM   32  O5  UNL     1     128.403   6.315  73.763  1.00  0.00    -0.366 OA
ATOM     33  H5  UNL     1     127.700   6.275  74.400  1.00  0.00     0.212 HD
ENDBRANCH  27  32
ENDBRANCH   5  27
BRANCH   1  34
HETATM   34  N1  UNL     1     134.267   5.343  74.480  1.00  0.00    -0.234 N 
ATOM     35  H12 UNL     1     135.063   5.841  74.082  1.00  0.00     0.174 HD
ATOM     36  H11 UNL     1     134.400   4.446  74.949  1.00  0.00     0.174 HD
ENDBRANCH   1  34
TORSDOF 9
ENDMDL
MODEL 3
REMARK VINA RESULT: -7.878394393      1.824      5.494
REMARK  9 active torsions:
REMARK  status: ('A' for Active; 'I' for Inactive)
REMARK    1  A    between atoms: N1_1  and  C1_4 
REMARK    2  A    between atoms: C2_7  and  N3_8 
REMARK    3  A    between atoms: C6_16  and  O2_17 
REMARK    4  A    between atoms: C7_19  and  C8_20 
REMARK    5  A    between atoms: C8_20  and  O3_21 
REMARK    6  A    between atoms: C8_20  and  O4_23 
REMARK    7  A    between atoms: C9_25  and  C10_26 
REMARK    8  A    between atoms: C10_26  and  N6_27 
REMARK    9  A    between atoms: C10_26  and  O5_31 
ROOT
HETATM    1  C1  UNL     1     132.037   5.385  74.535  1.00  0.00     0.680 A 
HETATM    2  N2  UNL     1     132.094   6.332  73.591  1.00  0.00    -0.174 N 
ATOM      3  H2  UNL     1     132.680   6.178  72.770  1.00  0.00     0.186 HD
HETATM    4  C2  UNL     1     131.390   7.502  73.695  1.00  0.00     0.155 A 
HETATM    5  C9  UNL     1     130.619   7.653  74.823  1.00  0.00     0.112 A 
HETATM    6  C11 UNL     1     130.553   6.672  75.813  1.00  0.00     0.274 A 
HETATM    7  O6  UNL     1     129.864   6.778  76.849  1.00  0.00    -0.267 OA
HETATM    8  N7  UNL     1     131.269   5.560  75.638  1.00  0.00    -0.156 N 
ATOM      9  H7  UNL     1     131.238   4.828  76.347  1.00  0.00     0.187 HD
ENDROOT
BRANCH   4  10
HETATM   10  N3  UNL     1     131.514   8.444  72.694  1.00  0.00    -0.250 N 
HETATM   11  N4  UNL     1     132.318   9.542  72.783  1.00  0.00    -0.314 N 
HETATM   12  C3  UNL     1     132.151  10.696  71.986  1.00  0.00     0.222 C 
ATOM     13  H4  UNL     1     133.081   9.529  73.460  1.00  0.00     0.181 HD
HETATM   14  C4  UNL     1     130.772  10.607  71.226  1.00  0.00     0.248 C 
HETATM   15  C6  UNL     1     133.031  10.534  70.717  1.00  0.00     0.169 C 
HETATM   16  O1  UNL     1     129.925  11.512  71.267  1.00  0.00    -0.271 OA
HETATM   17  N5  UNL     1     131.127   9.336  70.739  1.00  0.00    -0.320 N 
HETATM   18  C5  UNL     1     132.155   9.603  69.769  1.00  0.00     0.162 C 
HETATM   19  C7  UNL     1     130.715   8.155  71.416  1.00  0.00     0.267 C 
BRANCH  19  20
HETATM   20  C8  UNL     1     129.290   7.939  71.703  1.00  0.00     0.298 C 
BRANCH  20  21
HETATM   21  O3  UNL     1     128.454   8.850  71.102  1.00  0.00    -0.368 OA
ATOM     22  H3  UNL     1     128.079   9.485  71.701  1.00  0.00     0.212 HD
ENDBRANCH  20  21
BRANCH  20  23
HETATM   23  O4  UNL     1     128.848   6.637  71.444  1.00  0.00    -0.368 OA
ATOM     24  H4  UNL     1     128.196   6.321  72.059  1.00  0.00     0.212 HD
ENDBRANCH  20  23
ENDBRANCH  19  20
BRANCH  15  25
HETATM   25  O2  UNL     1     133.145  11.788  70.152  1.00  0.00    -0.391 OA
ATOM     26  H2  UNL     1     132.581  11.794  69.388  1.00  0.00     0.210 HD
ENDBRANCH  15  25
ENDBRANCH   4  10
BRANCH   5  27
HETATM   27  C10 UNL     1     129.813   8.862  75.057  1.00  0.00     0.359 C 
BRANCH  27  28
HETATM   28  N6  UNL     1     130.446   9.544  76.200  1.00  0.00    -0.048 N 
ATOM     29  H63 UNL     1     130.978   8.919  76.806  1.00  0.00     0.277 HD
ATOM     30  H62 UNL     1     131.224  10.148  75.938  1.00  0.00     0.277 HD
ATOM     31  H61 UNL     1     129.689  10.033  76.679  1.00  0.00     0.277 HD
ENDBRANCH  27  28
BRANCH  27  32
HETATM   32  O5  UNL     1     128.541   8.400  75.482  1.00  0.00    -0.366 OA
ATOM     33  H5  UNL     1     128.712   7.789  76.188  1.00  0.00     0.212 HD
ENDBRANCH  27  32
ENDBRANCH   5  27
BRANCH   1  34
HETATM   34  N1  UNL     1     132.737   4.287  74.374  1.00  0.00    -0.234 N 
ATOM     35  H12 UNL     1     133.542   4.270  73.749  1.00  0.00     0.174 HD
ATOM     36  H11 UNL     1     132.462   3.448  74.886  1.00  0.00     0.174 HD
ENDBRANCH   1  34
TORSDOF 9
ENDMDL
MODEL 4
REMARK VINA RESULT: -7.877522276      2.284      5.553
REMARK  9 active torsions:
REMARK  status: ('A' for Active; 'I' for Inactive)
REMARK    1  A    between atoms: N1_1  and  C1_4 
REMARK    2  A    between atoms: C2_7  and  N3_8 
REMARK    3  A    between atoms: C6_16  and  O2_17 
REMARK    4  A    between atoms: C7_19  and  C8_20 
REMARK    5  A    between atoms: C8_20  and  O3_21 
REMARK    6  A    between atoms: C8_20  and  O4_23 
REMARK    7  A    between atoms: C9_25  and  C10_26 
REMARK    8  A    between atoms: C10_26  and  N6_27 
REMARK    9  A    between atoms: C10_26  and  O5_31 
ROOT
HETATM    1  C1  UNL     1     134.254   6.046  74.517  1.00  0.00     0.680 A 
HETATM    2  N2  UNL     1     133.891   7.190  73.925  1.00  0.00    -0.174 N 
ATOM      3  H2  UNL     1     134.442   8.032  74.095  1.00  0.00     0.186 HD
HETATM    4  C2  UNL     1     132.802   7.264  73.098  1.00  0.00     0.155 A 
HETATM    5  C9  UNL     1     132.099   6.097  72.908  1.00  0.00     0.112 A 
HETATM    6  C11 UNL     1     132.470   4.900  73.521  1.00  0.00     0.274 A 
HETATM    7  O6  UNL     1     131.853   3.824  73.369  1.00  0.00    -0.267 OA
HETATM    8  N7  UNL     1     133.543   4.911  74.312  1.00  0.00    -0.156 N 
ATOM      9  H7  UNL     1     133.835   4.048  74.771  1.00  0.00     0.187 HD
ENDROOT
BRANCH   4  10
HETATM   10  N3  UNL     1     132.472   8.482  72.540  1.00  0.00    -0.250 N 
HETATM   11  N4  UNL     1     132.882   8.886  71.304  1.00  0.00    -0.314 N 
HETATM   12  C3  UNL     1     132.915  10.237  70.897  1.00  0.00     0.222 C 
ATOM     13  H4  UNL     1     133.181   8.174  70.638  1.00  0.00     0.181 HD
HETATM   14  C4  UNL     1     132.682  11.163  72.153  1.00  0.00     0.248 C 
HETATM   15  C6  UNL     1     131.558  10.565  70.216  1.00  0.00     0.169 C 
HETATM   16  O1  UNL     1     133.449  12.089  72.454  1.00  0.00    -0.271 OA
HETATM   17  N5  UNL     1     131.513  10.443  72.462  1.00  0.00    -0.320 N 
HETATM   18  C5  UNL     1     130.577  10.830  71.442  1.00  0.00     0.162 C 
HETATM   19  C7  UNL     1     131.547   9.365  73.390  1.00  0.00     0.267 C 
BRANCH  19  20
HETATM   20  C8  UNL     1     132.089   9.580  74.738  1.00  0.00     0.298 C 
BRANCH  20  21
HETATM   21  O3  UNL     1     132.034  10.888  75.161  1.00  0.00    -0.368 OA
ATOM     22  H3  UNL     1     132.386  11.028  76.033  1.00  0.00     0.212 HD
ENDBRANCH  20  21
BRANCH  20  23
HETATM   23  O4  UNL     1     131.546   8.736  75.713  1.00  0.00    -0.368 OA
ATOM     24  H4  UNL     1     130.674   8.985  75.998  1.00  0.00     0.212 HD
ENDBRANCH  20  23
ENDBRANCH  19  20
BRANCH  15  25
HETATM   25  O2  UNL     1     131.742  11.739  69.513  1.00  0.00    -0.391 OA
ATOM     26  H2  UNL     1     131.307  12.423  70.008  1.00  0.00     0.210 HD
ENDBRANCH  15  25
ENDBRANCH   4  10
BRANCH   5  27
HETATM   27  C10 UNL     1     130.909   6.040  72.043  1.00  0.00     0.359 C 
BRANCH  27  28
HETATM   28  N6  UNL     1     129.797   5.647  72.927  1.00  0.00    -0.048 N 
ATOM     29  H63 UNL     1     129.065   6.352  73.003  1.00  0.00     0.277 HD
ATOM     30  H62 UNL     1     129.211   4.906  72.543  1.00  0.00     0.277 HD
ATOM     31  H61 UNL     1     130.230   5.407  73.819  1.00  0.00     0.277 HD
ENDBRANCH  27  28
BRANCH  27  32
HETATM   32  O5  UNL     1     131.141   4.970  71.141  1.00  0.00    -0.366 OA
ATOM     33  H5  UNL     1     130.561   5.123  70.405  1.00  0.00     0.212 HD
ENDBRANCH  27  32
ENDBRANCH   5  27
BRANCH   1  34
HETATM   34  N1  UNL     1     135.309   6.043  75.297  1.00  0.00    -0.234 N 
ATOM     35  H12 UNL     1     135.247   6.381  76.257  1.00  0.00     0.174 HD
ATOM     36  H11 UNL     1     136.195   5.695  74.927  1.00  0.00     0.174 HD
ENDBRANCH   1  34
TORSDOF 9
ENDMDL
MODEL 5
REMARK VINA RESULT: -7.865712424      2.445      5.549
REMARK  9 active torsions:
REMARK  status: ('A' for Active; 'I' for Inactive)
REMARK    1  A    between atoms: N1_1  and  C1_4 
REMARK    2  A    between atoms: C2_7  and  N3_8 
REMARK    3  A    between atoms: C6_16  and  O2_17 
REMARK    4  A    between atoms: C7_19  and  C8_20 
REMARK    5  A    between atoms: C8_20  and  O3_21 
REMARK    6  A    between atoms: C8_20  and  O4_23 
REMARK    7  A    between atoms: C9_25  and  C10_26 
REMARK    8  A    between atoms: C10_26  and  N6_27 
REMARK    9  A    between atoms: C10_26  and  O5_31 
ROOT
HETATM    1  C1  UNL     1     132.548   5.264  73.444  1.00  0.00     0.680 A 
HETATM    2  N2  UNL     1     132.817   6.534  73.115  1.00  0.00    -0.174 N 
ATOM      3  H2  UNL     1     133.761   6.893  73.258  1.00  0.00     0.186 HD
HETATM    4  C2  UNL     1     131.862   7.365  72.593  1.00  0.00     0.155 A 
HETATM    5  C9  UNL     1     130.609   6.824  72.425  1.00  0.00     0.112 A 
HETATM    6  C11 UNL     1     130.319   5.502  72.764  1.00  0.00     0.274 A 
HETATM    7  O6  UNL     1     129.192   4.982  72.624  1.00  0.00    -0.267 OA
HETATM    8  N7  UNL     1     131.304   4.758  73.267  1.00  0.00    -0.156 N 
ATOM      9  H7  UNL     1     131.118   3.788  73.523  1.00  0.00     0.187 HD
ENDROOT
BRANCH   4  10
HETATM   10  N3  UNL     1     132.203   8.669  72.300  1.00  0.00    -0.250 N 
HETATM   11  N4  UNL     1     132.715   9.066  71.100  1.00  0.00    -0.314 N 
HETATM   12  C3  UNL     1     133.440  10.264  70.920  1.00  0.00     0.222 C 
ATOM     13  H4  UNL     1     132.565   8.467  70.288  1.00  0.00     0.181 HD
HETATM   14  C4  UNL     1     133.783  10.879  72.332  1.00  0.00     0.248 C 
HETATM   15  C6  UNL     1     132.436  11.376  70.514  1.00  0.00     0.169 C 
HETATM   16  O1  UNL     1     134.936  11.194  72.664  1.00  0.00    -0.271 OA
HETATM   17  N5  UNL     1     132.425  10.806  72.690  1.00  0.00    -0.320 N 
HETATM   18  C5  UNL     1     131.794  11.828  71.899  1.00  0.00     0.162 C 
HETATM   19  C7  UNL     1     131.921   9.688  73.412  1.00  0.00     0.267 C 
BRANCH  19  20
HETATM   20  C8  UNL     1     132.549   9.297  74.681  1.00  0.00     0.298 C 
BRANCH  20  21
HETATM   21  O3  UNL     1     131.809   8.407  75.422  1.00  0.00    -0.368 OA
ATOM     22  H3  UNL     1     130.869   8.515  75.331  1.00  0.00     0.212 HD
ENDBRANCH  20  21
BRANCH  20  23
HETATM   23  O4  UNL     1     133.863   8.836  74.548  1.00  0.00    -0.368 OA
ATOM     24  H4  UNL     1     134.239   8.982  73.687  1.00  0.00     0.212 HD
ENDBRANCH  20  23
ENDBRANCH  19  20
BRANCH  15  25
HETATM   25  O2  UNL     1     133.184  12.414  69.994  1.00  0.00    -0.391 OA
ATOM     26  H2  UNL     1     133.684  12.053  69.271  1.00  0.00     0.210 HD
ENDBRANCH  15  25
ENDBRANCH   4  10
BRANCH   5  27
HETATM   27  C10 UNL     1     129.492   7.610  71.873  1.00  0.00     0.359 C 
BRANCH  27  28
HETATM   28  N6  UNL     1     128.425   7.545  72.887  1.00  0.00    -0.048 N 
ATOM     29  H63 UNL     1     128.194   6.595  73.179  1.00  0.00     0.277 HD
ATOM     30  H62 UNL     1     128.710   7.887  73.805  1.00  0.00     0.277 HD
ATOM     31  H61 UNL     1     127.636   8.053  72.486  1.00  0.00     0.277 HD
ENDBRANCH  27  28
BRANCH  27  32
HETATM   32  O5  UNL     1     129.046   6.895  70.732  1.00  0.00    -0.366 OA
ATOM     33  H5  UNL     1     128.762   7.554  70.110  1.00  0.00     0.212 HD
ENDBRANCH  27  32
ENDBRANCH   5  27
BRANCH   1  34
HETATM   34  N1  UNL     1     133.510   4.520  73.939  1.00  0.00    -0.234 N 
ATOM     35  H12 UNL     1     134.457   4.887  74.028  1.00  0.00     0.174 HD
ATOM     36  H11 UNL     1     133.293   3.568  74.234  1.00  0.00     0.174 HD
ENDBRANCH   1  34
TORSDOF 9
ENDMDL
