MODEL 1
REMARK VINA RESULT: -8.812975592      0.000      0.000
REMARK  6 active torsions:
REMARK  status: ('A' for Active; 'I' for Inactive)
REMARK    1  A    between atoms: N1_1  and  N2_4 
REMARK    2  A    between atoms: C2_6  and  O1_7 
REMARK    3  A    between atoms: C3_9  and  O2_10 
REMARK    4  A    between atoms: C4_12  and  C5_13 
REMARK    5  A    between atoms: C5_13  and  O3_14 
REMARK    6  A    between atoms: O3_14  and  C6_15 
ROOT
HETATM    1  C6  UNL     1     135.906   7.289  73.506  1.00  0.00     0.255 C 
HETATM    2  C7  UNL     1     134.611   7.089  72.764  1.00  0.00     0.282 C 
HETATM    3  N3  UNL     1     134.262   5.731  72.529  1.00  0.00    -0.070 N 
ATOM      4  H31 UNL     1     133.917   5.256  73.363  1.00  0.00     0.277 HD
ATOM      5  H32 UNL     1     135.072   5.133  72.363  1.00  0.00     0.277 HD
HETATM    6  C8  UNL     1     133.297   5.715  71.416  1.00  0.00     0.260 C 
HETATM    7  C9  UNL     1     131.951   6.209  71.829  1.00  0.00     0.261 C 
HETATM    8  N4  UNL     1     131.344   7.091  70.818  1.00  0.00    -0.050 N 
ATOM      9  H41 UNL     1     130.329   7.005  70.768  1.00  0.00     0.279 HD
ATOM     10  H42 UNL     1     131.546   6.803  69.861  1.00  0.00     0.279 HD
HETATM   11  C10 UNL     1     131.782   8.414  71.110  1.00  0.00     0.462 C 
HETATM   12  N5  UNL     1     130.961   9.468  70.625  1.00  0.00    -0.050 N 
ATOM     13  H51 UNL     1     130.133   9.632  71.199  1.00  0.00     0.279 HD
ATOM     14  H52 UNL     1     130.472   9.233  69.760  1.00  0.00     0.279 HD
HETATM   15  C11 UNL     1     131.826  10.654  70.501  1.00  0.00     0.253 C 
HETATM   16  C12 UNL     1     132.430  11.038  71.824  1.00  0.00     0.142 C 
HETATM   17  N6  UNL     1     133.859  10.981  71.849  1.00  0.00    -0.406 N 
ATOM     18  H6  UNL     1     134.435  11.364  71.100  1.00  0.00     0.154 HD
HETATM   19  C13 UNL     1     134.417  10.348  73.001  1.00  0.00     0.246 C 
HETATM   20  N7  UNL     1     135.430   9.422  72.594  1.00  0.00    -0.127 NA
HETATM   21  N8  UNL     1     136.050   8.751  73.628  1.00  0.00    -0.113 NA
ENDROOT
BRANCH   1  22
HETATM   22  O3  UNL     1     135.786   6.715  74.755  1.00  0.00    -0.365 OA
BRANCH  22  23
HETATM   23  C5  UNL     1     136.524   7.385  75.713  1.00  0.00     0.194 C 
BRANCH  23  24
HETATM   24  C4  UNL     1     137.956   6.853  75.654  1.00  0.00     0.134 C 
HETATM   25  N2  UNL     1     138.803   7.751  76.422  1.00  0.00    -0.226 NA
HETATM   26  C1  UNL     1     138.724   7.353  77.793  1.00  0.00     0.148 C 
HETATM   27  C2  UNL     1     138.215   5.939  77.815  1.00  0.00     0.163 C 
HETATM   28  C3  UNL     1     138.009   5.534  76.378  1.00  0.00     0.169 C 
BRANCH  25  29
HETATM   29  N1  UNL     1     140.088   7.662  75.881  1.00  0.00    -0.363 NA
ATOM     30  H12 UNL     1     140.675   7.205  76.581  1.00  0.00     0.171 HD
ATOM     31  H11 UNL     1     140.509   8.566  75.669  1.00  0.00     0.171 HD
ENDBRANCH  25  29
BRANCH  27  32
HETATM   32  O1  UNL     1     137.056   5.826  78.553  1.00  0.00    -0.392 OA
ATOM     33  H1  UNL     1     136.283   5.948  78.016  1.00  0.00     0.210 HD
ENDBRANCH  27  32
BRANCH  28  34
HETATM   34  O2  UNL     1     136.859   4.809  76.186  1.00  0.00    -0.391 OA
ATOM     35  H2  UNL     1     136.622   4.728  75.270  1.00  0.00     0.210 HD
ENDBRANCH  28  34
ENDBRANCH  23  24
ENDBRANCH  22  23
ENDBRANCH   1  22
TORSDOF 6
ENDMDL
MODEL 2
REMARK VINA RESULT: -8.808819616      1.755      2.727
REMARK  6 active torsions:
REMARK  status: ('A' for Active; 'I' for Inactive)
REMARK    1  A    between atoms: N1_1  and  N2_4 
REMARK    2  A    between atoms: C2_6  and  O1_7 
REMARK    3  A    between atoms: C3_9  and  O2_10 
REMARK    4  A    between atoms: C4_12  and  C5_13 
REMARK    5  A    between atoms: C5_13  and  O3_14 
REMARK    6  A    between atoms: O3_14  and  C6_15 
ROOT
HETATM    1  C6  UNL     1     135.061   9.023  74.598  1.00  0.00     0.255 C 
HETATM    2  C7  UNL     1     134.423   9.023  73.233  1.00  0.00     0.282 C 
HETATM    3  N3  UNL     1     135.166   9.699  72.228  1.00  0.00    -0.070 N 
ATOM      4  H31 UNL     1     135.976   9.170  71.905  1.00  0.00     0.277 HD
ATOM      5  H32 UNL     1     135.672  10.511  72.582  1.00  0.00     0.277 HD
HETATM    6  C8  UNL     1     134.227  10.034  71.143  1.00  0.00     0.260 C 
HETATM    7  C9  UNL     1     133.836   8.835  70.345  1.00  0.00     0.261 C 
HETATM    8  N4  UNL     1     132.400   8.824  70.020  1.00  0.00    -0.050 N 
ATOM      9  H41 UNL     1     132.197   8.408  69.112  1.00  0.00     0.279 HD
ATOM     10  H42 UNL     1     132.025   9.752  69.824  1.00  0.00     0.279 HD
HETATM   11  C10 UNL     1     131.739   8.167  71.098  1.00  0.00     0.462 C 
HETATM   12  N5  UNL     1     130.475   7.589  70.800  1.00  0.00    -0.050 N 
ATOM     13  H51 UNL     1     130.546   6.693  70.318  1.00  0.00     0.279 HD
ATOM     14  H52 UNL     1     129.966   8.088  70.070  1.00  0.00     0.279 HD
HETATM   15  C11 UNL     1     129.738   7.508  72.073  1.00  0.00     0.253 C 
HETATM   16  C12 UNL     1     130.468   6.663  73.081  1.00  0.00     0.142 C 
HETATM   17  N6  UNL     1     130.851   7.370  74.264  1.00  0.00    -0.406 N 
ATOM     18  H6  UNL     1     130.216   7.996  74.757  1.00  0.00     0.154 HD
HETATM   19  C13 UNL     1     132.190   7.132  74.702  1.00  0.00     0.246 C 
HETATM   20  N7  UNL     1     132.820   8.380  75.011  1.00  0.00    -0.127 NA
HETATM   21  N8  UNL     1     134.122   8.276  75.454  1.00  0.00    -0.113 NA
ENDROOT
BRANCH   1  22
HETATM   22  O3  UNL     1     136.266   8.356  74.515  1.00  0.00    -0.365 OA
BRANCH  22  23
HETATM   23  C5  UNL     1     136.393   7.381  75.488  1.00  0.00     0.194 C 
BRANCH  23  24
HETATM   24  C4  UNL     1     137.827   6.854  75.433  1.00  0.00     0.134 C 
HETATM   25  N2  UNL     1     138.668   7.752  76.207  1.00  0.00    -0.226 NA
HETATM   26  C1  UNL     1     138.585   7.350  77.577  1.00  0.00     0.148 C 
HETATM   27  C2  UNL     1     138.079   5.934  77.592  1.00  0.00     0.163 C 
HETATM   28  C3  UNL     1     137.881   5.533  76.153  1.00  0.00     0.169 C 
BRANCH  25  29
HETATM   29  N1  UNL     1     139.955   7.668  75.672  1.00  0.00    -0.363 NA
ATOM     30  H12 UNL     1     139.959   6.881  75.024  1.00  0.00     0.171 HD
ATOM     31  H11 UNL     1     140.680   7.497  76.369  1.00  0.00     0.171 HD
ENDBRANCH  25  29
BRANCH  27  32
HETATM   32  O1  UNL     1     136.918   5.814  78.325  1.00  0.00    -0.392 OA
ATOM     33  H1  UNL     1     136.180   6.218  77.885  1.00  0.00     0.210 HD
ENDBRANCH  27  32
BRANCH  28  34
HETATM   34  O2  UNL     1     136.735   4.805  75.954  1.00  0.00    -0.391 OA
ATOM     35  H2  UNL     1     135.952   5.259  76.244  1.00  0.00     0.210 HD
ENDBRANCH  28  34
ENDBRANCH  23  24
ENDBRANCH  22  23
ENDBRANCH   1  22
TORSDOF 6
ENDMDL
MODEL 3
REMARK VINA RESULT: -8.767921742      2.760      3.775
REMARK  6 active torsions:
REMARK  status: ('A' for Active; 'I' for Inactive)
REMARK    1  A    between atoms: N1_1  and  N2_4 
REMARK    2  A    between atoms: C2_6  and  O1_7 
REMARK    3  A    between atoms: C3_9  and  O2_10 
REMARK    4  A    between atoms: C4_12  and  C5_13 
REMARK    5  A    between atoms: C5_13  and  O3_14 
REMARK    6  A    between atoms: O3_14  and  C6_15 
ROOT
HETATM    1  C6  UNL     1     134.257   3.945  74.467  1.00  0.00     0.255 C 
HETATM    2  C7  UNL     1     133.215   4.979  74.806  1.00  0.00     0.282 C 
HETATM    3  N3  UNL     1     132.850   5.030  76.179  1.00  0.00    -0.070 N 
ATOM      4  H31 UNL     1     133.557   5.477  76.764  1.00  0.00     0.277 HD
ATOM      5  H32 UNL     1     132.865   4.116  76.631  1.00  0.00     0.277 HD
HETATM    6  C8  UNL     1     131.536   5.692  76.256  1.00  0.00     0.260 C 
HETATM    7  C9  UNL     1     131.627   7.160  76.008  1.00  0.00     0.261 C 
HETATM    8  N4  UNL     1     130.533   7.652  75.154  1.00  0.00    -0.050 N 
ATOM      9  H41 UNL     1     130.234   8.597  75.390  1.00  0.00     0.279 HD
ATOM     10  H42 UNL     1     129.644   7.186  75.333  1.00  0.00     0.279 HD
HETATM   11  C10 UNL     1     130.973   7.522  73.805  1.00  0.00     0.462 C 
HETATM   12  N5  UNL     1     130.343   8.371  72.856  1.00  0.00    -0.050 N 
ATOM     13  H51 UNL     1     130.703   9.325  72.866  1.00  0.00     0.279 HD
ATOM     14  H52 UNL     1     129.377   8.597  73.095  1.00  0.00     0.279 HD
HETATM   15  C11 UNL     1     130.478   7.712  71.545  1.00  0.00     0.253 C 
HETATM   16  C12 UNL     1     131.923   7.508  71.177  1.00  0.00     0.142 C 
HETATM   17  N6  UNL     1     132.293   6.136  71.016  1.00  0.00    -0.406 N 
ATOM     18  H6  UNL     1     131.722   5.472  70.492  1.00  0.00     0.154 HD
HETATM   19  C13 UNL     1     133.522   5.765  71.643  1.00  0.00     0.246 C 
HETATM   20  N7  UNL     1     133.339   4.545  72.368  1.00  0.00    -0.127 NA
HETATM   21  N8  UNL     1     134.466   4.081  73.014  1.00  0.00    -0.113 NA
ENDROOT
BRANCH   1  22
HETATM   22  O3  UNL     1     135.417   4.257  75.147  1.00  0.00    -0.365 OA
BRANCH  22  23
HETATM   23  C5  UNL     1     135.916   5.496  74.791  1.00  0.00     0.194 C 
BRANCH  23  24
HETATM   24  C4  UNL     1     136.249   6.252  76.077  1.00  0.00     0.134 C 
HETATM   25  N2  UNL     1     137.176   5.442  76.849  1.00  0.00    -0.226 NA
HETATM   26  C1  UNL     1     138.494   5.713  76.364  1.00  0.00     0.148 C 
HETATM   27  C2  UNL     1     138.434   7.022  75.628  1.00  0.00     0.163 C 
HETATM   28  C3  UNL     1     137.008   7.502  75.718  1.00  0.00     0.169 C 
BRANCH  25  29
HETATM   29  N1  UNL     1     136.990   5.777  78.193  1.00  0.00    -0.363 NA
ATOM     30  H12 UNL     1     137.872   6.166  78.528  1.00  0.00     0.171 HD
ATOM     31  H11 UNL     1     136.759   4.981  78.786  1.00  0.00     0.171 HD
ENDBRANCH  25  29
BRANCH  27  32
HETATM   32  O1  UNL     1     138.852   6.892  74.320  1.00  0.00    -0.392 OA
ATOM     33  H1  UNL     1     139.437   6.152  74.209  1.00  0.00     0.210 HD
ENDBRANCH  27  32
BRANCH  28  34
HETATM   34  O2  UNL     1     136.551   8.048  74.545  1.00  0.00    -0.391 OA
ATOM     35  H2  UNL     1     135.629   8.274  74.576  1.00  0.00     0.210 HD
ENDBRANCH  28  34
ENDBRANCH  23  24
ENDBRANCH  22  23
ENDBRANCH   1  22
TORSDOF 6
ENDMDL
MODEL 4
REMARK VINA RESULT: -8.760146589      1.308      1.623
REMARK  6 active torsions:
REMARK  status: ('A' for Active; 'I' for Inactive)
REMARK    1  A    between atoms: N1_1  and  N2_4 
REMARK    2  A    between atoms: C2_6  and  O1_7 
REMARK    3  A    between atoms: C3_9  and  O2_10 
REMARK    4  A    between atoms: C4_12  and  C5_13 
REMARK    5  A    between atoms: C5_13  and  O3_14 
REMARK    6  A    between atoms: O3_14  and  C6_15 
ROOT
HETATM    1  C6  UNL     1     135.886   7.960  73.255  1.00  0.00     0.255 C 
HETATM    2  C7  UNL     1     134.734   8.291  72.344  1.00  0.00     0.282 C 
HETATM    3  N3  UNL     1     134.013   7.165  71.860  1.00  0.00    -0.070 N 
ATOM      4  H31 UNL     1     133.403   6.748  72.563  1.00  0.00     0.277 HD
ATOM      5  H32 UNL     1     134.606   6.350  71.700  1.00  0.00     0.277 HD
HETATM    6  C8  UNL     1     133.289   7.598  70.652  1.00  0.00     0.260 C 
HETATM    7  C9  UNL     1     132.122   8.470  70.975  1.00  0.00     0.261 C 
HETATM    8  N4  UNL     1     132.002   9.608  70.049  1.00  0.00    -0.050 N 
ATOM      9  H41 UNL     1     131.036   9.877  69.867  1.00  0.00     0.279 HD
ATOM     10  H42 UNL     1     132.256   9.374  69.090  1.00  0.00     0.279 HD
HETATM   11  C10 UNL     1     132.786  10.666  70.594  1.00  0.00     0.462 C 
HETATM   12  N5  UNL     1     132.435  11.982  70.185  1.00  0.00    -0.050 N 
ATOM     13  H51 UNL     1     131.621  12.352  70.675  1.00  0.00     0.279 HD
ATOM     14  H52 UNL     1     132.045  12.020  69.243  1.00  0.00     0.279 HD
HETATM   15  C11 UNL     1     133.641  12.811  70.351  1.00  0.00     0.253 C 
HETATM   16  C12 UNL     1     134.111  12.822  71.780  1.00  0.00     0.142 C 
HETATM   17  N6  UNL     1     135.423  12.283  71.965  1.00  0.00    -0.406 N 
ATOM     18  H6  UNL     1     136.206  12.527  71.358  1.00  0.00     0.154 HD
HETATM   19  C13 UNL     1     135.554  11.378  73.062  1.00  0.00     0.246 C 
HETATM   20  N7  UNL     1     136.271  10.214  72.638  1.00  0.00    -0.127 NA
HETATM   21  N8  UNL     1     136.466   9.265  73.621  1.00  0.00    -0.113 NA
ENDROOT
BRANCH   1  22
HETATM   22  O3  UNL     1     135.386   7.329  74.377  1.00  0.00    -0.365 OA
BRANCH  22  23
HETATM   23  C5  UNL     1     136.178   7.536  75.491  1.00  0.00     0.194 C 
BRANCH  23  24
HETATM   24  C4  UNL     1     137.530   6.872  75.231  1.00  0.00     0.134 C 
HETATM   25  N2  UNL     1     138.556   7.662  75.892  1.00  0.00    -0.226 NA
HETATM   26  C1  UNL     1     138.621   7.233  77.255  1.00  0.00     0.148 C 
HETATM   27  C2  UNL     1     137.982   5.874  77.322  1.00  0.00     0.163 C 
HETATM   28  C3  UNL     1     137.549   5.533  75.920  1.00  0.00     0.169 C 
BRANCH  25  29
HETATM   29  N1  UNL     1     139.743   7.467  75.182  1.00  0.00    -0.363 NA
ATOM     30  H12 UNL     1     140.510   7.590  75.844  1.00  0.00     0.171 HD
ATOM     31  H11 UNL     1     139.882   8.132  74.422  1.00  0.00     0.171 HD
ENDBRANCH  25  29
BRANCH  27  32
HETATM   32  O1  UNL     1     136.926   5.850  78.208  1.00  0.00    -0.392 OA
ATOM     33  H1  UNL     1     137.161   5.427  79.025  1.00  0.00     0.210 HD
ENDBRANCH  27  32
BRANCH  28  34
HETATM   34  O2  UNL     1     136.318   4.927  75.872  1.00  0.00    -0.391 OA
ATOM     35  H2  UNL     1     136.211   4.365  75.113  1.00  0.00     0.210 HD
ENDBRANCH  28  34
ENDBRANCH  23  24
ENDBRANCH  22  23
ENDBRANCH   1  22
TORSDOF 6
ENDMDL
MODEL 5
REMARK VINA RESULT: -8.756708894      3.300      6.802
REMARK  6 active torsions:
REMARK  status: ('A' for Active; 'I' for Inactive)
REMARK    1  A    between atoms: N1_1  and  N2_4 
REMARK    2  A    between atoms: C2_6  and  O1_7 
REMARK    3  A    between atoms: C3_9  and  O2_10 
REMARK    4  A    between atoms: C4_12  and  C5_13 
REMARK    5  A    between atoms: C5_13  and  O3_14 
REMARK    6  A    between atoms: O3_14  and  C6_15 
ROOT
HETATM    1  C6  UNL     1     133.860   6.467  74.809  1.00  0.00     0.255 C 
HETATM    2  C7  UNL     1     134.561   7.510  73.980  1.00  0.00     0.282 C 
HETATM    3  N3  UNL     1     133.719   8.228  73.088  1.00  0.00    -0.070 N 
ATOM      4  H31 UNL     1     133.136   8.921  73.558  1.00  0.00     0.277 HD
ATOM      5  H32 UNL     1     132.964   7.659  72.706  1.00  0.00     0.277 HD
HETATM    6  C8  UNL     1     134.584   8.813  72.048  1.00  0.00     0.260 C 
HETATM    7  C9  UNL     1     135.380   9.967  72.560  1.00  0.00     0.261 C 
HETATM    8  N4  UNL     1     136.769   9.948  72.072  1.00  0.00    -0.050 N 
ATOM      9  H41 UNL     1     137.153  10.879  71.918  1.00  0.00     0.279 HD
ATOM     10  H42 UNL     1     136.853   9.614  71.112  1.00  0.00     0.279 HD
HETATM   11  C10 UNL     1     137.522   9.176  73.002  1.00  0.00     0.462 C 
HETATM   12  N5  UNL     1     138.920   9.429  73.041  1.00  0.00    -0.050 N 
ATOM     13  H51 UNL     1     139.163  10.269  73.565  1.00  0.00     0.279 HD
ATOM     14  H52 UNL     1     139.302   9.724  72.142  1.00  0.00     0.279 HD
HETATM   15  C11 UNL     1     139.555   8.209  73.571  1.00  0.00     0.253 C 
HETATM   16  C12 UNL     1     139.051   7.879  74.950  1.00  0.00     0.142 C 
HETATM   17  N6  UNL     1     138.387   6.616  75.039  1.00  0.00    -0.406 N 
ATOM     18  H6  UNL     1     138.762   5.769  74.614  1.00  0.00     0.154 HD
HETATM   19  C13 UNL     1     137.159   6.631  75.768  1.00  0.00     0.246 C 
HETATM   20  N7  UNL     1     136.155   5.927  75.028  1.00  0.00    -0.127 NA
HETATM   21  N8  UNL     1     134.920   5.868  75.641  1.00  0.00    -0.113 NA
ENDROOT
BRANCH   1  22
HETATM   22  O3  UNL     1     132.928   7.099  75.606  1.00  0.00    -0.365 OA
BRANCH  22  23
HETATM   23  C5  UNL     1     131.786   6.338  75.783  1.00  0.00     0.194 C 
BRANCH  23  24
HETATM   24  C4  UNL     1     130.582   7.226  75.470  1.00  0.00     0.134 C 
HETATM   25  N2  UNL     1     130.692   7.666  74.089  1.00  0.00    -0.226 NA
HETATM   26  C1  UNL     1     130.135   6.640  73.262  1.00  0.00     0.148 C 
HETATM   27  C2  UNL     1     129.261   5.790  74.142  1.00  0.00     0.163 C 
HETATM   28  C3  UNL     1     129.336   6.384  75.525  1.00  0.00     0.169 C 
BRANCH  25  29
HETATM   29  N1  UNL     1     130.025   8.890  73.995  1.00  0.00    -0.363 NA
ATOM     30  H12 UNL     1     129.110   8.700  73.586  1.00  0.00     0.171 HD
ATOM     31  H11 UNL     1     130.495   9.569  73.397  1.00  0.00     0.171 HD
ENDBRANCH  25  29
BRANCH  27  32
HETATM   32  O1  UNL     1     129.654   4.468  74.127  1.00  0.00    -0.392 OA
ATOM     33  H1  UNL     1     129.466   4.036  74.951  1.00  0.00     0.210 HD
ENDBRANCH  27  32
BRANCH  28  34
HETATM   34  O2  UNL     1     129.415   5.433  76.512  1.00  0.00    -0.391 OA
ATOM     35  H2  UNL     1     128.781   5.566  77.206  1.00  0.00     0.210 HD
ENDBRANCH  28  34
ENDBRANCH  23  24
ENDBRANCH  22  23
ENDBRANCH   1  22
TORSDOF 6
ENDMDL
