MODEL 1
REMARK VINA RESULT: -8.909570852      0.000      0.000
REMARK  5 active torsions:
REMARK  status: ('A' for Active; 'I' for Inactive)
REMARK       I    between atoms: C1_2  and  N1_3 
REMARK    1  A    between atoms: C1_2  and  C14_18 
REMARK    2  A    between atoms: N1_3  and  C2_5 
REMARK    3  A    between atoms: C2_5  and  C3_6 
REMARK    4  A    between atoms: C3_6  and  C4_7 
REMARK    5  A    between atoms: N2_10  and  C7_11 
ROOT
HETATM    1  C3  UNL     1      45.018 -17.445  44.555  1.00  0.00     0.026 C 
ENDROOT
BRANCH   1   2
HETATM    2  C2  UNL     1      44.671 -16.773  43.267  1.00  0.00     0.123 C 
BRANCH   2   3
HETATM    3  N1  UNL     1      43.623 -15.803  43.458  1.00  0.00    -0.357 N 
HETATM    4  C1  UNL     1      42.268 -16.073  43.219  1.00  0.00     0.247 C 
HETATM    5  O1  UNL     1      41.911 -17.224  42.822  1.00  0.00    -0.268 OA
ATOM      6  H1  UNL     1      43.879 -14.871  43.783  1.00  0.00     0.162 HD
BRANCH   4   7
HETATM    7  C14 UNL     1      41.229 -15.080  43.409  1.00  0.00     0.006 C 
HETATM    8  C15 UNL     1      39.946 -15.361  43.464  1.00  0.00    -0.014 C 
HETATM    9  C16 UNL     1      39.019 -14.206  43.664  1.00  0.00     0.028 C 
HETATM   10  C17 UNL     1      39.444 -13.343  44.819  1.00  0.00     0.004 C 
HETATM   11  C18 UNL     1      40.936 -13.078  44.811  1.00  0.00     0.005 C 
HETATM   12  C19 UNL     1      41.585 -13.630  43.557  1.00  0.00     0.044 C 
ENDBRANCH   4   7
ENDBRANCH   2   3
ENDBRANCH   1   2
BRANCH   1  13
HETATM   13  C4  UNL     1      44.998 -18.960  44.420  1.00  0.00     0.017 C 
HETATM   14  C5  UNL     1      44.974 -19.340  42.955  1.00  0.00     0.036 C 
HETATM   15  C6  UNL     1      44.223 -20.658  42.975  1.00  0.00     0.273 C 
HETATM   16  N2  UNL     1      43.419 -20.679  44.144  1.00  0.00     0.093 N 
HETATM   17  C13 UNL     1      43.666 -19.513  44.911  1.00  0.00     0.277 C 
BRANCH  16  18
HETATM   18  C7  UNL     1      42.049 -21.019  43.960  1.00  0.00     0.223 C 
HETATM   19  C8  UNL     1      41.749 -22.465  44.305  1.00  0.00     0.036 C 
HETATM   20  C9  UNL     1      40.250 -22.523  44.590  1.00  0.00     0.002 C 
HETATM   21  C10 UNL     1      39.463 -21.960  43.443  1.00  0.00     0.000 C 
HETATM   22  C11 UNL     1      40.300 -21.575  42.268  1.00  0.00     0.002 C 
HETATM   23  C12 UNL     1      41.502 -20.753  42.597  1.00  0.00     0.036 C 
ENDBRANCH  16  18
ENDBRANCH   1  13
TORSDOF 5
ENDMDL
MODEL 2
REMARK VINA RESULT: -8.748237359      0.494      1.084
REMARK  5 active torsions:
REMARK  status: ('A' for Active; 'I' for Inactive)
REMARK       I    between atoms: C1_2  and  N1_3 
REMARK    1  A    between atoms: C1_2  and  C14_18 
REMARK    2  A    between atoms: N1_3  and  C2_5 
REMARK    3  A    between atoms: C2_5  and  C3_6 
REMARK    4  A    between atoms: C3_6  and  C4_7 
REMARK    5  A    between atoms: N2_10  and  C7_11 
ROOT
HETATM    1  C3  UNL     1      44.882 -17.471  44.500  1.00  0.00     0.026 C 
ENDROOT
BRANCH   1   2
HETATM    2  C2  UNL     1      44.601 -16.734  43.233  1.00  0.00     0.123 C 
BRANCH   2   3
HETATM    3  N1  UNL     1      43.562 -15.754  43.426  1.00  0.00    -0.357 N 
HETATM    4  C1  UNL     1      42.201 -16.021  43.216  1.00  0.00     0.247 C 
HETATM    5  O1  UNL     1      41.832 -17.176  42.844  1.00  0.00    -0.268 OA
ATOM      6  H1  UNL     1      43.829 -14.819  43.731  1.00  0.00     0.162 HD
BRANCH   4   7
HETATM    7  C14 UNL     1      41.171 -15.019  43.408  1.00  0.00     0.006 C 
HETATM    8  C15 UNL     1      39.884 -15.286  43.443  1.00  0.00    -0.014 C 
HETATM    9  C16 UNL     1      38.968 -14.124  43.648  1.00  0.00     0.028 C 
HETATM   10  C17 UNL     1      39.388 -13.282  44.820  1.00  0.00     0.004 C 
HETATM   11  C18 UNL     1      40.883 -13.034  44.834  1.00  0.00     0.005 C 
HETATM   12  C19 UNL     1      41.542 -13.576  43.580  1.00  0.00     0.044 C 
ENDBRANCH   4   7
ENDBRANCH   2   3
ENDBRANCH   1   2
BRANCH   1  13
HETATM   13  C4  UNL     1      45.016 -18.967  44.260  1.00  0.00     0.017 C 
HETATM   14  C5  UNL     1      44.830 -19.265  42.788  1.00  0.00     0.036 C 
HETATM   15  C6  UNL     1      44.246 -20.664  42.812  1.00  0.00     0.273 C 
HETATM   16  N2  UNL     1      43.621 -20.850  44.073  1.00  0.00     0.093 N 
HETATM   17  C13 UNL     1      43.839 -19.706  44.883  1.00  0.00     0.277 C 
BRANCH  16  18
HETATM   18  C7  UNL     1      42.287 -21.345  44.049  1.00  0.00     0.223 C 
HETATM   19  C8  UNL     1      41.460 -20.758  42.922  1.00  0.00     0.036 C 
HETATM   20  C9  UNL     1      40.315 -21.740  42.690  1.00  0.00     0.002 C 
HETATM   21  C10 UNL     1      39.567 -22.004  43.964  1.00  0.00     0.000 C 
HETATM   22  C11 UNL     1      40.038 -21.186  45.121  1.00  0.00     0.002 C 
HETATM   23  C12 UNL     1      41.518 -21.171  45.317  1.00  0.00     0.036 C 
ENDBRANCH  16  18
ENDBRANCH   1  13
TORSDOF 5
ENDMDL
MODEL 3
REMARK VINA RESULT: -8.734060822      1.468      2.044
REMARK  5 active torsions:
REMARK  status: ('A' for Active; 'I' for Inactive)
REMARK       I    between atoms: C1_2  and  N1_3 
REMARK    1  A    between atoms: C1_2  and  C14_18 
REMARK    2  A    between atoms: N1_3  and  C2_5 
REMARK    3  A    between atoms: C2_5  and  C3_6 
REMARK    4  A    between atoms: C3_6  and  C4_7 
REMARK    5  A    between atoms: N2_10  and  C7_11 
ROOT
HETATM    1  C3  UNL     1      44.351 -17.886  43.014  1.00  0.00     0.026 C 
ENDROOT
BRANCH   1   2
HETATM    2  C2  UNL     1      44.422 -16.424  42.723  1.00  0.00     0.123 C 
BRANCH   2   3
HETATM    3  N1  UNL     1      43.312 -15.726  43.321  1.00  0.00    -0.357 N 
HETATM    4  C1  UNL     1      42.145 -15.387  42.621  1.00  0.00     0.247 C 
HETATM    5  O1  UNL     1      42.025 -15.704  41.398  1.00  0.00    -0.268 OA
ATOM      6  H1  UNL     1      43.378 -15.464  44.304  1.00  0.00     0.162 HD
BRANCH   4   7
HETATM    7  C14 UNL     1      41.043 -14.676  43.239  1.00  0.00     0.006 C 
HETATM    8  C15 UNL     1      40.006 -15.267  43.790  1.00  0.00    -0.014 C 
HETATM    9  C16 UNL     1      38.965 -14.371  44.377  1.00  0.00     0.028 C 
HETATM   10  C17 UNL     1      39.565 -13.343  45.295  1.00  0.00     0.004 C 
HETATM   11  C18 UNL     1      40.809 -12.712  44.703  1.00  0.00     0.005 C 
HETATM   12  C19 UNL     1      41.036 -13.177  43.278  1.00  0.00     0.044 C 
ENDBRANCH   4   7
ENDBRANCH   2   3
ENDBRANCH   1   2
BRANCH   1  13
HETATM   13  C4  UNL     1      43.527 -18.170  44.260  1.00  0.00     0.017 C 
HETATM   14  C5  UNL     1      44.415 -18.760  45.335  1.00  0.00     0.036 C 
HETATM   15  C6  UNL     1      43.448 -19.637  46.108  1.00  0.00     0.273 C 
HETATM   16  N2  UNL     1      42.380 -19.975  45.236  1.00  0.00     0.093 N 
HETATM   17  C13 UNL     1      42.551 -19.310  43.996  1.00  0.00     0.277 C 
BRANCH  16  18
HETATM   18  C7  UNL     1      42.045 -21.356  45.156  1.00  0.00     0.223 C 
HETATM   19  C8  UNL     1      40.675 -21.665  45.726  1.00  0.00     0.036 C 
HETATM   20  C9  UNL     1      40.249 -22.988  45.095  1.00  0.00     0.002 C 
HETATM   21  C10 UNL     1      41.289 -24.048  45.313  1.00  0.00     0.000 C 
HETATM   22  C11 UNL     1      42.431 -23.605  46.168  1.00  0.00     0.002 C 
HETATM   23  C12 UNL     1      43.024 -22.289  45.790  1.00  0.00     0.036 C 
ENDBRANCH  16  18
ENDBRANCH   1  13
TORSDOF 5
ENDMDL
MODEL 4
REMARK VINA RESULT: -8.645633031      1.886      3.134
REMARK  5 active torsions:
REMARK  status: ('A' for Active; 'I' for Inactive)
REMARK       I    between atoms: C1_2  and  N1_3 
REMARK    1  A    between atoms: C1_2  and  C14_18 
REMARK    2  A    between atoms: N1_3  and  C2_5 
REMARK    3  A    between atoms: C2_5  and  C3_6 
REMARK    4  A    between atoms: C3_6  and  C4_7 
REMARK    5  A    between atoms: N2_10  and  C7_11 
ROOT
HETATM    1  C3  UNL     1      43.444 -17.039  39.710  1.00  0.00     0.026 C 
ENDROOT
BRANCH   1   2
HETATM    2  C2  UNL     1      43.818 -16.191  40.880  1.00  0.00     0.123 C 
BRANCH   2   3
HETATM    3  N1  UNL     1      42.672 -15.475  41.384  1.00  0.00    -0.357 N 
HETATM    4  C1  UNL     1      42.383 -15.345  42.750  1.00  0.00     0.247 C 
HETATM    5  O1  UNL     1      43.153 -15.865  43.614  1.00  0.00    -0.268 OA
ATOM      6  H1  UNL     1      42.039 -15.041  40.713  1.00  0.00     0.162 HD
BRANCH   4   7
HETATM    7  C14 UNL     1      41.220 -14.628  43.236  1.00  0.00     0.006 C 
HETATM    8  C15 UNL     1      40.086 -15.205  43.564  1.00  0.00    -0.014 C 
HETATM    9  C16 UNL     1      38.995 -14.305  44.045  1.00  0.00     0.028 C 
HETATM   10  C17 UNL     1      39.473 -13.377  45.126  1.00  0.00     0.004 C 
HETATM   11  C18 UNL     1      40.820 -12.766  44.795  1.00  0.00     0.005 C 
HETATM   12  C19 UNL     1      41.262 -13.137  43.393  1.00  0.00     0.044 C 
ENDBRANCH   4   7
ENDBRANCH   2   3
ENDBRANCH   1   2
BRANCH   1  13
HETATM   13  C4  UNL     1      43.252 -18.494  40.111  1.00  0.00     0.017 C 
HETATM   14  C5  UNL     1      41.818 -18.718  40.539  1.00  0.00     0.036 C 
HETATM   15  C6  UNL     1      41.954 -19.837  41.553  1.00  0.00     0.273 C 
HETATM   16  N2  UNL     1      43.276 -19.796  42.068  1.00  0.00     0.093 N 
HETATM   17  C13 UNL     1      44.015 -18.789  41.396  1.00  0.00     0.277 C 
BRANCH  16  18
HETATM   18  C7  UNL     1      43.401 -19.811  43.486  1.00  0.00     0.223 C 
HETATM   19  C8  UNL     1      42.216 -19.180  44.189  1.00  0.00     0.036 C 
HETATM   20  C9  UNL     1      42.224 -19.744  45.608  1.00  0.00     0.002 C 
HETATM   21  C10 UNL     1      43.553 -19.524  46.267  1.00  0.00     0.000 C 
HETATM   22  C11 UNL     1      44.512 -18.729  45.443  1.00  0.00     0.002 C 
HETATM   23  C12 UNL     1      44.642 -19.179  44.025  1.00  0.00     0.036 C 
ENDBRANCH  16  18
ENDBRANCH   1  13
TORSDOF 5
ENDMDL
MODEL 5
REMARK VINA RESULT: -8.589513150      2.204      3.037
REMARK  5 active torsions:
REMARK  status: ('A' for Active; 'I' for Inactive)
REMARK       I    between atoms: C1_2  and  N1_3 
REMARK    1  A    between atoms: C1_2  and  C14_18 
REMARK    2  A    between atoms: N1_3  and  C2_5 
REMARK    3  A    between atoms: C2_5  and  C3_6 
REMARK    4  A    between atoms: C3_6  and  C4_7 
REMARK    5  A    between atoms: N2_10  and  C7_11 
ROOT
HETATM    1  C3  UNL     1      41.757 -19.024  40.619  1.00  0.00     0.026 C 
ENDROOT
BRANCH   1   2
HETATM    2  C2  UNL     1      40.679 -18.810  41.630  1.00  0.00     0.123 C 
BRANCH   2   3
HETATM    3  N1  UNL     1      40.938 -17.630  42.417  1.00  0.00    -0.357 N 
HETATM    4  C1  UNL     1      39.961 -16.667  42.708  1.00  0.00     0.247 C 
HETATM    5  O1  UNL     1      38.777 -16.816  42.280  1.00  0.00    -0.268 OA
ATOM      6  H1  UNL     1      41.880 -17.487  42.780  1.00  0.00     0.162 HD
BRANCH   4   7
HETATM    7  C14 UNL     1      40.244 -15.482  43.494  1.00  0.00     0.006 C 
HETATM    8  C15 UNL     1      41.356 -14.787  43.400  1.00  0.00    -0.014 C 
HETATM    9  C16 UNL     1      41.472 -13.594  44.292  1.00  0.00     0.028 C 
HETATM   10  C17 UNL     1      40.261 -12.709  44.203  1.00  0.00     0.004 C 
HETATM   11  C18 UNL     1      38.973 -13.507  44.230  1.00  0.00     0.005 C 
HETATM   12  C19 UNL     1      39.242 -14.976  44.489  1.00  0.00     0.044 C 
ENDBRANCH   4   7
ENDBRANCH   2   3
ENDBRANCH   1   2
BRANCH   1  13
HETATM   13  C4  UNL     1      42.817 -19.989  41.127  1.00  0.00     0.017 C 
HETATM   14  C5  UNL     1      42.696 -21.309  40.397  1.00  0.00     0.036 C 
HETATM   15  C6  UNL     1      43.194 -22.299  41.432  1.00  0.00     0.273 C 
HETATM   16  N2  UNL     1      43.011 -21.713  42.712  1.00  0.00     0.093 N 
HETATM   17  C13 UNL     1      42.514 -20.394  42.563  1.00  0.00     0.277 C 
BRANCH  16  18
HETATM   18  C7  UNL     1      42.350 -22.517  43.684  1.00  0.00     0.223 C 
HETATM   19  C8  UNL     1      41.187 -21.804  44.347  1.00  0.00     0.036 C 
HETATM   20  C9  UNL     1      40.288 -22.903  44.905  1.00  0.00     0.002 C 
HETATM   21  C10 UNL     1      41.061 -23.833  45.793  1.00  0.00     0.000 C 
HETATM   22  C11 UNL     1      42.481 -23.420  46.007  1.00  0.00     0.002 C 
HETATM   23  C12 UNL     1      43.225 -23.064  44.763  1.00  0.00     0.036 C 
ENDBRANCH  16  18
ENDBRANCH   1  13
TORSDOF 5
ENDMDL
