MODEL 1
REMARK VINA RESULT: -8.788657215      0.000      0.000
REMARK  7 active torsions:
REMARK  status: ('A' for Active; 'I' for Inactive)
REMARK    1  A    between atoms: C2_2  and  C4_4 
REMARK    2  A    between atoms: C21_21  and  C22_22 
REMARK    3  A    between atoms: C22_22  and  C23_23 
REMARK       I    between atoms: C23_23  and  N1_25 
REMARK    4  A    between atoms: N1_25  and  C24_27 
REMARK    5  A    between atoms: C24_27  and  C25_28 
REMARK    6  A    between atoms: C25_28  and  C26_29 
REMARK    7  A    between atoms: C26_29  and  N2_30 
ROOT
HETATM    1  C4  UNL     1      -4.694   2.783  15.575  1.00  0.00    -0.066 C 
HETATM    2  C5  UNL     1      -4.297   1.520  14.904  1.00  0.00     0.036 C 
HETATM    3  C6  UNL     1      -3.514   1.848  13.645  1.00  0.00     0.015 C 
HETATM    4  C7  UNL     1      -4.016   3.259  13.388  1.00  0.00    -0.029 C 
HETATM    5  C8  UNL     1      -5.417   2.952  12.832  1.00  0.00     0.016 C 
HETATM    6  C9  UNL     1      -3.411   3.942  12.218  1.00  0.00    -0.001 C 
HETATM    7  C10 UNL     1      -4.328   4.929  11.509  1.00  0.00     0.006 C 
HETATM    8  C11 UNL     1      -4.479   6.228  12.222  1.00  0.00     0.006 C 
HETATM    9  C12 UNL     1      -3.272   6.585  13.065  1.00  0.00    -0.006 C 
HETATM   10  C13 UNL     1      -3.439   6.308  14.492  1.00  0.00     0.006 C 
HETATM   11  C14 UNL     1      -4.331   5.214  14.957  1.00  0.00     0.015 C 
HETATM   12  C15 UNL     1      -3.967   3.809  14.728  1.00  0.00    -0.012 C 
HETATM   13  C16 UNL     1      -2.596   3.701  15.430  1.00  0.00     0.021 C 
HETATM   14  C17 UNL     1      -2.058   6.035  12.353  1.00  0.00    -0.036 C 
HETATM   15  C18 UNL     1      -1.986   6.799  11.061  1.00  0.00     0.016 C 
HETATM   16  C19 UNL     1      -0.737   6.338  13.025  1.00  0.00     0.010 C 
HETATM   17  C20 UNL     1       0.321   5.925  11.986  1.00  0.00     0.006 C 
HETATM   18  C21 UNL     1       0.217   4.495  11.607  1.00  0.00    -0.005 C 
HETATM   19  C31 UNL     1      -1.142   4.074  11.120  1.00  0.00     0.011 C 
HETATM   20  C32 UNL     1      -2.081   4.538  12.255  1.00  0.00    -0.001 C 
ENDROOT
BRANCH  18  21
HETATM   21  C22 UNL     1       1.378   4.037  10.824  1.00  0.00     0.107 C 
BRANCH  21  22
HETATM   22  C23 UNL     1       1.873   4.900   9.742  1.00  0.00     0.217 C 
HETATM   23  O1  UNL     1       2.800   5.702   9.891  1.00  0.00    -0.274 OA
HETATM   24  N1  UNL     1       1.254   4.797   8.485  1.00  0.00    -0.361 N 
ATOM     25  H1  UNL     1       0.489   4.135   8.355  1.00  0.00     0.162 HD
BRANCH  24  26
HETATM   26  C24 UNL     1       1.680   5.604   7.387  1.00  0.00     0.124 C 
BRANCH  26  27
HETATM   27  C25 UNL     1       2.382   4.874   6.279  1.00  0.00     0.050 C 
BRANCH  27  28
HETATM   28  C26 UNL     1       3.751   4.398   6.712  1.00  0.00     0.274 C 
BRANCH  28  29
HETATM   29  N2  UNL     1       4.106   3.120   6.130  1.00  0.00     0.092 N 
HETATM   30  C27 UNL     1       3.280   2.064   6.722  1.00  0.00     0.298 C 
HETATM   31  C28 UNL     1       3.505   1.917   8.190  1.00  0.00     0.198 C 
HETATM   32  O2  UNL     1       4.859   1.778   8.492  1.00  0.00    -0.388 OA
HETATM   33  C29 UNL     1       5.613   1.599   7.315  1.00  0.00     0.198 C 
HETATM   34  C30 UNL     1       5.507   2.829   6.410  1.00  0.00     0.298 C 
ENDBRANCH  28  29
ENDBRANCH  27  28
ENDBRANCH  26  27
ENDBRANCH  24  26
ENDBRANCH  21  22
ENDBRANCH  18  21
BRANCH   1  35
HETATM   35  C2  UNL     1      -5.980   2.983  16.126  1.00  0.00    -0.068 C 
HETATM   36  C1  UNL     1      -6.528   4.163  16.189  1.00  0.00     0.018 C 
HETATM   37  C3  UNL     1      -6.877   1.901  16.665  1.00  0.00     0.047 C 
ENDBRANCH   1  35
TORSDOF 7
ENDMDL
MODEL 2
REMARK VINA RESULT: -8.682982931      5.038      8.985
REMARK  7 active torsions:
REMARK  status: ('A' for Active; 'I' for Inactive)
REMARK    1  A    between atoms: C2_2  and  C4_4 
REMARK    2  A    between atoms: C21_21  and  C22_22 
REMARK    3  A    between atoms: C22_22  and  C23_23 
REMARK       I    between atoms: C23_23  and  N1_25 
REMARK    4  A    between atoms: N1_25  and  C24_27 
REMARK    5  A    between atoms: C24_27  and  C25_28 
REMARK    6  A    between atoms: C25_28  and  C26_29 
REMARK    7  A    between atoms: C26_29  and  N2_30 
ROOT
HETATM    1  C4  UNL     1      -7.970   8.448   8.306  1.00  0.00    -0.066 C 
HETATM    2  C5  UNL     1      -7.983   6.963   8.303  1.00  0.00     0.036 C 
HETATM    3  C6  UNL     1      -6.597   6.451   8.651  1.00  0.00     0.015 C 
HETATM    4  C7  UNL     1      -5.768   7.662   8.260  1.00  0.00    -0.029 C 
HETATM    5  C8  UNL     1      -5.792   7.528   6.728  1.00  0.00     0.016 C 
HETATM    6  C9  UNL     1      -4.311   7.540   8.514  1.00  0.00    -0.001 C 
HETATM    7  C10 UNL     1      -3.426   8.298   7.535  1.00  0.00     0.006 C 
HETATM    8  C11 UNL     1      -3.371   9.766   7.785  1.00  0.00     0.006 C 
HETATM    9  C12 UNL     1      -3.602  10.127   9.237  1.00  0.00    -0.006 C 
HETATM   10  C13 UNL     1      -4.959  10.593   9.527  1.00  0.00     0.006 C 
HETATM   11  C14 UNL     1      -6.114  10.123   8.721  1.00  0.00     0.015 C 
HETATM   12  C15 UNL     1      -6.573   8.730   8.820  1.00  0.00    -0.012 C 
HETATM   13  C16 UNL     1      -6.891   8.589  10.325  1.00  0.00     0.021 C 
HETATM   14  C17 UNL     1      -3.023   9.006  10.069  1.00  0.00    -0.036 C 
HETATM   15  C18 UNL     1      -1.546   9.041   9.792  1.00  0.00     0.016 C 
HETATM   16  C19 UNL     1      -3.113   9.214  11.565  1.00  0.00     0.010 C 
HETATM   17  C20 UNL     1      -2.230   8.101  12.157  1.00  0.00     0.006 C 
HETATM   18  C21 UNL     1      -2.685   6.745  11.764  1.00  0.00    -0.005 C 
HETATM   19  C31 UNL     1      -2.817   6.533  10.281  1.00  0.00     0.011 C 
HETATM   20  C32 UNL     1      -3.726   7.701   9.840  1.00  0.00    -0.001 C 
ENDROOT
BRANCH  18  21
HETATM   21  C22 UNL     1      -2.012   5.684  12.533  1.00  0.00     0.107 C 
BRANCH  21  22
HETATM   22  C23 UNL     1      -2.709   5.119  13.698  1.00  0.00     0.217 C 
HETATM   23  O1  UNL     1      -2.331   4.096  14.277  1.00  0.00    -0.274 OA
HETATM   24  N1  UNL     1      -3.856   5.783  14.162  1.00  0.00    -0.361 N 
ATOM     25  H1  UNL     1      -4.173   6.629  13.689  1.00  0.00     0.162 HD
BRANCH  24  26
HETATM   26  C24 UNL     1      -4.586   5.292  15.287  1.00  0.00     0.124 C 
BRANCH  26  27
HETATM   27  C25 UNL     1      -5.891   4.619  14.969  1.00  0.00     0.050 C 
BRANCH  27  28
HETATM   28  C26 UNL     1      -5.811   3.125  15.194  1.00  0.00     0.274 C 
BRANCH  28  29
HETATM   29  N2  UNL     1      -5.142   2.783  16.432  1.00  0.00     0.092 N 
HETATM   30  C27 UNL     1      -4.064   1.828  16.160  1.00  0.00     0.298 C 
HETATM   31  C28 UNL     1      -4.568   0.539  15.603  1.00  0.00     0.198 C 
HETATM   32  O2  UNL     1      -5.584  -0.001  16.393  1.00  0.00    -0.388 OA
HETATM   33  C29 UNL     1      -5.698   0.708  17.605  1.00  0.00     0.198 C 
HETATM   34  C30 UNL     1      -6.094   2.164  17.346  1.00  0.00     0.298 C 
ENDBRANCH  28  29
ENDBRANCH  27  28
ENDBRANCH  26  27
ENDBRANCH  24  26
ENDBRANCH  21  22
ENDBRANCH  18  21
BRANCH   1  35
HETATM   35  C2  UNL     1      -8.616   9.218   7.311  1.00  0.00    -0.068 C 
HETATM   36  C1  UNL     1      -9.834   9.656   7.461  1.00  0.00     0.018 C 
HETATM   37  C3  UNL     1      -8.003   9.651   6.007  1.00  0.00     0.047 C 
ENDBRANCH   1  35
TORSDOF 7
ENDMDL
MODEL 3
REMARK VINA RESULT: -8.666445149      1.020      1.425
REMARK  7 active torsions:
REMARK  status: ('A' for Active; 'I' for Inactive)
REMARK    1  A    between atoms: C2_2  and  C4_4 
REMARK    2  A    between atoms: C21_21  and  C22_22 
REMARK    3  A    between atoms: C22_22  and  C23_23 
REMARK       I    between atoms: C23_23  and  N1_25 
REMARK    4  A    between atoms: N1_25  and  C24_27 
REMARK    5  A    between atoms: C24_27  and  C25_28 
REMARK    6  A    between atoms: C25_28  and  C26_29 
REMARK    7  A    between atoms: C26_29  and  N2_30 
ROOT
HETATM    1  C4  UNL     1      -4.710   2.751  15.622  1.00  0.00    -0.066 C 
HETATM    2  C5  UNL     1      -4.295   1.474  14.986  1.00  0.00     0.036 C 
HETATM    3  C6  UNL     1      -3.504   1.778  13.726  1.00  0.00     0.015 C 
HETATM    4  C7  UNL     1      -4.018   3.176  13.428  1.00  0.00    -0.029 C 
HETATM    5  C8  UNL     1      -5.411   2.842  12.869  1.00  0.00     0.016 C 
HETATM    6  C9  UNL     1      -3.409   3.835  12.247  1.00  0.00    -0.001 C 
HETATM    7  C10 UNL     1      -4.329   4.795  11.505  1.00  0.00     0.006 C 
HETATM    8  C11 UNL     1      -4.498   6.111  12.183  1.00  0.00     0.006 C 
HETATM    9  C12 UNL     1      -3.303   6.500  13.027  1.00  0.00    -0.006 C 
HETATM   10  C13 UNL     1      -3.480   6.258  14.459  1.00  0.00     0.006 C 
HETATM   11  C14 UNL     1      -4.366   5.168  14.944  1.00  0.00     0.015 C 
HETATM   12  C15 UNL     1      -3.986   3.762  14.754  1.00  0.00    -0.012 C 
HETATM   13  C16 UNL     1      -2.620   3.685  15.471  1.00  0.00     0.021 C 
HETATM   14  C17 UNL     1      -2.077   5.944  12.340  1.00  0.00    -0.036 C 
HETATM   15  C18 UNL     1      -2.002   6.676  11.029  1.00  0.00     0.016 C 
HETATM   16  C19 UNL     1      -0.765   6.278  13.014  1.00  0.00     0.010 C 
HETATM   17  C20 UNL     1       0.306   5.849  11.996  1.00  0.00     0.006 C 
HETATM   18  C21 UNL     1       0.218   4.408  11.652  1.00  0.00    -0.005 C 
HETATM   19  C31 UNL     1      -1.132   3.961  11.165  1.00  0.00     0.011 C 
HETATM   20  C32 UNL     1      -2.085   4.446  12.280  1.00  0.00    -0.001 C 
ENDROOT
BRANCH  18  21
HETATM   21  C22 UNL     1       1.391   3.942  10.891  1.00  0.00     0.107 C 
BRANCH  21  22
HETATM   22  C23 UNL     1       1.418   4.176   9.441  1.00  0.00     0.217 C 
HETATM   23  O1  UNL     1       0.468   3.914   8.698  1.00  0.00    -0.274 OA
HETATM   24  N1  UNL     1       2.587   4.726   8.887  1.00  0.00    -0.361 N 
ATOM     25  H1  UNL     1       3.375   4.946   9.495  1.00  0.00     0.162 HD
BRANCH  24  26
HETATM   26  C24 UNL     1       2.688   4.979   7.485  1.00  0.00     0.124 C 
BRANCH  26  27
HETATM   27  C25 UNL     1       3.311   3.882   6.671  1.00  0.00     0.050 C 
BRANCH  27  28
HETATM   28  C26 UNL     1       4.550   3.331   7.343  1.00  0.00     0.274 C 
BRANCH  28  29
HETATM   29  N2  UNL     1       4.297   2.091   8.047  1.00  0.00     0.092 N 
HETATM   30  C27 UNL     1       5.542   1.326   8.156  1.00  0.00     0.298 C 
HETATM   31  C28 UNL     1       6.090   0.931   6.825  1.00  0.00     0.198 C 
HETATM   32  O2  UNL     1       5.128   0.292   6.042  1.00  0.00    -0.388 OA
HETATM   33  C29 UNL     1       3.978   0.007   6.805  1.00  0.00     0.198 C 
HETATM   34  C30 UNL     1       3.325   1.298   7.305  1.00  0.00     0.298 C 
ENDBRANCH  28  29
ENDBRANCH  27  28
ENDBRANCH  26  27
ENDBRANCH  24  26
ENDBRANCH  21  22
ENDBRANCH  18  21
BRANCH   1  35
HETATM   35  C2  UNL     1      -6.003   2.951  16.156  1.00  0.00    -0.068 C 
HETATM   36  C1  UNL     1      -6.770   1.955  16.498  1.00  0.00     0.018 C 
HETATM   37  C3  UNL     1      -6.639   4.288  16.427  1.00  0.00     0.047 C 
ENDBRANCH   1  35
TORSDOF 7
ENDMDL
MODEL 4
REMARK VINA RESULT: -8.603061923      3.374      9.804
REMARK  7 active torsions:
REMARK  status: ('A' for Active; 'I' for Inactive)
REMARK    1  A    between atoms: C2_2  and  C4_4 
REMARK    2  A    between atoms: C21_21  and  C22_22 
REMARK    3  A    between atoms: C22_22  and  C23_23 
REMARK       I    between atoms: C23_23  and  N1_25 
REMARK    4  A    between atoms: N1_25  and  C24_27 
REMARK    5  A    between atoms: C24_27  and  C25_28 
REMARK    6  A    between atoms: C25_28  and  C26_29 
REMARK    7  A    between atoms: C26_29  and  N2_30 
ROOT
HETATM    1  C4  UNL     1       2.787   3.512   6.089  1.00  0.00    -0.066 C 
HETATM    2  C5  UNL     1       3.075   2.341   6.955  1.00  0.00     0.036 C 
HETATM    3  C6  UNL     1       2.504   2.590   8.339  1.00  0.00     0.015 C 
HETATM    4  C7  UNL     1       2.442   4.109   8.324  1.00  0.00    -0.029 C 
HETATM    5  C8  UNL     1       3.930   4.445   8.518  1.00  0.00     0.016 C 
HETATM    6  C9  UNL     1       1.869   4.730   9.543  1.00  0.00    -0.001 C 
HETATM    7  C10 UNL     1       2.438   6.098   9.892  1.00  0.00     0.006 C 
HETATM    8  C11 UNL     1       1.907   7.204   9.048  1.00  0.00     0.006 C 
HETATM    9  C12 UNL     1       0.514   6.931   8.521  1.00  0.00    -0.006 C 
HETATM   10  C13 UNL     1       0.480   6.471   7.132  1.00  0.00     0.006 C 
HETATM   11  C14 UNL     1       1.618   5.713   6.553  1.00  0.00     0.015 C 
HETATM   12  C15 UNL     1       1.902   4.341   6.998  1.00  0.00    -0.012 C 
HETATM   13  C16 UNL     1       0.576   3.610   6.695  1.00  0.00     0.021 C 
HETATM   14  C17 UNL     1      -0.205   6.120   9.575  1.00  0.00    -0.036 C 
HETATM   15  C18 UNL     1      -0.309   7.033  10.764  1.00  0.00     0.016 C 
HETATM   16  C19 UNL     1      -1.644   5.788   9.249  1.00  0.00     0.010 C 
HETATM   17  C20 UNL     1      -2.211   5.221  10.563  1.00  0.00     0.006 C 
HETATM   18  C21 UNL     1      -1.467   4.025  11.032  1.00  0.00    -0.005 C 
HETATM   19  C31 UNL     1       0.015   4.228  11.182  1.00  0.00     0.011 C 
HETATM   20  C32 UNL     1       0.434   4.782   9.801  1.00  0.00    -0.001 C 
ENDROOT
BRANCH  18  21
HETATM   21  C22 UNL     1      -2.160   3.331  12.131  1.00  0.00     0.107 C 
BRANCH  21  22
HETATM   22  C23 UNL     1      -2.634   4.129  13.270  1.00  0.00     0.217 C 
HETATM   23  O1  UNL     1      -1.900   4.477  14.200  1.00  0.00    -0.274 OA
HETATM   24  N1  UNL     1      -3.988   4.506  13.290  1.00  0.00    -0.361 N 
ATOM     25  H1  UNL     1      -4.599   4.223  12.524  1.00  0.00     0.162 HD
BRANCH  24  26
HETATM   26  C24 UNL     1      -4.520   5.280  14.366  1.00  0.00     0.124 C 
BRANCH  26  27
HETATM   27  C25 UNL     1      -5.839   4.811  14.910  1.00  0.00     0.050 C 
BRANCH  27  28
HETATM   28  C26 UNL     1      -5.854   3.311  15.107  1.00  0.00     0.274 C 
BRANCH  28  29
HETATM   29  N2  UNL     1      -5.317   2.912  16.391  1.00  0.00     0.092 N 
HETATM   30  C27 UNL     1      -4.075   2.160  16.192  1.00  0.00     0.298 C 
HETATM   31  C28 UNL     1      -4.287   0.895  15.431  1.00  0.00     0.198 C 
HETATM   32  O2  UNL     1      -5.304   0.121  15.992  1.00  0.00    -0.388 OA
HETATM   33  C29 UNL     1      -5.695   0.648  17.239  1.00  0.00     0.198 C 
HETATM   34  C30 UNL     1      -6.276   2.055  17.076  1.00  0.00     0.298 C 
ENDBRANCH  28  29
ENDBRANCH  27  28
ENDBRANCH  26  27
ENDBRANCH  24  26
ENDBRANCH  21  22
ENDBRANCH  18  21
BRANCH   1  35
HETATM   35  C2  UNL     1       3.743   4.060   5.203  1.00  0.00    -0.068 C 
HETATM   36  C1  UNL     1       5.016   4.058   5.477  1.00  0.00     0.018 C 
HETATM   37  C3  UNL     1       3.442   4.667   3.860  1.00  0.00     0.047 C 
ENDBRANCH   1  35
TORSDOF 7
ENDMDL
MODEL 5
REMARK VINA RESULT: -8.447252035      4.730      8.879
REMARK  7 active torsions:
REMARK  status: ('A' for Active; 'I' for Inactive)
REMARK    1  A    between atoms: C2_2  and  C4_4 
REMARK    2  A    between atoms: C21_21  and  C22_22 
REMARK    3  A    between atoms: C22_22  and  C23_23 
REMARK       I    between atoms: C23_23  and  N1_25 
REMARK    4  A    between atoms: N1_25  and  C24_27 
REMARK    5  A    between atoms: C24_27  and  C25_28 
REMARK    6  A    between atoms: C25_28  and  C26_29 
REMARK    7  A    between atoms: C26_29  and  N2_30 
ROOT
HETATM    1  C4  UNL     1      -7.236   8.980   8.550  1.00  0.00    -0.066 C 
HETATM    2  C5  UNL     1      -7.888   7.787   9.148  1.00  0.00     0.036 C 
HETATM    3  C6  UNL     1      -6.841   6.716   9.393  1.00  0.00     0.015 C 
HETATM    4  C7  UNL     1      -5.784   7.153   8.392  1.00  0.00    -0.029 C 
HETATM    5  C8  UNL     1      -6.436   6.682   7.082  1.00  0.00     0.016 C 
HETATM    6  C9  UNL     1      -4.547   6.336   8.381  1.00  0.00    -0.001 C 
HETATM    7  C10 UNL     1      -3.860   6.233   7.027  1.00  0.00     0.006 C 
HETATM    8  C11 UNL     1      -3.088   7.450   6.650  1.00  0.00     0.006 C 
HETATM    9  C12 UNL     1      -2.578   8.222   7.848  1.00  0.00    -0.006 C 
HETATM   10  C13 UNL     1      -3.382   9.397   8.187  1.00  0.00     0.006 C 
HETATM   11  C14 UNL     1      -4.835   9.439   7.883  1.00  0.00     0.015 C 
HETATM   12  C15 UNL     1      -5.775   8.585   8.622  1.00  0.00    -0.012 C 
HETATM   13  C16 UNL     1      -5.533   9.011  10.086  1.00  0.00     0.021 C 
HETATM   14  C17 UNL     1      -2.274   7.210   8.929  1.00  0.00    -0.036 C 
HETATM   15  C18 UNL     1      -1.151   6.378   8.377  1.00  0.00     0.016 C 
HETATM   16  C19 UNL     1      -1.698   7.794  10.200  1.00  0.00     0.010 C 
HETATM   17  C20 UNL     1      -1.231   6.567  11.004  1.00  0.00     0.006 C 
HETATM   18  C21 UNL     1      -2.337   5.620  11.288  1.00  0.00    -0.005 C 
HETATM   19  C31 UNL     1      -3.092   5.155  10.073  1.00  0.00     0.011 C 
HETATM   20  C32 UNL     1      -3.499   6.477   9.387  1.00  0.00    -0.001 C 
ENDROOT
BRANCH  18  21
HETATM   21  C22 UNL     1      -1.954   4.591  12.270  1.00  0.00     0.107 C 
BRANCH  21  22
HETATM   22  C23 UNL     1      -2.570   4.637  13.604  1.00  0.00     0.217 C 
HETATM   23  O1  UNL     1      -2.038   4.153  14.608  1.00  0.00    -0.274 OA
HETATM   24  N1  UNL     1      -3.821   5.265  13.728  1.00  0.00    -0.361 N 
ATOM     25  H1  UNL     1      -4.264   5.667  12.903  1.00  0.00     0.162 HD
BRANCH  24  26
HETATM   26  C24 UNL     1      -4.481   5.346  14.992  1.00  0.00     0.124 C 
BRANCH  26  27
HETATM   27  C25 UNL     1      -5.861   4.756  15.041  1.00  0.00     0.050 C 
BRANCH  27  28
HETATM   28  C26 UNL     1      -5.813   3.254  15.221  1.00  0.00     0.274 C 
BRANCH  28  29
HETATM   29  N2  UNL     1      -5.201   2.862  16.473  1.00  0.00     0.092 N 
HETATM   30  C27 UNL     1      -4.108   1.922  16.212  1.00  0.00     0.298 C 
HETATM   31  C28 UNL     1      -4.581   0.656  15.579  1.00  0.00     0.198 C 
HETATM   32  O2  UNL     1      -5.629   0.081  16.298  1.00  0.00    -0.388 OA
HETATM   33  C29 UNL     1      -5.802   0.739  17.532  1.00  0.00     0.198 C 
HETATM   34  C30 UNL     1      -6.191   2.204  17.316  1.00  0.00     0.298 C 
ENDBRANCH  28  29
ENDBRANCH  27  28
ENDBRANCH  26  27
ENDBRANCH  24  26
ENDBRANCH  21  22
ENDBRANCH  18  21
BRANCH   1  35
HETATM   35  C2  UNL     1      -7.807   9.704   7.478  1.00  0.00    -0.068 C 
HETATM   36  C1  UNL     1      -8.745  10.589   7.666  1.00  0.00     0.018 C 
HETATM   37  C3  UNL     1      -7.406   9.585   6.033  1.00  0.00     0.047 C 
ENDBRANCH   1  35
TORSDOF 7
ENDMDL
