MODEL 1
REMARK VINA RESULT: -5.888734642      0.000      0.000
REMARK  11 active torsions:
REMARK  status: ('A' for Active; 'I' for Inactive)
REMARK    1  A    between atoms: C2_2  and  C4_4 
REMARK    2  A    between atoms: C4_4  and  C5_5 
REMARK    3  A    between atoms: C5_5  and  C23_34 
REMARK    4  A    between atoms: N1_6  and  C6_8 
REMARK    5  A    between atoms: C6_8  and  C7_9 
REMARK    6  A    between atoms: C6_8  and  C9_12 
REMARK    7  A    between atoms: C10_13  and  N2_14 
REMARK    8  A    between atoms: N4_22  and  C16_23 
REMARK    9  A    between atoms: C22_30  and  N5_31 
REMARK   10  A    between atoms: C23_34  and  O1_35 
REMARK   11  A    between atoms: C23_34  and  O2_37 
ROOT
HETATM    1  C9  UNL     1       5.247 -11.489  -0.069  1.00  0.00     0.059 A 
HETATM    2  C10 UNL     1       6.112 -11.890  -1.037  1.00  0.00     0.131 A 
HETATM    3  N3  UNL     1       7.211 -11.117  -0.849  1.00  0.00    -0.276 N 
ATOM      4  H3  UNL     1       8.052 -11.175  -1.424  1.00  0.00     0.189 HD
HETATM    5  N4  UNL     1       7.069 -10.282   0.162  1.00  0.00    -0.237 N 
HETATM    6  C22 UNL     1       5.845 -10.492   0.673  1.00  0.00     0.133 A 
ENDROOT
BRANCH   1   7
HETATM    7  C6  UNL     1       3.878 -11.969   0.249  1.00  0.00     0.146 C 
BRANCH   7   8
HETATM    8  N1  UNL     1       3.985 -13.204   0.914  1.00  0.00    -0.380 N 
HETATM    9  C5  UNL     1       3.364 -13.671   1.942  1.00  0.00     0.038 C 
ATOM     10  H1  UNL     1       4.673 -13.840   0.513  1.00  0.00     0.160 HD
BRANCH   9  11
HETATM   11  C4  UNL     1       3.798 -15.046   2.310  1.00  0.00     0.061 C 
BRANCH  11  12
HETATM   12  C2  UNL     1       5.046 -15.203   3.103  1.00  0.00    -0.017 C 
HETATM   13  C1  UNL     1       6.045 -14.109   2.583  1.00  0.00     0.010 C 
HETATM   14  C3  UNL     1       4.968 -14.919   4.570  1.00  0.00     0.010 C 
ENDBRANCH  11  12
ENDBRANCH   9  11
BRANCH   9  15
HETATM   15  C23 UNL     1       2.331 -12.947   2.672  1.00  0.00     0.300 C 
BRANCH  15  16
HETATM   16  O1  UNL     1       2.125 -13.330   3.977  1.00  0.00    -0.366 OA
ATOM     17  H1  UNL     1       1.697 -12.695   4.539  1.00  0.00     0.213 HD
ENDBRANCH  15  16
BRANCH  15  18
HETATM   18  O2  UNL     1       1.077 -12.888   2.065  1.00  0.00    -0.366 OA
ATOM     19  H2  UNL     1       0.634 -13.718   1.937  1.00  0.00     0.213 HD
ENDBRANCH  15  18
ENDBRANCH   9  15
ENDBRANCH   7   8
BRANCH   7  20
HETATM   20  C7  UNL     1       3.149 -12.244  -1.055  1.00  0.00     0.015 C 
HETATM   21  C8  UNL     1       2.422 -13.315  -1.214  1.00  0.00     0.083 C 
HETATM   22 CL1  UNL     1       1.553 -13.711  -2.672  1.00  0.00    -0.097 Cl
ENDBRANCH   7  20
ENDBRANCH   1   7
BRANCH   2  23
HETATM   23  N2  UNL     1       6.000 -12.854  -2.048  1.00  0.00    -0.366 N 
HETATM   24  C11 UNL     1       5.388 -12.697  -3.329  1.00  0.00     0.124 C 
HETATM   25  C12 UNL     1       5.608 -13.973  -4.158  1.00  0.00     0.020 C 
HETATM   26  C13 UNL     1       4.969 -15.122  -3.449  1.00  0.00     0.003 C 
HETATM   27  C14 UNL     1       5.352 -15.155  -1.990  1.00  0.00     0.020 C 
HETATM   28  C15 UNL     1       6.542 -14.194  -1.849  1.00  0.00     0.124 C 
ENDBRANCH   2  23
BRANCH   6  29
HETATM   29  N5  UNL     1       5.337  -9.848   1.695  1.00  0.00    -0.383 N 
ATOM     30  H52 UNL     1       4.492  -9.276   1.665  1.00  0.00     0.157 HD
ATOM     31  H51 UNL     1       5.696  -9.818   2.649  1.00  0.00     0.157 HD
ENDBRANCH   6  29
BRANCH   5  32
HETATM   32  C16 UNL     1       8.020  -9.320   0.651  1.00  0.00     0.080 A 
HETATM   33  C17 UNL     1       8.232  -8.131  -0.012  1.00  0.00     0.033 A 
HETATM   34  C18 UNL     1       9.127  -7.170   0.404  1.00  0.00     0.002 A 
HETATM   35  C19 UNL     1       9.867  -7.396   1.555  1.00  0.00     0.002 A 
HETATM   36  C20 UNL     1       9.664  -8.578   2.224  1.00  0.00     0.026 A 
HETATM   37  C21 UNL     1       8.762  -9.538   1.800  1.00  0.00     0.062 A 
HETATM   38 CL2  UNL     1       8.566 -11.010   2.707  1.00  0.00    -0.082 Cl
ENDBRANCH   5  32
TORSDOF 11
ENDMDL
MODEL 2
REMARK VINA RESULT: -5.721519498      1.509      1.896
REMARK  11 active torsions:
REMARK  status: ('A' for Active; 'I' for Inactive)
REMARK    1  A    between atoms: C2_2  and  C4_4 
REMARK    2  A    between atoms: C4_4  and  C5_5 
REMARK    3  A    between atoms: C5_5  and  C23_34 
REMARK    4  A    between atoms: N1_6  and  C6_8 
REMARK    5  A    between atoms: C6_8  and  C7_9 
REMARK    6  A    between atoms: C6_8  and  C9_12 
REMARK    7  A    between atoms: C10_13  and  N2_14 
REMARK    8  A    between atoms: N4_22  and  C16_23 
REMARK    9  A    between atoms: C22_30  and  N5_31 
REMARK   10  A    between atoms: C23_34  and  O1_35 
REMARK   11  A    between atoms: C23_34  and  O2_37 
ROOT
HETATM    1  C9  UNL     1       5.265 -11.240   0.021  1.00  0.00     0.059 A 
HETATM    2  C10 UNL     1       6.106 -11.653  -0.962  1.00  0.00     0.131 A 
HETATM    3  N3  UNL     1       7.235 -10.924  -0.770  1.00  0.00    -0.276 N 
ATOM      4  H3  UNL     1       8.067 -11.002  -1.354  1.00  0.00     0.189 HD
HETATM    5  N4  UNL     1       7.132 -10.105   0.257  1.00  0.00    -0.237 N 
HETATM    6  C22 UNL     1       5.906 -10.279   0.776  1.00  0.00     0.133 A 
ENDROOT
BRANCH   1   7
HETATM    7  C6  UNL     1       3.882 -11.675   0.342  1.00  0.00     0.146 C 
BRANCH   7   8
HETATM    8  N1  UNL     1       3.854 -12.108   1.680  1.00  0.00    -0.380 N 
HETATM    9  C5  UNL     1       4.520 -13.028   2.289  1.00  0.00     0.038 C 
ATOM     10  H1  UNL     1       3.191 -11.607   2.271  1.00  0.00     0.160 HD
BRANCH   9  11
HETATM   11  C4  UNL     1       4.166 -13.147   3.730  1.00  0.00     0.061 C 
BRANCH  11  12
HETATM   12  C2  UNL     1       2.743 -13.385   4.089  1.00  0.00    -0.017 C 
HETATM   13  C1  UNL     1       2.520 -14.937   4.019  1.00  0.00     0.010 C 
HETATM   14  C3  UNL     1       2.322 -13.046   5.485  1.00  0.00     0.010 C 
ENDBRANCH  11  12
ENDBRANCH   9  11
BRANCH   9  15
HETATM   15  C23 UNL     1       5.529 -13.865   1.652  1.00  0.00     0.300 C 
BRANCH  15  16
HETATM   16  O1  UNL     1       5.228 -15.202   1.539  1.00  0.00    -0.366 OA
ATOM     17  H1  UNL     1       5.540 -15.638   0.755  1.00  0.00     0.213 HD
ENDBRANCH  15  16
BRANCH  15  18
HETATM   18  O2  UNL     1       6.817 -13.782   2.178  1.00  0.00    -0.366 OA
ATOM     19  H2  UNL     1       7.495 -13.485   1.583  1.00  0.00     0.213 HD
ENDBRANCH  15  18
ENDBRANCH   9  15
ENDBRANCH   7   8
BRANCH   7  20
HETATM   20  C7  UNL     1       3.547 -12.887  -0.510  1.00  0.00     0.015 C 
HETATM   21  C8  UNL     1       2.312 -13.227  -0.752  1.00  0.00     0.083 C 
HETATM   22 CL1  UNL     1       1.836 -14.598  -1.716  1.00  0.00    -0.097 Cl
ENDBRANCH   7  20
ENDBRANCH   1   7
BRANCH   2  23
HETATM   23  N2  UNL     1       5.949 -12.592  -1.991  1.00  0.00    -0.366 N 
HETATM   24  C11 UNL     1       5.049 -12.522  -3.097  1.00  0.00     0.124 C 
HETATM   25  C12 UNL     1       5.308 -13.708  -4.040  1.00  0.00     0.020 C 
HETATM   26  C13 UNL     1       5.065 -14.978  -3.293  1.00  0.00     0.003 C 
HETATM   27  C14 UNL     1       5.765 -14.976  -1.956  1.00  0.00     0.020 C 
HETATM   28  C15 UNL     1       6.759 -13.806  -2.007  1.00  0.00     0.124 C 
ENDBRANCH   2  23
BRANCH   6  29
HETATM   29  N5  UNL     1       5.431  -9.637   1.815  1.00  0.00    -0.383 N 
ATOM     30  H52 UNL     1       5.099 -10.077   2.673  1.00  0.00     0.157 HD
ATOM     31  H51 UNL     1       5.322  -8.628   1.923  1.00  0.00     0.157 HD
ENDBRANCH   6  29
BRANCH   5  32
HETATM   32  C16 UNL     1       8.123  -9.188   0.756  1.00  0.00     0.080 A 
HETATM   33  C17 UNL     1       8.352  -7.982   0.130  1.00  0.00     0.033 A 
HETATM   34  C18 UNL     1       9.285  -7.062   0.556  1.00  0.00     0.002 A 
HETATM   35  C19 UNL     1      10.046  -7.350   1.680  1.00  0.00     0.002 A 
HETATM   36  C20 UNL     1       9.826  -8.549   2.311  1.00  0.00     0.026 A 
HETATM   37  C21 UNL     1       8.887  -9.468   1.876  1.00  0.00     0.062 A 
HETATM   38 CL2  UNL     1       8.671 -10.966   2.736  1.00  0.00    -0.082 Cl
ENDBRANCH   5  32
TORSDOF 11
ENDMDL
MODEL 3
REMARK VINA RESULT: -5.586820535      0.863      1.187
REMARK  11 active torsions:
REMARK  status: ('A' for Active; 'I' for Inactive)
REMARK    1  A    between atoms: C2_2  and  C4_4 
REMARK    2  A    between atoms: C4_4  and  C5_5 
REMARK    3  A    between atoms: C5_5  and  C23_34 
REMARK    4  A    between atoms: N1_6  and  C6_8 
REMARK    5  A    between atoms: C6_8  and  C7_9 
REMARK    6  A    between atoms: C6_8  and  C9_12 
REMARK    7  A    between atoms: C10_13  and  N2_14 
REMARK    8  A    between atoms: N4_22  and  C16_23 
REMARK    9  A    between atoms: C22_30  and  N5_31 
REMARK   10  A    between atoms: C23_34  and  O1_35 
REMARK   11  A    between atoms: C23_34  and  O2_37 
ROOT
HETATM    1  C9  UNL     1       5.323 -11.557   0.041  1.00  0.00     0.059 A 
HETATM    2  C10 UNL     1       6.151 -11.892  -0.982  1.00  0.00     0.131 A 
HETATM    3  N3  UNL     1       7.221 -11.070  -0.834  1.00  0.00    -0.276 N 
ATOM      4  H3  UNL     1       8.030 -11.073  -1.454  1.00  0.00     0.189 HD
HETATM    5  N4  UNL     1       7.094 -10.267   0.204  1.00  0.00    -0.237 N 
HETATM    6  C22 UNL     1       5.911 -10.548   0.775  1.00  0.00     0.133 A 
ENDROOT
BRANCH   1   7
HETATM    7  C6  UNL     1       3.997 -12.111   0.418  1.00  0.00     0.146 C 
BRANCH   7   8
HETATM    8  N1  UNL     1       4.154 -12.871   1.592  1.00  0.00    -0.380 N 
HETATM    9  C5  UNL     1       3.296 -13.264   2.470  1.00  0.00     0.038 C 
ATOM     10  H1  UNL     1       5.113 -13.161   1.781  1.00  0.00     0.160 HD
BRANCH   9  11
HETATM   11  C4  UNL     1       3.909 -14.060   3.567  1.00  0.00     0.061 C 
BRANCH  11  12
HETATM   12  C2  UNL     1       3.186 -14.148   4.863  1.00  0.00    -0.017 C 
HETATM   13  C1  UNL     1       3.978 -15.175   5.746  1.00  0.00     0.010 C 
HETATM   14  C3  UNL     1       3.157 -12.920   5.718  1.00  0.00     0.010 C 
ENDBRANCH  11  12
ENDBRANCH   9  11
BRANCH   9  15
HETATM   15  C23 UNL     1       1.868 -12.980   2.402  1.00  0.00     0.300 C 
BRANCH  15  16
HETATM   16  O1  UNL     1       1.088 -13.924   1.776  1.00  0.00    -0.366 OA
ATOM     17  H1  UNL     1       0.803 -13.715   0.894  1.00  0.00     0.213 HD
ENDBRANCH  15  16
BRANCH  15  18
HETATM   18  O2  UNL     1       1.513 -11.742   1.868  1.00  0.00    -0.366 OA
ATOM     19  H2  UNL     1       0.647 -11.422   2.091  1.00  0.00     0.213 HD
ENDBRANCH  15  18
ENDBRANCH   9  15
ENDBRANCH   7   8
BRANCH   7  20
HETATM   20  C7  UNL     1       3.552 -13.078  -0.665  1.00  0.00     0.015 C 
HETATM   21  C8  UNL     1       2.391 -12.960  -1.245  1.00  0.00     0.083 C 
HETATM   22 CL1  UNL     1       1.798 -14.021  -2.494  1.00  0.00    -0.097 Cl
ENDBRANCH   7  20
ENDBRANCH   1   7
BRANCH   2  23
HETATM   23  N2  UNL     1       6.031 -12.837  -2.011  1.00  0.00    -0.366 N 
HETATM   24  C11 UNL     1       5.285 -12.707  -3.221  1.00  0.00     0.124 C 
HETATM   25  C12 UNL     1       5.539 -13.934  -4.110  1.00  0.00     0.020 C 
HETATM   26  C13 UNL     1       5.082 -15.157  -3.384  1.00  0.00     0.003 C 
HETATM   27  C14 UNL     1       5.609 -15.190  -1.969  1.00  0.00     0.020 C 
HETATM   28  C15 UNL     1       6.712 -14.123  -1.911  1.00  0.00     0.124 C 
ENDBRANCH   2  23
BRANCH   6  29
HETATM   29  N5  UNL     1       5.430  -9.954   1.839  1.00  0.00    -0.383 N 
ATOM     30  H52 UNL     1       4.734 -10.355   2.467  1.00  0.00     0.157 HD
ATOM     31  H51 UNL     1       5.669  -9.027   2.192  1.00  0.00     0.157 HD
ENDBRANCH   6  29
BRANCH   5  32
HETATM   32  C16 UNL     1       8.024  -9.271   0.667  1.00  0.00     0.080 A 
HETATM   33  C17 UNL     1       8.172  -8.074  -0.001  1.00  0.00     0.033 A 
HETATM   34  C18 UNL     1       9.044  -7.081   0.389  1.00  0.00     0.002 A 
HETATM   35  C19 UNL     1       9.824  -7.280   1.518  1.00  0.00     0.002 A 
HETATM   36  C20 UNL     1       9.685  -8.469   2.192  1.00  0.00     0.026 A 
HETATM   37  C21 UNL     1       8.807  -9.461   1.793  1.00  0.00     0.062 A 
HETATM   38 CL2  UNL     1       8.692 -10.939   2.704  1.00  0.00    -0.082 Cl
ENDBRANCH   5  32
TORSDOF 11
ENDMDL
MODEL 4
REMARK VINA RESULT: -5.272781780      2.680      4.726
REMARK  11 active torsions:
REMARK  status: ('A' for Active; 'I' for Inactive)
REMARK    1  A    between atoms: C2_2  and  C4_4 
REMARK    2  A    between atoms: C4_4  and  C5_5 
REMARK    3  A    between atoms: C5_5  and  C23_34 
REMARK    4  A    between atoms: N1_6  and  C6_8 
REMARK    5  A    between atoms: C6_8  and  C7_9 
REMARK    6  A    between atoms: C6_8  and  C9_12 
REMARK    7  A    between atoms: C10_13  and  N2_14 
REMARK    8  A    between atoms: N4_22  and  C16_23 
REMARK    9  A    between atoms: C22_30  and  N5_31 
REMARK   10  A    between atoms: C23_34  and  O1_35 
REMARK   11  A    between atoms: C23_34  and  O2_37 
ROOT
HETATM    1  C9  UNL     1       5.494 -11.003   0.098  1.00  0.00     0.059 A 
HETATM    2  C10 UNL     1       4.876 -11.216   1.289  1.00  0.00     0.131 A 
HETATM    3  N3  UNL     1       5.507 -10.378   2.151  1.00  0.00    -0.276 N 
ATOM      4  H3  UNL     1       5.272 -10.300   3.140  1.00  0.00     0.189 HD
HETATM    5  N4  UNL     1       6.457  -9.679   1.564  1.00  0.00    -0.237 N 
HETATM    6  C22 UNL     1       6.475 -10.049   0.273  1.00  0.00     0.133 A 
ENDROOT
BRANCH   1   7
HETATM    7  C6  UNL     1       5.244 -11.615  -1.232  1.00  0.00     0.146 C 
BRANCH   7   8
HETATM    8  N1  UNL     1       3.965 -12.199  -1.217  1.00  0.00    -0.380 N 
HETATM    9  C5  UNL     1       3.285 -12.781  -2.145  1.00  0.00     0.038 C 
ATOM     10  H1  UNL     1       3.492 -12.155  -0.314  1.00  0.00     0.160 HD
BRANCH   9  11
HETATM   11  C4  UNL     1       1.955 -13.259  -1.680  1.00  0.00     0.061 C 
BRANCH  11  12
HETATM   12  C2  UNL     1       1.544 -14.645  -2.027  1.00  0.00    -0.017 C 
HETATM   13  C1  UNL     1       0.753 -15.198  -0.789  1.00  0.00     0.010 C 
HETATM   14  C3  UNL     1       0.570 -14.812  -3.151  1.00  0.00     0.010 C 
ENDBRANCH  11  12
ENDBRANCH   9  11
BRANCH   9  15
HETATM   15  C23 UNL     1       3.761 -12.971  -3.510  1.00  0.00     0.300 C 
BRANCH  15  16
HETATM   16  O1  UNL     1       2.895 -12.606  -4.513  1.00  0.00    -0.366 OA
ATOM     17  H1  UNL     1       3.260 -12.562  -5.388  1.00  0.00     0.213 HD
ENDBRANCH  15  16
BRANCH  15  18
HETATM   18  O2  UNL     1       4.232 -14.245  -3.824  1.00  0.00    -0.366 OA
ATOM     19  H2  UNL     1       4.113 -14.525  -4.724  1.00  0.00     0.213 HD
ENDBRANCH  15  18
ENDBRANCH   9  15
ENDBRANCH   7   8
BRANCH   7  20
HETATM   20  C7  UNL     1       6.233 -12.750  -1.434  1.00  0.00     0.015 C 
HETATM   21  C8  UNL     1       6.153 -13.852  -0.741  1.00  0.00     0.083 C 
HETATM   22 CL1  UNL     1       7.242 -15.203  -0.906  1.00  0.00    -0.097 Cl
ENDBRANCH   7  20
ENDBRANCH   1   7
BRANCH   2  23
HETATM   23  N2  UNL     1       3.833 -12.076   1.659  1.00  0.00    -0.366 N 
HETATM   24  C11 UNL     1       2.430 -11.835   1.542  1.00  0.00     0.124 C 
HETATM   25  C12 UNL     1       1.660 -13.099   1.953  1.00  0.00     0.020 C 
HETATM   26  C13 UNL     1       1.984 -13.418   3.376  1.00  0.00     0.003 C 
HETATM   27  C14 UNL     1       3.473 -13.387   3.625  1.00  0.00     0.020 C 
HETATM   28  C15 UNL     1       4.128 -13.383   2.237  1.00  0.00     0.124 C 
ENDBRANCH   2  23
BRANCH   6  29
HETATM   29  N5  UNL     1       7.289  -9.570  -0.635  1.00  0.00    -0.383 N 
ATOM     30  H52 UNL     1       7.819 -10.133  -1.300  1.00  0.00     0.157 HD
ATOM     31  H51 UNL     1       7.512  -8.590  -0.812  1.00  0.00     0.157 HD
ENDBRANCH   6  29
BRANCH   5  32
HETATM   32  C16 UNL     1       7.326  -8.699   2.159  1.00  0.00     0.080 A 
HETATM   33  C17 UNL     1       6.960  -7.372   2.224  1.00  0.00     0.033 A 
HETATM   34  C18 UNL     1       7.746  -6.386   2.780  1.00  0.00     0.002 A 
HETATM   35  C19 UNL     1       8.980  -6.732   3.311  1.00  0.00     0.002 A 
HETATM   36  C20 UNL     1       9.355  -8.052   3.252  1.00  0.00     0.026 A 
HETATM   37  C21 UNL     1       8.560  -9.036   2.691  1.00  0.00     0.062 A 
HETATM   38 CL2  UNL     1       9.112 -10.686   2.657  1.00  0.00    -0.082 Cl
ENDBRANCH   5  32
TORSDOF 11
ENDMDL
MODEL 5
REMARK VINA RESULT: -5.123424134      2.325      4.200
REMARK  11 active torsions:
REMARK  status: ('A' for Active; 'I' for Inactive)
REMARK    1  A    between atoms: C2_2  and  C4_4 
REMARK    2  A    between atoms: C4_4  and  C5_5 
REMARK    3  A    between atoms: C5_5  and  C23_34 
REMARK    4  A    between atoms: N1_6  and  C6_8 
REMARK    5  A    between atoms: C6_8  and  C7_9 
REMARK    6  A    between atoms: C6_8  and  C9_12 
REMARK    7  A    between atoms: C10_13  and  N2_14 
REMARK    8  A    between atoms: N4_22  and  C16_23 
REMARK    9  A    between atoms: C22_30  and  N5_31 
REMARK   10  A    between atoms: C23_34  and  O1_35 
REMARK   11  A    between atoms: C23_34  and  O2_37 
ROOT
HETATM    1  C9  UNL     1       5.627 -11.402   0.171  1.00  0.00     0.059 A 
HETATM    2  C10 UNL     1       5.756 -11.957   1.403  1.00  0.00     0.131 A 
HETATM    3  N3  UNL     1       6.703 -11.202   2.016  1.00  0.00    -0.276 N 
ATOM      4  H3  UNL     1       7.031 -11.364   2.968  1.00  0.00     0.189 HD
HETATM    5  N4  UNL     1       7.150 -10.234   1.240  1.00  0.00    -0.237 N 
HETATM    6  C22 UNL     1       6.494 -10.334   0.073  1.00  0.00     0.133 A 
ENDROOT
BRANCH   1   7
HETATM    7  C6  UNL     1       4.738 -11.778  -0.959  1.00  0.00     0.146 C 
BRANCH   7   8
HETATM    8  N1  UNL     1       3.528 -12.262  -0.427  1.00  0.00    -0.380 N 
HETATM    9  C5  UNL     1       2.632 -13.041  -0.928  1.00  0.00     0.038 C 
ATOM     10  H1  UNL     1       3.326 -11.941   0.520  1.00  0.00     0.160 HD
BRANCH   9  11
HETATM   11  C4  UNL     1       1.497 -13.296   0.000  1.00  0.00     0.061 C 
BRANCH  11  12
HETATM   12  C2  UNL     1       0.967 -12.157   0.796  1.00  0.00    -0.017 C 
HETATM   13  C1  UNL     1      -0.267 -11.597   0.005  1.00  0.00     0.010 C 
HETATM   14  C3  UNL     1       0.392 -12.470   2.142  1.00  0.00     0.010 C 
ENDBRANCH  11  12
ENDBRANCH   9  11
BRANCH   9  15
HETATM   15  C23 UNL     1       2.712 -13.630  -2.259  1.00  0.00     0.300 C 
BRANCH  15  16
HETATM   16  O1  UNL     1       1.885 -13.090  -3.215  1.00  0.00    -0.366 OA
ATOM     17  H1  UNL     1       1.549 -13.692  -3.869  1.00  0.00     0.213 HD
ENDBRANCH  15  16
BRANCH  15  18
HETATM   18  O2  UNL     1       2.560 -15.015  -2.327  1.00  0.00    -0.366 OA
ATOM     19  H2  UNL     1       2.205 -15.358  -3.138  1.00  0.00     0.213 HD
ENDBRANCH  15  18
ENDBRANCH   9  15
ENDBRANCH   7   8
BRANCH   7  20
HETATM   20  C7  UNL     1       5.373 -12.936  -1.708  1.00  0.00     0.015 C 
HETATM   21  C8  UNL     1       5.695 -12.834  -2.968  1.00  0.00     0.083 C 
HETATM   22 CL1  UNL     1       6.425 -14.108  -3.906  1.00  0.00    -0.097 Cl
ENDBRANCH   7  20
ENDBRANCH   1   7
BRANCH   2  23
HETATM   23  N2  UNL     1       5.124 -13.054   2.005  1.00  0.00    -0.366 N 
HETATM   24  C11 UNL     1       4.031 -13.025   2.924  1.00  0.00     0.124 C 
HETATM   25  C12 UNL     1       3.582 -14.464   3.226  1.00  0.00     0.020 C 
HETATM   26  C13 UNL     1       4.722 -15.202   3.846  1.00  0.00     0.003 C 
HETATM   27  C14 UNL     1       5.998 -15.012   3.062  1.00  0.00     0.020 C 
HETATM   28  C15 UNL     1       5.573 -14.412   1.714  1.00  0.00     0.124 C 
ENDBRANCH   2  23
BRANCH   6  29
HETATM   29  N5  UNL     1       6.666  -9.541  -0.957  1.00  0.00    -0.383 N 
ATOM     30  H52 UNL     1       5.942  -9.292  -1.630  1.00  0.00     0.157 HD
ATOM     31  H51 UNL     1       7.525  -9.066  -1.235  1.00  0.00     0.157 HD
ENDBRANCH   6  29
BRANCH   5  32
HETATM   32  C16 UNL     1       8.147  -9.245   1.551  1.00  0.00     0.080 A 
HETATM   33  C17 UNL     1       9.487  -9.499   1.349  1.00  0.00     0.033 A 
HETATM   34  C18 UNL     1      10.489  -8.596   1.626  1.00  0.00     0.002 A 
HETATM   35  C19 UNL     1      10.148  -7.352   2.138  1.00  0.00     0.002 A 
HETATM   36  C20 UNL     1       8.817  -7.088   2.344  1.00  0.00     0.026 A 
HETATM   37  C21 UNL     1       7.816  -8.001   2.063  1.00  0.00     0.062 A 
HETATM   38 CL2  UNL     1       6.151  -7.586   2.353  1.00  0.00    -0.082 Cl
ENDBRANCH   5  32
TORSDOF 11
ENDMDL
