MODEL 1
REMARK VINA RESULT: -7.585149729      0.000      0.000
REMARK  5 active torsions:
REMARK  status: ('A' for Active; 'I' for Inactive)
REMARK    1  A    between atoms: O1_2  and  C2_3 
REMARK    2  A    between atoms: C4_5  and  N1_6 
REMARK    3  A    between atoms: N1_6  and  C5_8 
REMARK    4  A    between atoms: C6_11  and  N3_12 
REMARK    5  A    between atoms: N5_20  and  C10_21 
ROOT
HETATM    1  C5  UNL     1      20.383 -35.642  -8.045  1.00  0.00     0.685 A 
HETATM    2  N2  UNL     1      21.365 -35.888  -7.194  1.00  0.00    -0.176 N 
ATOM      3  H2  UNL     1      21.537 -35.219  -6.443  1.00  0.00     0.186 HD
HETATM    4  C6  UNL     1      22.159 -36.992  -7.272  1.00  0.00     0.134 A 
HETATM    5  C7  UNL     1      21.903 -37.874  -8.293  1.00  0.00     0.123 A 
HETATM    6  C8  UNL     1      22.443 -39.068  -8.722  1.00  0.00     0.279 A 
HETATM    7  O2  UNL     1      23.411 -39.672  -8.189  1.00  0.00    -0.265 OA
HETATM    8  N4  UNL     1      21.787 -39.516  -9.807  1.00  0.00    -0.257 N 
HETATM    9  C9  UNL     1      22.078 -40.739 -10.527  1.00  0.00     0.181 C 
HETATM   10  N5  UNL     1      20.838 -38.644 -10.093  1.00  0.00    -0.266 N 
HETATM   11  C13 UNL     1      20.879 -37.632  -9.194  1.00  0.00     0.158 A 
HETATM   12  N6  UNL     1      20.155 -36.516  -9.030  1.00  0.00    -0.174 N 
ATOM     13  H6  UNL     1      19.397 -36.326  -9.685  1.00  0.00     0.186 HD
ENDROOT
BRANCH   1  14
HETATM   14  N1  UNL     1      19.670 -34.566  -7.904  1.00  0.00    -0.191 N 
ATOM     15  H1  UNL     1      19.192 -34.387  -7.021  1.00  0.00     0.184 HD
BRANCH  14  16
HETATM   16  C4  UNL     1      19.551 -33.637  -8.971  1.00  0.00     0.053 A 
HETATM   17  C3  UNL     1      18.651 -33.857 -10.013  1.00  0.00     0.068 A 
HETATM   18  C2  UNL     1      18.520 -32.971 -11.056  1.00  0.00     0.093 A 
HETATM   19  C16 UNL     1      19.316 -31.831 -11.050  1.00  0.00     0.089 A 
HETATM   20  C15 UNL     1      20.205 -31.624 -10.008  1.00  0.00     0.060 A 
HETATM   21 CL2  UNL     1      19.168 -30.692 -12.360  1.00  0.00    -0.080 Cl
HETATM   22  C14 UNL     1      20.344 -32.509  -8.958  1.00  0.00     0.056 A 
HETATM   23 CL1  UNL     1      21.219 -30.192  -9.983  1.00  0.00    -0.082 Cl
BRANCH  18  24
HETATM   24  O1  UNL     1      17.633 -33.171 -12.099  1.00  0.00    -0.354 OA
HETATM   25  C1  UNL     1      17.312 -34.496 -12.469  1.00  0.00     0.210 C 
ENDBRANCH  18  24
ENDBRANCH  14  16
ENDBRANCH   1  14
BRANCH   4  26
HETATM   26  N3  UNL     1      23.099 -37.203  -6.437  1.00  0.00    -0.384 N 
ATOM     27  H32 UNL     1      23.496 -36.444  -5.885  1.00  0.00     0.157 HD
ATOM     28  H31 UNL     1      23.487 -38.135  -6.291  1.00  0.00     0.157 HD
ENDBRANCH   4  26
BRANCH  10  29
HETATM   29  C10 UNL     1      19.884 -38.699 -11.166  1.00  0.00     0.102 C 
HETATM   30  C11 UNL     1      19.913 -37.475 -12.045  1.00  0.00     0.034 C 
HETATM   31  C12 UNL     1      18.460 -38.897 -10.700  1.00  0.00     0.034 C 
ENDBRANCH  10  29
TORSDOF 5
ENDMDL
MODEL 2
REMARK VINA RESULT: -7.278119879      3.805      5.452
REMARK  5 active torsions:
REMARK  status: ('A' for Active; 'I' for Inactive)
REMARK    1  A    between atoms: O1_2  and  C2_3 
REMARK    2  A    between atoms: C4_5  and  N1_6 
REMARK    3  A    between atoms: N1_6  and  C5_8 
REMARK    4  A    between atoms: C6_11  and  N3_12 
REMARK    5  A    between atoms: N5_20  and  C10_21 
ROOT
HETATM    1  C5  UNL     1      16.966 -35.705 -10.542  1.00  0.00     0.685 A 
HETATM    2  N2  UNL     1      16.358 -36.766 -11.047  1.00  0.00    -0.176 N 
ATOM      3  H2  UNL     1      16.268 -36.838 -12.061  1.00  0.00     0.186 HD
HETATM    4  C6  UNL     1      15.846 -37.766 -10.278  1.00  0.00     0.134 A 
HETATM    5  C7  UNL     1      15.983 -37.640  -8.918  1.00  0.00     0.123 A 
HETATM    6  C8  UNL     1      15.624 -38.392  -7.819  1.00  0.00     0.279 A 
HETATM    7  O2  UNL     1      15.016 -39.495  -7.846  1.00  0.00    -0.265 OA
HETATM    8  N4  UNL     1      16.016 -37.782  -6.686  1.00  0.00    -0.257 N 
HETATM    9  C9  UNL     1      15.811 -38.279  -5.341  1.00  0.00     0.181 C 
HETATM   10  N5  UNL     1      16.619 -36.656  -7.023  1.00  0.00    -0.266 N 
HETATM   11  C13 UNL     1      16.616 -36.536  -8.372  1.00  0.00     0.158 A 
HETATM   12  N6  UNL     1      17.086 -35.606  -9.215  1.00  0.00    -0.174 N 
ATOM     13  H6  UNL     1      17.556 -34.789  -8.826  1.00  0.00     0.186 HD
ENDROOT
BRANCH   1  14
HETATM   14  N1  UNL     1      17.428 -34.791 -11.342  1.00  0.00    -0.191 N 
ATOM     15  H1  UNL     1      17.130 -34.775 -12.318  1.00  0.00     0.184 HD
BRANCH  14  16
HETATM   16  C4  UNL     1      18.344 -33.816 -10.867  1.00  0.00     0.053 A 
HETATM   17  C3  UNL     1      19.120 -34.057  -9.735  1.00  0.00     0.068 A 
HETATM   18  C2  UNL     1      20.012 -33.127  -9.258  1.00  0.00     0.093 A 
HETATM   19  C16 UNL     1      20.128 -31.921  -9.941  1.00  0.00     0.089 A 
HETATM   20  C15 UNL     1      19.352 -31.695 -11.065  1.00  0.00     0.060 A 
HETATM   21 CL2  UNL     1      21.253 -30.726  -9.358  1.00  0.00    -0.080 Cl
HETATM   22  C14 UNL     1      18.453 -32.623 -11.551  1.00  0.00     0.056 A 
HETATM   23 CL1  UNL     1      19.483 -30.180 -11.941  1.00  0.00    -0.082 Cl
BRANCH  18  24
HETATM   24  O1  UNL     1      20.791 -33.345  -8.136  1.00  0.00    -0.354 OA
HETATM   25  C1  UNL     1      21.857 -34.268  -8.222  1.00  0.00     0.210 C 
ENDBRANCH  18  24
ENDBRANCH  14  16
ENDBRANCH   1  14
BRANCH   4  26
HETATM   26  N3  UNL     1      15.264 -38.778 -10.793  1.00  0.00    -0.384 N 
ATOM     27  H32 UNL     1      15.392 -39.713 -10.409  1.00  0.00     0.157 HD
ATOM     28  H31 UNL     1      14.653 -38.689 -11.605  1.00  0.00     0.157 HD
ENDBRANCH   4  26
BRANCH  10  29
HETATM   29  C10 UNL     1      17.203 -35.674  -6.151  1.00  0.00     0.102 C 
HETATM   30  C11 UNL     1      16.995 -34.261  -6.631  1.00  0.00     0.034 C 
HETATM   31  C12 UNL     1      18.685 -35.870  -5.927  1.00  0.00     0.034 C 
ENDBRANCH  10  29
TORSDOF 5
ENDMDL
MODEL 3
REMARK VINA RESULT: -7.072853380      4.723      7.461
REMARK  5 active torsions:
REMARK  status: ('A' for Active; 'I' for Inactive)
REMARK    1  A    between atoms: O1_2  and  C2_3 
REMARK    2  A    between atoms: C4_5  and  N1_6 
REMARK    3  A    between atoms: N1_6  and  C5_8 
REMARK    4  A    between atoms: C6_11  and  N3_12 
REMARK    5  A    between atoms: N5_20  and  C10_21 
ROOT
HETATM    1  C5  UNL     1      17.042 -35.892  -9.701  1.00  0.00     0.685 A 
HETATM    2  N2  UNL     1      16.988 -35.330 -10.897  1.00  0.00    -0.176 N 
ATOM      3  H2  UNL     1      16.362 -35.733 -11.595  1.00  0.00     0.186 HD
HETATM    4  C6  UNL     1      17.728 -34.240 -11.241  1.00  0.00     0.134 A 
HETATM    5  C7  UNL     1      18.560 -33.722 -10.279  1.00  0.00     0.123 A 
HETATM    6  C8  UNL     1      19.447 -32.669 -10.209  1.00  0.00     0.279 A 
HETATM    7  O2  UNL     1      19.707 -31.861 -11.140  1.00  0.00    -0.265 OA
HETATM    8  N4  UNL     1      20.013 -32.614  -8.990  1.00  0.00    -0.257 N 
HETATM    9  C9  UNL     1      20.991 -31.639  -8.554  1.00  0.00     0.181 C 
HETATM   10  N5  UNL     1      19.515 -33.603  -8.270  1.00  0.00    -0.266 N 
HETATM   11  C13 UNL     1      18.630 -34.298  -9.022  1.00  0.00     0.158 A 
HETATM   12  N6  UNL     1      17.860 -35.369  -8.783  1.00  0.00    -0.174 N 
ATOM     13  H6  UNL     1      17.900 -35.802  -7.861  1.00  0.00     0.186 HD
ENDROOT
BRANCH   1  14
HETATM   14  N1  UNL     1      16.304 -36.932  -9.449  1.00  0.00    -0.191 N 
ATOM     15  H1  UNL     1      15.460 -37.099  -9.997  1.00  0.00     0.184 HD
BRANCH  14  16
HETATM   16  C4  UNL     1      16.665 -37.837  -8.416  1.00  0.00     0.053 A 
HETATM   17  C3  UNL     1      16.068 -37.761  -7.159  1.00  0.00     0.068 A 
HETATM   18  C2  UNL     1      16.402 -38.627  -6.145  1.00  0.00     0.093 A 
HETATM   19  C16 UNL     1      17.365 -39.597  -6.404  1.00  0.00     0.089 A 
HETATM   20  C15 UNL     1      17.950 -39.661  -7.658  1.00  0.00     0.060 A 
HETATM   21 CL2  UNL     1      17.805 -40.707  -5.136  1.00  0.00    -0.080 Cl
HETATM   22  C14 UNL     1      17.620 -38.796  -8.681  1.00  0.00     0.056 A 
HETATM   23 CL1  UNL     1      19.166 -40.878  -8.004  1.00  0.00    -0.082 Cl
BRANCH  18  24
HETATM   24  O1  UNL     1      15.822 -38.569  -4.891  1.00  0.00    -0.354 OA
HETATM   25  C1  UNL     1      14.555 -39.166  -4.703  1.00  0.00     0.210 C 
ENDBRANCH  18  24
ENDBRANCH  14  16
ENDBRANCH   1  14
BRANCH   4  26
HETATM   26  N3  UNL     1      17.655 -33.719 -12.403  1.00  0.00    -0.384 N 
ATOM     27  H32 UNL     1      16.852 -33.155 -12.679  1.00  0.00     0.157 HD
ATOM     28  H31 UNL     1      18.393 -33.847 -13.095  1.00  0.00     0.157 HD
ENDBRANCH   4  26
BRANCH  10  29
HETATM   29  C10 UNL     1      19.821 -33.941  -6.908  1.00  0.00     0.102 C 
HETATM   30  C11 UNL     1      20.167 -35.396  -6.724  1.00  0.00     0.034 C 
HETATM   31  C12 UNL     1      18.711 -33.606  -5.938  1.00  0.00     0.034 C 
ENDBRANCH  10  29
TORSDOF 5
ENDMDL
MODEL 4
REMARK VINA RESULT: -7.042054488      4.402      7.409
REMARK  5 active torsions:
REMARK  status: ('A' for Active; 'I' for Inactive)
REMARK    1  A    between atoms: O1_2  and  C2_3 
REMARK    2  A    between atoms: C4_5  and  N1_6 
REMARK    3  A    between atoms: N1_6  and  C5_8 
REMARK    4  A    between atoms: C6_11  and  N3_12 
REMARK    5  A    between atoms: N5_20  and  C10_21 
ROOT
HETATM    1  C5  UNL     1      17.046 -35.943  -9.619  1.00  0.00     0.685 A 
HETATM    2  N2  UNL     1      16.971 -35.390 -10.819  1.00  0.00    -0.176 N 
ATOM      3  H2  UNL     1      16.337 -35.800 -11.505  1.00  0.00     0.186 HD
HETATM    4  C6  UNL     1      17.701 -34.299 -11.183  1.00  0.00     0.134 A 
HETATM    5  C7  UNL     1      18.545 -33.770 -10.238  1.00  0.00     0.123 A 
HETATM    6  C8  UNL     1      19.429 -32.713 -10.189  1.00  0.00     0.279 A 
HETATM    7  O2  UNL     1      19.671 -31.911 -11.130  1.00  0.00    -0.265 OA
HETATM    8  N4  UNL     1      20.013 -32.645  -8.980  1.00  0.00    -0.257 N 
HETATM    9  C9  UNL     1      20.993 -31.663  -8.566  1.00  0.00     0.181 C 
HETATM   10  N5  UNL     1      19.531 -33.631  -8.245  1.00  0.00    -0.266 N 
HETATM   11  C13 UNL     1      18.637 -34.336  -8.977  1.00  0.00     0.158 A 
HETATM   12  N6  UNL     1      17.876 -35.409  -8.718  1.00  0.00    -0.174 N 
ATOM     13  H6  UNL     1      17.932 -35.835  -7.794  1.00  0.00     0.186 HD
ENDROOT
BRANCH   1  14
HETATM   14  N1  UNL     1      16.318 -36.984  -9.348  1.00  0.00    -0.191 N 
ATOM     15  H1  UNL     1      15.468 -37.161  -9.885  1.00  0.00     0.184 HD
BRANCH  14  16
HETATM   16  C4  UNL     1      16.695 -37.875  -8.310  1.00  0.00     0.053 A 
HETATM   17  C3  UNL     1      17.926 -38.529  -8.343  1.00  0.00     0.068 A 
HETATM   18  C2  UNL     1      18.311 -39.396  -7.349  1.00  0.00     0.093 A 
HETATM   19  C16 UNL     1      17.434 -39.610  -6.291  1.00  0.00     0.089 A 
HETATM   20  C15 UNL     1      16.215 -38.954  -6.270  1.00  0.00     0.060 A 
HETATM   21 CL2  UNL     1      17.900 -40.704  -5.017  1.00  0.00    -0.080 Cl
HETATM   22  C14 UNL     1      15.820 -38.082  -7.265  1.00  0.00     0.056 A 
HETATM   23 CL1  UNL     1      15.094 -39.211  -4.944  1.00  0.00    -0.082 Cl
BRANCH  18  24
HETATM   24  O1  UNL     1      19.527 -40.056  -7.362  1.00  0.00    -0.354 OA
HETATM   25  C1  UNL     1      20.580 -39.519  -8.137  1.00  0.00     0.210 C 
ENDBRANCH  18  24
ENDBRANCH  14  16
ENDBRANCH   1  14
BRANCH   4  26
HETATM   26  N3  UNL     1      17.608 -33.788 -12.347  1.00  0.00    -0.384 N 
ATOM     27  H32 UNL     1      18.377 -33.255 -12.753  1.00  0.00     0.157 HD
ATOM     28  H31 UNL     1      16.765 -33.892 -12.912  1.00  0.00     0.157 HD
ENDBRANCH   4  26
BRANCH  10  29
HETATM   29  C10 UNL     1      19.859 -33.958  -6.884  1.00  0.00     0.102 C 
HETATM   30  C11 UNL     1      20.178 -35.417  -6.688  1.00  0.00     0.034 C 
HETATM   31  C12 UNL     1      18.778 -33.586  -5.896  1.00  0.00     0.034 C 
ENDBRANCH  10  29
TORSDOF 5
ENDMDL
MODEL 5
REMARK VINA RESULT: -6.974673528      2.341      2.919
REMARK  5 active torsions:
REMARK  status: ('A' for Active; 'I' for Inactive)
REMARK    1  A    between atoms: O1_2  and  C2_3 
REMARK    2  A    between atoms: C4_5  and  N1_6 
REMARK    3  A    between atoms: N1_6  and  C5_8 
REMARK    4  A    between atoms: C6_11  and  N3_12 
REMARK    5  A    between atoms: N5_20  and  C10_21 
ROOT
HETATM    1  C5  UNL     1      20.246 -35.224  -7.437  1.00  0.00     0.685 A 
HETATM    2  N2  UNL     1      21.312 -35.944  -7.747  1.00  0.00    -0.176 N 
ATOM      3  H2  UNL     1      22.182 -35.457  -7.963  1.00  0.00     0.186 HD
HETATM    4  C6  UNL     1      21.303 -37.305  -7.792  1.00  0.00     0.134 A 
HETATM    5  C7  UNL     1      20.117 -37.931  -7.496  1.00  0.00     0.123 A 
HETATM    6  C8  UNL     1      19.686 -39.239  -7.426  1.00  0.00     0.279 A 
HETATM    7  O2  UNL     1      20.388 -40.260  -7.650  1.00  0.00    -0.265 OA
HETATM    8  N4  UNL     1      18.387 -39.285  -7.079  1.00  0.00    -0.257 N 
HETATM    9  C9  UNL     1      17.599 -40.489  -6.909  1.00  0.00     0.181 C 
HETATM   10  N5  UNL     1      17.967 -38.043  -6.923  1.00  0.00    -0.266 N 
HETATM   11  C13 UNL     1      18.992 -37.193  -7.169  1.00  0.00     0.158 A 
HETATM   12  N6  UNL     1      19.105 -35.858  -7.153  1.00  0.00    -0.174 N 
ATOM     13  H6  UNL     1      18.284 -35.302  -6.913  1.00  0.00     0.186 HD
ENDROOT
BRANCH   1  14
HETATM   14  N1  UNL     1      20.334 -33.928  -7.415  1.00  0.00    -0.191 N 
ATOM     15  H1  UNL     1      20.601 -33.452  -6.553  1.00  0.00     0.184 HD
BRANCH  14  16
HETATM   16  C4  UNL     1      20.062 -33.169  -8.584  1.00  0.00     0.053 A 
HETATM   17  C3  UNL     1      19.122 -33.606  -9.516  1.00  0.00     0.068 A 
HETATM   18  C2  UNL     1      18.843 -32.888 -10.654  1.00  0.00     0.093 A 
HETATM   19  C16 UNL     1      19.529 -31.695 -10.860  1.00  0.00     0.089 A 
HETATM   20  C15 UNL     1      20.460 -31.273  -9.926  1.00  0.00     0.060 A 
HETATM   21 CL2  UNL     1      19.192 -30.766 -12.294  1.00  0.00    -0.080 Cl
HETATM   22  C14 UNL     1      20.746 -31.988  -8.781  1.00  0.00     0.056 A 
HETATM   23 CL1  UNL     1      21.336 -29.771 -10.167  1.00  0.00    -0.082 Cl
BRANCH  18  24
HETATM   24  O1  UNL     1      17.914 -33.303 -11.591  1.00  0.00    -0.354 OA
HETATM   25  C1  UNL     1      17.704 -34.689 -11.767  1.00  0.00     0.210 C 
ENDBRANCH  18  24
ENDBRANCH  14  16
ENDBRANCH   1  14
BRANCH   4  26
HETATM   26  N3  UNL     1      22.346 -37.973  -8.094  1.00  0.00    -0.384 N 
ATOM     27  H32 UNL     1      22.449 -38.406  -9.012  1.00  0.00     0.157 HD
ATOM     28  H31 UNL     1      23.112 -38.099  -7.433  1.00  0.00     0.157 HD
ENDBRANCH   4  26
BRANCH  10  29
HETATM   29  C10 UNL     1      16.652 -37.598  -6.555  1.00  0.00     0.102 C 
HETATM   30  C11 UNL     1      15.865 -37.053  -7.719  1.00  0.00     0.034 C 
HETATM   31  C12 UNL     1      16.652 -36.547  -5.468  1.00  0.00     0.034 C 
ENDBRANCH  10  29
TORSDOF 5
ENDMDL
