MODEL 1
REMARK VINA RESULT: -6.945111074      0.000      0.000
REMARK  6 active torsions:
REMARK  status: ('A' for Active; 'I' for Inactive)
REMARK    1  A    between atoms: O1_2  and  C2_3 
REMARK    2  A    between atoms: C4_5  and  O2_6 
REMARK    3  A    between atoms: O2_6  and  C5_7 
REMARK    4  A    between atoms: C5_7  and  C6_8 
REMARK    5  A    between atoms: C8_10  and  O3_11 
REMARK    6  A    between atoms: C9_13  and  O4_14 
ROOT
HETATM    1  C2  UNL     1      20.033 -32.952  -9.204  1.00  0.00     0.092 A 
HETATM    2  C3  UNL     1      19.363 -34.156  -9.195  1.00  0.00     0.076 A 
HETATM    3  C4  UNL     1      18.459 -34.523 -10.153  1.00  0.00     0.093 A 
HETATM    4  C14 UNL     1      18.211 -33.638 -11.178  1.00  0.00     0.074 A 
HETATM    5 CL2  UNL     1      17.057 -34.105 -12.404  1.00  0.00    -0.081 Cl
HETATM    6  C15 UNL     1      18.864 -32.400 -11.237  1.00  0.00    -0.014 A 
HETATM    7  C16 UNL     1      18.563 -31.478 -12.363  1.00  0.00     0.052 C 
HETATM    8  C17 UNL     1      19.767 -32.086 -10.239  1.00  0.00     0.085 A 
HETATM    9  C18 UNL     1      20.451 -30.841 -10.259  1.00  0.00     0.103 C 
HETATM   10  N1  UNL     1      21.009 -29.845 -10.292  1.00  0.00    -0.191 NA
ENDROOT
BRANCH   1  11
HETATM   11  O1  UNL     1      20.937 -32.639  -8.202  1.00  0.00    -0.354 OA
HETATM   12  C1  UNL     1      21.944 -33.573  -7.881  1.00  0.00     0.210 C 
ENDBRANCH   1  11
BRANCH   3  13
HETATM   13  O2  UNL     1      17.809 -35.745 -10.104  1.00  0.00    -0.348 OA
BRANCH  13  14
HETATM   14  C5  UNL     1      16.818 -36.017  -9.131  1.00  0.00     0.188 C 
BRANCH  14  15
HETATM   15  C6  UNL     1      17.072 -37.366  -8.510  1.00  0.00     0.015 C 
HETATM   16  C7  UNL     1      18.187 -38.018  -9.322  1.00  0.00     0.021 C 
HETATM   17  C8  UNL     1      15.837 -38.191  -8.627  1.00  0.00     0.159 C 
HETATM   18  C9  UNL     1      15.218 -38.178  -7.270  1.00  0.00     0.167 C 
HETATM   19  C10 UNL     1      16.395 -38.020  -6.326  1.00  0.00     0.122 C 
HETATM   20 CL1  UNL     1      16.996 -39.576  -5.740  1.00  0.00    -0.121 Cl
HETATM   21  C11 UNL     1      17.431 -37.229  -7.069  1.00  0.00    -0.017 C 
HETATM   22  C12 UNL     1      17.295 -35.776  -6.596  1.00  0.00     0.017 C 
HETATM   23  C13 UNL     1      18.839 -37.652  -6.750  1.00  0.00     0.017 C 
BRANCH  17  24
HETATM   24  O3  UNL     1      16.087 -39.517  -8.997  1.00  0.00    -0.392 OA
ATOM     25  H3  UNL     1      16.446 -39.604  -9.872  1.00  0.00     0.210 HD
ENDBRANCH  17  24
BRANCH  18  26
HETATM   26  O4  UNL     1      14.276 -37.183  -7.107  1.00  0.00    -0.391 OA
ATOM     27  H4  UNL     1      13.466 -37.490  -6.717  1.00  0.00     0.210 HD
ENDBRANCH  18  26
ENDBRANCH  14  15
ENDBRANCH  13  14
ENDBRANCH   3  13
TORSDOF 6
ENDMDL
MODEL 2
REMARK VINA RESULT: -6.833642037      3.128      4.308
REMARK  6 active torsions:
REMARK  status: ('A' for Active; 'I' for Inactive)
REMARK    1  A    between atoms: O1_2  and  C2_3 
REMARK    2  A    between atoms: C4_5  and  O2_6 
REMARK    3  A    between atoms: O2_6  and  C5_7 
REMARK    4  A    between atoms: C5_7  and  C6_8 
REMARK    5  A    between atoms: C8_10  and  O3_11 
REMARK    6  A    between atoms: C9_13  and  O4_14 
ROOT
HETATM    1  C2  UNL     1      19.470 -32.933  -9.941  1.00  0.00     0.092 A 
HETATM    2  C3  UNL     1      19.525 -33.974  -9.040  1.00  0.00     0.076 A 
HETATM    3  C4  UNL     1      18.817 -35.134  -9.185  1.00  0.00     0.093 A 
HETATM    4  C14 UNL     1      18.009 -35.263 -10.293  1.00  0.00     0.074 A 
HETATM    5 CL2  UNL     1      17.104 -36.746 -10.480  1.00  0.00    -0.081 Cl
HETATM    6  C15 UNL     1      17.915 -34.236 -11.241  1.00  0.00    -0.014 A 
HETATM    7  C16 UNL     1      17.030 -34.422 -12.420  1.00  0.00     0.052 C 
HETATM    8  C17 UNL     1      18.655 -33.087 -11.040  1.00  0.00     0.085 A 
HETATM    9  C18 UNL     1      18.589 -32.020 -11.975  1.00  0.00     0.103 C 
HETATM   10  N1  UNL     1      18.543 -31.175 -12.741  1.00  0.00    -0.191 NA
ENDROOT
BRANCH   1  11
HETATM   11  O1  UNL     1      20.212 -31.781  -9.737  1.00  0.00    -0.354 OA
HETATM   12  C1  UNL     1      21.117 -31.740  -8.656  1.00  0.00     0.210 C 
ENDBRANCH   1  11
BRANCH   3  13
HETATM   13  O2  UNL     1      18.904 -36.156  -8.254  1.00  0.00    -0.348 OA
BRANCH  13  14
HETATM   14  C5  UNL     1      20.148 -36.564  -7.717  1.00  0.00     0.188 C 
BRANCH  14  15
HETATM   15  C6  UNL     1      20.605 -37.828  -8.397  1.00  0.00     0.015 C 
HETATM   16  C7  UNL     1      19.384 -38.412  -9.102  1.00  0.00     0.021 C 
HETATM   17  C8  UNL     1      21.076 -38.790  -7.361  1.00  0.00     0.159 C 
HETATM   18  C9  UNL     1      22.565 -38.746  -7.423  1.00  0.00     0.167 C 
HETATM   19  C10 UNL     1      22.867 -38.392  -8.867  1.00  0.00     0.122 C 
HETATM   20 CL1  UNL     1      23.138 -39.826  -9.865  1.00  0.00    -0.121 Cl
HETATM   21  C11 UNL     1      21.723 -37.548  -9.344  1.00  0.00    -0.017 C 
HETATM   22  C12 UNL     1      22.184 -36.089  -9.247  1.00  0.00     0.017 C 
HETATM   23  C13 UNL     1      21.371 -37.790 -10.787  1.00  0.00     0.017 C 
BRANCH  17  24
HETATM   24  O3  UNL     1      20.653 -40.104  -7.588  1.00  0.00    -0.392 OA
ATOM     25  H3  UNL     1      21.365 -40.702  -7.779  1.00  0.00     0.210 HD
ENDBRANCH  17  24
BRANCH  18  26
HETATM   26  O4  UNL     1      23.125 -37.851  -6.534  1.00  0.00    -0.391 OA
ATOM     27  H4  UNL     1      23.832 -37.339  -6.908  1.00  0.00     0.210 HD
ENDBRANCH  18  26
ENDBRANCH  14  15
ENDBRANCH  13  14
ENDBRANCH   3  13
TORSDOF 6
ENDMDL
MODEL 3
REMARK VINA RESULT: -6.756050631      1.290      2.056
REMARK  6 active torsions:
REMARK  status: ('A' for Active; 'I' for Inactive)
REMARK    1  A    between atoms: O1_2  and  C2_3 
REMARK    2  A    between atoms: C4_5  and  O2_6 
REMARK    3  A    between atoms: O2_6  and  C5_7 
REMARK    4  A    between atoms: C5_7  and  C6_8 
REMARK    5  A    between atoms: C8_10  and  O3_11 
REMARK    6  A    between atoms: C9_13  and  O4_14 
ROOT
HETATM    1  C2  UNL     1      20.050 -32.913  -9.209  1.00  0.00     0.092 A 
HETATM    2  C3  UNL     1      19.417 -34.136  -9.177  1.00  0.00     0.076 A 
HETATM    3  C4  UNL     1      18.515 -34.542 -10.120  1.00  0.00     0.093 A 
HETATM    4  C14 UNL     1      18.230 -33.679 -11.155  1.00  0.00     0.074 A 
HETATM    5 CL2  UNL     1      17.078 -34.199 -12.363  1.00  0.00    -0.081 Cl
HETATM    6  C15 UNL     1      18.845 -32.424 -11.238  1.00  0.00    -0.014 A 
HETATM    7  C16 UNL     1      18.506 -31.528 -12.373  1.00  0.00     0.052 C 
HETATM    8  C17 UNL     1      19.748 -32.069 -10.254  1.00  0.00     0.085 A 
HETATM    9  C18 UNL     1      20.395 -30.805 -10.298  1.00  0.00     0.103 C 
HETATM   10  N1  UNL     1      20.923 -29.794 -10.351  1.00  0.00    -0.191 NA
ENDROOT
BRANCH   1  11
HETATM   11  O1  UNL     1      20.955 -32.558  -8.221  1.00  0.00    -0.354 OA
HETATM   12  C1  UNL     1      21.992 -33.458  -7.897  1.00  0.00     0.210 C 
ENDBRANCH   1  11
BRANCH   3  13
HETATM   13  O2  UNL     1      17.902 -35.782 -10.047  1.00  0.00    -0.348 OA
BRANCH  13  14
HETATM   14  C5  UNL     1      18.447 -36.833  -9.272  1.00  0.00     0.188 C 
BRANCH  14  15
HETATM   15  C6  UNL     1      17.388 -37.396  -8.361  1.00  0.00     0.015 C 
HETATM   16  C7  UNL     1      16.064 -37.292  -9.112  1.00  0.00     0.021 C 
HETATM   17  C8  UNL     1      17.317 -36.560  -7.130  1.00  0.00     0.159 C 
HETATM   18  C9  UNL     1      18.015 -37.347  -6.073  1.00  0.00     0.167 C 
HETATM   19  C10 UNL     1      17.797 -38.792  -6.480  1.00  0.00     0.122 C 
HETATM   20 CL1  UNL     1      16.381 -39.503  -5.694  1.00  0.00    -0.121 Cl
HETATM   21  C11 UNL     1      17.708 -38.801  -7.977  1.00  0.00    -0.017 C 
HETATM   22  C12 UNL     1      19.089 -39.220  -8.496  1.00  0.00     0.017 C 
HETATM   23  C13 UNL     1      16.729 -39.814  -8.505  1.00  0.00     0.017 C 
BRANCH  17  24
HETATM   24  O3  UNL     1      16.009 -36.298  -6.709  1.00  0.00    -0.392 OA
ATOM     25  H3  UNL     1      15.499 -37.084  -6.551  1.00  0.00     0.210 HD
ENDBRANCH  17  24
BRANCH  18  26
HETATM   26  O4  UNL     1      19.352 -37.032  -5.947  1.00  0.00    -0.391 OA
ATOM     27  H4  UNL     1      19.649 -36.996  -5.045  1.00  0.00     0.210 HD
ENDBRANCH  18  26
ENDBRANCH  14  15
ENDBRANCH  13  14
ENDBRANCH   3  13
TORSDOF 6
ENDMDL
MODEL 4
REMARK VINA RESULT: -6.724385770      2.900      4.425
REMARK  6 active torsions:
REMARK  status: ('A' for Active; 'I' for Inactive)
REMARK    1  A    between atoms: O1_2  and  C2_3 
REMARK    2  A    between atoms: C4_5  and  O2_6 
REMARK    3  A    between atoms: O2_6  and  C5_7 
REMARK    4  A    between atoms: C5_7  and  C6_8 
REMARK    5  A    between atoms: C8_10  and  O3_11 
REMARK    6  A    between atoms: C9_13  and  O4_14 
ROOT
HETATM    1  C2  UNL     1      18.075 -33.669 -11.280  1.00  0.00     0.092 A 
HETATM    2  C3  UNL     1      18.074 -34.547 -10.218  1.00  0.00     0.076 A 
HETATM    3  C4  UNL     1      18.803 -34.353  -9.079  1.00  0.00     0.093 A 
HETATM    4  C14 UNL     1      19.577 -33.216  -8.994  1.00  0.00     0.074 A 
HETATM    5 CL2  UNL     1      20.510 -32.966  -7.538  1.00  0.00    -0.081 Cl
HETATM    6  C15 UNL     1      19.616 -32.289 -10.044  1.00  0.00    -0.014 A 
HETATM    7  C16 UNL     1      20.466 -31.078  -9.906  1.00  0.00     0.052 C 
HETATM    8  C17 UNL     1      18.857 -32.541 -11.171  1.00  0.00     0.085 A 
HETATM    9  C18 UNL     1      18.866 -31.629 -12.259  1.00  0.00     0.103 C 
HETATM   10  N1  UNL     1      18.867 -30.881 -13.122  1.00  0.00    -0.191 NA
ENDROOT
BRANCH   1  11
HETATM   11  O1  UNL     1      17.313 -33.923 -12.410  1.00  0.00    -0.354 OA
HETATM   12  C1  UNL     1      16.830 -35.231 -12.621  1.00  0.00     0.210 C 
ENDBRANCH   1  11
BRANCH   3  13
HETATM   13  O2  UNL     1      18.771 -35.263  -8.036  1.00  0.00    -0.348 OA
BRANCH  13  14
HETATM   14  C5  UNL     1      18.505 -36.635  -8.259  1.00  0.00     0.188 C 
BRANCH  14  15
HETATM   15  C6  UNL     1      19.591 -37.471  -7.634  1.00  0.00     0.015 C 
HETATM   16  C7  UNL     1      18.997 -38.092  -6.374  1.00  0.00     0.021 C 
HETATM   17  C8  UNL     1      20.724 -36.582  -7.252  1.00  0.00     0.159 C 
HETATM   18  C9  UNL     1      21.770 -36.798  -8.293  1.00  0.00     0.167 C 
HETATM   19  C10 UNL     1      21.551 -38.228  -8.749  1.00  0.00     0.122 C 
HETATM   20 CL1  UNL     1      22.573 -39.374  -7.872  1.00  0.00    -0.121 Cl
HETATM   21  C11 UNL     1      20.085 -38.503  -8.591  1.00  0.00    -0.017 C 
HETATM   22  C12 UNL     1      19.454 -38.325  -9.978  1.00  0.00     0.017 C 
HETATM   23  C13 UNL     1      19.791 -39.916  -8.166  1.00  0.00     0.017 C 
BRANCH  17  24
HETATM   24  O3  UNL     1      21.267 -36.880  -5.997  1.00  0.00    -0.392 OA
ATOM     25  H3  UNL     1      22.216 -36.836  -5.976  1.00  0.00     0.210 HD
ENDBRANCH  17  24
BRANCH  18  26
HETATM   26  O4  UNL     1      21.700 -35.897  -9.335  1.00  0.00    -0.391 OA
ATOM     27  H4  UNL     1      20.813 -35.733  -9.635  1.00  0.00     0.210 HD
ENDBRANCH  18  26
ENDBRANCH  14  15
ENDBRANCH  13  14
ENDBRANCH   3  13
TORSDOF 6
ENDMDL
MODEL 5
REMARK VINA RESULT: -6.687871339      1.275      2.240
REMARK  6 active torsions:
REMARK  status: ('A' for Active; 'I' for Inactive)
REMARK    1  A    between atoms: O1_2  and  C2_3 
REMARK    2  A    between atoms: C4_5  and  O2_6 
REMARK    3  A    between atoms: O2_6  and  C5_7 
REMARK    4  A    between atoms: C5_7  and  C6_8 
REMARK    5  A    between atoms: C8_10  and  O3_11 
REMARK    6  A    between atoms: C9_13  and  O4_14 
ROOT
HETATM    1  C2  UNL     1      20.138 -32.932  -9.255  1.00  0.00     0.092 A 
HETATM    2  C3  UNL     1      19.554 -34.180  -9.267  1.00  0.00     0.076 A 
HETATM    3  C4  UNL     1      18.657 -34.583 -10.216  1.00  0.00     0.093 A 
HETATM    4  C14 UNL     1      18.324 -33.690 -11.210  1.00  0.00     0.074 A 
HETATM    5 CL2  UNL     1      17.178 -34.204 -12.425  1.00  0.00    -0.081 Cl
HETATM    6  C15 UNL     1      18.887 -32.408 -11.247  1.00  0.00    -0.014 A 
HETATM    7  C16 UNL     1      18.497 -31.479 -12.339  1.00  0.00     0.052 C 
HETATM    8  C17 UNL     1      19.788 -32.058 -10.259  1.00  0.00     0.085 A 
HETATM    9  C18 UNL     1      20.383 -30.768 -10.257  1.00  0.00     0.103 C 
HETATM   10  N1  UNL     1      20.869 -29.735 -10.273  1.00  0.00    -0.191 NA
ENDROOT
BRANCH   1  11
HETATM   11  O1  UNL     1      21.041 -32.583  -8.263  1.00  0.00    -0.354 OA
HETATM   12  C1  UNL     1      22.020 -33.522  -7.877  1.00  0.00     0.210 C 
ENDBRANCH   1  11
BRANCH   3  13
HETATM   13  O2  UNL     1      18.095 -35.849 -10.189  1.00  0.00    -0.348 OA
BRANCH  13  14
HETATM   14  C5  UNL     1      16.825 -36.082  -9.609  1.00  0.00     0.188 C 
BRANCH  14  15
HETATM   15  C6  UNL     1      16.986 -36.865  -8.332  1.00  0.00     0.015 C 
HETATM   16  C7  UNL     1      16.634 -35.917  -7.190  1.00  0.00     0.021 C 
HETATM   17  C8  UNL     1      18.410 -37.282  -8.199  1.00  0.00     0.159 C 
HETATM   18  C9  UNL     1      18.439 -38.727  -8.566  1.00  0.00     0.167 C 
HETATM   19  C10 UNL     1      17.064 -39.237  -8.179  1.00  0.00     0.122 C 
HETATM   20 CL1  UNL     1      17.041 -39.930  -6.552  1.00  0.00    -0.121 Cl
HETATM   21  C11 UNL     1      16.122 -38.081  -8.341  1.00  0.00    -0.017 C 
HETATM   22  C12 UNL     1      15.433 -38.265  -9.699  1.00  0.00     0.017 C 
HETATM   23  C13 UNL     1      15.030 -38.058  -7.308  1.00  0.00     0.017 C 
BRANCH  17  24
HETATM   24  O3  UNL     1      18.914 -37.135  -6.901  1.00  0.00    -0.392 OA
ATOM     25  H3  UNL     1      19.191 -36.249  -6.702  1.00  0.00     0.210 HD
ENDBRANCH  17  24
BRANCH  18  26
HETATM   26  O4  UNL     1      18.727 -38.948  -9.897  1.00  0.00    -0.391 OA
ATOM     27  H4  UNL     1      18.883 -38.149 -10.388  1.00  0.00     0.210 HD
ENDBRANCH  18  26
ENDBRANCH  14  15
ENDBRANCH  13  14
ENDBRANCH   3  13
TORSDOF 6
ENDMDL
