MODEL 1
REMARK VINA RESULT: -7.492221490      0.000      0.000
REMARK  11 active torsions:
REMARK  status: ('A' for Active; 'I' for Inactive)
REMARK    1  A    between atoms: N2_4  and  N3_6 
REMARK    2  A    between atoms: N3_6  and  C1_8 
REMARK    3  A    between atoms: N4_9  and  C2_11 
REMARK    4  A    between atoms: C2_11  and  C3_12 
REMARK    5  A    between atoms: C3_12  and  C4_13 
REMARK    6  A    between atoms: C4_13  and  C5_14 
REMARK    7  A    between atoms: C5_14  and  C6_15 
REMARK    8  A    between atoms: C6_15  and  C7_16 
REMARK    9  A    between atoms: C7_16  and  O1_17 
REMARK   10  A    between atoms: C7_16  and  N5_19 
REMARK   11  A    between atoms: N5_19  and  N6_21 
ROOT
HETATM    1  C5  UNL     1      24.383   6.526  34.273  1.00  0.00     0.004 C 
ENDROOT
BRANCH   1   2
HETATM    2  C4  UNL     1      24.334   7.904  34.940  1.00  0.00     0.002 C 
BRANCH   2   3
HETATM    3  C3  UNL     1      24.963   8.954  34.064  1.00  0.00     0.020 C 
BRANCH   3   4
HETATM    4  C2  UNL     1      24.300  10.292  34.425  1.00  0.00     0.120 C 
BRANCH   4   5
HETATM    5  N4  UNL     1      24.954  11.306  33.644  1.00  0.00    -0.385 N 
HETATM    6  C1  UNL     1      25.814  12.130  34.083  1.00  0.00     0.194 C 
ATOM      7  H4  UNL     1      24.707  11.370  32.657  1.00  0.00     0.160 HD
BRANCH   6   8
HETATM    8  N3  UNL     1      26.377  13.080  33.190  1.00  0.00    -0.283 N 
ATOM      9  H3  UNL     1      26.698  12.767  32.272  1.00  0.00     0.189 HD
BRANCH   8  10
HETATM   10  N2  UNL     1      26.504  14.423  33.528  1.00  0.00    -0.248 N 
HETATM   11  N1  UNL     1      26.506  14.744  34.747  1.00  0.00    -0.331 N 
ATOM     12  H12 UNL     1      26.415  14.020  35.459  1.00  0.00     0.178 HD
ATOM     13  H11 UNL     1      26.599  15.729  34.995  1.00  0.00     0.178 HD
ATOM     14  H2  UNL     1      26.594  15.135  32.803  1.00  0.00     0.207 HD
ENDBRANCH   8  10
ENDBRANCH   6   8
ENDBRANCH   4   5
ENDBRANCH   3   4
ENDBRANCH   2   3
ENDBRANCH   1   2
BRANCH   1  15
HETATM   15  C6  UNL     1      25.270   6.533  33.078  1.00  0.00     0.055 C 
BRANCH  15  16
HETATM   16  C7  UNL     1      24.674   5.864  31.887  1.00  0.00     0.233 C 
BRANCH  16  17
HETATM   17  O1  UNL     1      24.112   6.889  31.086  1.00  0.00    -0.376 OA
ATOM     18  H1  UNL     1      23.212   6.996  31.374  1.00  0.00     0.212 HD
ENDBRANCH  16  17
BRANCH  16  19
HETATM   19  N5  UNL     1      23.777   4.810  32.175  1.00  0.00    -0.308 N 
ATOM     20  H5  UNL     1      24.088   4.049  32.779  1.00  0.00     0.183 HD
BRANCH  19  21
HETATM   21  N6  UNL     1      22.485   4.774  31.665  1.00  0.00    -0.311 N 
HETATM   22  C8  UNL     1      21.514   4.351  32.376  1.00  0.00     0.007 C 
HETATM   23  C9  UNL     1      21.759   3.892  33.757  1.00  0.00     0.080 C 
HETATM   24  C12 UNL     1      20.134   4.304  31.854  1.00  0.00     0.080 C 
HETATM   25  C10 UNL     1      20.696   2.906  34.112  1.00  0.00     0.173 C 
HETATM   26  O2  UNL     1      19.406   3.323  33.925  1.00  0.00    -0.390 OA
HETATM   27  C11 UNL     1      19.222   4.389  33.085  1.00  0.00     0.173 C 
ATOM     28  H6  UNL     1      22.311   5.091  30.711  1.00  0.00     0.186 HD
ENDBRANCH  19  21
ENDBRANCH  16  19
ENDBRANCH  15  16
ENDBRANCH   1  15
TORSDOF 11
ENDMDL
MODEL 2
REMARK VINA RESULT: -7.470597096      1.698      2.067
REMARK  11 active torsions:
REMARK  status: ('A' for Active; 'I' for Inactive)
REMARK    1  A    between atoms: N2_4  and  N3_6 
REMARK    2  A    between atoms: N3_6  and  C1_8 
REMARK    3  A    between atoms: N4_9  and  C2_11 
REMARK    4  A    between atoms: C2_11  and  C3_12 
REMARK    5  A    between atoms: C3_12  and  C4_13 
REMARK    6  A    between atoms: C4_13  and  C5_14 
REMARK    7  A    between atoms: C5_14  and  C6_15 
REMARK    8  A    between atoms: C6_15  and  C7_16 
REMARK    9  A    between atoms: C7_16  and  O1_17 
REMARK   10  A    between atoms: C7_16  and  N5_19 
REMARK   11  A    between atoms: N5_19  and  N6_21 
ROOT
HETATM    1  C5  UNL     1      25.279   6.801  35.113  1.00  0.00     0.004 C 
ENDROOT
BRANCH   1   2
HETATM    2  C4  UNL     1      24.363   8.029  35.107  1.00  0.00     0.002 C 
BRANCH   2   3
HETATM    3  C3  UNL     1      24.764   9.001  34.031  1.00  0.00     0.020 C 
BRANCH   3   4
HETATM    4  C2  UNL     1      24.203  10.373  34.436  1.00  0.00     0.120 C 
BRANCH   4   5
HETATM    5  N4  UNL     1      24.909  11.358  33.663  1.00  0.00    -0.385 N 
HETATM    6  C1  UNL     1      25.831  12.112  34.101  1.00  0.00     0.194 C 
ATOM      7  H4  UNL     1      24.647  11.460  32.682  1.00  0.00     0.160 HD
BRANCH   6   8
HETATM    8  N3  UNL     1      26.439  13.042  33.215  1.00  0.00    -0.283 N 
ATOM      9  H3  UNL     1      26.799  12.710  32.320  1.00  0.00     0.189 HD
BRANCH   8  10
HETATM   10  N2  UNL     1      26.559  14.391  33.533  1.00  0.00    -0.248 N 
HETATM   11  N1  UNL     1      26.473  14.739  34.742  1.00  0.00    -0.331 N 
ATOM     12  H12 UNL     1      26.318  14.033  35.461  1.00  0.00     0.178 HD
ATOM     13  H11 UNL     1      26.560  15.728  34.975  1.00  0.00     0.178 HD
ATOM     14  H2  UNL     1      26.713  15.085  32.802  1.00  0.00     0.207 HD
ENDBRANCH   8  10
ENDBRANCH   6   8
ENDBRANCH   4   5
ENDBRANCH   3   4
ENDBRANCH   2   3
ENDBRANCH   1   2
BRANCH   1  15
HETATM   15  C6  UNL     1      24.792   5.757  34.171  1.00  0.00     0.055 C 
BRANCH  15  16
HETATM   16  C7  UNL     1      23.663   4.946  34.709  1.00  0.00     0.233 C 
BRANCH  16  17
HETATM   17  O1  UNL     1      24.093   3.595  34.693  1.00  0.00    -0.376 OA
ATOM     18  H1  UNL     1      23.312   3.060  34.786  1.00  0.00     0.212 HD
ENDBRANCH  16  17
BRANCH  16  19
HETATM   19  N5  UNL     1      22.417   5.154  34.076  1.00  0.00    -0.308 N 
ATOM     20  H5  UNL     1      22.392   5.666  33.194  1.00  0.00     0.183 HD
BRANCH  19  21
HETATM   21  N6  UNL     1      21.224   4.686  34.613  1.00  0.00    -0.311 N 
HETATM   22  C8  UNL     1      20.329   4.172  33.863  1.00  0.00     0.007 C 
HETATM   23  C9  UNL     1      20.557   4.070  32.408  1.00  0.00     0.080 C 
HETATM   24  C12 UNL     1      19.054   3.668  34.411  1.00  0.00     0.080 C 
HETATM   25  C10 UNL     1      19.227   4.062  31.731  1.00  0.00     0.173 C 
HETATM   26  O2  UNL     1      18.331   3.131  32.181  1.00  0.00    -0.390 OA
HETATM   27  C11 UNL     1      18.569   2.601  33.421  1.00  0.00     0.173 C 
ATOM     28  H6  UNL     1      21.062   4.755  35.617  1.00  0.00     0.186 HD
ENDBRANCH  19  21
ENDBRANCH  16  19
ENDBRANCH  15  16
ENDBRANCH   1  15
TORSDOF 11
ENDMDL
MODEL 3
REMARK VINA RESULT: -7.274150884      1.202      1.488
REMARK  11 active torsions:
REMARK  status: ('A' for Active; 'I' for Inactive)
REMARK    1  A    between atoms: N2_4  and  N3_6 
REMARK    2  A    between atoms: N3_6  and  C1_8 
REMARK    3  A    between atoms: N4_9  and  C2_11 
REMARK    4  A    between atoms: C2_11  and  C3_12 
REMARK    5  A    between atoms: C3_12  and  C4_13 
REMARK    6  A    between atoms: C4_13  and  C5_14 
REMARK    7  A    between atoms: C5_14  and  C6_15 
REMARK    8  A    between atoms: C6_15  and  C7_16 
REMARK    9  A    between atoms: C7_16  and  O1_17 
REMARK   10  A    between atoms: C7_16  and  N5_19 
REMARK   11  A    between atoms: N5_19  and  N6_21 
ROOT
HETATM    1  C5  UNL     1      25.368   6.649  33.765  1.00  0.00     0.004 C 
ENDROOT
BRANCH   1   2
HETATM    2  C4  UNL     1      25.233   8.153  34.022  1.00  0.00     0.002 C 
BRANCH   2   3
HETATM    3  C3  UNL     1      23.988   8.460  34.810  1.00  0.00     0.020 C 
BRANCH   3   4
HETATM    4  C2  UNL     1      23.927   9.987  34.971  1.00  0.00     0.120 C 
BRANCH   4   5
HETATM    5  N4  UNL     1      24.753  10.550  33.938  1.00  0.00    -0.385 N 
HETATM    6  C1  UNL     1      25.373  11.655  34.014  1.00  0.00     0.194 C 
ATOM      7  H4  UNL     1      24.848  10.018  33.073  1.00  0.00     0.160 HD
BRANCH   6   8
HETATM    8  N3  UNL     1      26.154  12.083  32.908  1.00  0.00    -0.283 N 
ATOM      9  H3  UNL     1      26.220  11.483  32.085  1.00  0.00     0.189 HD
BRANCH   8  10
HETATM   10  N2  UNL     1      26.831  13.299  32.912  1.00  0.00    -0.248 N 
HETATM   11  N1  UNL     1      26.404  14.228  33.649  1.00  0.00    -0.331 N 
ATOM     12  H12 UNL     1      25.576  14.076  34.224  1.00  0.00     0.178 HD
ATOM     13  H11 UNL     1      26.900  15.119  33.652  1.00  0.00     0.178 HD
ATOM     14  H2  UNL     1      27.658  13.435  32.331  1.00  0.00     0.207 HD
ENDBRANCH   8  10
ENDBRANCH   6   8
ENDBRANCH   4   5
ENDBRANCH   3   4
ENDBRANCH   2   3
ENDBRANCH   1   2
BRANCH   1  15
HETATM   15  C6  UNL     1      24.120   6.084  33.185  1.00  0.00     0.055 C 
BRANCH  15  16
HETATM   16  C7  UNL     1      24.216   5.796  31.725  1.00  0.00     0.233 C 
BRANCH  16  17
HETATM   17  O1  UNL     1      24.291   7.050  31.069  1.00  0.00    -0.376 OA
ATOM     18  H1  UNL     1      23.771   6.975  30.277  1.00  0.00     0.212 HD
ENDBRANCH  16  17
BRANCH  16  19
HETATM   19  N5  UNL     1      23.210   4.946  31.213  1.00  0.00    -0.308 N 
ATOM     20  H5  UNL     1      23.314   3.937  31.323  1.00  0.00     0.183 HD
BRANCH  19  21
HETATM   21  N6  UNL     1      22.083   5.436  30.563  1.00  0.00    -0.311 N 
HETATM   22  C8  UNL     1      20.921   5.278  31.065  1.00  0.00     0.007 C 
HETATM   23  C9  UNL     1      20.764   4.569  32.350  1.00  0.00     0.080 C 
HETATM   24  C12 UNL     1      19.711   5.791  30.393  1.00  0.00     0.080 C 
HETATM   25  C10 UNL     1      19.395   3.975  32.386  1.00  0.00     0.173 C 
HETATM   26  O2  UNL     1      18.361   4.837  32.140  1.00  0.00    -0.390 OA
HETATM   27  C11 UNL     1      18.678   6.009  31.507  1.00  0.00     0.173 C 
ATOM     28  H6  UNL     1      22.187   5.926  29.676  1.00  0.00     0.186 HD
ENDBRANCH  19  21
ENDBRANCH  16  19
ENDBRANCH  15  16
ENDBRANCH   1  15
TORSDOF 11
ENDMDL
MODEL 4
REMARK VINA RESULT: -7.227915879      4.730      8.063
REMARK  11 active torsions:
REMARK  status: ('A' for Active; 'I' for Inactive)
REMARK    1  A    between atoms: N2_4  and  N3_6 
REMARK    2  A    between atoms: N3_6  and  C1_8 
REMARK    3  A    between atoms: N4_9  and  C2_11 
REMARK    4  A    between atoms: C2_11  and  C3_12 
REMARK    5  A    between atoms: C3_12  and  C4_13 
REMARK    6  A    between atoms: C4_13  and  C5_14 
REMARK    7  A    between atoms: C5_14  and  C6_15 
REMARK    8  A    between atoms: C6_15  and  C7_16 
REMARK    9  A    between atoms: C7_16  and  O1_17 
REMARK   10  A    between atoms: C7_16  and  N5_19 
REMARK   11  A    between atoms: N5_19  and  N6_21 
ROOT
HETATM    1  C5  UNL     1      19.191   3.865  34.434  1.00  0.00     0.004 C 
ENDROOT
BRANCH   1   2
HETATM    2  C4  UNL     1      18.152   4.215  33.364  1.00  0.00     0.002 C 
BRANCH   2   3
HETATM    3  C3  UNL     1      17.604   2.974  32.713  1.00  0.00     0.020 C 
BRANCH   3   4
HETATM    4  C2  UNL     1      17.290   3.338  31.253  1.00  0.00     0.120 C 
BRANCH   4   5
HETATM    5  N4  UNL     1      18.550   3.549  30.595  1.00  0.00    -0.385 N 
HETATM    6  C1  UNL     1      18.739   4.309  29.596  1.00  0.00     0.194 C 
ATOM      7  H4  UNL     1      19.360   3.047  30.960  1.00  0.00     0.160 HD
BRANCH   6   8
HETATM    8  N3  UNL     1      20.045   4.418  29.050  1.00  0.00    -0.283 N 
ATOM      9  H3  UNL     1      20.409   5.342  28.815  1.00  0.00     0.189 HD
BRANCH   8  10
HETATM   10  N2  UNL     1      20.845   3.301  28.827  1.00  0.00    -0.248 N 
HETATM   11  N1  UNL     1      22.080   3.383  29.065  1.00  0.00    -0.331 N 
ATOM     12  H12 UNL     1      22.470   4.258  29.414  1.00  0.00     0.178 HD
ATOM     13  H11 UNL     1      22.666   2.564  28.902  1.00  0.00     0.178 HD
ATOM     14  H2  UNL     1      20.439   2.434  28.477  1.00  0.00     0.207 HD
ENDBRANCH   8  10
ENDBRANCH   6   8
ENDBRANCH   4   5
ENDBRANCH   3   4
ENDBRANCH   2   3
ENDBRANCH   1   2
BRANCH   1  15
HETATM   15  C6  UNL     1      20.290   3.035  33.872  1.00  0.00     0.055 C 
BRANCH  15  16
HETATM   16  C7  UNL     1      21.403   3.833  33.286  1.00  0.00     0.233 C 
BRANCH  16  17
HETATM   17  O1  UNL     1      21.291   3.711  31.878  1.00  0.00    -0.376 OA
ATOM     18  H1  UNL     1      21.447   4.576  31.517  1.00  0.00     0.212 HD
ENDBRANCH  16  17
BRANCH  16  19
HETATM   19  N5  UNL     1      22.690   3.525  33.783  1.00  0.00    -0.308 N 
ATOM     20  H5  UNL     1      23.180   2.711  33.412  1.00  0.00     0.183 HD
BRANCH  19  21
HETATM   21  N6  UNL     1      23.312   4.293  34.760  1.00  0.00    -0.311 N 
HETATM   22  C8  UNL     1      23.936   5.363  34.450  1.00  0.00     0.007 C 
HETATM   23  C9  UNL     1      24.000   5.794  33.040  1.00  0.00     0.080 C 
HETATM   24  C12 UNL     1      24.603   6.194  35.471  1.00  0.00     0.080 C 
HETATM   25  C10 UNL     1      25.234   6.617  32.864  1.00  0.00     0.173 C 
HETATM   26  O2  UNL     1      25.385   7.662  33.734  1.00  0.00    -0.390 OA
HETATM   27  C11 UNL     1      24.647   7.612  34.887  1.00  0.00     0.173 C 
ATOM     28  H6  UNL     1      23.270   3.999  35.735  1.00  0.00     0.186 HD
ENDBRANCH  19  21
ENDBRANCH  16  19
ENDBRANCH  15  16
ENDBRANCH   1  15
TORSDOF 11
ENDMDL
MODEL 5
REMARK VINA RESULT: -7.172077356      0.936      1.531
REMARK  11 active torsions:
REMARK  status: ('A' for Active; 'I' for Inactive)
REMARK    1  A    between atoms: N2_4  and  N3_6 
REMARK    2  A    between atoms: N3_6  and  C1_8 
REMARK    3  A    between atoms: N4_9  and  C2_11 
REMARK    4  A    between atoms: C2_11  and  C3_12 
REMARK    5  A    between atoms: C3_12  and  C4_13 
REMARK    6  A    between atoms: C4_13  and  C5_14 
REMARK    7  A    between atoms: C5_14  and  C6_15 
REMARK    8  A    between atoms: C6_15  and  C7_16 
REMARK    9  A    between atoms: C7_16  and  O1_17 
REMARK   10  A    between atoms: C7_16  and  N5_19 
REMARK   11  A    between atoms: N5_19  and  N6_21 
ROOT
HETATM    1  C5  UNL     1      25.275   6.551  33.521  1.00  0.00     0.004 C 
ENDROOT
BRANCH   1   2
HETATM    2  C4  UNL     1      25.129   8.065  33.700  1.00  0.00     0.002 C 
BRANCH   2   3
HETATM    3  C3  UNL     1      24.321   8.392  34.926  1.00  0.00     0.020 C 
BRANCH   3   4
HETATM    4  C2  UNL     1      23.933   9.876  34.824  1.00  0.00     0.120 C 
BRANCH   4   5
HETATM    5  N4  UNL     1      24.835  10.478  33.881  1.00  0.00    -0.385 N 
HETATM    6  C1  UNL     1      25.320  11.648  33.973  1.00  0.00     0.194 C 
ATOM      7  H4  UNL     1      25.109   9.921  33.071  1.00  0.00     0.160 HD
BRANCH   6   8
HETATM    8  N3  UNL     1      26.202  12.110  32.961  1.00  0.00    -0.283 N 
ATOM      9  H3  UNL     1      26.476  11.471  32.214  1.00  0.00     0.189 HD
BRANCH   8  10
HETATM   10  N2  UNL     1      26.704  13.408  32.958  1.00  0.00    -0.248 N 
HETATM   11  N1  UNL     1      26.384  14.183  33.899  1.00  0.00    -0.331 N 
ATOM     12  H12 UNL     1      25.768  13.850  34.640  1.00  0.00     0.178 HD
ATOM     13  H11 UNL     1      26.752  15.135  33.897  1.00  0.00     0.178 HD
ATOM     14  H2  UNL     1      27.318  13.725  32.209  1.00  0.00     0.207 HD
ENDBRANCH   8  10
ENDBRANCH   6   8
ENDBRANCH   4   5
ENDBRANCH   3   4
ENDBRANCH   2   3
ENDBRANCH   1   2
BRANCH   1  15
HETATM   15  C6  UNL     1      23.953   5.900  33.314  1.00  0.00     0.055 C 
BRANCH  15  16
HETATM   16  C7  UNL     1      23.733   5.423  31.919  1.00  0.00     0.233 C 
BRANCH  16  17
HETATM   17  O1  UNL     1      23.716   6.576  31.095  1.00  0.00    -0.376 OA
ATOM     18  H1  UNL     1      23.675   6.267  30.197  1.00  0.00     0.212 HD
ENDBRANCH  16  17
BRANCH  16  19
HETATM   19  N5  UNL     1      22.613   4.580  31.742  1.00  0.00    -0.308 N 
ATOM     20  H5  UNL     1      22.173   4.532  30.823  1.00  0.00     0.183 HD
BRANCH  19  21
HETATM   21  N6  UNL     1      22.089   3.813  32.776  1.00  0.00    -0.311 N 
HETATM   22  C8  UNL     1      20.833   3.791  32.999  1.00  0.00     0.007 C 
HETATM   23  C9  UNL     1      19.921   4.585  32.153  1.00  0.00     0.080 C 
HETATM   24  C12 UNL     1      20.254   2.984  34.091  1.00  0.00     0.080 C 
HETATM   25  C10 UNL     1      18.702   4.900  32.955  1.00  0.00     0.173 C 
HETATM   26  O2  UNL     1      18.073   3.830  33.533  1.00  0.00    -0.390 OA
HETATM   27  C11 UNL     1      18.811   2.684  33.666  1.00  0.00     0.173 C 
ATOM     28  H6  UNL     1      22.715   3.263  33.363  1.00  0.00     0.186 HD
ENDBRANCH  19  21
ENDBRANCH  16  19
ENDBRANCH  15  16
ENDBRANCH   1  15
TORSDOF 11
ENDMDL
