MODEL 1
REMARK VINA RESULT: -6.732473005      0.000      0.000
REMARK  12 active torsions:
REMARK  status: ('A' for Active; 'I' for Inactive)
REMARK    1  A    between atoms: C2_2  and  C3_3 
REMARK    2  A    between atoms: C3_3  and  N1_4 
REMARK    3  A    between atoms: N1_4  and  C4_7 
REMARK    4  A    between atoms: C4_7  and  C5_8 
REMARK    5  A    between atoms: C5_8  and  C6_9 
REMARK    6  A    between atoms: C7_10  and  C8_11 
REMARK    7  A    between atoms: C8_11  and  N2_12 
REMARK    8  A    between atoms: C10_15  and  O1_16 
REMARK    9  A    between atoms: C11_18  and  O2_19 
REMARK   10  A    between atoms: C12_21  and  O3_22 
REMARK   11  A    between atoms: N3_25  and  C14_26 
REMARK   12  A    between atoms: C14_26  and  C15_27 
ROOT
HETATM    1  N2  UNL     1      21.798   4.923  32.282  1.00  0.00    -0.354 N 
ATOM      2  H2  UNL     1      21.307   4.416  33.019  1.00  0.00     0.166 HD
HETATM    3  C9  UNL     1      22.940   5.118  32.695  1.00  0.00     0.111 C 
HETATM    4  C10 UNL     1      24.009   5.829  31.945  1.00  0.00     0.216 C 
HETATM    5  C11 UNL     1      24.685   6.778  32.910  1.00  0.00     0.184 C 
HETATM    6  C12 UNL     1      25.407   5.878  33.915  1.00  0.00     0.167 C 
HETATM    7  C13 UNL     1      24.353   5.208  34.762  1.00  0.00     0.159 C 
HETATM    8  N3  UNL     1      23.332   4.605  33.998  1.00  0.00    -0.363 N 
ENDROOT
BRANCH   1   9
HETATM    9  C8  UNL     1      20.894   5.091  31.257  1.00  0.00     0.089 C 
BRANCH   9  10
HETATM   10  C7  UNL     1      19.797   6.056  31.398  1.00  0.00     0.013 C 
HETATM   11  C6  UNL     1      18.607   5.903  30.883  1.00  0.00    -0.024 C 
BRANCH  11  12
HETATM   12  C5  UNL     1      18.091   4.781  30.071  1.00  0.00     0.054 C 
BRANCH  12  13
HETATM   13  C4  UNL     1      17.193   3.867  30.835  1.00  0.00     0.236 C 
BRANCH  13  14
HETATM   14  N1  UNL     1      17.975   2.804  31.434  1.00  0.00    -0.072 N 
ATOM     15  H12 UNL     1      18.976   2.880  31.255  1.00  0.00     0.277 HD
ATOM     16  H11 UNL     1      17.841   1.896  30.989  1.00  0.00     0.277 HD
BRANCH  14  17
HETATM   17  C3  UNL     1      17.626   2.818  32.873  1.00  0.00     0.259 C 
BRANCH  17  18
HETATM   18  C2  UNL     1      18.874   2.906  33.634  1.00  0.00    -0.010 C 
HETATM   19  C1  UNL     1      19.145   3.858  34.460  1.00  0.00     0.008 C 
ENDBRANCH  17  18
ENDBRANCH  14  17
ENDBRANCH  13  14
ENDBRANCH  12  13
ENDBRANCH  11  12
ENDBRANCH   9  10
ENDBRANCH   1   9
BRANCH   4  20
HETATM   20  O1  UNL     1      23.564   6.450  30.813  1.00  0.00    -0.385 OA
ATOM     21  H1  UNL     1      24.260   6.813  30.279  1.00  0.00     0.210 HD
ENDBRANCH   4  20
BRANCH   8  22
HETATM   22  C14 UNL     1      22.604   3.429  34.489  1.00  0.00     0.150 C 
BRANCH  22  23
HETATM   23  C15 UNL     1      23.491   2.251  34.609  1.00  0.00    -0.017 C 
HETATM   24  C16 UNL     1      23.368   1.363  35.568  1.00  0.00     0.008 C 
ENDBRANCH  22  23
ENDBRANCH   8  22
BRANCH   5  25
HETATM   25  O2  UNL     1      25.589   7.638  32.294  1.00  0.00    -0.390 OA
ATOM     26  H2  UNL     1      25.422   8.555  32.481  1.00  0.00     0.210 HD
ENDBRANCH   5  25
BRANCH   6  27
HETATM   27  O3  UNL     1      26.306   6.568  34.690  1.00  0.00    -0.391 OA
ATOM     28  H3  UNL     1      26.654   6.043  35.401  1.00  0.00     0.210 HD
ENDBRANCH   6  27
TORSDOF 12
ENDMDL
MODEL 2
REMARK VINA RESULT: -6.722813848      3.404      7.192
REMARK  12 active torsions:
REMARK  status: ('A' for Active; 'I' for Inactive)
REMARK    1  A    between atoms: C2_2  and  C3_3 
REMARK    2  A    between atoms: C3_3  and  N1_4 
REMARK    3  A    between atoms: N1_4  and  C4_7 
REMARK    4  A    between atoms: C4_7  and  C5_8 
REMARK    5  A    between atoms: C5_8  and  C6_9 
REMARK    6  A    between atoms: C7_10  and  C8_11 
REMARK    7  A    between atoms: C8_11  and  N2_12 
REMARK    8  A    between atoms: C10_15  and  O1_16 
REMARK    9  A    between atoms: C11_18  and  O2_19 
REMARK   10  A    between atoms: C12_21  and  O3_22 
REMARK   11  A    between atoms: N3_25  and  C14_26 
REMARK   12  A    between atoms: C14_26  and  C15_27 
ROOT
HETATM    1  N2  UNL     1      23.316   4.734  31.889  1.00  0.00    -0.354 N 
ATOM      2  H2  UNL     1      23.788   4.357  31.067  1.00  0.00     0.166 HD
HETATM    3  C9  UNL     1      22.110   4.693  31.647  1.00  0.00     0.111 C 
HETATM    4  C10 UNL     1      21.038   5.147  32.571  1.00  0.00     0.216 C 
HETATM    5  C11 UNL     1      20.050   5.952  31.758  1.00  0.00     0.184 C 
HETATM    6  C12 UNL     1      19.390   4.942  30.817  1.00  0.00     0.167 C 
HETATM    7  C13 UNL     1      20.425   4.526  29.801  1.00  0.00     0.159 C 
HETATM    8  N3  UNL     1      21.648   4.136  30.386  1.00  0.00    -0.363 N 
ENDROOT
BRANCH   1   9
HETATM    9  C8  UNL     1      24.305   5.067  32.787  1.00  0.00     0.089 C 
BRANCH   9  10
HETATM   10  C7  UNL     1      25.168   6.226  32.531  1.00  0.00     0.013 C 
HETATM   11  C6  UNL     1      25.310   7.237  33.344  1.00  0.00    -0.024 C 
BRANCH  11  12
HETATM   12  C5  UNL     1      24.671   7.460  34.657  1.00  0.00     0.054 C 
BRANCH  12  13
HETATM   13  C4  UNL     1      24.168   8.853  34.837  1.00  0.00     0.236 C 
BRANCH  13  14
HETATM   14  N1  UNL     1      24.778   9.722  33.850  1.00  0.00    -0.072 N 
ATOM     15  H12 UNL     1      24.550   9.473  32.888  1.00  0.00     0.277 HD
ATOM     16  H11 UNL     1      25.788   9.605  33.770  1.00  0.00     0.277 HD
BRANCH  14  17
HETATM   17  C3  UNL     1      24.366  11.095  34.222  1.00  0.00     0.259 C 
BRANCH  17  18
HETATM   18  C2  UNL     1      25.581  11.879  34.452  1.00  0.00    -0.010 C 
HETATM   19  C1  UNL     1      26.373  12.267  33.512  1.00  0.00     0.008 C 
ENDBRANCH  17  18
ENDBRANCH  14  17
ENDBRANCH  13  14
ENDBRANCH  12  13
ENDBRANCH  11  12
ENDBRANCH   9  10
ENDBRANCH   1   9
BRANCH   4  20
HETATM   20  O1  UNL     1      21.506   5.825  33.661  1.00  0.00    -0.385 OA
ATOM     21  H1  UNL     1      20.829   6.050  34.289  1.00  0.00     0.210 HD
ENDBRANCH   4  20
BRANCH   8  22
HETATM   22  C14 UNL     1      22.522   3.150  29.741  1.00  0.00     0.150 C 
BRANCH  22  23
HETATM   23  C15 UNL     1      22.002   2.746  28.416  1.00  0.00    -0.017 C 
HETATM   24  C16 UNL     1      22.784   2.405  27.418  1.00  0.00     0.008 C 
ENDBRANCH  22  23
ENDBRANCH   8  22
BRANCH   5  25
HETATM   25  O2  UNL     1      19.088   6.591  32.535  1.00  0.00    -0.390 OA
ATOM     26  H2  UNL     1      19.445   7.277  33.086  1.00  0.00     0.210 HD
ENDBRANCH   5  25
BRANCH   6  27
HETATM   27  O3  UNL     1      18.265   5.444  30.209  1.00  0.00    -0.391 OA
ATOM     28  H3  UNL     1      18.335   5.449  29.261  1.00  0.00     0.210 HD
ENDBRANCH   6  27
TORSDOF 12
ENDMDL
MODEL 3
REMARK VINA RESULT: -6.722231209      1.057      1.234
REMARK  12 active torsions:
REMARK  status: ('A' for Active; 'I' for Inactive)
REMARK    1  A    between atoms: C2_2  and  C3_3 
REMARK    2  A    between atoms: C3_3  and  N1_4 
REMARK    3  A    between atoms: N1_4  and  C4_7 
REMARK    4  A    between atoms: C4_7  and  C5_8 
REMARK    5  A    between atoms: C5_8  and  C6_9 
REMARK    6  A    between atoms: C7_10  and  C8_11 
REMARK    7  A    between atoms: C8_11  and  N2_12 
REMARK    8  A    between atoms: C10_15  and  O1_16 
REMARK    9  A    between atoms: C11_18  and  O2_19 
REMARK   10  A    between atoms: C12_21  and  O3_22 
REMARK   11  A    between atoms: N3_25  and  C14_26 
REMARK   12  A    between atoms: C14_26  and  C15_27 
ROOT
HETATM    1  N2  UNL     1      22.167   5.051  31.892  1.00  0.00    -0.354 N 
ATOM      2  H2  UNL     1      21.608   4.431  32.479  1.00  0.00     0.166 HD
HETATM    3  C9  UNL     1      23.208   5.269  32.510  1.00  0.00     0.111 C 
HETATM    4  C10 UNL     1      24.322   6.129  32.031  1.00  0.00     0.216 C 
HETATM    5  C11 UNL     1      24.753   6.999  33.190  1.00  0.00     0.184 C 
HETATM    6  C12 UNL     1      25.375   6.036  34.202  1.00  0.00     0.167 C 
HETATM    7  C13 UNL     1      24.257   5.206  34.784  1.00  0.00     0.159 C 
HETATM    8  N3  UNL     1      23.425   4.633  33.800  1.00  0.00    -0.363 N 
ENDROOT
BRANCH   1   9
HETATM    9  C8  UNL     1      21.429   5.280  30.753  1.00  0.00     0.089 C 
BRANCH   9  10
HETATM   10  C7  UNL     1      20.633   4.197  30.164  1.00  0.00     0.013 C 
HETATM   11  C6  UNL     1      19.387   4.313  29.791  1.00  0.00    -0.024 C 
BRANCH  11  12
HETATM   12  C5  UNL     1      18.509   5.499  29.867  1.00  0.00     0.054 C 
BRANCH  12  13
HETATM   13  C4  UNL     1      17.511   5.422  30.973  1.00  0.00     0.236 C 
BRANCH  13  14
HETATM   14  N1  UNL     1      18.123   5.856  32.213  1.00  0.00    -0.072 N 
ATOM     15  H12 UNL     1      17.862   6.803  32.490  1.00  0.00     0.277 HD
ATOM     16  H11 UNL     1      19.126   6.025  32.137  1.00  0.00     0.277 HD
BRANCH  14  17
HETATM   17  C3  UNL     1      17.767   4.825  33.213  1.00  0.00     0.259 C 
BRANCH  17  18
HETATM   18  C2  UNL     1      18.990   4.095  33.557  1.00  0.00    -0.010 C 
HETATM   19  C1  UNL     1      19.062   2.810  33.629  1.00  0.00     0.008 C 
ENDBRANCH  17  18
ENDBRANCH  14  17
ENDBRANCH  13  14
ENDBRANCH  12  13
ENDBRANCH  11  12
ENDBRANCH   9  10
ENDBRANCH   1   9
BRANCH   4  20
HETATM   20  O1  UNL     1      24.014   6.848  30.911  1.00  0.00    -0.385 OA
ATOM     21  H1  UNL     1      24.430   7.702  30.882  1.00  0.00     0.210 HD
ENDBRANCH   4  20
BRANCH   8  22
HETATM   22  C14 UNL     1      22.727   3.364  34.035  1.00  0.00     0.150 C 
BRANCH  22  23
HETATM   23  C15 UNL     1      23.645   2.325  34.553  1.00  0.00    -0.017 C 
HETATM   24  C16 UNL     1      23.299   1.474  35.491  1.00  0.00     0.008 C 
ENDBRANCH  22  23
ENDBRANCH   8  22
BRANCH   5  25
HETATM   25  O2  UNL     1      25.670   7.982  32.829  1.00  0.00    -0.390 OA
ATOM     26  H2  UNL     1      25.606   8.238  31.916  1.00  0.00     0.210 HD
ENDBRANCH   5  25
BRANCH   6  27
HETATM   27  O3  UNL     1      26.078   6.687  35.187  1.00  0.00    -0.391 OA
ATOM     28  H3  UNL     1      26.310   6.115  35.909  1.00  0.00     0.210 HD
ENDBRANCH   6  27
TORSDOF 12
ENDMDL
MODEL 4
REMARK VINA RESULT: -6.599125067      2.557      4.165
REMARK  12 active torsions:
REMARK  status: ('A' for Active; 'I' for Inactive)
REMARK    1  A    between atoms: C2_2  and  C3_3 
REMARK    2  A    between atoms: C3_3  and  N1_4 
REMARK    3  A    between atoms: N1_4  and  C4_7 
REMARK    4  A    between atoms: C4_7  and  C5_8 
REMARK    5  A    between atoms: C5_8  and  C6_9 
REMARK    6  A    between atoms: C7_10  and  C8_11 
REMARK    7  A    between atoms: C8_11  and  N2_12 
REMARK    8  A    between atoms: C10_15  and  O1_16 
REMARK    9  A    between atoms: C11_18  and  O2_19 
REMARK   10  A    between atoms: C12_21  and  O3_22 
REMARK   11  A    between atoms: N3_25  and  C14_26 
REMARK   12  A    between atoms: C14_26  and  C15_27 
ROOT
HETATM    1  N2  UNL     1      19.819   5.606  32.250  1.00  0.00    -0.354 N 
ATOM      2  H2  UNL     1      19.111   5.484  32.974  1.00  0.00     0.166 HD
HETATM    3  C9  UNL     1      20.847   5.082  32.678  1.00  0.00     0.111 C 
HETATM    4  C10 UNL     1      22.143   5.024  31.951  1.00  0.00     0.216 C 
HETATM    5  C11 UNL     1      23.232   5.380  32.938  1.00  0.00     0.184 C 
HETATM    6  C12 UNL     1      23.260   4.220  33.936  1.00  0.00     0.167 C 
HETATM    7  C13 UNL     1      21.999   4.301  34.761  1.00  0.00     0.159 C 
HETATM    8  N3  UNL     1      20.834   4.427  33.976  1.00  0.00    -0.363 N 
ENDROOT
BRANCH   1   9
HETATM    9  C8  UNL     1      19.211   6.285  31.219  1.00  0.00     0.089 C 
BRANCH   9  10
HETATM   10  C7  UNL     1      18.724   5.553  30.044  1.00  0.00     0.013 C 
HETATM   11  C6  UNL     1      17.465   5.401  29.736  1.00  0.00    -0.024 C 
BRANCH  11  12
HETATM   12  C5  UNL     1      16.274   5.900  30.455  1.00  0.00     0.054 C 
BRANCH  12  13
HETATM   13  C4  UNL     1      14.994   5.604  29.748  1.00  0.00     0.236 C 
BRANCH  13  14
HETATM   14  N1  UNL     1      14.613   6.739  28.933  1.00  0.00    -0.072 N 
ATOM     15  H12 UNL     1      15.285   7.506  28.958  1.00  0.00     0.277 HD
ATOM     16  H11 UNL     1      13.819   7.261  29.303  1.00  0.00     0.277 HD
BRANCH  14  17
HETATM   17  C3  UNL     1      14.384   6.194  27.575  1.00  0.00     0.259 C 
BRANCH  17  18
HETATM   18  C2  UNL     1      15.325   6.850  26.666  1.00  0.00    -0.010 C 
HETATM   19  C1  UNL     1      16.486   6.375  26.369  1.00  0.00     0.008 C 
ENDBRANCH  17  18
ENDBRANCH  14  17
ENDBRANCH  13  14
ENDBRANCH  12  13
ENDBRANCH  11  12
ENDBRANCH   9  10
ENDBRANCH   1   9
BRANCH   4  20
HETATM   20  O1  UNL     1      22.173   5.797  30.825  1.00  0.00    -0.385 OA
ATOM     21  H1  UNL     1      22.923   6.379  30.783  1.00  0.00     0.210 HD
ENDBRANCH   4  20
BRANCH   8  22
HETATM   22  C14 UNL     1      19.542   3.910  34.441  1.00  0.00     0.150 C 
BRANCH  22  23
HETATM   23  C15 UNL     1      19.175   2.657  33.744  1.00  0.00    -0.017 C 
HETATM   24  C16 UNL     1      18.061   2.521  33.063  1.00  0.00     0.008 C 
ENDBRANCH  22  23
ENDBRANCH   8  22
BRANCH   5  25
HETATM   25  O2  UNL     1      24.481   5.540  32.346  1.00  0.00    -0.390 OA
ATOM     26  H2  UNL     1      25.165   5.034  32.770  1.00  0.00     0.210 HD
ENDBRANCH   5  25
BRANCH   6  27
HETATM   27  O3  UNL     1      24.380   4.236  34.732  1.00  0.00    -0.391 OA
ATOM     28  H3  UNL     1      24.355   3.571  35.410  1.00  0.00     0.210 HD
ENDBRANCH   6  27
TORSDOF 12
ENDMDL
MODEL 5
REMARK VINA RESULT: -6.587796309      1.081      2.258
REMARK  12 active torsions:
REMARK  status: ('A' for Active; 'I' for Inactive)
REMARK    1  A    between atoms: C2_2  and  C3_3 
REMARK    2  A    between atoms: C3_3  and  N1_4 
REMARK    3  A    between atoms: N1_4  and  C4_7 
REMARK    4  A    between atoms: C4_7  and  C5_8 
REMARK    5  A    between atoms: C5_8  and  C6_9 
REMARK    6  A    between atoms: C7_10  and  C8_11 
REMARK    7  A    between atoms: C8_11  and  N2_12 
REMARK    8  A    between atoms: C10_15  and  O1_16 
REMARK    9  A    between atoms: C11_18  and  O2_19 
REMARK   10  A    between atoms: C12_21  and  O3_22 
REMARK   11  A    between atoms: N3_25  and  C14_26 
REMARK   12  A    between atoms: C14_26  and  C15_27 
ROOT
HETATM    1  N2  UNL     1      21.481   5.354  32.498  1.00  0.00    -0.354 N 
ATOM      2  H2  UNL     1      20.935   5.042  33.302  1.00  0.00     0.166 HD
HETATM    3  C9  UNL     1      22.651   5.404  32.872  1.00  0.00     0.111 C 
HETATM    4  C10 UNL     1      23.802   5.814  32.024  1.00  0.00     0.216 C 
HETATM    5  C11 UNL     1      24.657   6.753  32.844  1.00  0.00     0.184 C 
HETATM    6  C12 UNL     1      25.247   5.886  33.958  1.00  0.00     0.167 C 
HETATM    7  C13 UNL     1      24.122   5.526  34.897  1.00  0.00     0.159 C 
HETATM    8  N3  UNL     1      22.991   5.011  34.230  1.00  0.00    -0.363 N 
ENDROOT
BRANCH   1   9
HETATM    9  C8  UNL     1      20.587   5.536  31.467  1.00  0.00     0.089 C 
BRANCH   9  10
HETATM   10  C7  UNL     1      19.225   6.003  31.750  1.00  0.00     0.013 C 
HETATM   11  C6  UNL     1      18.204   5.219  31.966  1.00  0.00    -0.024 C 
BRANCH  11  12
HETATM   12  C5  UNL     1      18.162   3.743  31.978  1.00  0.00     0.054 C 
BRANCH  12  13
HETATM   13  C4  UNL     1      17.204   3.173  30.987  1.00  0.00     0.236 C 
BRANCH  13  14
HETATM   14  N1  UNL     1      17.751   3.300  29.651  1.00  0.00    -0.072 N 
ATOM     15  H12 UNL     1      18.131   2.430  29.280  1.00  0.00     0.277 HD
ATOM     16  H11 UNL     1      18.617   3.837  29.613  1.00  0.00     0.277 HD
BRANCH  14  17
HETATM   17  C3  UNL     1      16.660   3.872  28.829  1.00  0.00     0.259 C 
BRANCH  17  18
HETATM   18  C2  UNL     1      17.068   5.217  28.418  1.00  0.00    -0.010 C 
HETATM   19  C1  UNL     1      18.291   5.560  28.196  1.00  0.00     0.008 C 
ENDBRANCH  17  18
ENDBRANCH  14  17
ENDBRANCH  13  14
ENDBRANCH  12  13
ENDBRANCH  11  12
ENDBRANCH   9  10
ENDBRANCH   1   9
BRANCH   4  20
HETATM   20  O1  UNL     1      23.433   6.345  30.821  1.00  0.00    -0.385 OA
ATOM     21  H1  UNL     1      22.678   6.919  30.874  1.00  0.00     0.210 HD
ENDBRANCH   4  20
BRANCH   8  22
HETATM   22  C14 UNL     1      22.090   4.053  34.883  1.00  0.00     0.150 C 
BRANCH  22  23
HETATM   23  C15 UNL     1      22.417   2.659  34.513  1.00  0.00    -0.017 C 
HETATM   24  C16 UNL     1      23.156   1.877  35.266  1.00  0.00     0.008 C 
ENDBRANCH  22  23
ENDBRANCH   8  22
BRANCH   5  25
HETATM   25  O2  UNL     1      25.674   7.355  32.109  1.00  0.00    -0.390 OA
ATOM     26  H2  UNL     1      26.418   7.615  32.640  1.00  0.00     0.210 HD
ENDBRANCH   5  25
BRANCH   6  27
HETATM   27  O3  UNL     1      26.274   6.510  34.625  1.00  0.00    -0.391 OA
ATOM     28  H3  UNL     1      26.561   6.023  35.388  1.00  0.00     0.210 HD
ENDBRANCH   6  27
TORSDOF 12
ENDMDL
