MODEL 1
REMARK VINA RESULT: -8.788308608      0.000      0.000
REMARK  10 active torsions:
REMARK  status: ('A' for Active; 'I' for Inactive)
REMARK    1  A    between atoms: C1_2  and  C2_3 
REMARK       I    between atoms: C1_2  and  N1_10 
REMARK    2  A    between atoms: C3_4  and  C4_5 
REMARK    3  A    between atoms: N1_10  and  C9_11 
REMARK    4  A    between atoms: N1_10  and  C15_23 
REMARK    5  A    between atoms: C9_11  and  C10_12 
REMARK    6  A    between atoms: C11_13  and  C12_14 
REMARK    7  A    between atoms: C12_14  and  C13_15 
REMARK    8  A    between atoms: C13_15  and  C14_16 
REMARK    9  A    between atoms: C14_16  and  O2_17 
REMARK   10  A    between atoms: N2_19  and  O3_21 
ROOT
HETATM    1  O1  UNL     1      72.187  33.888  22.956  1.00  0.00    -0.268 OA
HETATM    2  C1  UNL     1      71.610  34.274  23.976  1.00  0.00     0.248 C 
HETATM    3  N1  UNL     1      71.522  33.290  25.024  1.00  0.00    -0.302 N 
ENDROOT
BRANCH   3   4
HETATM    4  C9  UNL     1      71.009  33.663  26.299  1.00  0.00     0.226 C 
BRANCH   4   5
HETATM    5  C10 UNL     1      69.718  32.968  26.499  1.00  0.00    -0.086 C 
HETATM    6  C11 UNL     1      68.689  32.389  26.663  1.00  0.00    -0.104 C 
BRANCH   6   7
HETATM    7  C12 UNL     1      67.439  31.656  26.864  1.00  0.00     0.102 C 
BRANCH   7   8
HETATM    8  C13 UNL     1      66.652  32.412  27.916  1.00  0.00     0.098 C 
BRANCH   8   9
HETATM    9  C14 UNL     1      65.208  32.154  27.682  1.00  0.00     0.136 C 
HETATM   10  N2  UNL     1      64.550  32.601  26.671  1.00  0.00    -0.251 N 
ATOM     11  H2  UNL     1      63.561  32.361  26.616  1.00  0.00     0.196 HD
BRANCH   9  12
HETATM   12  O2  UNL     1      64.533  31.387  28.614  1.00  0.00    -0.348 OA
ATOM     13  H2  UNL     1      63.663  31.081  28.387  1.00  0.00     0.219 HD
ENDBRANCH   9  12
BRANCH  10  14
HETATM   14  O3  UNL     1      65.058  33.363  25.673  1.00  0.00    -0.288 OA
ATOM     15  H3  UNL     1      65.130  34.311  25.682  1.00  0.00     0.244 HD
ENDBRANCH  10  14
ENDBRANCH   8   9
ENDBRANCH   7   8
ENDBRANCH   6   7
ENDBRANCH   4   5
ENDBRANCH   3   4
BRANCH   3  16
HETATM   16  C15 UNL     1      71.967  31.961  24.825  1.00  0.00     0.056 A 
HETATM   17  C16 UNL     1      71.154  31.004  24.237  1.00  0.00     0.031 A 
HETATM   18  C17 UNL     1      71.531  29.701  24.017  1.00  0.00     0.002 A 
HETATM   19  C18 UNL     1      72.794  29.298  24.400  1.00  0.00     0.002 A 
HETATM   20  C19 UNL     1      73.622  30.221  24.984  1.00  0.00     0.021 A 
HETATM   21  C20 UNL     1      73.234  31.525  25.200  1.00  0.00     0.037 A 
HETATM   22 BR1  UNL     1      74.448  32.751  26.012  1.00  0.00    -0.049 Br
ENDBRANCH   3  16
BRANCH   2  23
HETATM   23  C2  UNL     1      71.057  35.585  24.136  1.00  0.00     0.071 C 
HETATM   24  C3  UNL     1      69.961  36.080  23.715  1.00  0.00    -0.017 C 
BRANCH  24  25
HETATM   25  C4  UNL     1      68.786  35.775  22.968  1.00  0.00     0.008 C 
HETATM   26  C5  UNL     1      67.806  34.977  23.849  1.00  0.00     0.008 C 
HETATM   27  C6  UNL     1      66.697  34.683  22.858  1.00  0.00     0.001 C 
HETATM   28  C7  UNL     1      66.663  35.867  21.929  1.00  0.00     0.001 C 
HETATM   29  C8  UNL     1      67.877  36.760  22.380  1.00  0.00     0.008 C 
ENDBRANCH  24  25
ENDBRANCH   2  23
TORSDOF 10
ENDMDL
MODEL 2
REMARK VINA RESULT: -8.755999137      1.032      1.095
REMARK  10 active torsions:
REMARK  status: ('A' for Active; 'I' for Inactive)
REMARK    1  A    between atoms: C1_2  and  C2_3 
REMARK       I    between atoms: C1_2  and  N1_10 
REMARK    2  A    between atoms: C3_4  and  C4_5 
REMARK    3  A    between atoms: N1_10  and  C9_11 
REMARK    4  A    between atoms: N1_10  and  C15_23 
REMARK    5  A    between atoms: C9_11  and  C10_12 
REMARK    6  A    between atoms: C11_13  and  C12_14 
REMARK    7  A    between atoms: C12_14  and  C13_15 
REMARK    8  A    between atoms: C13_15  and  C14_16 
REMARK    9  A    between atoms: C14_16  and  O2_17 
REMARK   10  A    between atoms: N2_19  and  O3_21 
ROOT
HETATM    1  O1  UNL     1      71.949  34.131  23.311  1.00  0.00    -0.268 OA
HETATM    2  C1  UNL     1      71.172  34.327  24.249  1.00  0.00     0.248 C 
HETATM    3  N1  UNL     1      71.040  33.221  25.160  1.00  0.00    -0.302 N 
ENDROOT
BRANCH   3   4
HETATM    4  C9  UNL     1      70.286  33.380  26.358  1.00  0.00     0.226 C 
BRANCH   4   5
HETATM    5  C10 UNL     1      68.918  32.874  26.114  1.00  0.00    -0.086 C 
HETATM    6  C11 UNL     1      67.819  32.466  25.895  1.00  0.00    -0.104 C 
BRANCH   6   7
HETATM    7  C12 UNL     1      66.474  31.971  25.601  1.00  0.00     0.102 C 
BRANCH   7   8
HETATM    8  C13 UNL     1      65.512  32.794  26.435  1.00  0.00     0.098 C 
BRANCH   8   9
HETATM    9  C14 UNL     1      65.252  32.056  27.698  1.00  0.00     0.136 C 
HETATM   10  N2  UNL     1      64.270  31.244  27.870  1.00  0.00    -0.251 N 
ATOM     11  H2  UNL     1      64.191  30.795  28.781  1.00  0.00     0.196 HD
BRANCH   9  12
HETATM   12  O2  UNL     1      66.124  32.261  28.752  1.00  0.00    -0.348 OA
ATOM     13  H2  UNL     1      66.637  31.520  29.051  1.00  0.00     0.219 HD
ENDBRANCH   9  12
BRANCH  10  14
HETATM   14  O3  UNL     1      63.331  30.933  26.945  1.00  0.00    -0.288 OA
ATOM     15  H3  UNL     1      62.755  30.178  26.972  1.00  0.00     0.244 HD
ENDBRANCH  10  14
ENDBRANCH   8   9
ENDBRANCH   7   8
ENDBRANCH   6   7
ENDBRANCH   4   5
ENDBRANCH   3   4
BRANCH   3  16
HETATM   16  C15 UNL     1      71.672  31.980  24.908  1.00  0.00     0.056 A 
HETATM   17  C16 UNL     1      71.012  30.946  24.263  1.00  0.00     0.031 A 
HETATM   18  C17 UNL     1      71.574  29.722  23.989  1.00  0.00     0.002 A 
HETATM   19  C18 UNL     1      72.877  29.485  24.373  1.00  0.00     0.002 A 
HETATM   20  C19 UNL     1      73.559  30.488  25.013  1.00  0.00     0.021 A 
HETATM   21  C20 UNL     1      72.986  31.712  25.283  1.00  0.00     0.037 A 
HETATM   22 BR1  UNL     1      74.003  33.058  26.171  1.00  0.00    -0.049 Br
ENDBRANCH   3  16
BRANCH   2  23
HETATM   23  C2  UNL     1      70.442  35.544  24.443  1.00  0.00     0.071 C 
HETATM   24  C3  UNL     1      69.309  35.912  23.989  1.00  0.00    -0.017 C 
BRANCH  24  25
HETATM   25  C4  UNL     1      68.221  35.497  23.169  1.00  0.00     0.008 C 
HETATM   26  C5  UNL     1      66.968  35.286  24.040  1.00  0.00     0.008 C 
HETATM   27  C6  UNL     1      65.982  34.769  23.011  1.00  0.00     0.001 C 
HETATM   28  C7  UNL     1      66.351  35.454  21.722  1.00  0.00     0.001 C 
HETATM   29  C8  UNL     1      67.651  36.269  22.063  1.00  0.00     0.008 C 
ENDBRANCH  24  25
ENDBRANCH   2  23
TORSDOF 10
ENDMDL
MODEL 3
REMARK VINA RESULT: -8.608064471      1.982      3.494
REMARK  10 active torsions:
REMARK  status: ('A' for Active; 'I' for Inactive)
REMARK    1  A    between atoms: C1_2  and  C2_3 
REMARK       I    between atoms: C1_2  and  N1_10 
REMARK    2  A    between atoms: C3_4  and  C4_5 
REMARK    3  A    between atoms: N1_10  and  C9_11 
REMARK    4  A    between atoms: N1_10  and  C15_23 
REMARK    5  A    between atoms: C9_11  and  C10_12 
REMARK    6  A    between atoms: C11_13  and  C12_14 
REMARK    7  A    between atoms: C12_14  and  C13_15 
REMARK    8  A    between atoms: C13_15  and  C14_16 
REMARK    9  A    between atoms: C14_16  and  O2_17 
REMARK   10  A    between atoms: N2_19  and  O3_21 
ROOT
HETATM    1  O1  UNL     1      72.192  33.902  22.946  1.00  0.00    -0.268 OA
HETATM    2  C1  UNL     1      71.689  34.312  23.996  1.00  0.00     0.248 C 
HETATM    3  N1  UNL     1      71.604  33.328  25.043  1.00  0.00    -0.302 N 
ENDROOT
BRANCH   3   4
HETATM    4  C9  UNL     1      71.177  33.719  26.345  1.00  0.00     0.226 C 
BRANCH   4   5
HETATM    5  C10 UNL     1      69.860  33.098  26.606  1.00  0.00    -0.086 C 
HETATM    6  C11 UNL     1      68.792  32.616  26.826  1.00  0.00    -0.104 C 
BRANCH   6   7
HETATM    7  C12 UNL     1      67.474  32.047  27.109  1.00  0.00     0.102 C 
BRANCH   7   8
HETATM    8  C13 UNL     1      66.639  32.231  25.858  1.00  0.00     0.098 C 
BRANCH   8   9
HETATM    9  C14 UNL     1      65.483  33.099  26.202  1.00  0.00     0.136 C 
HETATM   10  N2  UNL     1      64.921  33.911  25.378  1.00  0.00    -0.251 N 
ATOM     11  H2  UNL     1      64.134  34.458  25.726  1.00  0.00     0.196 HD
BRANCH   9  12
HETATM   12  O2  UNL     1      64.986  33.027  27.491  1.00  0.00    -0.348 OA
ATOM     13  H2  UNL     1      65.199  33.736  28.086  1.00  0.00     0.219 HD
ENDBRANCH   9  12
BRANCH  10  14
HETATM   14  O3  UNL     1      65.282  34.102  24.087  1.00  0.00    -0.288 OA
ATOM     15  H3  UNL     1      64.917  34.754  23.500  1.00  0.00     0.244 HD
ENDBRANCH  10  14
ENDBRANCH   8   9
ENDBRANCH   7   8
ENDBRANCH   6   7
ENDBRANCH   4   5
ENDBRANCH   3   4
BRANCH   3  16
HETATM   16  C15 UNL     1      71.966  31.978  24.818  1.00  0.00     0.056 A 
HETATM   17  C16 UNL     1      71.080  31.073  24.254  1.00  0.00     0.031 A 
HETATM   18  C17 UNL     1      71.376  29.753  24.009  1.00  0.00     0.002 A 
HETATM   19  C18 UNL     1      72.628  29.278  24.340  1.00  0.00     0.002 A 
HETATM   20  C19 UNL     1      73.528  30.148  24.899  1.00  0.00     0.021 A 
HETATM   21  C20 UNL     1      73.221  31.470  25.140  1.00  0.00     0.037 A 
HETATM   22 BR1  UNL     1      74.531  32.619  25.914  1.00  0.00    -0.049 Br
ENDBRANCH   3  16
BRANCH   2  23
HETATM   23  C2  UNL     1      71.216  35.650  24.189  1.00  0.00     0.071 C 
HETATM   24  C3  UNL     1      71.852  36.726  24.436  1.00  0.00    -0.017 C 
BRANCH  24  25
HETATM   25  C4  UNL     1      73.157  37.254  24.650  1.00  0.00     0.008 C 
HETATM   26  C5  UNL     1      73.068  38.507  25.543  1.00  0.00     0.008 C 
HETATM   27  C6  UNL     1      74.517  38.953  25.565  1.00  0.00     0.001 C 
HETATM   28  C7  UNL     1      75.328  37.687  25.484  1.00  0.00     0.001 C 
HETATM   29  C8  UNL     1      74.263  36.545  25.295  1.00  0.00     0.008 C 
ENDBRANCH  24  25
ENDBRANCH   2  23
TORSDOF 10
ENDMDL
MODEL 4
REMARK VINA RESULT: -8.497691925      2.093      5.562
REMARK  10 active torsions:
REMARK  status: ('A' for Active; 'I' for Inactive)
REMARK    1  A    between atoms: C1_2  and  C2_3 
REMARK       I    between atoms: C1_2  and  N1_10 
REMARK    2  A    between atoms: C3_4  and  C4_5 
REMARK    3  A    between atoms: N1_10  and  C9_11 
REMARK    4  A    between atoms: N1_10  and  C15_23 
REMARK    5  A    between atoms: C9_11  and  C10_12 
REMARK    6  A    between atoms: C11_13  and  C12_14 
REMARK    7  A    between atoms: C12_14  and  C13_15 
REMARK    8  A    between atoms: C13_15  and  C14_16 
REMARK    9  A    between atoms: C14_16  and  O2_17 
REMARK   10  A    between atoms: N2_19  and  O3_21 
ROOT
HETATM    1  O1  UNL     1      71.341  34.563  23.226  1.00  0.00    -0.268 OA
HETATM    2  C1  UNL     1      70.739  34.733  24.290  1.00  0.00     0.248 C 
HETATM    3  N1  UNL     1      69.801  35.825  24.280  1.00  0.00    -0.302 N 
ENDROOT
BRANCH   3   4
HETATM    4  C9  UNL     1      68.944  36.028  25.400  1.00  0.00     0.226 C 
BRANCH   4   5
HETATM    5  C10 UNL     1      67.758  35.159  25.238  1.00  0.00    -0.086 C 
HETATM    6  C11 UNL     1      66.798  34.460  25.129  1.00  0.00    -0.104 C 
BRANCH   6   7
HETATM    7  C12 UNL     1      65.619  33.601  25.023  1.00  0.00     0.102 C 
BRANCH   7   8
HETATM    8  C13 UNL     1      65.943  32.319  25.764  1.00  0.00     0.098 C 
BRANCH   8   9
HETATM    9  C14 UNL     1      65.055  32.238  26.952  1.00  0.00     0.136 C 
HETATM   10  N2  UNL     1      64.053  31.438  27.050  1.00  0.00    -0.251 N 
ATOM     11  H2  UNL     1      63.513  31.471  27.914  1.00  0.00     0.196 HD
BRANCH   9  12
HETATM   12  O2  UNL     1      65.328  33.079  28.016  1.00  0.00    -0.348 OA
ATOM     13  H2  UNL     1      66.211  33.420  28.093  1.00  0.00     0.219 HD
ENDBRANCH   9  12
BRANCH  10  14
HETATM   14  O3  UNL     1      63.651  30.556  26.105  1.00  0.00    -0.288 OA
ATOM     15  H3  UNL     1      62.914  30.671  25.516  1.00  0.00     0.244 HD
ENDBRANCH  10  14
ENDBRANCH   8   9
ENDBRANCH   7   8
ENDBRANCH   6   7
ENDBRANCH   4   5
ENDBRANCH   3   4
BRANCH   3  16
HETATM   16  C15 UNL     1      69.687  36.689  23.165  1.00  0.00     0.056 A 
HETATM   17  C16 UNL     1      68.720  36.494  22.191  1.00  0.00     0.031 A 
HETATM   18  C17 UNL     1      68.560  37.300  21.089  1.00  0.00     0.002 A 
HETATM   19  C18 UNL     1      69.406  38.376  20.921  1.00  0.00     0.002 A 
HETATM   20  C19 UNL     1      70.374  38.597  21.868  1.00  0.00     0.021 A 
HETATM   21  C20 UNL     1      70.525  37.782  22.969  1.00  0.00     0.037 A 
HETATM   22 BR1  UNL     1      71.891  38.161  24.245  1.00  0.00    -0.049 Br
ENDBRANCH   3  16
BRANCH   2  23
HETATM   23  C2  UNL     1      70.937  33.930  25.459  1.00  0.00     0.071 C 
HETATM   24  C3  UNL     1      71.298  32.714  25.577  1.00  0.00    -0.017 C 
BRANCH  24  25
HETATM   25  C4  UNL     1      71.670  31.558  24.832  1.00  0.00     0.008 C 
HETATM   26  C5  UNL     1      73.084  31.109  25.245  1.00  0.00     0.008 C 
HETATM   27  C6  UNL     1      73.315  29.955  24.290  1.00  0.00     0.001 C 
HETATM   28  C7  UNL     1      71.960  29.337  24.071  1.00  0.00     0.001 C 
HETATM   29  C8  UNL     1      70.966  30.275  24.850  1.00  0.00     0.008 C 
ENDBRANCH  24  25
ENDBRANCH   2  23
TORSDOF 10
ENDMDL
MODEL 5
REMARK VINA RESULT: -8.305314795      1.867      3.532
REMARK  10 active torsions:
REMARK  status: ('A' for Active; 'I' for Inactive)
REMARK    1  A    between atoms: C1_2  and  C2_3 
REMARK       I    between atoms: C1_2  and  N1_10 
REMARK    2  A    between atoms: C3_4  and  C4_5 
REMARK    3  A    between atoms: N1_10  and  C9_11 
REMARK    4  A    between atoms: N1_10  and  C15_23 
REMARK    5  A    between atoms: C9_11  and  C10_12 
REMARK    6  A    between atoms: C11_13  and  C12_14 
REMARK    7  A    between atoms: C12_14  and  C13_15 
REMARK    8  A    between atoms: C13_15  and  C14_16 
REMARK    9  A    between atoms: C14_16  and  O2_17 
REMARK   10  A    between atoms: N2_19  and  O3_21 
ROOT
HETATM    1  O1  UNL     1      72.312  33.913  22.947  1.00  0.00    -0.268 OA
HETATM    2  C1  UNL     1      71.726  34.302  23.961  1.00  0.00     0.248 C 
HETATM    3  N1  UNL     1      71.588  33.308  24.992  1.00  0.00    -0.302 N 
ENDROOT
BRANCH   3   4
HETATM    4  C9  UNL     1      71.060  33.678  26.263  1.00  0.00     0.226 C 
BRANCH   4   5
HETATM    5  C10 UNL     1      69.790  32.949  26.467  1.00  0.00    -0.086 C 
HETATM    6  C11 UNL     1      68.756  32.374  26.616  1.00  0.00    -0.104 C 
BRANCH   6   7
HETATM    7  C12 UNL     1      67.476  31.686  26.783  1.00  0.00     0.102 C 
BRANCH   7   8
HETATM    8  C13 UNL     1      66.738  32.398  27.899  1.00  0.00     0.098 C 
BRANCH   8   9
HETATM    9  C14 UNL     1      65.285  32.343  27.597  1.00  0.00     0.136 C 
HETATM   10  N2  UNL     1      64.439  31.630  28.253  1.00  0.00    -0.251 N 
ATOM     11  H2  UNL     1      63.465  31.671  27.955  1.00  0.00     0.196 HD
BRANCH   9  12
HETATM   12  O2  UNL     1      64.818  33.108  26.544  1.00  0.00    -0.348 OA
ATOM     13  H2  UNL     1      63.911  32.996  26.285  1.00  0.00     0.219 HD
ENDBRANCH   9  12
BRANCH  10  14
HETATM   14  O3  UNL     1      64.729  30.828  29.306  1.00  0.00    -0.288 OA
ATOM     15  H3  UNL     1      64.210  30.089  29.599  1.00  0.00     0.244 HD
ENDBRANCH  10  14
ENDBRANCH   8   9
ENDBRANCH   7   8
ENDBRANCH   6   7
ENDBRANCH   4   5
ENDBRANCH   3   4
BRANCH   3  16
HETATM   16  C15 UNL     1      71.994  31.968  24.783  1.00  0.00     0.056 A 
HETATM   17  C16 UNL     1      71.155  31.039  24.186  1.00  0.00     0.031 A 
HETATM   18  C17 UNL     1      71.495  29.728  23.956  1.00  0.00     0.002 A 
HETATM   19  C18 UNL     1      72.745  29.286  24.336  1.00  0.00     0.002 A 
HETATM   20  C19 UNL     1      73.599  30.180  24.929  1.00  0.00     0.021 A 
HETATM   21  C20 UNL     1      73.248  31.493  25.156  1.00  0.00     0.037 A 
HETATM   22 BR1  UNL     1      74.496  32.678  25.979  1.00  0.00    -0.049 Br
ENDBRANCH   3  16
BRANCH   2  23
HETATM   23  C2  UNL     1      71.212  35.628  24.129  1.00  0.00     0.071 C 
HETATM   24  C3  UNL     1      71.812  36.725  24.377  1.00  0.00    -0.017 C 
BRANCH  24  25
HETATM   25  C4  UNL     1      73.097  37.293  24.611  1.00  0.00     0.008 C 
HETATM   26  C5  UNL     1      72.963  38.511  25.544  1.00  0.00     0.008 C 
HETATM   27  C6  UNL     1      74.394  39.008  25.583  1.00  0.00     0.001 C 
HETATM   28  C7  UNL     1      75.250  37.775  25.463  1.00  0.00     0.001 C 
HETATM   29  C8  UNL     1      74.228  36.602  25.234  1.00  0.00     0.008 C 
ENDBRANCH  24  25
ENDBRANCH   2  23
TORSDOF 10
ENDMDL
