MODEL 1
REMARK VINA RESULT: -6.978914196      0.000      0.000
REMARK  6 active torsions:
REMARK  status: ('A' for Active; 'I' for Inactive)
REMARK    1  A    between atoms: C2_2  and  C3_4 
REMARK    2  A    between atoms: C3_4  and  C4_5 
REMARK    3  A    between atoms: C3_4  and  C26_30 
REMARK    4  A    between atoms: C5_6  and  C6_7 
REMARK    5  A    between atoms: C6_7  and  O2_8 
REMARK    6  A    between atoms: C26_30  and  O4_31 
ROOT
HETATM    1  C6  UNL     1      70.452  39.585  27.762  1.00  0.00     0.076 C 
HETATM    2  C7  UNL     1      69.242  39.904  26.886  1.00  0.00     0.043 C 
HETATM    3  C8  UNL     1      69.548  39.408  25.507  1.00  0.00     0.012 C 
HETATM    4  C9  UNL     1      69.439  37.876  25.542  1.00  0.00    -0.040 C 
HETATM    5  C10 UNL     1      67.957  37.576  25.737  1.00  0.00     0.015 C 
HETATM    6  C11 UNL     1      69.922  37.394  24.219  1.00  0.00     0.010 C 
HETATM    7  C12 UNL     1      70.035  35.902  24.087  1.00  0.00     0.007 C 
HETATM    8  C13 UNL     1      70.174  35.202  25.406  1.00  0.00     0.003 C 
HETATM    9  C14 UNL     1      70.893  36.039  26.442  1.00  0.00    -0.001 C 
HETATM   10  C15 UNL     1      72.349  36.133  26.041  1.00  0.00     0.033 C 
HETATM   11  C16 UNL     1      72.886  34.753  26.153  1.00  0.00    -0.022 C 
HETATM   12  C17 UNL     1      72.152  33.723  25.840  1.00  0.00    -0.068 C 
HETATM   13  C18 UNL     1      72.729  32.364  25.968  1.00  0.00     0.113 C 
HETATM   14  C19 UNL     1      72.478  31.674  24.675  1.00  0.00     0.130 C 
HETATM   15  O3  UNL     1      73.360  31.014  24.173  1.00  0.00    -0.298 OA
HETATM   16  C20 UNL     1      71.177  31.792  24.018  1.00  0.00     0.079 C 
HETATM   17  C21 UNL     1      70.639  33.201  23.974  1.00  0.00     0.021 C 
HETATM   18  C22 UNL     1      70.768  33.841  25.360  1.00  0.00    -0.016 C 
HETATM   19  C23 UNL     1      69.945  32.894  26.259  1.00  0.00     0.020 C 
HETATM   20  C24 UNL     1      70.249  37.352  26.705  1.00  0.00     0.001 C 
HETATM   21  C25 UNL     1      71.234  38.415  27.149  1.00  0.00     0.048 C 
ENDROOT
BRANCH   1  22
HETATM   22  C5  UNL     1      71.290  40.810  27.806  1.00  0.00     0.007 C 
HETATM   23  C4  UNL     1      72.468  40.893  27.189  1.00  0.00    -0.014 C 
BRANCH  23  24
HETATM   24  C3  UNL     1      73.328  42.078  27.204  1.00  0.00     0.101 C 
BRANCH  24  25
HETATM   25  C2  UNL     1      74.739  41.652  27.316  1.00  0.00     0.132 C 
HETATM   26  C1  UNL     1      75.149  40.438  26.548  1.00  0.00     0.091 C 
HETATM   27  O1  UNL     1      75.575  42.216  27.982  1.00  0.00    -0.298 OA
ENDBRANCH  24  25
BRANCH  24  28
HETATM   28  C26 UNL     1      72.942  43.082  28.262  1.00  0.00     0.180 C 
BRANCH  28  29
HETATM   29  O4  UNL     1      73.528  44.318  28.055  1.00  0.00    -0.400 OA
ATOM     30  H4  UNL     1      74.465  44.304  28.212  1.00  0.00     0.209 HD
ENDBRANCH  28  29
ENDBRANCH  24  28
ENDBRANCH  23  24
ENDBRANCH   1  22
BRANCH   1  31
HETATM   31  O2  UNL     1      70.004  39.268  29.028  1.00  0.00    -0.386 OA
ATOM     32  H2  UNL     1      69.174  39.698  29.200  1.00  0.00     0.211 HD
ENDBRANCH   1  31
TORSDOF 6
ENDMDL
MODEL 2
REMARK VINA RESULT: -6.871545004      1.612      1.982
REMARK  6 active torsions:
REMARK  status: ('A' for Active; 'I' for Inactive)
REMARK    1  A    between atoms: C2_2  and  C3_4 
REMARK    2  A    between atoms: C3_4  and  C4_5 
REMARK    3  A    between atoms: C3_4  and  C26_30 
REMARK    4  A    between atoms: C5_6  and  C6_7 
REMARK    5  A    between atoms: C6_7  and  O2_8 
REMARK    6  A    between atoms: C26_30  and  O4_31 
ROOT
HETATM    1  C6  UNL     1      71.359  39.371  27.029  1.00  0.00     0.076 C 
HETATM    2  C7  UNL     1      70.033  39.943  26.527  1.00  0.00     0.043 C 
HETATM    3  C8  UNL     1      69.727  39.278  25.222  1.00  0.00     0.012 C 
HETATM    4  C9  UNL     1      69.280  37.842  25.539  1.00  0.00    -0.040 C 
HETATM    5  C10 UNL     1      67.926  37.978  26.227  1.00  0.00     0.015 C 
HETATM    6  C11 UNL     1      69.158  37.145  24.228  1.00  0.00     0.010 C 
HETATM    7  C12 UNL     1      68.866  35.674  24.314  1.00  0.00     0.007 C 
HETATM    8  C13 UNL     1      69.276  35.067  25.622  1.00  0.00     0.003 C 
HETATM    9  C14 UNL     1      70.479  35.750  26.236  1.00  0.00    -0.001 C 
HETATM   10  C15 UNL     1      71.691  35.408  25.397  1.00  0.00     0.033 C 
HETATM   11  C16 UNL     1      71.894  33.946  25.563  1.00  0.00    -0.022 C 
HETATM   12  C17 UNL     1      70.877  33.138  25.664  1.00  0.00    -0.068 C 
HETATM   13  C18 UNL     1      71.127  31.687  25.828  1.00  0.00     0.113 C 
HETATM   14  C19 UNL     1      70.298  30.995  24.807  1.00  0.00     0.130 C 
HETATM   15  O3  UNL     1      70.775  30.081  24.173  1.00  0.00    -0.298 OA
HETATM   16  C20 UNL     1      68.917  31.416  24.572  1.00  0.00     0.079 C 
HETATM   17  C21 UNL     1      68.743  32.911  24.465  1.00  0.00     0.021 C 
HETATM   18  C22 UNL     1      69.481  33.595  25.620  1.00  0.00    -0.016 C 
HETATM   19  C23 UNL     1      68.815  32.984  26.871  1.00  0.00     0.020 C 
HETATM   20  C24 UNL     1      70.290  37.206  26.466  1.00  0.00     0.001 C 
HETATM   21  C25 UNL     1      71.588  37.987  26.405  1.00  0.00     0.048 C 
ENDROOT
BRANCH   1  22
HETATM   22  C5  UNL     1      72.424  40.317  26.612  1.00  0.00     0.007 C 
HETATM   23  C4  UNL     1      73.675  39.925  26.373  1.00  0.00    -0.014 C 
BRANCH  23  24
HETATM   24  C3  UNL     1      74.758  40.820  25.961  1.00  0.00     0.101 C 
BRANCH  24  25
HETATM   25  C2  UNL     1      75.637  40.109  25.008  1.00  0.00     0.132 C 
HETATM   26  C1  UNL     1      75.044  38.965  24.253  1.00  0.00     0.091 C 
HETATM   27  O1  UNL     1      76.794  40.391  24.800  1.00  0.00    -0.298 OA
ENDBRANCH  24  25
BRANCH  24  28
HETATM   28  C26 UNL     1      75.521  41.408  27.122  1.00  0.00     0.180 C 
BRANCH  28  29
HETATM   29  O4  UNL     1      76.139  40.438  27.892  1.00  0.00    -0.400 OA
ATOM     30  H4  UNL     1      76.287  40.726  28.785  1.00  0.00     0.209 HD
ENDBRANCH  28  29
ENDBRANCH  24  28
ENDBRANCH  23  24
ENDBRANCH   1  22
BRANCH   1  31
HETATM   31  O2  UNL     1      71.305  39.288  28.405  1.00  0.00    -0.386 OA
ATOM     32  H2  UNL     1      70.407  39.367  28.705  1.00  0.00     0.211 HD
ENDBRANCH   1  31
TORSDOF 6
ENDMDL
MODEL 3
REMARK VINA RESULT: -6.853912486      0.753      1.393
REMARK  6 active torsions:
REMARK  status: ('A' for Active; 'I' for Inactive)
REMARK    1  A    between atoms: C2_2  and  C3_4 
REMARK    2  A    between atoms: C3_4  and  C4_5 
REMARK    3  A    between atoms: C3_4  and  C26_30 
REMARK    4  A    between atoms: C5_6  and  C6_7 
REMARK    5  A    between atoms: C6_7  and  O2_8 
REMARK    6  A    between atoms: C26_30  and  O4_31 
ROOT
HETATM    1  C6  UNL     1      70.426  39.589  27.759  1.00  0.00     0.076 C 
HETATM    2  C7  UNL     1      69.221  39.905  26.873  1.00  0.00     0.043 C 
HETATM    3  C8  UNL     1      69.538  39.408  25.498  1.00  0.00     0.012 C 
HETATM    4  C9  UNL     1      69.432  37.876  25.534  1.00  0.00    -0.040 C 
HETATM    5  C10 UNL     1      67.949  37.573  25.718  1.00  0.00     0.015 C 
HETATM    6  C11 UNL     1      69.926  37.393  24.214  1.00  0.00     0.010 C 
HETATM    7  C12 UNL     1      70.043  35.901  24.085  1.00  0.00     0.007 C 
HETATM    8  C13 UNL     1      70.174  35.203  25.406  1.00  0.00     0.003 C 
HETATM    9  C14 UNL     1      70.883  36.042  26.446  1.00  0.00    -0.001 C 
HETATM   10  C15 UNL     1      72.342  36.139  26.056  1.00  0.00     0.033 C 
HETATM   11  C16 UNL     1      72.881  34.760  26.174  1.00  0.00    -0.022 C 
HETATM   12  C17 UNL     1      72.151  33.728  25.856  1.00  0.00    -0.068 C 
HETATM   13  C18 UNL     1      72.730  32.371  25.990  1.00  0.00     0.113 C 
HETATM   14  C19 UNL     1      72.490  31.678  24.697  1.00  0.00     0.130 C 
HETATM   15  O3  UNL     1      73.377  31.020  24.201  1.00  0.00    -0.298 OA
HETATM   16  C20 UNL     1      71.193  31.793  24.030  1.00  0.00     0.079 C 
HETATM   17  C21 UNL     1      70.653  33.201  23.980  1.00  0.00     0.021 C 
HETATM   18  C22 UNL     1      70.770  33.843  25.366  1.00  0.00    -0.016 C 
HETATM   19  C23 UNL     1      69.943  32.896  26.260  1.00  0.00     0.020 C 
HETATM   20  C24 UNL     1      70.234  37.355  26.703  1.00  0.00     0.001 C 
HETATM   21  C25 UNL     1      71.215  38.420  27.153  1.00  0.00     0.048 C 
ENDROOT
BRANCH   1  22
HETATM   22  C5  UNL     1      71.261  40.816  27.808  1.00  0.00     0.007 C 
HETATM   23  C4  UNL     1      72.446  40.899  27.204  1.00  0.00    -0.014 C 
BRANCH  23  24
HETATM   24  C3  UNL     1      73.303  42.085  27.224  1.00  0.00     0.101 C 
BRANCH  24  25
HETATM   25  C2  UNL     1      72.945  42.961  26.088  1.00  0.00     0.132 C 
HETATM   26  C1  UNL     1      72.822  42.321  24.744  1.00  0.00     0.091 C 
HETATM   27  O1  UNL     1      72.748  44.150  26.174  1.00  0.00    -0.298 OA
ENDBRANCH  24  25
BRANCH  24  28
HETATM   28  C26 UNL     1      74.776  41.756  27.258  1.00  0.00     0.180 C 
BRANCH  28  29
HETATM   29  O4  UNL     1      75.015  40.397  27.163  1.00  0.00    -0.400 OA
ATOM     30  H4  UNL     1      75.602  40.182  26.447  1.00  0.00     0.209 HD
ENDBRANCH  28  29
ENDBRANCH  24  28
ENDBRANCH  23  24
ENDBRANCH   1  22
BRANCH   1  31
HETATM   31  O2  UNL     1      69.968  39.273  29.022  1.00  0.00    -0.386 OA
ATOM     32  H2  UNL     1      70.479  38.560  29.388  1.00  0.00     0.211 HD
ENDBRANCH   1  31
TORSDOF 6
ENDMDL
MODEL 4
REMARK VINA RESULT: -6.831957136      4.567      7.387
REMARK  6 active torsions:
REMARK  status: ('A' for Active; 'I' for Inactive)
REMARK    1  A    between atoms: C2_2  and  C3_4 
REMARK    2  A    between atoms: C3_4  and  C4_5 
REMARK    3  A    between atoms: C3_4  and  C26_30 
REMARK    4  A    between atoms: C5_6  and  C6_7 
REMARK    5  A    between atoms: C6_7  and  O2_8 
REMARK    6  A    between atoms: C26_30  and  O4_31 
ROOT
HETATM    1  C6  UNL     1      69.575  35.253  24.656  1.00  0.00     0.076 C 
HETATM    2  C7  UNL     1      68.139  34.877  25.018  1.00  0.00     0.043 C 
HETATM    3  C8  UNL     1      67.301  36.104  24.847  1.00  0.00     0.012 C 
HETATM    4  C9  UNL     1      67.131  36.331  23.337  1.00  0.00    -0.040 C 
HETATM    5  C10 UNL     1      66.244  35.190  22.850  1.00  0.00     0.015 C 
HETATM    6  C11 UNL     1      66.454  37.649  23.187  1.00  0.00     0.010 C 
HETATM    7  C12 UNL     1      66.316  38.137  21.773  1.00  0.00     0.007 C 
HETATM    8  C13 UNL     1      67.318  37.528  20.839  1.00  0.00     0.003 C 
HETATM    9  C14 UNL     1      68.629  37.195  21.518  1.00  0.00    -0.001 C 
HETATM   10  C15 UNL     1      69.331  38.495  21.844  1.00  0.00     0.033 C 
HETATM   11  C16 UNL     1      69.668  39.108  20.533  1.00  0.00    -0.022 C 
HETATM   12  C17 UNL     1      68.860  38.999  19.518  1.00  0.00    -0.068 C 
HETATM   13  C18 UNL     1      69.237  39.627  18.229  1.00  0.00     0.113 C 
HETATM   14  C19 UNL     1      68.068  40.435  17.793  1.00  0.00     0.130 C 
HETATM   15  O3  UNL     1      68.247  41.546  17.345  1.00  0.00    -0.298 OA
HETATM   16  C20 UNL     1      66.714  39.892  17.905  1.00  0.00     0.079 C 
HETATM   17  C21 UNL     1      66.429  39.228  19.230  1.00  0.00     0.021 C 
HETATM   18  C22 UNL     1      67.579  38.281  19.585  1.00  0.00    -0.016 C 
HETATM   19  C23 UNL     1      67.603  37.299  18.394  1.00  0.00     0.020 C 
HETATM   20  C24 UNL     1      68.488  36.273  22.676  1.00  0.00     0.001 C 
HETATM   21  C25 UNL     1      69.565  36.473  23.723  1.00  0.00     0.048 C 
ENDROOT
BRANCH   1  22
HETATM   22  C5  UNL     1      70.273  35.571  25.927  1.00  0.00     0.007 C 
HETATM   23  C4  UNL     1      71.594  35.730  25.997  1.00  0.00    -0.014 C 
BRANCH  23  24
HETATM   24  C3  UNL     1      72.325  36.044  27.226  1.00  0.00     0.101 C 
BRANCH  24  25
HETATM   25  C2  UNL     1      73.346  35.002  27.463  1.00  0.00     0.132 C 
HETATM   26  C1  UNL     1      73.192  33.713  26.723  1.00  0.00     0.091 C 
HETATM   27  O1  UNL     1      74.289  35.121  28.209  1.00  0.00    -0.298 OA
ENDBRANCH  24  25
BRANCH  24  28
HETATM   28  C26 UNL     1      71.425  36.252  28.420  1.00  0.00     0.180 C 
BRANCH  28  29
HETATM   29  O4  UNL     1      72.097  36.100  29.620  1.00  0.00    -0.400 OA
ATOM     30  H4  UNL     1      71.585  35.624  30.263  1.00  0.00     0.209 HD
ENDBRANCH  28  29
ENDBRANCH  24  28
ENDBRANCH  23  24
ENDBRANCH   1  22
BRANCH   1  31
HETATM   31  O2  UNL     1      70.170  34.170  24.043  1.00  0.00    -0.386 OA
ATOM     32  H2  UNL     1      69.683  33.924  23.265  1.00  0.00     0.211 HD
ENDBRANCH   1  31
TORSDOF 6
ENDMDL
MODEL 5
REMARK VINA RESULT: -6.788194443      2.830      3.471
REMARK  6 active torsions:
REMARK  status: ('A' for Active; 'I' for Inactive)
REMARK    1  A    between atoms: C2_2  and  C3_4 
REMARK    2  A    between atoms: C3_4  and  C4_5 
REMARK    3  A    between atoms: C3_4  and  C26_30 
REMARK    4  A    between atoms: C5_6  and  C6_7 
REMARK    5  A    between atoms: C6_7  and  O2_8 
REMARK    6  A    between atoms: C26_30  and  O4_31 
ROOT
HETATM    1  C6  UNL     1      68.804  39.430  26.490  1.00  0.00     0.076 C 
HETATM    2  C7  UNL     1      67.606  39.279  25.552  1.00  0.00     0.043 C 
HETATM    3  C8  UNL     1      68.097  38.611  24.307  1.00  0.00     0.012 C 
HETATM    4  C9  UNL     1      68.339  37.133  24.649  1.00  0.00    -0.040 C 
HETATM    5  C10 UNL     1      66.955  36.537  24.884  1.00  0.00     0.015 C 
HETATM    6  C11 UNL     1      68.996  36.531  23.457  1.00  0.00     0.010 C 
HETATM    7  C12 UNL     1      69.454  35.111  23.631  1.00  0.00     0.007 C 
HETATM    8  C13 UNL     1      69.671  34.733  25.066  1.00  0.00     0.003 C 
HETATM    9  C14 UNL     1      70.118  35.899  25.920  1.00  0.00    -0.001 C 
HETATM   10  C15 UNL     1      71.535  36.253  25.525  1.00  0.00     0.033 C 
HETATM   11  C16 UNL     1      72.365  35.087  25.920  1.00  0.00    -0.022 C 
HETATM   12  C17 UNL     1      71.904  33.873  25.814  1.00  0.00    -0.068 C 
HETATM   13  C18 UNL     1      72.767  32.739  26.221  1.00  0.00     0.113 C 
HETATM   14  C19 UNL     1      72.757  31.771  25.092  1.00  0.00     0.130 C 
HETATM   15  O3  UNL     1      73.794  31.253  24.744  1.00  0.00    -0.298 OA
HETATM   16  C20 UNL     1      71.504  31.450  24.409  1.00  0.00     0.079 C 
HETATM   17  C21 UNL     1      70.662  32.658  24.074  1.00  0.00     0.021 C 
HETATM   18  C22 UNL     1      70.560  33.567  25.303  1.00  0.00    -0.016 C 
HETATM   19  C23 UNL     1      69.924  32.646  26.366  1.00  0.00     0.020 C 
HETATM   20  C24 UNL     1      69.177  37.050  25.904  1.00  0.00     0.001 C 
HETATM   21  C25 UNL     1      69.867  38.380  26.135  1.00  0.00     0.048 C 
ENDROOT
BRANCH   1  22
HETATM   22  C5  UNL     1      69.336  40.801  26.295  1.00  0.00     0.007 C 
HETATM   23  C4  UNL     1      68.643  41.756  25.676  1.00  0.00    -0.014 C 
BRANCH  23  24
HETATM   24  C3  UNL     1      69.126  43.122  25.461  1.00  0.00     0.101 C 
BRANCH  24  25
HETATM   25  C2  UNL     1      67.978  43.997  25.142  1.00  0.00     0.132 C 
HETATM   26  C1  UNL     1      66.942  44.181  26.203  1.00  0.00     0.091 C 
HETATM   27  O1  UNL     1      67.822  44.569  24.089  1.00  0.00    -0.298 OA
ENDBRANCH  24  25
BRANCH  24  28
HETATM   28  C26 UNL     1      70.224  43.211  24.430  1.00  0.00     0.180 C 
BRANCH  28  29
HETATM   29  O4  UNL     1      69.865  42.629  23.227  1.00  0.00    -0.400 OA
ATOM     30  H4  UNL     1      70.610  42.255  22.770  1.00  0.00     0.209 HD
ENDBRANCH  28  29
ENDBRANCH  24  28
ENDBRANCH  23  24
ENDBRANCH   1  22
BRANCH   1  31
HETATM   31  O2  UNL     1      68.366  39.267  27.788  1.00  0.00    -0.386 OA
ATOM     32  H2  UNL     1      67.474  38.938  27.795  1.00  0.00     0.211 HD
ENDBRANCH   1  31
TORSDOF 6
ENDMDL
