MODEL 1
REMARK VINA RESULT: -9.009898842      0.000      0.000
REMARK  8 active torsions:
REMARK  status: ('A' for Active; 'I' for Inactive)
REMARK    1  A    between atoms: C2_2  and  C3_3 
REMARK    2  A    between atoms: C8_8  and  O1_9 
REMARK    3  A    between atoms: N1_11  and  C9_12 
REMARK    4  A    between atoms: C13_16  and  O2_17 
REMARK    5  A    between atoms: N2_19  and  C14_20 
REMARK    6  A    between atoms: C14_20  and  O3_21 
REMARK    7  A    between atoms: C14_20  and  C15_23 
REMARK    8  A    between atoms: C15_23  and  C16_24 
ROOT
HETATM    1  C3  UNL     1      72.980  37.162  25.966  1.00  0.00     0.070 C 
HETATM    2  C4  UNL     1      71.761  37.733  26.304  1.00  0.00    -0.172 C 
HETATM    3  C5  UNL     1      70.398  38.112  26.517  1.00  0.00     0.125 C 
HETATM    4  C6  UNL     1      69.601  36.977  25.824  1.00  0.00     0.034 A 
HETATM    5  C7  UNL     1      70.088  35.755  25.387  1.00  0.00     0.099 A 
HETATM    6  C8  UNL     1      69.021  35.104  24.803  1.00  0.00     0.173 A 
HETATM    7  N1  UNL     1      67.950  35.897  24.889  1.00  0.00    -0.301 N 
HETATM    8  C13 UNL     1      68.277  37.064  25.516  1.00  0.00     0.154 A 
HETATM    9  N2  UNL     1      71.422  35.241  25.481  1.00  0.00    -0.326 N 
HETATM   10  C22 UNL     1      72.705  35.828  25.197  1.00  0.00     0.147 C 
ENDROOT
BRANCH   9  11
HETATM   11  C14 UNL     1      71.493  33.950  26.019  1.00  0.00     0.118 C 
BRANCH  11  12
HETATM   12  O3  UNL     1      70.537  33.695  26.870  1.00  0.00    -0.349 OA
ATOM     13  H3  UNL     1      69.672  33.728  26.481  1.00  0.00     0.219 HD
ENDBRANCH  11  12
BRANCH  11  14
HETATM   14  C15 UNL     1      72.451  32.874  25.758  1.00  0.00     0.088 C 
BRANCH  14  15
HETATM   15  C16 UNL     1      71.952  31.934  24.667  1.00  0.00    -0.007 C 
HETATM   16  C17 UNL     1      71.187  30.765  25.192  1.00  0.00     0.005 C 
HETATM   17  C18 UNL     1      71.673  29.446  24.629  1.00  0.00     0.000 C 
HETATM   18  C19 UNL     1      71.873  29.510  23.134  1.00  0.00     0.000 C 
HETATM   19  C20 UNL     1      72.669  30.687  22.682  1.00  0.00     0.000 C 
HETATM   20  C21 UNL     1      73.138  31.534  23.827  1.00  0.00     0.005 C 
ENDBRANCH  14  15
ENDBRANCH  11  14
ENDBRANCH   9  11
BRANCH   6  21
HETATM   21  O1  UNL     1      69.096  33.857  24.236  1.00  0.00    -0.344 OA
ATOM     22  H1  UNL     1      68.366  33.417  23.816  1.00  0.00     0.219 HD
ENDBRANCH   6  21
BRANCH   1  23
HETATM   23  C2  UNL     1      73.865  37.976  24.993  1.00  0.00     0.013 C 
HETATM   24  C1  UNL     1      75.148  38.240  25.692  1.00  0.00     0.006 C 
ENDBRANCH   1  23
BRANCH   8  25
HETATM   25  O2  UNL     1      67.399  38.120  25.774  1.00  0.00    -0.345 OA
ATOM     26  H2  UNL     1      67.158  38.491  26.616  1.00  0.00     0.219 HD
ENDBRANCH   8  25
BRANCH   7  27
HETATM   27  C9  UNL     1      66.628  35.616  24.410  1.00  0.00     0.094 C 
HETATM   28  C10 UNL     1      66.031  34.309  24.879  1.00  0.00     0.026 C 
HETATM   29  C11 UNL     1      65.510  34.135  23.445  1.00  0.00     0.004 C 
HETATM   30  C12 UNL     1      66.687  35.015  23.022  1.00  0.00     0.026 C 
ENDBRANCH   7  27
TORSDOF 8
ENDMDL
MODEL 2
REMARK VINA RESULT: -8.663843690      2.050      4.978
REMARK  8 active torsions:
REMARK  status: ('A' for Active; 'I' for Inactive)
REMARK    1  A    between atoms: C2_2  and  C3_3 
REMARK    2  A    between atoms: C8_8  and  O1_9 
REMARK    3  A    between atoms: N1_11  and  C9_12 
REMARK    4  A    between atoms: C13_16  and  O2_17 
REMARK    5  A    between atoms: N2_19  and  C14_20 
REMARK    6  A    between atoms: C14_20  and  O3_21 
REMARK    7  A    between atoms: C14_20  and  C15_23 
REMARK    8  A    between atoms: C15_23  and  C16_24 
ROOT
HETATM    1  C3  UNL     1      66.103  32.638  25.483  1.00  0.00     0.070 C 
HETATM    2  C4  UNL     1      65.806  33.791  24.769  1.00  0.00    -0.172 C 
HETATM    3  C5  UNL     1      65.728  35.076  24.147  1.00  0.00     0.125 C 
HETATM    4  C6  UNL     1      67.004  35.795  24.653  1.00  0.00     0.034 A 
HETATM    5  C7  UNL     1      68.092  35.223  25.292  1.00  0.00     0.099 A 
HETATM    6  C8  UNL     1      68.954  36.259  25.584  1.00  0.00     0.173 A 
HETATM    7  N1  UNL     1      68.408  37.395  25.140  1.00  0.00    -0.301 N 
HETATM    8  C13 UNL     1      67.201  37.141  24.558  1.00  0.00     0.154 A 
HETATM    9  N2  UNL     1      68.310  33.846  25.622  1.00  0.00    -0.326 N 
HETATM   10  C22 UNL     1      67.461  32.853  26.226  1.00  0.00     0.147 C 
ENDROOT
BRANCH   9  11
HETATM   11  C14 UNL     1      69.558  33.358  25.215  1.00  0.00     0.118 C 
BRANCH  11  12
HETATM   12  O3  UNL     1      69.963  33.865  24.083  1.00  0.00    -0.349 OA
ATOM     13  H3  UNL     1      70.858  34.180  24.113  1.00  0.00     0.219 HD
ENDBRANCH  11  12
BRANCH  11  14
HETATM   14  C15 UNL     1      70.452  32.400  25.869  1.00  0.00     0.088 C 
BRANCH  14  15
HETATM   15  C16 UNL     1      71.474  31.832  24.891  1.00  0.00    -0.007 C 
HETATM   16  C17 UNL     1      71.176  30.434  24.463  1.00  0.00     0.005 C 
HETATM   17  C18 UNL     1      72.369  29.513  24.598  1.00  0.00     0.000 C 
HETATM   18  C19 UNL     1      73.629  30.137  24.047  1.00  0.00     0.000 C 
HETATM   19  C20 UNL     1      73.880  31.523  24.538  1.00  0.00     0.000 C 
HETATM   20  C21 UNL     1      72.838  31.981  25.514  1.00  0.00     0.005 C 
ENDBRANCH  14  15
ENDBRANCH  11  14
ENDBRANCH   9  11
BRANCH   6  21
HETATM   21  O1  UNL     1      70.154  36.105  26.231  1.00  0.00    -0.344 OA
ATOM     22  H1  UNL     1      70.996  36.067  25.792  1.00  0.00     0.219 HD
ENDBRANCH   6  21
BRANCH   1  23
HETATM   23  C2  UNL     1      65.115  32.267  26.614  1.00  0.00     0.013 C 
HETATM   24  C1  UNL     1      65.919  32.087  27.850  1.00  0.00     0.006 C 
ENDBRANCH   1  23
BRANCH   8  25
HETATM   25  O2  UNL     1      66.357  38.097  23.987  1.00  0.00    -0.345 OA
ATOM     26  H2  UNL     1      65.620  37.957  23.404  1.00  0.00     0.219 HD
ENDBRANCH   8  25
BRANCH   7  27
HETATM   27  C9  UNL     1      68.964  38.713  25.233  1.00  0.00     0.094 C 
HETATM   28  C10 UNL     1      70.447  38.814  24.965  1.00  0.00     0.026 C 
HETATM   29  C11 UNL     1      70.507  39.786  26.152  1.00  0.00     0.004 C 
HETATM   30  C12 UNL     1      69.268  39.056  26.675  1.00  0.00     0.026 C 
ENDBRANCH   7  27
TORSDOF 8
ENDMDL
MODEL 3
REMARK VINA RESULT: -8.652683422      2.088      5.037
REMARK  8 active torsions:
REMARK  status: ('A' for Active; 'I' for Inactive)
REMARK    1  A    between atoms: C2_2  and  C3_3 
REMARK    2  A    between atoms: C8_8  and  O1_9 
REMARK    3  A    between atoms: N1_11  and  C9_12 
REMARK    4  A    between atoms: C13_16  and  O2_17 
REMARK    5  A    between atoms: N2_19  and  C14_20 
REMARK    6  A    between atoms: C14_20  and  O3_21 
REMARK    7  A    between atoms: C14_20  and  C15_23 
REMARK    8  A    between atoms: C15_23  and  C16_24 
ROOT
HETATM    1  C3  UNL     1      66.140  32.811  25.144  1.00  0.00     0.070 C 
HETATM    2  C4  UNL     1      66.041  33.849  24.228  1.00  0.00    -0.172 C 
HETATM    3  C5  UNL     1      66.134  35.035  23.434  1.00  0.00     0.125 C 
HETATM    4  C6  UNL     1      67.259  35.842  24.130  1.00  0.00     0.034 A 
HETATM    5  C7  UNL     1      68.152  35.385  25.086  1.00  0.00     0.099 A 
HETATM    6  C8  UNL     1      68.932  36.469  25.432  1.00  0.00     0.173 A 
HETATM    7  N1  UNL     1      68.526  37.521  24.716  1.00  0.00    -0.301 N 
HETATM    8  C13 UNL     1      67.492  37.165  23.900  1.00  0.00     0.154 A 
HETATM    9  N2  UNL     1      68.264  34.071  25.646  1.00  0.00    -0.326 N 
HETATM   10  C22 UNL     1      67.281  33.153  26.157  1.00  0.00     0.147 C 
ENDROOT
BRANCH   9  11
HETATM   11  C14 UNL     1      69.566  33.558  25.624  1.00  0.00     0.118 C 
BRANCH  11  12
HETATM   12  O3  UNL     1      70.156  33.605  26.787  1.00  0.00    -0.349 OA
ATOM     13  H3  UNL     1      71.029  33.231  26.779  1.00  0.00     0.219 HD
ENDBRANCH  11  12
BRANCH  11  14
HETATM   14  C15 UNL     1      70.331  32.980  24.517  1.00  0.00     0.088 C 
BRANCH  14  15
HETATM   15  C16 UNL     1      71.161  31.786  24.974  1.00  0.00    -0.007 C 
HETATM   16  C17 UNL     1      72.610  32.096  25.141  1.00  0.00     0.005 C 
HETATM   17  C18 UNL     1      73.508  31.102  24.438  1.00  0.00     0.000 C 
HETATM   18  C19 UNL     1      73.086  29.676  24.699  1.00  0.00     0.000 C 
HETATM   19  C20 UNL     1      71.630  29.430  24.486  1.00  0.00     0.000 C 
HETATM   20  C21 UNL     1      70.907  30.655  24.011  1.00  0.00     0.005 C 
ENDBRANCH  14  15
ENDBRANCH  11  14
ENDBRANCH   9  11
BRANCH   6  21
HETATM   21  O1  UNL     1      69.937  36.429  26.365  1.00  0.00    -0.344 OA
ATOM     22  H1  UNL     1      70.199  37.170  26.900  1.00  0.00     0.219 HD
ENDBRANCH   6  21
BRANCH   1  23
HETATM   23  C2  UNL     1      64.902  32.579  26.043  1.00  0.00     0.013 C 
HETATM   24  C1  UNL     1      65.408  32.253  27.400  1.00  0.00     0.006 C 
ENDBRANCH   1  23
BRANCH   8  25
HETATM   25  O2  UNL     1      66.825  38.017  23.016  1.00  0.00    -0.345 OA
ATOM     26  H2  UNL     1      67.169  38.440  22.236  1.00  0.00     0.219 HD
ENDBRANCH   8  25
BRANCH   7  27
HETATM   27  C9  UNL     1      69.060  38.851  24.758  1.00  0.00     0.094 C 
HETATM   28  C10 UNL     1      70.567  38.945  24.808  1.00  0.00     0.026 C 
HETATM   29  C11 UNL     1      70.376  40.060  25.846  1.00  0.00     0.004 C 
HETATM   30  C12 UNL     1      69.046  39.380  26.177  1.00  0.00     0.026 C 
ENDBRANCH   7  27
TORSDOF 8
ENDMDL
MODEL 4
REMARK VINA RESULT: -8.621731203      1.732      5.021
REMARK  8 active torsions:
REMARK  status: ('A' for Active; 'I' for Inactive)
REMARK    1  A    between atoms: C2_2  and  C3_3 
REMARK    2  A    between atoms: C8_8  and  O1_9 
REMARK    3  A    between atoms: N1_11  and  C9_12 
REMARK    4  A    between atoms: C13_16  and  O2_17 
REMARK    5  A    between atoms: N2_19  and  C14_20 
REMARK    6  A    between atoms: C14_20  and  O3_21 
REMARK    7  A    between atoms: C14_20  and  C15_23 
REMARK    8  A    between atoms: C15_23  and  C16_24 
ROOT
HETATM    1  C3  UNL     1      66.733  33.888  23.981  1.00  0.00     0.070 C 
HETATM    2  C4  UNL     1      67.296  34.888  23.202  1.00  0.00    -0.172 C 
HETATM    3  C5  UNL     1      68.020  35.978  22.623  1.00  0.00     0.125 C 
HETATM    4  C6  UNL     1      68.948  36.441  23.775  1.00  0.00     0.034 A 
HETATM    5  C7  UNL     1      69.222  35.766  24.954  1.00  0.00     0.099 A 
HETATM    6  C8  UNL     1      70.063  36.586  25.678  1.00  0.00     0.173 A 
HETATM    7  N1  UNL     1      70.283  37.694  24.965  1.00  0.00    -0.301 N 
HETATM    8  C13 UNL     1      69.606  37.634  23.781  1.00  0.00     0.154 A 
HETATM    9  N2  UNL     1      68.736  34.489  25.386  1.00  0.00    -0.326 N 
HETATM   10  C22 UNL     1      67.420  33.907  25.385  1.00  0.00     0.147 C 
ENDROOT
BRANCH   9  11
HETATM   11  C14 UNL     1      69.744  33.621  25.822  1.00  0.00     0.118 C 
BRANCH  11  12
HETATM   12  O3  UNL     1      69.421  32.960  26.900  1.00  0.00    -0.349 OA
ATOM     13  H3  UNL     1      69.278  32.034  26.743  1.00  0.00     0.219 HD
ENDBRANCH  11  12
BRANCH  11  14
HETATM   14  C15 UNL     1      71.064  33.347  25.249  1.00  0.00     0.088 C 
BRANCH  14  15
HETATM   15  C16 UNL     1      71.439  31.876  25.387  1.00  0.00    -0.007 C 
HETATM   16  C17 UNL     1      72.911  31.635  25.391  1.00  0.00     0.005 C 
HETATM   17  C18 UNL     1      73.331  30.556  24.417  1.00  0.00     0.000 C 
HETATM   18  C19 UNL     1      72.444  29.337  24.508  1.00  0.00     0.000 C 
HETATM   19  C20 UNL     1      70.986  29.649  24.470  1.00  0.00     0.000 C 
HETATM   20  C21 UNL     1      70.718  31.115  24.305  1.00  0.00     0.005 C 
ENDBRANCH  14  15
ENDBRANCH  11  14
ENDBRANCH   9  11
BRANCH   6  21
HETATM   21  O1  UNL     1      70.560  36.278  26.919  1.00  0.00    -0.344 OA
ATOM     22  H1  UNL     1      71.077  36.873  27.451  1.00  0.00     0.219 HD
ENDBRANCH   6  21
BRANCH   1  23
HETATM   23  C2  UNL     1      65.227  34.044  24.302  1.00  0.00     0.013 C 
HETATM   24  C1  UNL     1      64.994  33.390  25.615  1.00  0.00     0.006 C 
ENDBRANCH   1  23
BRANCH   8  25
HETATM   25  O2  UNL     1      69.609  38.622  22.794  1.00  0.00    -0.345 OA
ATOM     26  H2  UNL     1      69.977  38.576  21.918  1.00  0.00     0.219 HD
ENDBRANCH   8  25
BRANCH   7  27
HETATM   27  C9  UNL     1      71.098  38.813  25.338  1.00  0.00     0.094 C 
HETATM   28  C10 UNL     1      72.327  38.479  26.150  1.00  0.00     0.026 C 
HETATM   29  C11 UNL     1      71.993  39.713  27.001  1.00  0.00     0.004 C 
HETATM   30  C12 UNL     1      70.541  39.481  26.577  1.00  0.00     0.026 C 
ENDBRANCH   7  27
TORSDOF 8
ENDMDL
MODEL 5
REMARK VINA RESULT: -8.529559357      1.746      4.987
REMARK  8 active torsions:
REMARK  status: ('A' for Active; 'I' for Inactive)
REMARK    1  A    between atoms: C2_2  and  C3_3 
REMARK    2  A    between atoms: C8_8  and  O1_9 
REMARK    3  A    between atoms: N1_11  and  C9_12 
REMARK    4  A    between atoms: C13_16  and  O2_17 
REMARK    5  A    between atoms: N2_19  and  C14_20 
REMARK    6  A    between atoms: C14_20  and  O3_21 
REMARK    7  A    between atoms: C14_20  and  C15_23 
REMARK    8  A    between atoms: C15_23  and  C16_24 
ROOT
HETATM    1  C3  UNL     1      66.265  33.929  24.551  1.00  0.00     0.070 C 
HETATM    2  C4  UNL     1      66.378  35.221  24.059  1.00  0.00    -0.172 C 
HETATM    3  C5  UNL     1      66.704  36.574  23.724  1.00  0.00     0.125 C 
HETATM    4  C6  UNL     1      67.942  36.871  24.609  1.00  0.00     0.034 A 
HETATM    5  C7  UNL     1      68.715  35.956  25.306  1.00  0.00     0.099 A 
HETATM    6  C8  UNL     1      69.671  36.691  25.974  1.00  0.00     0.173 A 
HETATM    7  N1  UNL     1      69.480  37.982  25.688  1.00  0.00    -0.301 N 
HETATM    8  C13 UNL     1      68.417  38.126  24.845  1.00  0.00     0.154 A 
HETATM    9  N2  UNL     1      68.572  34.531  25.367  1.00  0.00    -0.326 N 
HETATM   10  C22 UNL     1      67.426  33.684  25.568  1.00  0.00     0.147 C 
ENDROOT
BRANCH   9  11
HETATM   11  C14 UNL     1      69.759  33.834  25.111  1.00  0.00     0.118 C 
BRANCH  11  12
HETATM   12  O3  UNL     1      70.458  34.350  24.139  1.00  0.00    -0.349 OA
ATOM     13  H3  UNL     1      71.271  33.887  23.976  1.00  0.00     0.219 HD
ENDBRANCH  11  12
BRANCH  11  14
HETATM   14  C15 UNL     1      70.316  32.651  25.772  1.00  0.00     0.088 C 
BRANCH  14  15
HETATM   15  C16 UNL     1      71.228  31.866  24.837  1.00  0.00    -0.007 C 
HETATM   16  C17 UNL     1      70.715  30.503  24.511  1.00  0.00     0.005 C 
HETATM   17  C18 UNL     1      71.756  29.422  24.711  1.00  0.00     0.000 C 
HETATM   18  C19 UNL     1      73.089  29.806  24.115  1.00  0.00     0.000 C 
HETATM   19  C20 UNL     1      73.554  31.169  24.505  1.00  0.00     0.000 C 
HETATM   20  C21 UNL     1      72.606  31.849  25.446  1.00  0.00     0.005 C 
ENDBRANCH  14  15
ENDBRANCH  11  14
ENDBRANCH   9  11
BRANCH   6  21
HETATM   21  O1  UNL     1      70.631  36.148  26.790  1.00  0.00    -0.344 OA
ATOM     22  H1  UNL     1      70.507  35.968  27.714  1.00  0.00     0.219 HD
ENDBRANCH   6  21
BRANCH   1  23
HETATM   23  C2  UNL     1      64.986  33.621  25.365  1.00  0.00     0.013 C 
HETATM   24  C1  UNL     1      65.358  32.616  26.393  1.00  0.00     0.006 C 
ENDBRANCH   1  23
BRANCH   8  25
HETATM   25  O2  UNL     1      67.938  39.338  24.343  1.00  0.00    -0.345 OA
ATOM     26  H2  UNL     1      68.240  40.217  24.543  1.00  0.00     0.219 HD
ENDBRANCH   8  25
BRANCH   7  27
HETATM   27  C9  UNL     1      70.247  39.094  26.168  1.00  0.00     0.094 C 
HETATM   28  C10 UNL     1      71.621  38.756  26.698  1.00  0.00     0.026 C 
HETATM   29  C11 UNL     1      71.331  39.747  27.834  1.00  0.00     0.004 C 
HETATM   30  C12 UNL     1      69.854  39.431  27.590  1.00  0.00     0.026 C 
ENDBRANCH   7  27
TORSDOF 8
ENDMDL
