MODEL 1
REMARK VINA RESULT: -10.738174679      0.000      0.000
REMARK  8 active torsions:
REMARK  status: ('A' for Active; 'I' for Inactive)
REMARK       I    between atoms: C1_4  and  N3_6 
REMARK       I    between atoms: N3_6  and  C2_8 
REMARK    1  A    between atoms: C2_8  and  C3_10 
REMARK    2  A    between atoms: C4_13  and  N5_14 
REMARK    3  A    between atoms: C5_18  and  C6_19 
REMARK    4  A    between atoms: C6_19  and  N8_20 
REMARK    5  A    between atoms: C8_22  and  C9_23 
REMARK    6  A    between atoms: C9_23  and  O2_24 
REMARK    7  A    between atoms: C10_26  and  C11_27 
REMARK    8  A    between atoms: C12_38  and  N14_39 
ROOT
HETATM    1  C3  UNL     1     -17.716  -5.383 -36.514  1.00  0.00     0.162 A 
HETATM    2  N4  UNL     1     -16.663  -5.566 -35.703  1.00  0.00    -0.178 N 
ATOM      3  H4  UNL     1     -16.171  -4.747 -35.344  1.00  0.00     0.185 HD
HETATM    4  C4  UNL     1     -16.227  -6.805 -35.339  1.00  0.00     0.732 A 
HETATM    5  N12 UNL     1     -16.872  -7.877 -35.813  1.00  0.00    -0.128 N 
ATOM      6  H12 UNL     1     -16.552  -8.809 -35.547  1.00  0.00     0.205 HD
HETATM    7  N13 UNL     1     -17.914  -7.761 -36.616  1.00  0.00    -0.269 N 
ATOM      8  H13 UNL     1     -18.392  -8.590 -36.967  1.00  0.00     0.189 HD
HETATM    9  C12 UNL     1     -18.342  -6.508 -36.972  1.00  0.00     0.147 A 
ENDROOT
BRANCH   4  10
HETATM   10  N5  UNL     1     -15.111  -6.911 -34.444  1.00  0.00    -0.002 N 
HETATM   11  N6  UNL     1     -14.987  -6.116 -33.367  1.00  0.00     0.018 NA
HETATM   12  N7  UNL     1     -13.860  -6.461 -32.725  1.00  0.00    -0.268 N 
HETATM   13  C5  UNL     1     -13.281  -7.466 -33.389  1.00  0.00     0.131 A 
ATOM     14  H7  UNL     1     -13.505  -6.029 -31.873  1.00  0.00     0.185 HD
HETATM   15  N11 UNL     1     -14.085  -7.708 -34.438  1.00  0.00    -0.252 N 
ATOM     16  H11 UNL     1     -13.912  -8.426 -35.141  1.00  0.00     0.190 HD
BRANCH  13  17
HETATM   17  C6  UNL     1     -11.998  -8.165 -33.013  1.00  0.00     0.227 C 
BRANCH  17  18
HETATM   18  N8  UNL     1     -12.246  -8.883 -31.782  1.00  0.00    -0.295 N 
HETATM   19  C7  UNL     1     -11.417  -8.786 -30.702  1.00  0.00     0.122 A 
HETATM   20  C8  UNL     1     -11.922  -9.588 -29.699  1.00  0.00     0.015 A 
HETATM   21  C10 UNL     1     -13.060 -10.156 -30.210  1.00  0.00     0.123 A 
HETATM   22  N10 UNL     1     -13.214  -9.704 -31.464  1.00  0.00    -0.293 N 
ATOM     23  H10 UNL     1     -13.981  -9.964 -32.084  1.00  0.00     0.187 HD
BRANCH  20  24
HETATM   24  C9  UNL     1     -11.348  -9.799 -28.326  1.00  0.00     0.206 C 
BRANCH  24  25
HETATM   25  O2  UNL     1     -10.309  -8.906 -28.074  1.00  0.00    -0.396 OA
ATOM     26  H2  UNL     1     -10.615  -8.158 -27.574  1.00  0.00     0.209 HD
ENDBRANCH  24  25
ENDBRANCH  20  24
BRANCH  21  27
HETATM   27  C11 UNL     1     -13.957 -11.072 -29.545  1.00  0.00     0.283 C 
HETATM   28  N9  UNL     1     -14.716 -12.048 -30.263  1.00  0.00    -0.056 NA
HETATM   29  O3  UNL     1     -14.126 -11.071 -28.295  1.00  0.00    -0.269 OA
ENDBRANCH  21  27
ENDBRANCH  17  18
ENDBRANCH  13  17
ENDBRANCH   4  10
BRANCH   1  30
HETATM   30  C2  UNL     1     -18.208  -4.072 -36.897  1.00  0.00     0.279 C 
HETATM   31  N3  UNL     1     -17.372  -3.129 -37.630  1.00  0.00    -0.296 N 
HETATM   32  C1  UNL     1     -17.864  -1.871 -37.975  1.00  0.00     0.188 C 
ATOM     33  H3  UNL     1     -16.421  -3.392 -37.893  1.00  0.00     0.171 HD
HETATM   34  N1  UNL     1     -18.277  -0.812 -38.266  1.00  0.00    -0.373 N 
HETATM   35  N2  UNL     1     -16.353  -1.462 -38.765  1.00  0.00    -0.064 NA
ATOM     36  H12 UNL     1     -18.637   0.109 -38.519  1.00  0.00     0.158 HD
ATOM     37  H11 UNL     1     -19.155  -1.050 -37.806  1.00  0.00     0.158 HD
HETATM   38  O1  UNL     1     -19.373  -3.725 -36.601  1.00  0.00    -0.265 OA
ENDBRANCH   1  30
BRANCH   9  39
HETATM   39  N14 UNL     1     -19.358  -6.384 -37.752  1.00  0.00    -0.382 N 
ATOM     40 2H14 UNL     1     -20.216  -5.963 -37.396  1.00  0.00     0.157 HD
ATOM     41 1H14 UNL     1     -19.284  -6.708 -38.716  1.00  0.00     0.157 HD
ENDBRANCH   9  39
TORSDOF 8
ENDMDL
MODEL 2
REMARK VINA RESULT: -10.361399842      5.193     10.627
REMARK  8 active torsions:
REMARK  status: ('A' for Active; 'I' for Inactive)
REMARK       I    between atoms: C1_4  and  N3_6 
REMARK       I    between atoms: N3_6  and  C2_8 
REMARK    1  A    between atoms: C2_8  and  C3_10 
REMARK    2  A    between atoms: C4_13  and  N5_14 
REMARK    3  A    between atoms: C5_18  and  C6_19 
REMARK    4  A    between atoms: C6_19  and  N8_20 
REMARK    5  A    between atoms: C8_22  and  C9_23 
REMARK    6  A    between atoms: C9_23  and  O2_24 
REMARK    7  A    between atoms: C10_26  and  C11_27 
REMARK    8  A    between atoms: C12_38  and  N14_39 
ROOT
HETATM    1  C3  UNL     1     -16.015 -14.885 -27.988  1.00  0.00     0.162 A 
HETATM    2  N4  UNL     1     -15.592 -13.826 -28.695  1.00  0.00    -0.178 N 
ATOM      3  H4  UNL     1     -16.177 -13.475 -29.453  1.00  0.00     0.185 HD
HETATM    4  C4  UNL     1     -14.407 -13.201 -28.437  1.00  0.00     0.732 A 
HETATM    5  N12 UNL     1     -13.640 -13.665 -27.444  1.00  0.00    -0.128 N 
ATOM      6  H12 UNL     1     -12.752 -13.204 -27.244  1.00  0.00     0.205 HD
HETATM    7  N13 UNL     1     -14.003 -14.704 -26.715  1.00  0.00    -0.269 N 
ATOM      8  H13 UNL     1     -13.404 -15.043 -25.962  1.00  0.00     0.189 HD
HETATM    9  C12 UNL     1     -15.197 -15.321 -26.984  1.00  0.00     0.147 A 
ENDROOT
BRANCH   4  10
HETATM   10  N5  UNL     1     -14.043 -12.057 -29.222  1.00  0.00    -0.002 N 
HETATM   11  N6  UNL     1     -14.759 -11.673 -30.292  1.00  0.00     0.018 NA
HETATM   12  N7  UNL     1     -14.184 -10.573 -30.803  1.00  0.00    -0.268 N 
HETATM   13  C5  UNL     1     -13.117 -10.265 -30.061  1.00  0.00     0.131 A 
ATOM     14  H7  UNL     1     -14.508 -10.059 -31.622  1.00  0.00     0.185 HD
HETATM   15  N11 UNL     1     -13.070 -11.205 -29.101  1.00  0.00    -0.252 N 
ATOM     16  H11 UNL     1     -12.359 -11.245 -28.370  1.00  0.00     0.190 HD
BRANCH  13  17
HETATM   17  C6  UNL     1     -12.183  -9.101 -30.275  1.00  0.00     0.227 C 
BRANCH  17  18
HETATM   18  N8  UNL     1     -12.529  -8.502 -31.546  1.00  0.00    -0.295 N 
HETATM   19  C7  UNL     1     -13.291  -7.373 -31.637  1.00  0.00     0.122 A 
HETATM   20  C8  UNL     1     -13.442  -7.063 -32.972  1.00  0.00     0.015 A 
HETATM   21  C10 UNL     1     -12.756  -8.029 -33.662  1.00  0.00     0.123 A 
HETATM   22  N10 UNL     1     -12.225  -8.872 -32.764  1.00  0.00    -0.293 N 
ATOM     23  H10 UNL     1     -11.661  -9.688 -32.998  1.00  0.00     0.187 HD
BRANCH  20  24
HETATM   24  C9  UNL     1     -14.201  -5.905 -33.559  1.00  0.00     0.206 C 
BRANCH  24  25
HETATM   25  O2  UNL     1     -15.449  -6.309 -34.028  1.00  0.00    -0.396 OA
ATOM     26  H2  UNL     1     -15.411  -6.532 -34.950  1.00  0.00     0.209 HD
ENDBRANCH  24  25
ENDBRANCH  20  24
BRANCH  21  27
HETATM   27  C11 UNL     1     -12.607  -8.144 -35.095  1.00  0.00     0.283 C 
HETATM   28  N9  UNL     1     -11.403  -8.625 -35.696  1.00  0.00    -0.056 NA
HETATM   29  O3  UNL     1     -13.525  -7.830 -35.901  1.00  0.00    -0.269 OA
ENDBRANCH  21  27
ENDBRANCH  17  18
ENDBRANCH  13  17
ENDBRANCH   4  10
BRANCH   1  30
HETATM   30  C2  UNL     1     -17.281 -15.552 -28.235  1.00  0.00     0.279 C 
HETATM   31  N3  UNL     1     -17.434 -16.521 -29.312  1.00  0.00    -0.296 N 
HETATM   32  C1  UNL     1     -18.664 -17.138 -29.537  1.00  0.00     0.188 C 
ATOM     33  H3  UNL     1     -16.636 -16.749 -29.906  1.00  0.00     0.171 HD
HETATM   34  N1  UNL     1     -19.699 -17.657 -29.726  1.00  0.00    -0.373 N 
HETATM   35  N2  UNL     1     -17.994 -18.061 -30.868  1.00  0.00    -0.064 NA
ATOM     36  H12 UNL     1     -20.599 -18.109 -29.890  1.00  0.00     0.158 HD
ATOM     37  H11 UNL     1     -20.088 -17.120 -28.951  1.00  0.00     0.158 HD
HETATM   38  O1  UNL     1     -18.274 -15.302 -27.517  1.00  0.00    -0.265 OA
ENDBRANCH   1  30
BRANCH   9  39
HETATM   39  N14 UNL     1     -15.561 -16.333 -26.278  1.00  0.00    -0.382 N 
ATOM     40 2H14 UNL     1     -15.564 -17.263 -26.696  1.00  0.00     0.157 HD
ATOM     41 1H14 UNL     1     -15.841 -16.184 -25.308  1.00  0.00     0.157 HD
ENDBRANCH   9  39
TORSDOF 8
ENDMDL
MODEL 3
REMARK VINA RESULT: -10.355213463      1.124      1.945
REMARK  8 active torsions:
REMARK  status: ('A' for Active; 'I' for Inactive)
REMARK       I    between atoms: C1_4  and  N3_6 
REMARK       I    between atoms: N3_6  and  C2_8 
REMARK    1  A    between atoms: C2_8  and  C3_10 
REMARK    2  A    between atoms: C4_13  and  N5_14 
REMARK    3  A    between atoms: C5_18  and  C6_19 
REMARK    4  A    between atoms: C6_19  and  N8_20 
REMARK    5  A    between atoms: C8_22  and  C9_23 
REMARK    6  A    between atoms: C9_23  and  O2_24 
REMARK    7  A    between atoms: C10_26  and  C11_27 
REMARK    8  A    between atoms: C12_38  and  N14_39 
ROOT
HETATM    1  C3  UNL     1     -17.886  -5.315 -36.578  1.00  0.00     0.162 A 
HETATM    2  N4  UNL     1     -16.797  -5.481 -35.812  1.00  0.00    -0.178 N 
ATOM      3  H4  UNL     1     -16.300  -4.654 -35.479  1.00  0.00     0.185 HD
HETATM    4  C4  UNL     1     -16.329  -6.713 -35.463  1.00  0.00     0.732 A 
HETATM    5  N12 UNL     1     -16.982  -7.795 -35.904  1.00  0.00    -0.128 N 
ATOM      6  H12 UNL     1     -16.639  -8.722 -35.648  1.00  0.00     0.205 HD
HETATM    7  N13 UNL     1     -18.058  -7.695 -36.662  1.00  0.00    -0.269 N 
ATOM      8  H13 UNL     1     -18.541  -8.532 -36.988  1.00  0.00     0.189 HD
HETATM    9  C12 UNL     1     -18.517  -6.450 -37.003  1.00  0.00     0.147 A 
ENDROOT
BRANCH   4  10
HETATM   10  N5  UNL     1     -15.174  -6.801 -34.617  1.00  0.00    -0.002 N 
HETATM   11  N6  UNL     1     -15.020  -6.009 -33.542  1.00  0.00     0.018 NA
HETATM   12  N7  UNL     1     -13.860  -6.335 -32.951  1.00  0.00    -0.268 N 
HETATM   13  C5  UNL     1     -13.290  -7.325 -33.644  1.00  0.00     0.131 A 
ATOM     14  H7  UNL     1     -13.477  -5.900 -32.112  1.00  0.00     0.185 HD
HETATM   15  N11 UNL     1     -14.134  -7.577 -34.660  1.00  0.00    -0.252 N 
ATOM     16  H11 UNL     1     -13.977  -8.289 -35.374  1.00  0.00     0.190 HD
BRANCH  13  17
HETATM   17  C6  UNL     1     -11.979  -8.000 -33.328  1.00  0.00     0.227 C 
BRANCH  17  18
HETATM   18  N8  UNL     1     -12.127  -8.642 -32.040  1.00  0.00    -0.295 N 
HETATM   19  C7  UNL     1     -13.200  -9.427 -31.735  1.00  0.00     0.122 A 
HETATM   20  C8  UNL     1     -13.046  -9.883 -30.442  1.00  0.00     0.015 A 
HETATM   21  C10 UNL     1     -11.865  -9.351 -29.995  1.00  0.00     0.123 A 
HETATM   22  N10 UNL     1     -11.348  -8.613 -30.988  1.00  0.00    -0.293 N 
ATOM     23  H10 UNL     1     -10.469  -8.099 -30.932  1.00  0.00     0.187 HD
BRANCH  20  24
HETATM   24  C9  UNL     1     -13.978 -10.780 -29.675  1.00  0.00     0.206 C 
BRANCH  24  25
HETATM   25  O2  UNL     1     -14.638 -11.664 -30.526  1.00  0.00    -0.396 OA
ATOM     26  H2  UNL     1     -15.449 -11.969 -30.140  1.00  0.00     0.209 HD
ENDBRANCH  24  25
ENDBRANCH  20  24
BRANCH  21  27
HETATM   27  C11 UNL     1     -11.254  -9.538 -28.699  1.00  0.00     0.283 C 
HETATM   28  N9  UNL     1     -10.154  -8.740 -28.256  1.00  0.00    -0.056 NA
HETATM   29  O3  UNL     1     -11.652 -10.411 -27.880  1.00  0.00    -0.269 OA
ENDBRANCH  21  27
ENDBRANCH  17  18
ENDBRANCH  13  17
ENDBRANCH   4  10
BRANCH   1  30
HETATM   30  C2  UNL     1     -18.410  -4.011 -36.944  1.00  0.00     0.279 C 
HETATM   31  N3  UNL     1     -17.604  -3.046 -37.680  1.00  0.00    -0.296 N 
HETATM   32  C1  UNL     1     -18.126  -1.796 -38.009  1.00  0.00     0.188 C 
ATOM     33  H3  UNL     1     -16.651  -3.286 -37.957  1.00  0.00     0.171 HD
HETATM   34  N1  UNL     1     -18.566  -0.743 -38.286  1.00  0.00    -0.373 N 
HETATM   35  N2  UNL     1     -16.634  -1.349 -38.815  1.00  0.00    -0.064 NA
ATOM     36  H12 UNL     1     -18.948   0.171 -38.527  1.00  0.00     0.158 HD
ATOM     37  H11 UNL     1     -19.433  -1.003 -37.817  1.00  0.00     0.158 HD
HETATM   38  O1  UNL     1     -19.578  -3.692 -36.631  1.00  0.00    -0.265 OA
ENDBRANCH   1  30
BRANCH   9  39
HETATM   39  N14 UNL     1     -19.568  -6.341 -37.738  1.00  0.00    -0.382 N 
ATOM     40 2H14 UNL     1     -19.517  -5.820 -38.613  1.00  0.00     0.157 HD
ATOM     41 1H14 UNL     1     -20.435  -6.782 -37.430  1.00  0.00     0.157 HD
ENDBRANCH   9  39
TORSDOF 8
ENDMDL
MODEL 4
REMARK VINA RESULT: -10.272365953      1.292      3.000
REMARK  8 active torsions:
REMARK  status: ('A' for Active; 'I' for Inactive)
REMARK       I    between atoms: C1_4  and  N3_6 
REMARK       I    between atoms: N3_6  and  C2_8 
REMARK    1  A    between atoms: C2_8  and  C3_10 
REMARK    2  A    between atoms: C4_13  and  N5_14 
REMARK    3  A    between atoms: C5_18  and  C6_19 
REMARK    4  A    between atoms: C6_19  and  N8_20 
REMARK    5  A    between atoms: C8_22  and  C9_23 
REMARK    6  A    between atoms: C9_23  and  O2_24 
REMARK    7  A    between atoms: C10_26  and  C11_27 
REMARK    8  A    between atoms: C12_38  and  N14_39 
ROOT
HETATM    1  C3  UNL     1     -17.573  -5.189 -36.497  1.00  0.00     0.162 A 
HETATM    2  N4  UNL     1     -16.755  -5.825 -35.645  1.00  0.00    -0.178 N 
ATOM      3  H4  UNL     1     -17.019  -6.752 -35.310  1.00  0.00     0.185 HD
HETATM    4  C4  UNL     1     -15.584  -5.279 -35.209  1.00  0.00     0.732 A 
HETATM    5  N12 UNL     1     -15.242  -4.061 -35.648  1.00  0.00    -0.128 N 
ATOM      6  H12 UNL     1     -14.368  -3.644 -35.327  1.00  0.00     0.205 HD
HETATM    7  N13 UNL     1     -16.007  -3.386 -36.486  1.00  0.00    -0.269 N 
ATOM      8  H13 UNL     1     -15.728  -2.460 -36.809  1.00  0.00     0.189 HD
HETATM    9  C12 UNL     1     -17.180  -3.949 -36.917  1.00  0.00     0.147 A 
ENDROOT
BRANCH   4  10
HETATM   10  N5  UNL     1     -14.754  -6.039 -34.321  1.00  0.00    -0.002 N 
HETATM   11  N6  UNL     1     -14.857  -5.931 -32.985  1.00  0.00     0.018 NA
HETATM   12  N7  UNL     1     -13.968  -6.770 -32.432  1.00  0.00    -0.268 N 
HETATM   13  C5  UNL     1     -13.313  -7.404 -33.409  1.00  0.00     0.131 A 
ATOM     14  H7  UNL     1     -13.818  -6.902 -31.432  1.00  0.00     0.185 HD
HETATM   15  N11 UNL     1     -13.829  -6.922 -34.552  1.00  0.00    -0.252 N 
ATOM     16  H11 UNL     1     -13.533  -7.212 -35.484  1.00  0.00     0.190 HD
BRANCH  13  17
HETATM   17  C6  UNL     1     -12.231  -8.439 -33.235  1.00  0.00     0.227 C 
BRANCH  17  18
HETATM   18  N8  UNL     1     -12.480  -9.114 -31.980  1.00  0.00    -0.295 N 
HETATM   19  C7  UNL     1     -11.670  -8.955 -30.893  1.00  0.00     0.122 A 
HETATM   20  C8  UNL     1     -12.172  -9.728 -29.866  1.00  0.00     0.015 A 
HETATM   21  C10 UNL     1     -13.289 -10.342 -30.370  1.00  0.00     0.123 A 
HETATM   22  N10 UNL     1     -13.435  -9.944 -31.642  1.00  0.00    -0.293 N 
ATOM     23  H10 UNL     1     -14.186 -10.246 -32.262  1.00  0.00     0.187 HD
BRANCH  20  24
HETATM   24  C9  UNL     1     -11.614  -9.871 -28.477  1.00  0.00     0.206 C 
BRANCH  24  25
HETATM   25  O2  UNL     1     -10.504  -9.049 -28.295  1.00  0.00    -0.396 OA
ATOM     26  H2  UNL     1     -10.152  -9.140 -27.418  1.00  0.00     0.209 HD
ENDBRANCH  24  25
ENDBRANCH  20  24
BRANCH  21  27
HETATM   27  C11 UNL     1     -14.175 -11.252 -29.681  1.00  0.00     0.283 C 
HETATM   28  N9  UNL     1     -14.554 -11.057 -28.317  1.00  0.00    -0.056 NA
HETATM   29  O3  UNL     1     -14.670 -12.270 -30.238  1.00  0.00    -0.269 OA
ENDBRANCH  21  27
ENDBRANCH  17  18
ENDBRANCH  13  17
ENDBRANCH   4  10
BRANCH   1  30
HETATM   30  C2  UNL     1     -18.814  -5.761 -36.987  1.00  0.00     0.279 C 
HETATM   31  N3  UNL     1     -18.842  -7.051 -37.665  1.00  0.00    -0.296 N 
HETATM   32  C1  UNL     1     -20.046  -7.574 -38.137  1.00  0.00     0.188 C 
ATOM     33  H3  UNL     1     -17.976  -7.575 -37.794  1.00  0.00     0.171 HD
HETATM   34  N1  UNL     1     -21.058  -8.013 -38.535  1.00  0.00    -0.373 N 
HETATM   35  N2  UNL     1     -19.227  -9.007 -38.730  1.00  0.00    -0.064 NA
ATOM     36  H12 UNL     1     -21.939  -8.396 -38.881  1.00  0.00     0.158 HD
ATOM     37  H11 UNL     1     -21.534  -7.180 -38.191  1.00  0.00     0.158 HD
HETATM   38  O1  UNL     1     -19.894  -5.149 -36.833  1.00  0.00    -0.265 OA
ENDBRANCH   1  30
BRANCH   9  39
HETATM   39  N14 UNL     1     -17.931  -3.300 -37.736  1.00  0.00    -0.382 N 
ATOM     40 2H14 UNL     1     -18.165  -3.714 -38.638  1.00  0.00     0.157 HD
ATOM     41 1H14 UNL     1     -18.281  -2.381 -37.464  1.00  0.00     0.157 HD
ENDBRANCH   9  39
TORSDOF 8
ENDMDL
MODEL 5
REMARK VINA RESULT: -10.258747856      2.343      9.432
REMARK  8 active torsions:
REMARK  status: ('A' for Active; 'I' for Inactive)
REMARK       I    between atoms: C1_4  and  N3_6 
REMARK       I    between atoms: N3_6  and  C2_8 
REMARK    1  A    between atoms: C2_8  and  C3_10 
REMARK    2  A    between atoms: C4_13  and  N5_14 
REMARK    3  A    between atoms: C5_18  and  C6_19 
REMARK    4  A    between atoms: C6_19  and  N8_20 
REMARK    5  A    between atoms: C8_22  and  C9_23 
REMARK    6  A    between atoms: C9_23  and  O2_24 
REMARK    7  A    between atoms: C10_26  and  C11_27 
REMARK    8  A    between atoms: C12_38  and  N14_39 
ROOT
HETATM    1  C3  UNL     1     -12.490  -9.299 -31.911  1.00  0.00     0.162 A 
HETATM    2  N4  UNL     1     -13.574  -9.079 -32.671  1.00  0.00    -0.178 N 
ATOM      3  H4  UNL     1     -14.498  -9.235 -32.267  1.00  0.00     0.185 HD
HETATM    4  C4  UNL     1     -13.486  -8.655 -33.964  1.00  0.00     0.732 A 
HETATM    5  N12 UNL     1     -12.273  -8.454 -34.492  1.00  0.00    -0.128 N 
ATOM      6  H12 UNL     1     -12.197  -8.136 -35.460  1.00  0.00     0.205 HD
HETATM    7  N13 UNL     1     -11.171  -8.655 -33.794  1.00  0.00    -0.269 N 
ATOM      8  H13 UNL     1     -10.255  -8.496 -34.215  1.00  0.00     0.189 HD
HETATM    9  C12 UNL     1     -11.275  -9.080 -32.496  1.00  0.00     0.147 A 
ENDROOT
BRANCH   4  10
HETATM   10  N5  UNL     1     -14.696  -8.415 -34.697  1.00  0.00    -0.002 N 
HETATM   11  N6  UNL     1     -15.382  -9.412 -35.281  1.00  0.00     0.018 NA
HETATM   12  N7  UNL     1     -16.463  -8.881 -35.871  1.00  0.00    -0.268 N 
HETATM   13  C5  UNL     1     -16.461  -7.561 -35.660  1.00  0.00     0.131 A 
ATOM     14  H7  UNL     1     -17.170  -9.398 -36.394  1.00  0.00     0.185 HD
HETATM   15  N11 UNL     1     -15.355  -7.321 -34.935  1.00  0.00    -0.252 N 
ATOM     16  H11 UNL     1     -15.069  -6.397 -34.612  1.00  0.00     0.190 HD
BRANCH  13  17
HETATM   17  C6  UNL     1     -17.495  -6.576 -36.142  1.00  0.00     0.227 C 
BRANCH  17  18
HETATM   18  N8  UNL     1     -16.880  -5.266 -36.127  1.00  0.00    -0.295 N 
HETATM   19  C7  UNL     1     -16.637  -4.588 -34.968  1.00  0.00     0.122 A 
HETATM   20  C8  UNL     1     -16.051  -3.381 -35.291  1.00  0.00     0.015 A 
HETATM   21  C10 UNL     1     -15.955  -3.364 -36.658  1.00  0.00     0.123 A 
HETATM   22  N10 UNL     1     -16.465  -4.517 -37.117  1.00  0.00    -0.293 N 
ATOM     23  H10 UNL     1     -16.522  -4.774 -38.102  1.00  0.00     0.187 HD
BRANCH  20  24
HETATM   24  C9  UNL     1     -15.607  -2.302 -34.343  1.00  0.00     0.206 C 
BRANCH  24  25
HETATM   25  O2  UNL     1     -14.218  -2.241 -34.268  1.00  0.00    -0.396 OA
ATOM     26  H2  UNL     1     -13.934  -1.932 -33.416  1.00  0.00     0.209 HD
ENDBRANCH  24  25
ENDBRANCH  20  24
BRANCH  21  27
HETATM   27  C11 UNL     1     -15.404  -2.316 -37.485  1.00  0.00     0.283 C 
HETATM   28  N9  UNL     1     -16.196  -1.605 -38.438  1.00  0.00    -0.056 NA
HETATM   29  O3  UNL     1     -14.194  -1.964 -37.419  1.00  0.00    -0.269 OA
ENDBRANCH  21  27
ENDBRANCH  17  18
ENDBRANCH  13  17
ENDBRANCH   4  10
BRANCH   1  30
HETATM   30  C2  UNL     1     -12.563  -9.733 -30.528  1.00  0.00     0.279 C 
HETATM   31  N3  UNL     1     -13.429 -10.832 -30.119  1.00  0.00    -0.296 N 
HETATM   32  C1  UNL     1     -13.491 -11.221 -28.781  1.00  0.00     0.188 C 
ATOM     33  H3  UNL     1     -13.993 -11.320 -30.816  1.00  0.00     0.171 HD
HETATM   34  N1  UNL     1     -13.543 -11.548 -27.656  1.00  0.00    -0.373 N 
HETATM   35  N2  UNL     1     -14.641 -12.486 -29.169  1.00  0.00    -0.064 NA
ATOM     36  H12 UNL     1     -13.588 -11.833 -26.677  1.00  0.00     0.158 HD
ATOM     37  H11 UNL     1     -12.874 -10.812 -27.430  1.00  0.00     0.158 HD
HETATM   38  O1  UNL     1     -11.875  -9.163 -29.652  1.00  0.00    -0.265 OA
ENDBRANCH   1  30
BRANCH   9  39
HETATM   39  N14 UNL     1     -10.206  -9.276 -31.805  1.00  0.00    -0.382 N 
ATOM     40 2H14 UNL     1     -10.225  -9.935 -31.027  1.00  0.00     0.157 HD
ATOM     41 1H14 UNL     1      -9.357  -8.768 -32.053  1.00  0.00     0.157 HD
ENDBRANCH   9  39
TORSDOF 8
ENDMDL
