MODEL 1
REMARK VINA RESULT: -7.467794994      0.000      0.000
REMARK  14 active torsions:
REMARK  status: ('A' for Active; 'I' for Inactive)
REMARK    1  A    between atoms: C2_2  and  C3_3 
REMARK    2  A    between atoms: C3_3  and  C4_4 
REMARK    3  A    between atoms: C4_4  and  C5_5 
REMARK    4  A    between atoms: C4_4  and  C7_8 
REMARK    5  A    between atoms: C5_5  and  O1_6 
REMARK    6  A    between atoms: C7_8  and  O2_9 
REMARK    7  A    between atoms: O2_9  and  C8_10 
REMARK    8  A    between atoms: C8_10  and  C9_11 
REMARK    9  A    between atoms: C9_11  and  S1_12 
REMARK   10  A    between atoms: S1_12  and  S2_13 
REMARK   11  A    between atoms: S2_13  and  C10_14 
REMARK   12  A    between atoms: C13_18  and  N2_19 
REMARK   13  A    between atoms: N2_19  and  C14_21 
REMARK   14  A    between atoms: C14_21  and  C16_23 
ROOT
HETATM    1  C10 UNL     1     -23.691  11.809  27.982  1.00  0.00     0.082 A 
HETATM    2  C11 UNL     1     -23.038  12.810  28.668  1.00  0.00     0.066 A 
HETATM    3  C12 UNL     1     -23.795  13.725  29.369  1.00  0.00     0.076 A 
HETATM    4  N1  UNL     1     -23.165  14.769  30.088  1.00  0.00    -0.100 NA
HETATM    5  C13 UNL     1     -25.186  13.679  29.411  1.00  0.00     0.068 A 
HETATM    6  C18 UNL     1     -25.785  12.665  28.713  1.00  0.00     0.119 A 
HETATM    7  N3  UNL     1     -25.029  11.761  28.019  1.00  0.00    -0.358 N 
ATOM      8  H3  UNL     1     -25.505  11.018  27.507  1.00  0.00     0.166 HD
ENDROOT
BRANCH   1   9
HETATM    9  S2  UNL     1     -22.771  10.573  27.041  1.00  0.00    -0.040 SA
BRANCH   9  10
HETATM   10  S1  UNL     1     -23.879   9.992  25.319  1.00  0.00    -0.089 SA
BRANCH  10  11
HETATM   11  C9  UNL     1     -22.666   9.784  23.959  1.00  0.00     0.112 C 
BRANCH  11  12
HETATM   12  C8  UNL     1     -23.355   9.433  22.682  1.00  0.00     0.179 C 
BRANCH  12  13
HETATM   13  O2  UNL     1     -23.329  10.441  21.769  1.00  0.00    -0.386 OA
BRANCH  13  14
HETATM   14  C7  UNL     1     -24.557  10.724  21.263  1.00  0.00     0.204 C 
BRANCH  14  15
HETATM   15  C4  UNL     1     -24.690  12.247  20.953  1.00  0.00    -0.037 C 
BRANCH  15  16
HETATM   16  C3  UNL     1     -23.790  12.649  19.886  1.00  0.00    -0.020 C 
BRANCH  16  17
HETATM   17  C2  UNL     1     -23.751  12.083  18.544  1.00  0.00     0.023 C 
HETATM   18  C1  UNL     1     -22.719  11.066  18.194  1.00  0.00     0.009 C 
ENDBRANCH  16  17
ENDBRANCH  15  16
BRANCH  15  19
HETATM   19  C5  UNL     1     -24.866  12.996  22.201  1.00  0.00     0.203 C 
BRANCH  19  20
HETATM   20  O1  UNL     1     -25.993  13.722  22.412  1.00  0.00    -0.392 OA
HETATM   21  C6  UNL     1     -26.871  12.982  23.185  1.00  0.00     0.201 C 
ENDBRANCH  19  20
ENDBRANCH  15  19
ENDBRANCH  14  15
ENDBRANCH  13  14
ENDBRANCH  12  13
ENDBRANCH  11  12
ENDBRANCH  10  11
ENDBRANCH   9  10
ENDBRANCH   1   9
BRANCH   5  22
HETATM   22  N2  UNL     1     -25.929  14.634  30.152  1.00  0.00    -0.383 N 
ATOM     23  H2  UNL     1     -25.928  15.602  29.830  1.00  0.00     0.160 HD
BRANCH  22  24
HETATM   24  C14 UNL     1     -26.686  14.309  31.335  1.00  0.00     0.077 C 
HETATM   25  C15 UNL     1     -28.106  13.879  30.983  1.00  0.00     0.032 C 
BRANCH  24  26
HETATM   26  C16 UNL     1     -26.748  15.489  32.274  1.00  0.00     0.020 C 
HETATM   27  C17 UNL     1     -25.507  16.329  32.223  1.00  0.00     0.007 C 
ENDBRANCH  24  26
ENDBRANCH  22  24
ENDBRANCH   5  22
TORSDOF 14
ENDMDL
MODEL 2
REMARK VINA RESULT: -7.240787382      1.832      3.491
REMARK  14 active torsions:
REMARK  status: ('A' for Active; 'I' for Inactive)
REMARK    1  A    between atoms: C2_2  and  C3_3 
REMARK    2  A    between atoms: C3_3  and  C4_4 
REMARK    3  A    between atoms: C4_4  and  C5_5 
REMARK    4  A    between atoms: C4_4  and  C7_8 
REMARK    5  A    between atoms: C5_5  and  O1_6 
REMARK    6  A    between atoms: C7_8  and  O2_9 
REMARK    7  A    between atoms: O2_9  and  C8_10 
REMARK    8  A    between atoms: C8_10  and  C9_11 
REMARK    9  A    between atoms: C9_11  and  S1_12 
REMARK   10  A    between atoms: S1_12  and  S2_13 
REMARK   11  A    between atoms: S2_13  and  C10_14 
REMARK   12  A    between atoms: C13_18  and  N2_19 
REMARK   13  A    between atoms: N2_19  and  C14_21 
REMARK   14  A    between atoms: C14_21  and  C16_23 
ROOT
HETATM    1  C10 UNL     1     -23.691  11.796  27.973  1.00  0.00     0.082 A 
HETATM    2  C11 UNL     1     -23.049  12.802  28.664  1.00  0.00     0.066 A 
HETATM    3  C12 UNL     1     -23.817  13.707  29.365  1.00  0.00     0.076 A 
HETATM    4  N1  UNL     1     -23.200  14.756  30.088  1.00  0.00    -0.100 NA
HETATM    5  C13 UNL     1     -25.208  13.647  29.404  1.00  0.00     0.068 A 
HETATM    6  C18 UNL     1     -25.795  12.629  28.701  1.00  0.00     0.119 A 
HETATM    7  N3  UNL     1     -25.029  11.734  28.007  1.00  0.00    -0.358 N 
ATOM      8  H3  UNL     1     -25.496  10.988  27.492  1.00  0.00     0.166 HD
ENDROOT
BRANCH   1   9
HETATM    9  S2  UNL     1     -22.756  10.573  27.031  1.00  0.00    -0.040 SA
BRANCH   9  10
HETATM   10  S1  UNL     1     -23.331  10.633  24.983  1.00  0.00    -0.089 SA
BRANCH  10  11
HETATM   11  C9  UNL     1     -24.609   9.336  24.757  1.00  0.00     0.112 C 
BRANCH  11  12
HETATM   12  C8  UNL     1     -25.940   9.813  25.237  1.00  0.00     0.179 C 
BRANCH  12  13
HETATM   13  O2  UNL     1     -26.083  11.163  25.155  1.00  0.00    -0.386 OA
BRANCH  13  14
HETATM   14  C7  UNL     1     -27.382  11.549  25.059  1.00  0.00     0.204 C 
BRANCH  14  15
HETATM   15  C4  UNL     1     -27.593  12.477  23.823  1.00  0.00    -0.037 C 
BRANCH  15  16
HETATM   16  C3  UNL     1     -28.913  12.296  23.246  1.00  0.00    -0.020 C 
BRANCH  16  17
HETATM   17  C2  UNL     1     -30.041  11.631  23.886  1.00  0.00     0.023 C 
HETATM   18  C1  UNL     1     -31.308  12.378  24.128  1.00  0.00     0.009 C 
ENDBRANCH  16  17
ENDBRANCH  15  16
BRANCH  15  19
HETATM   19  C5  UNL     1     -26.358  12.547  23.037  1.00  0.00     0.203 C 
BRANCH  19  20
HETATM   20  O1  UNL     1     -25.996  13.705  22.430  1.00  0.00    -0.392 OA
HETATM   21  C6  UNL     1     -24.768  13.532  21.816  1.00  0.00     0.201 C 
ENDBRANCH  19  20
ENDBRANCH  15  19
ENDBRANCH  14  15
ENDBRANCH  13  14
ENDBRANCH  12  13
ENDBRANCH  11  12
ENDBRANCH  10  11
ENDBRANCH   9  10
ENDBRANCH   1   9
BRANCH   5  22
HETATM   22  N2  UNL     1     -25.963  14.592  30.145  1.00  0.00    -0.383 N 
ATOM     23  H2  UNL     1     -25.969  15.561  29.828  1.00  0.00     0.160 HD
BRANCH  22  24
HETATM   24  C14 UNL     1     -26.722  14.255  31.324  1.00  0.00     0.077 C 
HETATM   25  C15 UNL     1     -28.166  13.914  30.974  1.00  0.00     0.032 C 
BRANCH  24  26
HETATM   26  C16 UNL     1     -26.711  15.395  32.314  1.00  0.00     0.020 C 
HETATM   27  C17 UNL     1     -25.617  16.383  32.041  1.00  0.00     0.007 C 
ENDBRANCH  24  26
ENDBRANCH  22  24
ENDBRANCH   5  22
TORSDOF 14
ENDMDL
MODEL 3
REMARK VINA RESULT: -7.228746424      0.937      2.456
REMARK  14 active torsions:
REMARK  status: ('A' for Active; 'I' for Inactive)
REMARK    1  A    between atoms: C2_2  and  C3_3 
REMARK    2  A    between atoms: C3_3  and  C4_4 
REMARK    3  A    between atoms: C4_4  and  C5_5 
REMARK    4  A    between atoms: C4_4  and  C7_8 
REMARK    5  A    between atoms: C5_5  and  O1_6 
REMARK    6  A    between atoms: C7_8  and  O2_9 
REMARK    7  A    between atoms: O2_9  and  C8_10 
REMARK    8  A    between atoms: C8_10  and  C9_11 
REMARK    9  A    between atoms: C9_11  and  S1_12 
REMARK   10  A    between atoms: S1_12  and  S2_13 
REMARK   11  A    between atoms: S2_13  and  C10_14 
REMARK   12  A    between atoms: C13_18  and  N2_19 
REMARK   13  A    between atoms: N2_19  and  C14_21 
REMARK   14  A    between atoms: C14_21  and  C16_23 
ROOT
HETATM    1  C10 UNL     1     -23.712  11.803  27.936  1.00  0.00     0.082 A 
HETATM    2  C11 UNL     1     -23.056  12.795  28.633  1.00  0.00     0.066 A 
HETATM    3  C12 UNL     1     -23.812  13.703  29.344  1.00  0.00     0.076 A 
HETATM    4  N1  UNL     1     -23.180  14.738  30.074  1.00  0.00    -0.100 NA
HETATM    5  C13 UNL     1     -25.203  13.659  29.388  1.00  0.00     0.068 A 
HETATM    6  C18 UNL     1     -25.804  12.653  28.678  1.00  0.00     0.119 A 
HETATM    7  N3  UNL     1     -25.050  11.755  27.974  1.00  0.00    -0.358 N 
ATOM      8  H3  UNL     1     -25.528  11.018  27.455  1.00  0.00     0.166 HD
ENDROOT
BRANCH   1   9
HETATM    9  S2  UNL     1     -22.794  10.577  26.980  1.00  0.00    -0.040 SA
BRANCH   9  10
HETATM   10  S1  UNL     1     -23.939   9.958  25.296  1.00  0.00    -0.089 SA
BRANCH  10  11
HETATM   11  C9  UNL     1     -22.792   9.928  23.864  1.00  0.00     0.112 C 
BRANCH  11  12
HETATM   12  C8  UNL     1     -23.481   9.418  22.641  1.00  0.00     0.179 C 
BRANCH  12  13
HETATM   13  O2  UNL     1     -23.323  10.231  21.563  1.00  0.00    -0.386 OA
BRANCH  13  14
HETATM   14  C7  UNL     1     -24.463  10.894  21.233  1.00  0.00     0.204 C 
BRANCH  14  15
HETATM   15  C4  UNL     1     -24.184  12.418  21.057  1.00  0.00    -0.037 C 
BRANCH  15  16
HETATM   16  C3  UNL     1     -24.952  13.209  22.003  1.00  0.00    -0.020 C 
BRANCH  16  17
HETATM   17  C2  UNL     1     -25.627  12.700  23.189  1.00  0.00     0.023 C 
HETATM   18  C1  UNL     1     -27.057  13.042  23.438  1.00  0.00     0.009 C 
ENDBRANCH  16  17
ENDBRANCH  15  16
BRANCH  15  19
HETATM   19  C5  UNL     1     -24.060  12.740  19.632  1.00  0.00     0.203 C 
BRANCH  19  20
HETATM   20  O1  UNL     1     -24.557  11.897  18.692  1.00  0.00    -0.392 OA
HETATM   21  C6  UNL     1     -23.535  11.507  17.845  1.00  0.00     0.201 C 
ENDBRANCH  19  20
ENDBRANCH  15  19
ENDBRANCH  14  15
ENDBRANCH  13  14
ENDBRANCH  12  13
ENDBRANCH  11  12
ENDBRANCH  10  11
ENDBRANCH   9  10
ENDBRANCH   1   9
BRANCH   5  22
HETATM   22  N2  UNL     1     -25.944  14.606  30.139  1.00  0.00    -0.383 N 
ATOM     23  H2  UNL     1     -25.932  15.580  29.836  1.00  0.00     0.160 HD
BRANCH  22  24
HETATM   24  C14 UNL     1     -26.715  14.265  31.310  1.00  0.00     0.077 C 
HETATM   25  C15 UNL     1     -28.151  13.911  30.943  1.00  0.00     0.032 C 
BRANCH  24  26
HETATM   26  C16 UNL     1     -26.726  15.408  32.296  1.00  0.00     0.020 C 
HETATM   27  C17 UNL     1     -25.567  16.340  32.109  1.00  0.00     0.007 C 
ENDBRANCH  24  26
ENDBRANCH  22  24
ENDBRANCH   5  22
TORSDOF 14
ENDMDL
MODEL 4
REMARK VINA RESULT: -7.146579000      1.619      2.230
REMARK  14 active torsions:
REMARK  status: ('A' for Active; 'I' for Inactive)
REMARK    1  A    between atoms: C2_2  and  C3_3 
REMARK    2  A    between atoms: C3_3  and  C4_4 
REMARK    3  A    between atoms: C4_4  and  C5_5 
REMARK    4  A    between atoms: C4_4  and  C7_8 
REMARK    5  A    between atoms: C5_5  and  O1_6 
REMARK    6  A    between atoms: C7_8  and  O2_9 
REMARK    7  A    between atoms: O2_9  and  C8_10 
REMARK    8  A    between atoms: C8_10  and  C9_11 
REMARK    9  A    between atoms: C9_11  and  S1_12 
REMARK   10  A    between atoms: S1_12  and  S2_13 
REMARK   11  A    between atoms: S2_13  and  C10_14 
REMARK   12  A    between atoms: C13_18  and  N2_19 
REMARK   13  A    between atoms: N2_19  and  C14_21 
REMARK   14  A    between atoms: C14_21  and  C16_23 
ROOT
HETATM    1  C10 UNL     1     -23.566  11.651  28.020  1.00  0.00     0.082 A 
HETATM    2  C11 UNL     1     -22.947  12.692  28.677  1.00  0.00     0.066 A 
HETATM    3  C12 UNL     1     -23.737  13.627  29.313  1.00  0.00     0.076 A 
HETATM    4  N1  UNL     1     -23.143  14.712  30.000  1.00  0.00    -0.100 NA
HETATM    5  C13 UNL     1     -25.128  13.563  29.317  1.00  0.00     0.068 A 
HETATM    6  C18 UNL     1     -25.693  12.508  28.649  1.00  0.00     0.119 A 
HETATM    7  N3  UNL     1     -24.904  11.585  28.021  1.00  0.00    -0.358 N 
ATOM      8  H3  UNL     1     -25.355  10.812  27.531  1.00  0.00     0.166 HD
ENDROOT
BRANCH   1   9
HETATM    9  S2  UNL     1     -22.602  10.388  27.164  1.00  0.00    -0.040 SA
BRANCH   9  10
HETATM   10  S1  UNL     1     -23.013  10.444  25.077  1.00  0.00    -0.089 SA
BRANCH  10  11
HETATM   11  C9  UNL     1     -24.614   9.582  24.833  1.00  0.00     0.112 C 
BRANCH  11  12
HETATM   12  C8  UNL     1     -25.751  10.549  24.881  1.00  0.00     0.179 C 
BRANCH  12  13
HETATM   13  O2  UNL     1     -25.346  11.840  25.017  1.00  0.00    -0.386 OA
BRANCH  13  14
HETATM   14  C7  UNL     1     -26.259  12.729  24.547  1.00  0.00     0.204 C 
BRANCH  14  15
HETATM   15  C4  UNL     1     -26.580  12.449  23.046  1.00  0.00    -0.037 C 
BRANCH  15  16
HETATM   16  C3  UNL     1     -25.614  13.090  22.170  1.00  0.00    -0.020 C 
BRANCH  16  17
HETATM   17  C2  UNL     1     -24.544  12.419  21.445  1.00  0.00     0.023 C 
HETATM   18  C1  UNL     1     -24.528  10.931  21.346  1.00  0.00     0.009 C 
ENDBRANCH  16  17
ENDBRANCH  15  16
BRANCH  15  19
HETATM   19  C5  UNL     1     -28.030  12.486  22.832  1.00  0.00     0.203 C 
BRANCH  19  20
HETATM   20  O1  UNL     1     -28.871  12.724  23.870  1.00  0.00    -0.392 OA
HETATM   21  C6  UNL     1     -29.922  11.826  23.817  1.00  0.00     0.201 C 
ENDBRANCH  19  20
ENDBRANCH  15  19
ENDBRANCH  14  15
ENDBRANCH  13  14
ENDBRANCH  12  13
ENDBRANCH  11  12
ENDBRANCH  10  11
ENDBRANCH   9  10
ENDBRANCH   1   9
BRANCH   5  22
HETATM   22  N2  UNL     1     -25.905  14.539  29.990  1.00  0.00    -0.383 N 
ATOM     23  H2  UNL     1     -25.933  15.484  29.607  1.00  0.00     0.160 HD
BRANCH  22  24
HETATM   24  C14 UNL     1     -26.660  14.267  31.190  1.00  0.00     0.077 C 
HETATM   25  C15 UNL     1     -28.057  13.754  30.860  1.00  0.00     0.032 C 
BRANCH  24  26
HETATM   26  C16 UNL     1     -26.778  15.508  32.042  1.00  0.00     0.020 C 
HETATM   27  C17 UNL     1     -25.500  16.289  32.102  1.00  0.00     0.007 C 
ENDBRANCH  24  26
ENDBRANCH  22  24
ENDBRANCH   5  22
TORSDOF 14
ENDMDL
MODEL 5
REMARK VINA RESULT: -7.141260126      1.262      2.184
REMARK  14 active torsions:
REMARK  status: ('A' for Active; 'I' for Inactive)
REMARK    1  A    between atoms: C2_2  and  C3_3 
REMARK    2  A    between atoms: C3_3  and  C4_4 
REMARK    3  A    between atoms: C4_4  and  C5_5 
REMARK    4  A    between atoms: C4_4  and  C7_8 
REMARK    5  A    between atoms: C5_5  and  O1_6 
REMARK    6  A    between atoms: C7_8  and  O2_9 
REMARK    7  A    between atoms: O2_9  and  C8_10 
REMARK    8  A    between atoms: C8_10  and  C9_11 
REMARK    9  A    between atoms: C9_11  and  S1_12 
REMARK   10  A    between atoms: S1_12  and  S2_13 
REMARK   11  A    between atoms: S2_13  and  C10_14 
REMARK   12  A    between atoms: C13_18  and  N2_19 
REMARK   13  A    between atoms: N2_19  and  C14_21 
REMARK   14  A    between atoms: C14_21  and  C16_23 
ROOT
HETATM    1  C10 UNL     1     -25.415  11.142  26.489  1.00  0.00     0.082 A 
HETATM    2  C11 UNL     1     -26.417  10.880  27.399  1.00  0.00     0.066 A 
HETATM    3  C12 UNL     1     -26.553  11.722  28.483  1.00  0.00     0.076 A 
HETATM    4  N1  UNL     1     -27.568  11.490  29.442  1.00  0.00    -0.100 NA
HETATM    5  C13 UNL     1     -25.723  12.820  28.695  1.00  0.00     0.068 A 
HETATM    6  C18 UNL     1     -24.744  13.035  27.761  1.00  0.00     0.119 A 
HETATM    7  N3  UNL     1     -24.614  12.197  26.689  1.00  0.00    -0.358 N 
ATOM      8  H3  UNL     1     -23.874  12.383  26.011  1.00  0.00     0.166 HD
ENDROOT
BRANCH   1   9
HETATM    9  S2  UNL     1     -25.172  10.087  25.045  1.00  0.00    -0.040 SA
BRANCH   9  10
HETATM   10  S1  UNL     1     -23.141   9.463  24.929  1.00  0.00    -0.089 SA
BRANCH  10  11
HETATM   11  C9  UNL     1     -22.964   8.536  23.356  1.00  0.00     0.112 C 
BRANCH  11  12
HETATM   12  C8  UNL     1     -22.390   9.407  22.288  1.00  0.00     0.179 C 
BRANCH  12  13
HETATM   13  O2  UNL     1     -23.063  10.579  22.138  1.00  0.00    -0.386 OA
BRANCH  13  14
HETATM   14  C7  UNL     1     -24.173  10.453  21.366  1.00  0.00     0.204 C 
BRANCH  14  15
HETATM   15  C4  UNL     1     -24.637  11.843  20.832  1.00  0.00    -0.037 C 
BRANCH  15  16
HETATM   16  C3  UNL     1     -23.771  12.315  19.766  1.00  0.00    -0.020 C 
BRANCH  16  17
HETATM   17  C2  UNL     1     -23.646  11.720  18.442  1.00  0.00     0.023 C 
HETATM   18  C1  UNL     1     -22.609  10.679  18.187  1.00  0.00     0.009 C 
ENDBRANCH  16  17
ENDBRANCH  15  16
BRANCH  15  19
HETATM   19  C5  UNL     1     -25.091  12.679  21.948  1.00  0.00     0.203 C 
BRANCH  19  20
HETATM   20  O1  UNL     1     -26.334  13.223  21.936  1.00  0.00    -0.392 OA
HETATM   21  C6  UNL     1     -27.005  12.847  23.086  1.00  0.00     0.201 C 
ENDBRANCH  19  20
ENDBRANCH  15  19
ENDBRANCH  14  15
ENDBRANCH  13  14
ENDBRANCH  12  13
ENDBRANCH  11  12
ENDBRANCH  10  11
ENDBRANCH   9  10
ENDBRANCH   1   9
BRANCH   5  22
HETATM   22  N2  UNL     1     -25.901  13.668  29.818  1.00  0.00    -0.383 N 
ATOM     23  H2  UNL     1     -26.526  13.359  30.562  1.00  0.00     0.160 HD
BRANCH  22  24
HETATM   24  C14 UNL     1     -25.245  14.944  29.963  1.00  0.00     0.077 C 
HETATM   25  C15 UNL     1     -23.743  14.774  30.160  1.00  0.00     0.032 C 
BRANCH  24  26
HETATM   26  C16 UNL     1     -25.811  15.709  31.135  1.00  0.00     0.020 C 
HETATM   27  C17 UNL     1     -26.885  14.947  31.853  1.00  0.00     0.007 C 
ENDBRANCH  24  26
ENDBRANCH  22  24
ENDBRANCH   5  22
TORSDOF 14
ENDMDL
