MODEL 1
REMARK VINA RESULT: -6.414699875      0.000      0.000
REMARK  3 active torsions:
REMARK  status: ('A' for Active; 'I' for Inactive)
REMARK    1  A    between atoms: O1_1  and  C1_3 
REMARK    2  A    between atoms: C5_8  and  C6_9 
REMARK    3  A    between atoms: C6_9  and  C7_10 
ROOT
HETATM    1  C1  UNL     1      -1.212  -9.199 -15.745  1.00  0.00     0.147 C 
HETATM    2  C2  UNL     1      -1.958  -8.610 -14.574  1.00  0.00     0.036 C 
HETATM    3  C3  UNL     1      -3.215  -7.932 -15.036  1.00  0.00     0.029 C 
HETATM    4  C4  UNL     1      -3.683  -8.390 -16.383  1.00  0.00     0.168 C 
HETATM    5  O2  UNL     1      -2.744  -8.303 -17.379  1.00  0.00    -0.383 OA
HETATM    6  C5  UNL     1      -1.444  -8.383 -16.993  1.00  0.00     0.155 C 
ENDROOT
BRANCH   6   7
HETATM    7  C6  UNL     1      -0.531  -8.945 -18.063  1.00  0.00     0.086 C 
BRANCH   7   8
HETATM    8  C7  UNL     1       0.869  -8.414 -17.923  1.00  0.00    -0.016 C 
HETATM    9  N1  UNL     1       1.863  -8.950 -17.377  1.00  0.00    -0.396 N 
HETATM   10  C8  UNL     1       3.043  -8.126 -17.444  1.00  0.00     0.119 C 
ATOM     11  H1  UNL     1       1.839  -9.869 -16.934  1.00  0.00     0.159 HD
HETATM   12  C9  UNL     1       2.728  -7.290 -18.697  1.00  0.00     0.025 C 
HETATM   13  C10 UNL     1       1.249  -7.083 -18.456  1.00  0.00     0.054 C 
ENDBRANCH   7   8
ENDBRANCH   6   7
BRANCH   1  14
HETATM   14  O1  UNL     1      -1.602 -10.500 -16.019  1.00  0.00    -0.393 OA
ATOM     15  H1  UNL     1      -1.528 -10.712 -16.942  1.00  0.00     0.210 HD
ENDBRANCH   1  14
TORSDOF 3
ENDMDL
MODEL 2
REMARK VINA RESULT: -6.408030413      2.036      4.958
REMARK  3 active torsions:
REMARK  status: ('A' for Active; 'I' for Inactive)
REMARK    1  A    between atoms: O1_1  and  C1_3 
REMARK    2  A    between atoms: C5_8  and  C6_9 
REMARK    3  A    between atoms: C6_9  and  C7_10 
ROOT
HETATM    1  C1  UNL     1       0.033  -8.694 -17.587  1.00  0.00     0.147 C 
HETATM    2  C2  UNL     1       0.691  -7.882 -18.676  1.00  0.00     0.036 C 
HETATM    3  C3  UNL     1       2.100  -7.534 -18.297  1.00  0.00     0.029 C 
HETATM    4  C4  UNL     1       2.674  -8.426 -17.239  1.00  0.00     0.168 C 
HETATM    5  O2  UNL     1       1.923  -8.523 -16.096  1.00  0.00    -0.383 OA
HETATM    6  C5  UNL     1       0.586  -8.322 -16.233  1.00  0.00     0.155 C 
ENDROOT
BRANCH   6   7
HETATM    7  C6  UNL     1      -0.243  -9.057 -15.201  1.00  0.00     0.086 C 
BRANCH   7   8
HETATM    8  C7  UNL     1      -1.713  -8.945 -15.498  1.00  0.00    -0.016 C 
HETATM    9  N1  UNL     1      -2.499  -9.822 -15.930  1.00  0.00    -0.396 N 
HETATM   10  C8  UNL     1      -3.844  -9.330 -16.087  1.00  0.00     0.119 C 
ATOM     11  H1  UNL     1      -2.216 -10.778 -16.147  1.00  0.00     0.159 HD
HETATM   12  C9  UNL     1      -3.847  -8.190 -15.054  1.00  0.00     0.025 C 
HETATM   13  C10 UNL     1      -2.447  -7.671 -15.298  1.00  0.00     0.054 C 
ENDBRANCH   7   8
ENDBRANCH   6   7
BRANCH   1  14
HETATM   14  O1  UNL     1       0.226 -10.055 -17.756  1.00  0.00    -0.393 OA
ATOM     15  H1  UNL     1       1.139 -10.305 -17.667  1.00  0.00     0.210 HD
ENDBRANCH   1  14
TORSDOF 3
ENDMDL
MODEL 3
REMARK VINA RESULT: -6.342255179      1.119      1.750
REMARK  3 active torsions:
REMARK  status: ('A' for Active; 'I' for Inactive)
REMARK    1  A    between atoms: O1_1  and  C1_3 
REMARK    2  A    between atoms: C5_8  and  C6_9 
REMARK    3  A    between atoms: C6_9  and  C7_10 
ROOT
HETATM    1  C1  UNL     1      -3.050  -8.968 -17.760  1.00  0.00     0.147 C 
HETATM    2  C2  UNL     1      -3.985  -9.222 -16.604  1.00  0.00     0.036 C 
HETATM    3  C3  UNL     1      -3.449  -8.605 -15.345  1.00  0.00     0.029 C 
HETATM    4  C4  UNL     1      -2.443  -7.522 -15.590  1.00  0.00     0.168 C 
HETATM    5  O2  UNL     1      -1.387  -7.885 -16.386  1.00  0.00    -0.383 OA
HETATM    6  C5  UNL     1      -1.620  -8.879 -17.283  1.00  0.00     0.155 C 
ENDROOT
BRANCH   6   7
HETATM    7  C6  UNL     1      -0.748  -8.793 -18.518  1.00  0.00     0.086 C 
BRANCH   7   8
HETATM    8  C7  UNL     1       0.647  -8.348 -18.173  1.00  0.00    -0.016 C 
HETATM    9  N1  UNL     1       1.519  -8.944 -17.496  1.00  0.00    -0.396 N 
HETATM   10  C8  UNL     1       2.743  -8.191 -17.386  1.00  0.00     0.119 C 
ATOM     11  H1  UNL     1       1.377  -9.860 -17.070  1.00  0.00     0.159 HD
HETATM   12  C9  UNL     1       2.661  -7.337 -18.663  1.00  0.00     0.025 C 
HETATM   13  C10 UNL     1       1.178  -7.042 -18.634  1.00  0.00     0.054 C 
ENDBRANCH   7   8
ENDBRANCH   6   7
BRANCH   1  14
HETATM   14  O1  UNL     1      -3.341  -7.788 -18.425  1.00  0.00    -0.393 OA
ATOM     15  H1  UNL     1      -4.273  -7.681 -18.579  1.00  0.00     0.210 HD
ENDBRANCH   1  14
TORSDOF 3
ENDMDL
MODEL 4
REMARK VINA RESULT: -6.244479657      1.487      2.168
REMARK  3 active torsions:
REMARK  status: ('A' for Active; 'I' for Inactive)
REMARK    1  A    between atoms: O1_1  and  C1_3 
REMARK    2  A    between atoms: C5_8  and  C6_9 
REMARK    3  A    between atoms: C6_9  and  C7_10 
ROOT
HETATM    1  C1  UNL     1      -2.383  -8.271 -15.148  1.00  0.00     0.147 C 
HETATM    2  C2  UNL     1      -3.845  -8.461 -15.469  1.00  0.00     0.036 C 
HETATM    3  C3  UNL     1      -4.112  -9.873 -15.901  1.00  0.00     0.029 C 
HETATM    4  C4  UNL     1      -3.058 -10.843 -15.464  1.00  0.00     0.168 C 
HETATM    5  O2  UNL     1      -1.779 -10.506 -15.827  1.00  0.00    -0.383 OA
HETATM    6  C5  UNL     1      -1.527  -9.182 -15.994  1.00  0.00     0.155 C 
ENDROOT
BRANCH   6   7
HETATM    7  C6  UNL     1      -0.085  -8.805 -15.726  1.00  0.00     0.086 C 
BRANCH   7   8
HETATM    8  C7  UNL     1       0.616  -8.386 -16.989  1.00  0.00    -0.016 C 
HETATM    9  N1  UNL     1       0.144  -7.805 -17.996  1.00  0.00    -0.396 N 
HETATM   10  C8  UNL     1       1.136  -7.569 -19.014  1.00  0.00     0.119 C 
ATOM     11  H1  UNL     1      -0.835  -7.530 -18.084  1.00  0.00     0.159 HD
HETATM   12  C9  UNL     1       2.413  -7.532 -18.157  1.00  0.00     0.025 C 
HETATM   13  C10 UNL     1       2.062  -8.645 -17.195  1.00  0.00     0.054 C 
ENDBRANCH   7   8
ENDBRANCH   6   7
BRANCH   1  14
HETATM   14  O1  UNL     1      -2.096  -8.543 -13.820  1.00  0.00    -0.393 OA
ATOM     15  H1  UNL     1      -1.163  -8.643 -13.666  1.00  0.00     0.210 HD
ENDBRANCH   1  14
TORSDOF 3
ENDMDL
MODEL 5
REMARK VINA RESULT: -6.153873678      1.234      1.771
REMARK  3 active torsions:
REMARK  status: ('A' for Active; 'I' for Inactive)
REMARK    1  A    between atoms: O1_1  and  C1_3 
REMARK    2  A    between atoms: C5_8  and  C6_9 
REMARK    3  A    between atoms: C6_9  and  C7_10 
ROOT
HETATM    1  C1  UNL     1      -2.248  -9.032 -15.132  1.00  0.00     0.147 C 
HETATM    2  C2  UNL     1      -3.730  -9.043 -15.416  1.00  0.00     0.036 C 
HETATM    3  C3  UNL     1      -3.997  -8.663 -16.843  1.00  0.00     0.029 C 
HETATM    4  C4  UNL     1      -2.812  -8.842 -17.742  1.00  0.00     0.168 C 
HETATM    5  O2  UNL     1      -1.671  -8.206 -17.325  1.00  0.00    -0.383 OA
HETATM    6  C5  UNL     1      -1.546  -8.005 -15.987  1.00  0.00     0.155 C 
ENDROOT
BRANCH   6   7
HETATM    7  C6  UNL     1      -0.107  -7.950 -15.517  1.00  0.00     0.086 C 
BRANCH   7   8
HETATM    8  C7  UNL     1       0.847  -7.926 -16.679  1.00  0.00    -0.016 C 
HETATM    9  N1  UNL     1       0.917  -7.105 -17.625  1.00  0.00    -0.396 N 
HETATM   10  C8  UNL     1       1.974  -7.418 -18.553  1.00  0.00     0.119 C 
ATOM     11  H1  UNL     1       0.294  -6.303 -17.726  1.00  0.00     0.159 HD
HETATM   12  C9  UNL     1       2.929  -8.200 -17.635  1.00  0.00     0.025 C 
HETATM   13  C10 UNL     1       1.892  -8.966 -16.844  1.00  0.00     0.054 C 
ENDBRANCH   7   8
ENDBRANCH   6   7
BRANCH   1  14
HETATM   14  O1  UNL     1      -1.654 -10.259 -15.383  1.00  0.00    -0.393 OA
ATOM     15  H1  UNL     1      -1.874 -10.598 -16.243  1.00  0.00     0.210 HD
ENDBRANCH   1  14
TORSDOF 3
ENDMDL
