MODEL 1
REMARK VINA RESULT: -3.140914568      0.000      0.000
REMARK  2 active torsions:
REMARK  status: ('A' for Active; 'I' for Inactive)
REMARK    1  A    between atoms: C2_2  and  N1_3 
REMARK    2  A    between atoms: N1_3  and  N2_4 
ROOT
HETATM    1  N1  UNL     1      57.354  72.889  35.476  1.00  0.00     0.011 N 
HETATM    2  C4  UNL     1      56.905  73.008  34.109  1.00  0.00     0.294 A 
HETATM    3  C5  UNL     1      56.446  74.020  35.121  1.00  0.00     0.294 A 
ENDROOT
BRANCH   1   4
HETATM    4  C2  UNL     1      58.696  73.283  35.832  1.00  0.00     0.260 C 
HETATM    5  C1  UNL     1      58.895  74.760  35.906  1.00  0.00     0.037 C 
ENDBRANCH   1   4
BRANCH   1   6
HETATM    6  N2  UNL     1      56.738  71.940  36.281  1.00  0.00    -0.257 N 
HETATM    7  C3  UNL     1      57.584  71.307  37.223  1.00  0.00     0.175 C 
ATOM      8  H2  UNL     1      55.747  71.715  36.199  1.00  0.00     0.186 HD
ENDBRANCH   1   6
TORSDOF 2
ENDMDL
MODEL 2
REMARK VINA RESULT: -3.120171737      1.202      1.326
REMARK  2 active torsions:
REMARK  status: ('A' for Active; 'I' for Inactive)
REMARK    1  A    between atoms: C2_2  and  N1_3 
REMARK    2  A    between atoms: N1_3  and  N2_4 
ROOT
HETATM    1  N1  UNL     1      56.871  72.430  35.525  1.00  0.00     0.011 N 
HETATM    2  C4  UNL     1      55.929  72.105  34.479  1.00  0.00     0.294 A 
HETATM    3  C5  UNL     1      55.471  72.936  35.644  1.00  0.00     0.294 A 
ENDROOT
BRANCH   1   4
HETATM    4  C2  UNL     1      57.865  73.453  35.309  1.00  0.00     0.260 C 
HETATM    5  C1  UNL     1      57.699  74.198  34.026  1.00  0.00     0.037 C 
ENDBRANCH   1   4
BRANCH   1   6
HETATM    6  N2  UNL     1      57.166  71.447  36.460  1.00  0.00    -0.257 N 
HETATM    7  C3  UNL     1      58.439  71.557  37.069  1.00  0.00     0.175 C 
ATOM      8  H2  UNL     1      56.512  70.698  36.692  1.00  0.00     0.186 HD
ENDBRANCH   1   6
TORSDOF 2
ENDMDL
MODEL 3
REMARK VINA RESULT: -3.094253174      1.234      2.638
REMARK  2 active torsions:
REMARK  status: ('A' for Active; 'I' for Inactive)
REMARK    1  A    between atoms: C2_2  and  N1_3 
REMARK    2  A    between atoms: N1_3  and  N2_4 
ROOT
HETATM    1  N1  UNL     1      57.151  73.395  35.473  1.00  0.00     0.011 N 
HETATM    2  C4  UNL     1      55.987  72.623  35.106  1.00  0.00     0.294 A 
HETATM    3  C5  UNL     1      56.908  73.117  34.027  1.00  0.00     0.294 A 
ENDROOT
BRANCH   1   4
HETATM    4  C2  UNL     1      58.309  72.735  36.026  1.00  0.00     0.260 C 
HETATM    5  C1  UNL     1      57.983  71.620  36.963  1.00  0.00     0.037 C 
ENDBRANCH   1   4
BRANCH   1   6
HETATM    6  N2  UNL     1      56.967  74.732  35.801  1.00  0.00    -0.257 N 
HETATM    7  C3  UNL     1      55.914  75.381  35.113  1.00  0.00     0.175 C 
ATOM      8  H2  UNL     1      57.549  75.211  36.488  1.00  0.00     0.186 HD
ENDBRANCH   1   6
TORSDOF 2
ENDMDL
MODEL 4
REMARK VINA RESULT: -3.084208813      1.129      2.135
REMARK  2 active torsions:
REMARK  status: ('A' for Active; 'I' for Inactive)
REMARK    1  A    between atoms: C2_2  and  N1_3 
REMARK    2  A    between atoms: N1_3  and  N2_4 
ROOT
HETATM    1  N1  UNL     1      57.435  73.060  35.226  1.00  0.00     0.011 N 
HETATM    2  C4  UNL     1      57.748  73.932  34.118  1.00  0.00     0.294 A 
HETATM    3  C5  UNL     1      56.921  74.461  35.255  1.00  0.00     0.294 A 
ENDROOT
BRANCH   1   4
HETATM    4  C2  UNL     1      58.440  72.766  36.219  1.00  0.00     0.260 C 
HETATM    5  C1  UNL     1      58.148  71.554  37.038  1.00  0.00     0.037 C 
ENDBRANCH   1   4
BRANCH   1   6
HETATM    6  N2  UNL     1      56.426  72.123  35.049  1.00  0.00    -0.257 N 
HETATM    7  C3  UNL     1      55.883  72.060  33.743  1.00  0.00     0.175 C 
ATOM      8  H2  UNL     1      56.099  71.522  35.806  1.00  0.00     0.186 HD
ENDBRANCH   1   6
TORSDOF 2
ENDMDL
MODEL 5
REMARK VINA RESULT: -3.069973733      1.334      2.367
REMARK  2 active torsions:
REMARK  status: ('A' for Active; 'I' for Inactive)
REMARK    1  A    between atoms: C2_2  and  N1_3 
REMARK    2  A    between atoms: N1_3  and  N2_4 
ROOT
HETATM    1  N1  UNL     1      56.507  72.974  35.156  1.00  0.00     0.011 N 
HETATM    2  C4  UNL     1      56.156  72.454  33.855  1.00  0.00     0.294 A 
HETATM    3  C5  UNL     1      57.247  73.481  33.963  1.00  0.00     0.294 A 
ENDROOT
BRANCH   1   4
HETATM    4  C2  UNL     1      57.298  72.177  36.063  1.00  0.00     0.260 C 
HETATM    5  C1  UNL     1      58.620  72.779  36.403  1.00  0.00     0.037 C 
ENDBRANCH   1   4
BRANCH   1   6
HETATM    6  N2  UNL     1      55.673  73.932  35.718  1.00  0.00    -0.257 N 
HETATM    7  C3  UNL     1      55.891  75.257  35.270  1.00  0.00     0.175 C 
ATOM      8  H2  UNL     1      54.956  73.698  36.404  1.00  0.00     0.186 HD
ENDBRANCH   1   6
TORSDOF 2
ENDMDL
