MODEL 1
REMARK VINA RESULT: -8.723072553      0.000      0.000
REMARK  16 active torsions:
REMARK  status: ('A' for Active; 'I' for Inactive)
REMARK    1  A    between atoms: C4_4  and  O1_5 
REMARK    2  A    between atoms: O1_5  and  C5_6 
REMARK    3  A    between atoms: C5_6  and  C6_7 
REMARK    4  A    between atoms: C5_6  and  C10_17 
REMARK    5  A    between atoms: C6_7  and  C7_8 
REMARK    6  A    between atoms: C7_8  and  C8_9 
REMARK    7  A    between atoms: C8_9  and  N1_10 
REMARK       I    between atoms: N1_10  and  C9_12 
REMARK    8  A    between atoms: N5_22  and  C13_23 
REMARK    9  A    between atoms: C13_23  and  C14_24 
REMARK   10  A    between atoms: C14_24  and  C15_25 
REMARK   11  A    between atoms: C15_25  and  C16_26 
REMARK   12  A    between atoms: C16_26  and  C17_27 
REMARK   13  A    between atoms: C17_27  and  C18_28 
REMARK   14  A    between atoms: C18_28  and  N6_29 
REMARK   15  A    between atoms: C19_30  and  O3_31 
REMARK   16  A    between atoms: C22_35  and  O4_36 
ROOT
HETATM    1  C13 UNL     1     -17.128  -9.486  23.262  1.00  0.00     0.128 C 
ENDROOT
BRANCH   1   2
HETATM    2  N5  UNL     1     -15.971  -9.186  22.485  1.00  0.00    -0.360 N 
HETATM    3  C2  UNL     1     -15.368  -9.999  21.640  1.00  0.00     0.010 A 
HETATM    4  C1  UNL     1     -15.801 -11.412  21.468  1.00  0.00     0.068 C 
HETATM    5  C3  UNL     1     -14.270  -9.549  20.913  1.00  0.00     0.061 A 
HETATM    6  C4  UNL     1     -13.754  -8.288  21.016  1.00  0.00     0.073 A 
HETATM    7  C11 UNL     1     -14.408  -7.439  21.923  1.00  0.00     0.054 A 
HETATM    8  C12 UNL     1     -15.474  -7.915  22.612  1.00  0.00     0.093 A 
BRANCH   6   9
HETATM    9  O1  UNL     1     -12.684  -7.832  20.314  1.00  0.00    -0.337 OA
BRANCH   9  10
HETATM   10  C5  UNL     1     -12.484  -7.480  19.002  1.00  0.00     0.218 C 
BRANCH  10  11
HETATM   11  C6  UNL     1     -11.137  -6.927  18.694  1.00  0.00     0.043 C 
BRANCH  11  12
HETATM   12  C7  UNL     1     -10.918  -6.884  17.211  1.00  0.00     0.023 C 
BRANCH  12  13
HETATM   13  C8  UNL     1     -10.545  -5.521  16.736  1.00  0.00     0.122 C 
BRANCH  13  14
HETATM   14  N1  UNL     1     -11.690  -4.661  16.632  1.00  0.00    -0.365 N 
HETATM   15  C9  UNL     1     -11.687  -3.407  17.273  1.00  0.00     0.181 C 
HETATM   16  N2  UNL     1     -11.715  -3.349  18.576  1.00  0.00    -0.374 N 
HETATM   17  N3  UNL     1     -11.655  -2.168  16.583  1.00  0.00    -0.064 NA
ATOM     18  H22 UNL     1     -11.738  -4.239  19.072  1.00  0.00     0.158 HD
ATOM     19  H21 UNL     1     -11.713  -2.440  19.040  1.00  0.00     0.158 HD
ATOM     20  H1  UNL     1     -12.505  -4.958  16.096  1.00  0.00     0.162 HD
ENDBRANCH  13  14
ENDBRANCH  12  13
ENDBRANCH  11  12
ENDBRANCH  10  11
BRANCH  10  21
HETATM   21  C10 UNL     1     -13.608  -6.644  18.477  1.00  0.00     0.260 C 
HETATM   22  N4  UNL     1     -13.892  -5.370  19.043  1.00  0.00    -0.060 NA
HETATM   23  O2  UNL     1     -14.286  -7.092  17.532  1.00  0.00    -0.274 OA
ENDBRANCH  10  21
ENDBRANCH   9  10
ENDBRANCH   6   9
ENDBRANCH   1   2
BRANCH   1  24
HETATM   24  C14 UNL     1     -17.531  -8.461  24.277  1.00  0.00     0.020 C 
BRANCH  24  25
HETATM   25  C15 UNL     1     -18.734  -8.878  25.044  1.00  0.00     0.002 C 
BRANCH  25  26
HETATM   26  C16 UNL     1     -18.574 -10.224  25.747  1.00  0.00     0.002 C 
BRANCH  26  27
HETATM   27  C17 UNL     1     -18.277  -9.993  27.183  1.00  0.00     0.020 C 
BRANCH  27  28
HETATM   28  C18 UNL     1     -17.093 -10.815  27.673  1.00  0.00     0.133 C 
BRANCH  28  29
HETATM   29  N6  UNL     1     -15.955 -10.374  26.863  1.00  0.00    -0.307 N 
HETATM   30  C19 UNL     1     -15.395  -9.136  26.980  1.00  0.00     0.155 A 
HETATM   31  C20 UNL     1     -14.354  -9.054  26.079  1.00  0.00     0.027 A 
HETATM   32  C21 UNL     1     -14.267 -10.245  25.399  1.00  0.00     0.025 A 
HETATM   33  C27 UNL     1     -13.614  -7.796  26.044  1.00  0.00     0.013 C 
HETATM   34  C22 UNL     1     -15.283 -11.028  25.924  1.00  0.00     0.153 A 
HETATM   35  C23 UNL     1     -13.463 -10.890  24.345  1.00  0.00     0.166 C 
HETATM   36  N7  UNL     1     -12.098 -10.495  24.325  1.00  0.00    -0.356 N 
HETATM   37  C24 UNL     1     -11.382  -9.282  24.465  1.00  0.00     0.221 C 
ATOM     38  H7  UNL     1     -11.476 -11.288  24.171  1.00  0.00     0.162 HD
HETATM   39  O5  UNL     1     -10.181  -9.411  24.814  1.00  0.00    -0.273 OA
HETATM   40  C25 UNL     1     -11.739  -7.870  24.290  1.00  0.00     0.130 C 
HETATM   41  C26 UNL     1     -12.593  -7.321  25.352  1.00  0.00    -0.017 C 
BRANCH  30  42
HETATM   42  O3  UNL     1     -15.818  -8.139  27.866  1.00  0.00    -0.345 OA
ATOM     43  H3  UNL     1     -16.306  -7.361  27.624  1.00  0.00     0.219 HD
ENDBRANCH  30  42
BRANCH  34  44
HETATM   44  O4  UNL     1     -15.572 -12.334  25.527  1.00  0.00    -0.345 OA
ATOM     45  H4  UNL     1     -15.808 -12.578  24.639  1.00  0.00     0.219 HD
ENDBRANCH  34  44
ENDBRANCH  28  29
ENDBRANCH  27  28
ENDBRANCH  26  27
ENDBRANCH  25  26
ENDBRANCH  24  25
ENDBRANCH   1  24
TORSDOF 16
ENDMDL
MODEL 2
REMARK VINA RESULT: -8.644461637      1.806      2.967
REMARK  16 active torsions:
REMARK  status: ('A' for Active; 'I' for Inactive)
REMARK    1  A    between atoms: C4_4  and  O1_5 
REMARK    2  A    between atoms: O1_5  and  C5_6 
REMARK    3  A    between atoms: C5_6  and  C6_7 
REMARK    4  A    between atoms: C5_6  and  C10_17 
REMARK    5  A    between atoms: C6_7  and  C7_8 
REMARK    6  A    between atoms: C7_8  and  C8_9 
REMARK    7  A    between atoms: C8_9  and  N1_10 
REMARK       I    between atoms: N1_10  and  C9_12 
REMARK    8  A    between atoms: N5_22  and  C13_23 
REMARK    9  A    between atoms: C13_23  and  C14_24 
REMARK   10  A    between atoms: C14_24  and  C15_25 
REMARK   11  A    between atoms: C15_25  and  C16_26 
REMARK   12  A    between atoms: C16_26  and  C17_27 
REMARK   13  A    between atoms: C17_27  and  C18_28 
REMARK   14  A    between atoms: C18_28  and  N6_29 
REMARK   15  A    between atoms: C19_30  and  O3_31 
REMARK   16  A    between atoms: C22_35  and  O4_36 
ROOT
HETATM    1  C13 UNL     1     -13.582  -7.280  25.765  1.00  0.00     0.128 C 
ENDROOT
BRANCH   1   2
HETATM    2  N5  UNL     1     -13.535  -7.585  24.373  1.00  0.00    -0.360 N 
HETATM    3  C2  UNL     1     -12.618  -8.310  23.764  1.00  0.00     0.010 A 
HETATM    4  C1  UNL     1     -11.430  -8.837  24.488  1.00  0.00     0.068 C 
HETATM    5  C3  UNL     1     -12.731  -8.563  22.401  1.00  0.00     0.061 A 
HETATM    6  C4  UNL     1     -13.752  -8.098  21.622  1.00  0.00     0.073 A 
HETATM    7  C11 UNL     1     -14.717  -7.326  22.288  1.00  0.00     0.054 A 
HETATM    8  C12 UNL     1     -14.572  -7.103  23.618  1.00  0.00     0.093 A 
BRANCH   6   9
HETATM    9  O1  UNL     1     -13.877  -8.335  20.291  1.00  0.00    -0.337 OA
BRANCH   9  10
HETATM   10  C5  UNL     1     -13.265  -7.829  19.171  1.00  0.00     0.218 C 
BRANCH  10  11
HETATM   11  C6  UNL     1     -11.793  -7.642  19.283  1.00  0.00     0.043 C 
BRANCH  11  12
HETATM   12  C7  UNL     1     -11.174  -7.544  17.921  1.00  0.00     0.023 C 
BRANCH  12  13
HETATM   13  C8  UNL     1     -10.468  -6.248  17.714  1.00  0.00     0.122 C 
BRANCH  13  14
HETATM   14  N1  UNL     1     -11.314  -5.276  17.081  1.00  0.00    -0.365 N 
HETATM   15  C9  UNL     1     -11.232  -3.922  17.458  1.00  0.00     0.181 C 
HETATM   16  N2  UNL     1     -11.637  -3.557  18.643  1.00  0.00    -0.374 N 
HETATM   17  N3  UNL     1     -10.725  -2.898  16.618  1.00  0.00    -0.064 NA
ATOM     18  H22 UNL     1     -12.001  -4.293  19.247  1.00  0.00     0.158 HD
ATOM     19  H21 UNL     1     -11.578  -2.576  18.916  1.00  0.00     0.158 HD
ATOM     20  H1  UNL     1     -11.973  -5.566  16.359  1.00  0.00     0.162 HD
ENDBRANCH  13  14
ENDBRANCH  12  13
ENDBRANCH  11  12
ENDBRANCH  10  11
BRANCH  10  21
HETATM   21  C10 UNL     1     -13.982  -6.625  18.644  1.00  0.00     0.260 C 
HETATM   22  N4  UNL     1     -13.896  -5.377  19.320  1.00  0.00    -0.060 NA
HETATM   23  O2  UNL     1     -14.654  -6.747  17.602  1.00  0.00    -0.274 OA
ENDBRANCH  10  21
ENDBRANCH   9  10
ENDBRANCH   6   9
ENDBRANCH   1   2
BRANCH   1  24
HETATM   24  C14 UNL     1     -14.852  -7.625  26.479  1.00  0.00     0.020 C 
BRANCH  24  25
HETATM   25  C15 UNL     1     -14.600  -8.369  27.742  1.00  0.00     0.002 C 
BRANCH  25  26
HETATM   26  C16 UNL     1     -15.866  -8.938  28.378  1.00  0.00     0.002 C 
BRANCH  26  27
HETATM   27  C17 UNL     1     -16.965  -8.918  27.382  1.00  0.00     0.020 C 
BRANCH  27  28
HETATM   28  C18 UNL     1     -17.521 -10.307  27.098  1.00  0.00     0.133 C 
BRANCH  28  29
HETATM   29  N6  UNL     1     -16.408 -11.055  26.509  1.00  0.00    -0.307 N 
HETATM   30  C19 UNL     1     -15.960 -10.843  25.238  1.00  0.00     0.155 A 
HETATM   31  C20 UNL     1     -14.911 -11.708  25.007  1.00  0.00     0.027 A 
HETATM   32  C21 UNL     1     -14.706 -12.461  26.139  1.00  0.00     0.025 A 
HETATM   33  C27 UNL     1     -14.282 -11.641  23.692  1.00  0.00     0.013 C 
HETATM   34  C22 UNL     1     -15.662 -12.015  27.039  1.00  0.00     0.153 A 
HETATM   35  C23 UNL     1     -13.827 -13.532  26.641  1.00  0.00     0.166 C 
HETATM   36  N7  UNL     1     -12.501 -13.490  26.131  1.00  0.00    -0.356 N 
HETATM   37  C24 UNL     1     -11.896 -13.252  24.873  1.00  0.00     0.221 C 
ATOM     38  H7  UNL     1     -11.809 -13.677  26.856  1.00  0.00     0.162 HD
HETATM   39  O5  UNL     1     -10.696 -12.880  24.923  1.00  0.00    -0.273 OA
HETATM   40  C25 UNL     1     -12.370 -13.346  23.489  1.00  0.00     0.130 C 
HETATM   41  C26 UNL     1     -13.291 -12.273  23.087  1.00  0.00    -0.017 C 
BRANCH  30  42
HETATM   42  O3  UNL     1     -16.486  -9.906  24.342  1.00  0.00    -0.345 OA
ATOM     43  H3  UNL     1     -16.118  -9.692  23.493  1.00  0.00     0.219 HD
ENDBRANCH  30  42
BRANCH  34  44
HETATM   44  O4  UNL     1     -15.828 -12.504  28.335  1.00  0.00    -0.345 OA
ATOM     45  H4  UNL     1     -15.127 -12.885  28.852  1.00  0.00     0.219 HD
ENDBRANCH  34  44
ENDBRANCH  28  29
ENDBRANCH  27  28
ENDBRANCH  26  27
ENDBRANCH  25  26
ENDBRANCH  24  25
ENDBRANCH   1  24
TORSDOF 16
ENDMDL
MODEL 3
REMARK VINA RESULT: -8.602255829      2.536      4.856
REMARK  16 active torsions:
REMARK  status: ('A' for Active; 'I' for Inactive)
REMARK    1  A    between atoms: C4_4  and  O1_5 
REMARK    2  A    between atoms: O1_5  and  C5_6 
REMARK    3  A    between atoms: C5_6  and  C6_7 
REMARK    4  A    between atoms: C5_6  and  C10_17 
REMARK    5  A    between atoms: C6_7  and  C7_8 
REMARK    6  A    between atoms: C7_8  and  C8_9 
REMARK    7  A    between atoms: C8_9  and  N1_10 
REMARK       I    between atoms: N1_10  and  C9_12 
REMARK    8  A    between atoms: N5_22  and  C13_23 
REMARK    9  A    between atoms: C13_23  and  C14_24 
REMARK   10  A    between atoms: C14_24  and  C15_25 
REMARK   11  A    between atoms: C15_25  and  C16_26 
REMARK   12  A    between atoms: C16_26  and  C17_27 
REMARK   13  A    between atoms: C17_27  and  C18_28 
REMARK   14  A    between atoms: C18_28  and  N6_29 
REMARK   15  A    between atoms: C19_30  and  O3_31 
REMARK   16  A    between atoms: C22_35  and  O4_36 
ROOT
HETATM    1  C13 UNL     1     -18.864  -8.136  25.447  1.00  0.00     0.128 C 
ENDROOT
BRANCH   1   2
HETATM    2  N5  UNL     1     -17.708  -8.190  24.614  1.00  0.00    -0.360 N 
HETATM    3  C2  UNL     1     -16.610  -7.474  24.757  1.00  0.00     0.010 A 
HETATM    4  C1  UNL     1     -16.494  -6.420  25.801  1.00  0.00     0.068 C 
HETATM    5  C3  UNL     1     -15.540  -7.670  23.890  1.00  0.00     0.061 A 
HETATM    6  C4  UNL     1     -15.544  -8.576  22.869  1.00  0.00     0.073 A 
HETATM    7  C11 UNL     1     -16.722  -9.327  22.731  1.00  0.00     0.054 A 
HETATM    8  C12 UNL     1     -17.742  -9.106  23.596  1.00  0.00     0.093 A 
BRANCH   6   9
HETATM    9  O1  UNL     1     -14.508  -8.780  22.014  1.00  0.00    -0.337 OA
BRANCH   9  10
HETATM   10  C5  UNL     1     -14.379  -8.747  20.647  1.00  0.00     0.218 C 
BRANCH  10  11
HETATM   11  C6  UNL     1     -14.256 -10.077  19.990  1.00  0.00     0.043 C 
BRANCH  11  12
HETATM   12  C7  UNL     1     -14.077 -11.153  21.019  1.00  0.00     0.023 C 
BRANCH  12  13
HETATM   13  C8  UNL     1     -15.116 -12.217  20.909  1.00  0.00     0.122 C 
BRANCH  13  14
HETATM   14  N1  UNL     1     -14.838 -13.324  21.780  1.00  0.00    -0.365 N 
HETATM   15  C9  UNL     1     -13.614 -14.011  21.673  1.00  0.00     0.181 C 
HETATM   16  N2  UNL     1     -13.370 -14.735  20.615  1.00  0.00    -0.374 N 
HETATM   17  N3  UNL     1     -12.598 -13.971  22.662  1.00  0.00    -0.064 NA
ATOM     18  H22 UNL     1     -14.101 -14.763  19.905  1.00  0.00     0.158 HD
ATOM     19  H21 UNL     1     -12.484 -15.233  20.538  1.00  0.00     0.158 HD
ATOM     20  H1  UNL     1     -15.526 -13.613  22.475  1.00  0.00     0.162 HD
ENDBRANCH  13  14
ENDBRANCH  12  13
ENDBRANCH  11  12
ENDBRANCH  10  11
BRANCH  10  21
HETATM   21  C10 UNL     1     -13.334  -7.767  20.214  1.00  0.00     0.260 C 
HETATM   22  N4  UNL     1     -11.954  -8.099  20.286  1.00  0.00    -0.060 NA
HETATM   23  O2  UNL     1     -13.707  -6.656  19.788  1.00  0.00    -0.274 OA
ENDBRANCH  10  21
ENDBRANCH   9  10
ENDBRANCH   6   9
ENDBRANCH   1   2
BRANCH   1  24
HETATM   24  C14 UNL     1     -18.896  -9.090  26.600  1.00  0.00     0.020 C 
BRANCH  24  25
HETATM   25  C15 UNL     1     -19.008  -8.386  27.905  1.00  0.00     0.002 C 
BRANCH  25  26
HETATM   26  C16 UNL     1     -18.874  -9.312  29.113  1.00  0.00     0.002 C 
BRANCH  26  27
HETATM   27  C17 UNL     1     -17.439  -9.461  29.456  1.00  0.00     0.020 C 
BRANCH  27  28
HETATM   28  C18 UNL     1     -16.889 -10.830  29.082  1.00  0.00     0.133 C 
BRANCH  28  29
HETATM   29  N6  UNL     1     -15.952 -10.584  27.984  1.00  0.00    -0.307 N 
HETATM   30  C19 UNL     1     -15.099  -9.521  27.959  1.00  0.00     0.155 A 
HETATM   31  C20 UNL     1     -14.366  -9.591  26.793  1.00  0.00     0.027 A 
HETATM   32  C21 UNL     1     -14.764 -10.704  26.091  1.00  0.00     0.025 A 
HETATM   33  C27 UNL     1     -13.382  -8.535  26.571  1.00  0.00     0.013 C 
HETATM   34  C22 UNL     1     -15.751 -11.282  26.874  1.00  0.00     0.153 A 
HETATM   35  C23 UNL     1     -14.470 -11.412  24.832  1.00  0.00     0.166 C 
HETATM   36  N7  UNL     1     -13.112 -11.335  24.420  1.00  0.00    -0.356 N 
HETATM   37  C24 UNL     1     -12.114 -10.332  24.370  1.00  0.00     0.221 C 
ATOM     38  H7  UNL     1     -12.770 -12.230  24.071  1.00  0.00     0.162 HD
HETATM   39  O5  UNL     1     -10.932 -10.761  24.347  1.00  0.00    -0.273 OA
HETATM   40  C25 UNL     1     -12.151  -8.867  24.340  1.00  0.00     0.130 C 
HETATM   41  C26 UNL     1     -12.513  -8.241  25.620  1.00  0.00    -0.017 C 
BRANCH  30  42
HETATM   42  O3  UNL     1     -15.001  -8.540  28.953  1.00  0.00    -0.345 OA
ATOM     43  H3  UNL     1     -14.223  -8.030  29.145  1.00  0.00     0.219 HD
ENDBRANCH  30  42
BRANCH  34  44
HETATM   44  O4  UNL     1     -16.447 -12.447  26.549  1.00  0.00    -0.345 OA
ATOM     45  H4  UNL     1     -16.628 -12.726  25.659  1.00  0.00     0.219 HD
ENDBRANCH  34  44
ENDBRANCH  28  29
ENDBRANCH  27  28
ENDBRANCH  26  27
ENDBRANCH  25  26
ENDBRANCH  24  25
ENDBRANCH   1  24
TORSDOF 16
ENDMDL
MODEL 4
REMARK VINA RESULT: -8.501292556      2.411      9.875
REMARK  16 active torsions:
REMARK  status: ('A' for Active; 'I' for Inactive)
REMARK    1  A    between atoms: C4_4  and  O1_5 
REMARK    2  A    between atoms: O1_5  and  C5_6 
REMARK    3  A    between atoms: C5_6  and  C6_7 
REMARK    4  A    between atoms: C5_6  and  C10_17 
REMARK    5  A    between atoms: C6_7  and  C7_8 
REMARK    6  A    between atoms: C7_8  and  C8_9 
REMARK    7  A    between atoms: C8_9  and  N1_10 
REMARK       I    between atoms: N1_10  and  C9_12 
REMARK    8  A    between atoms: N5_22  and  C13_23 
REMARK    9  A    between atoms: C13_23  and  C14_24 
REMARK   10  A    between atoms: C14_24  and  C15_25 
REMARK   11  A    between atoms: C15_25  and  C16_26 
REMARK   12  A    between atoms: C16_26  and  C17_27 
REMARK   13  A    between atoms: C17_27  and  C18_28 
REMARK   14  A    between atoms: C18_28  and  N6_29 
REMARK   15  A    between atoms: C19_30  and  O3_31 
REMARK   16  A    between atoms: C22_35  and  O4_36 
ROOT
HETATM    1  C13 UNL     1     -12.765  -7.211  25.401  1.00  0.00     0.128 C 
ENDROOT
BRANCH   1   2
HETATM    2  N5  UNL     1     -13.869  -7.664  26.180  1.00  0.00    -0.360 N 
HETATM    3  C2  UNL     1     -15.092  -7.174  26.158  1.00  0.00     0.010 A 
HETATM    4  C1  UNL     1     -15.442  -5.979  25.343  1.00  0.00     0.068 C 
HETATM    5  C3  UNL     1     -16.083  -7.753  26.944  1.00  0.00     0.061 A 
HETATM    6  C4  UNL     1     -15.874  -8.825  27.765  1.00  0.00     0.073 A 
HETATM    7  C11 UNL     1     -14.565  -9.332  27.776  1.00  0.00     0.054 A 
HETATM    8  C12 UNL     1     -13.628  -8.739  26.996  1.00  0.00     0.093 A 
BRANCH   6   9
HETATM    9  O1  UNL     1     -16.830  -9.403  28.538  1.00  0.00    -0.337 OA
BRANCH   9  10
HETATM   10  C5  UNL     1     -18.077  -9.917  28.287  1.00  0.00     0.218 C 
BRANCH  10  11
HETATM   11  C6  UNL     1     -18.284 -10.432  26.906  1.00  0.00     0.043 C 
BRANCH  11  12
HETATM   12  C7  UNL     1     -17.965 -11.895  26.841  1.00  0.00     0.023 C 
BRANCH  12  13
HETATM   13  C8  UNL     1     -16.552 -12.147  26.439  1.00  0.00     0.122 C 
BRANCH  13  14
HETATM   14  N1  UNL     1     -15.800 -12.768  27.493  1.00  0.00    -0.365 N 
HETATM   15  C9  UNL     1     -14.539 -13.330  27.220  1.00  0.00     0.181 C 
HETATM   16  N2  UNL     1     -14.457 -14.402  26.481  1.00  0.00    -0.374 N 
HETATM   17  N3  UNL     1     -13.316 -12.798  27.704  1.00  0.00    -0.064 NA
ATOM     18  H22 UNL     1     -15.336 -14.784  26.133  1.00  0.00     0.158 HD
ATOM     19  H21 UNL     1     -13.543 -14.809  26.283  1.00  0.00     0.158 HD
ATOM     20  H1  UNL     1     -16.180 -12.802  28.439  1.00  0.00     0.162 HD
ENDBRANCH  13  14
ENDBRANCH  12  13
ENDBRANCH  11  12
ENDBRANCH  10  11
BRANCH  10  21
HETATM   21  C10 UNL     1     -19.160  -8.994  28.750  1.00  0.00     0.260 C 
HETATM   22  N4  UNL     1     -19.514  -7.850  27.983  1.00  0.00    -0.060 NA
HETATM   23  O2  UNL     1     -19.742  -9.255  29.821  1.00  0.00    -0.274 OA
ENDBRANCH  10  21
ENDBRANCH   9  10
ENDBRANCH   6   9
ENDBRANCH   1   2
BRANCH   1  24
HETATM   24  C14 UNL     1     -12.106  -8.231  24.525  1.00  0.00     0.020 C 
BRANCH  24  25
HETATM   25  C15 UNL     1     -12.394  -8.001  23.085  1.00  0.00     0.002 C 
BRANCH  25  26
HETATM   26  C16 UNL     1     -13.878  -8.098  22.736  1.00  0.00     0.002 C 
BRANCH  26  27
HETATM   27  C17 UNL     1     -14.135  -7.346  21.483  1.00  0.00     0.020 C 
BRANCH  27  28
HETATM   28  C18 UNL     1     -13.947  -8.203  20.239  1.00  0.00     0.133 C 
BRANCH  28  29
HETATM   29  N6  UNL     1     -13.469  -7.283  19.205  1.00  0.00    -0.307 N 
HETATM   30  C19 UNL     1     -12.162  -7.214  18.820  1.00  0.00     0.155 A 
HETATM   31  C20 UNL     1     -12.061  -6.253  17.835  1.00  0.00     0.027 A 
HETATM   32  C21 UNL     1     -13.309  -5.723  17.608  1.00  0.00     0.025 A 
HETATM   33  C27 UNL     1     -10.731  -6.020  17.279  1.00  0.00     0.013 C 
HETATM   34  C22 UNL     1     -14.144  -6.398  18.484  1.00  0.00     0.153 A 
HETATM   35  C23 UNL     1     -13.973  -4.716  16.761  1.00  0.00     0.166 C 
HETATM   36  N7  UNL     1     -13.406  -4.571  15.467  1.00  0.00    -0.356 N 
HETATM   37  C24 UNL     1     -12.099  -4.518  14.923  1.00  0.00     0.221 C 
ATOM     38  H7  UNL     1     -14.122  -4.484  14.746  1.00  0.00     0.162 HD
HETATM   39  O5  UNL     1     -12.020  -4.814  13.703  1.00  0.00    -0.273 OA
HETATM   40  C25 UNL     1     -10.784  -4.188  15.479  1.00  0.00     0.130 C 
HETATM   41  C26 UNL     1     -10.219  -5.219  16.361  1.00  0.00    -0.017 C 
BRANCH  30  42
HETATM   42  O3  UNL     1     -11.122  -7.990  19.344  1.00  0.00    -0.345 OA
ATOM     43  H3  UNL     1     -10.564  -8.570  18.840  1.00  0.00     0.219 HD
ENDBRANCH  30  42
BRANCH  34  44
HETATM   44  O4  UNL     1     -15.518  -6.184  18.603  1.00  0.00    -0.345 OA
ATOM     45  H4  UNL     1     -16.020  -5.625  18.019  1.00  0.00     0.219 HD
ENDBRANCH  34  44
ENDBRANCH  28  29
ENDBRANCH  27  28
ENDBRANCH  26  27
ENDBRANCH  25  26
ENDBRANCH  24  25
ENDBRANCH   1  24
TORSDOF 16
ENDMDL
MODEL 5
REMARK VINA RESULT: -8.495755555      4.057      8.020
REMARK  16 active torsions:
REMARK  status: ('A' for Active; 'I' for Inactive)
REMARK    1  A    between atoms: C4_4  and  O1_5 
REMARK    2  A    between atoms: O1_5  and  C5_6 
REMARK    3  A    between atoms: C5_6  and  C6_7 
REMARK    4  A    between atoms: C5_6  and  C10_17 
REMARK    5  A    between atoms: C6_7  and  C7_8 
REMARK    6  A    between atoms: C7_8  and  C8_9 
REMARK    7  A    between atoms: C8_9  and  N1_10 
REMARK       I    between atoms: N1_10  and  C9_12 
REMARK    8  A    between atoms: N5_22  and  C13_23 
REMARK    9  A    between atoms: C13_23  and  C14_24 
REMARK   10  A    between atoms: C14_24  and  C15_25 
REMARK   11  A    between atoms: C15_25  and  C16_26 
REMARK   12  A    between atoms: C16_26  and  C17_27 
REMARK   13  A    between atoms: C17_27  and  C18_28 
REMARK   14  A    between atoms: C18_28  and  N6_29 
REMARK   15  A    between atoms: C19_30  and  O3_31 
REMARK   16  A    between atoms: C22_35  and  O4_36 
ROOT
HETATM    1  C13 UNL     1     -14.923  -8.895  21.407  1.00  0.00     0.128 C 
ENDROOT
BRANCH   1   2
HETATM    2  N5  UNL     1     -15.007  -9.894  22.420  1.00  0.00    -0.360 N 
HETATM    3  C2  UNL     1     -15.974 -10.026  23.307  1.00  0.00     0.010 A 
HETATM    4  C1  UNL     1     -17.086  -9.042  23.404  1.00  0.00     0.068 C 
HETATM    5  C3  UNL     1     -15.945 -11.085  24.209  1.00  0.00     0.061 A 
HETATM    6  C4  UNL     1     -14.955 -12.026  24.246  1.00  0.00     0.073 A 
HETATM    7  C11 UNL     1     -13.934 -11.868  23.295  1.00  0.00     0.054 A 
HETATM    8  C12 UNL     1     -14.000 -10.823  22.434  1.00  0.00     0.093 A 
BRANCH   6   9
HETATM    9  O1  UNL     1     -14.911 -13.065  25.119  1.00  0.00    -0.337 OA
BRANCH   9  10
HETATM   10  C5  UNL     1     -13.965 -14.011  25.428  1.00  0.00     0.218 C 
BRANCH  10  11
HETATM   11  C6  UNL     1     -14.472 -15.408  25.517  1.00  0.00     0.043 C 
BRANCH  11  12
HETATM   12  C7  UNL     1     -14.530 -16.029  24.153  1.00  0.00     0.023 C 
BRANCH  12  13
HETATM   13  C8  UNL     1     -15.901 -15.985  23.571  1.00  0.00     0.122 C 
BRANCH  13  14
HETATM   14  N1  UNL     1     -16.035 -14.934  22.602  1.00  0.00    -0.365 N 
HETATM   15  C9  UNL     1     -16.222 -15.252  21.243  1.00  0.00     0.181 C 
HETATM   16  N2  UNL     1     -15.248 -15.799  20.569  1.00  0.00    -0.374 N 
HETATM   17  N3  UNL     1     -17.427 -15.012  20.535  1.00  0.00    -0.064 NA
ATOM     18  H22 UNL     1     -14.382 -15.971  21.079  1.00  0.00     0.158 HD
ATOM     19  H21 UNL     1     -15.383 -16.029  19.585  1.00  0.00     0.158 HD
ATOM     20  H1  UNL     1     -15.995 -13.959  22.898  1.00  0.00     0.162 HD
ENDBRANCH  13  14
ENDBRANCH  12  13
ENDBRANCH  11  12
ENDBRANCH  10  11
BRANCH  10  21
HETATM   21  C10 UNL     1     -13.136 -13.600  26.604  1.00  0.00     0.260 C 
HETATM   22  N4  UNL     1     -13.732 -12.959  27.725  1.00  0.00    -0.060 NA
HETATM   23  O2  UNL     1     -11.912 -13.835  26.575  1.00  0.00    -0.274 OA
ENDBRANCH  10  21
ENDBRANCH   9  10
ENDBRANCH   6   9
ENDBRANCH   1   2
BRANCH   1  24
HETATM   24  C14 UNL     1     -13.899  -7.822  21.616  1.00  0.00     0.020 C 
BRANCH  24  25
HETATM   25  C15 UNL     1     -13.886  -7.328  23.019  1.00  0.00     0.002 C 
BRANCH  25  26
HETATM   26  C16 UNL     1     -12.629  -7.718  23.792  1.00  0.00     0.002 C 
BRANCH  26  27
HETATM   27  C17 UNL     1     -13.020  -8.424  25.037  1.00  0.00     0.020 C 
BRANCH  27  28
HETATM   28  C18 UNL     1     -13.477  -7.469  26.130  1.00  0.00     0.133 C 
BRANCH  28  29
HETATM   29  N6  UNL     1     -14.758  -8.002  26.599  1.00  0.00    -0.307 N 
HETATM   30  C19 UNL     1     -14.860  -9.134  27.352  1.00  0.00     0.155 A 
HETATM   31  C20 UNL     1     -16.197  -9.349  27.617  1.00  0.00     0.027 A 
HETATM   32  C21 UNL     1     -16.928  -8.345  27.027  1.00  0.00     0.025 A 
HETATM   33  C27 UNL     1     -16.527 -10.522  28.421  1.00  0.00     0.013 C 
HETATM   34  C22 UNL     1     -15.986  -7.538  26.408  1.00  0.00     0.153 A 
HETATM   35  C23 UNL     1     -18.327  -7.908  26.869  1.00  0.00     0.166 C 
HETATM   36  N7  UNL     1     -19.160  -8.196  27.983  1.00  0.00    -0.356 N 
HETATM   37  C24 UNL     1     -19.349  -9.288  28.865  1.00  0.00     0.221 C 
ATOM     38  H7  UNL     1     -19.781  -7.417  28.204  1.00  0.00     0.162 HD
HETATM   39  O5  UNL     1     -19.868  -8.993  29.971  1.00  0.00    -0.273 OA
HETATM   40  C25 UNL     1     -19.064 -10.723  28.773  1.00  0.00     0.130 C 
HETATM   41  C26 UNL     1     -17.640 -11.069  28.878  1.00  0.00    -0.017 C 
BRANCH  30  42
HETATM   42  O3  UNL     1     -13.785  -9.925  27.773  1.00  0.00    -0.345 OA
ATOM     43  H3  UNL     1     -13.684 -10.853  27.594  1.00  0.00     0.219 HD
ENDBRANCH  30  42
BRANCH  34  44
HETATM   44  O4  UNL     1     -16.278  -6.385  25.678  1.00  0.00    -0.345 OA
ATOM     45  H4  UNL     1     -15.916  -5.529  25.873  1.00  0.00     0.219 HD
ENDBRANCH  34  44
ENDBRANCH  28  29
ENDBRANCH  27  28
ENDBRANCH  26  27
ENDBRANCH  25  26
ENDBRANCH  24  25
ENDBRANCH   1  24
TORSDOF 16
ENDMDL
