MODEL 1
REMARK VINA RESULT: -9.051713099      0.000      0.000
REMARK  18 active torsions:
REMARK  status: ('A' for Active; 'I' for Inactive)
REMARK    1  A    between atoms: C2_2  and  C4_4 
REMARK    2  A    between atoms: C4_4  and  C5_5 
REMARK    3  A    between atoms: C5_5  and  N1_6 
REMARK    4  A    between atoms: C5_5  and  C9_16 
REMARK       I    between atoms: N1_6  and  C6_8 
REMARK    5  A    between atoms: C6_8  and  C7_10 
REMARK    6  A    between atoms: C7_10  and  N2_12 
REMARK       I    between atoms: C9_16  and  N3_18 
REMARK    7  A    between atoms: N3_18  and  C10_20 
REMARK    8  A    between atoms: C10_20  and  C11_21 
REMARK    9  A    between atoms: C10_20  and  C26_47 
REMARK       I    between atoms: C11_21  and  N4_23 
REMARK   10  A    between atoms: N4_23  and  C12_25 
REMARK   11  A    between atoms: C12_25  and  C14_27 
REMARK       I    between atoms: C14_27  and  N5_29 
REMARK   12  A    between atoms: N5_29  and  C15_31 
REMARK   13  A    between atoms: C15_31  and  C16_32 
REMARK   14  A    between atoms: C15_31  and  C20_36 
REMARK   15  A    between atoms: C16_32  and  C17_33 
REMARK       I    between atoms: C20_36  and  N6_38 
REMARK   16  A    between atoms: N6_38  and  C21_40 
REMARK   17  A    between atoms: C21_40  and  C22_41 
REMARK   18  A    between atoms: C21_40  and  C23_44 
ROOT
HETATM    1  C11 UNL     1       2.572 -14.153 -25.276  1.00  0.00     0.241 C 
HETATM    2  O3  UNL     1       1.387 -14.023 -25.788  1.00  0.00    -0.271 OA
HETATM    3  N4  UNL     1       3.652 -13.606 -25.937  1.00  0.00    -0.346 N 
ATOM      4  H4  UNL     1       4.601 -13.703 -25.577  1.00  0.00     0.163 HD
ENDROOT
BRANCH   1   5
HETATM    5  C10 UNL     1       2.574 -14.906 -24.004  1.00  0.00     0.180 C 
BRANCH   5   6
HETATM    6  N3  UNL     1       3.727 -14.481 -23.200  1.00  0.00    -0.346 N 
HETATM    7  C9  UNL     1       4.651 -15.420 -22.696  1.00  0.00     0.241 C 
HETATM    8  O2  UNL     1       4.554 -16.642 -22.896  1.00  0.00    -0.271 OA
ATOM      9  H3  UNL     1       3.862 -13.489 -23.002  1.00  0.00     0.163 HD
BRANCH   7  10
HETATM   10  C5  UNL     1       5.844 -14.962 -21.867  1.00  0.00     0.177 C 
BRANCH  10  11
HETATM   11  C4  UNL     1       5.408 -14.295 -20.645  1.00  0.00     0.038 C 
BRANCH  11  12
HETATM   12  C2  UNL     1       4.229 -14.874 -19.918  1.00  0.00    -0.020 C 
HETATM   13  C1  UNL     1       3.538 -13.740 -19.129  1.00  0.00     0.009 C 
HETATM   14  C3  UNL     1       4.668 -15.876 -18.853  1.00  0.00     0.009 C 
ENDBRANCH  11  12
ENDBRANCH  10  11
BRANCH  10  15
HETATM   15  N1  UNL     1       6.672 -14.200 -22.766  1.00  0.00    -0.346 N 
HETATM   16  C6  UNL     1       7.673 -14.833 -23.585  1.00  0.00     0.248 C 
HETATM   17  O1  UNL     1       7.806 -16.074 -23.479  1.00  0.00    -0.271 OA
ATOM     18  H1  UNL     1       6.546 -13.189 -22.823  1.00  0.00     0.163 HD
BRANCH  16  19
HETATM   19  C7  UNL     1       8.489 -14.040 -24.502  1.00  0.00     0.270 C 
HETATM   20  C8  UNL     1       9.454 -13.112 -23.808  1.00  0.00     0.050 C 
BRANCH  19  21
HETATM   21  N2  UNL     1       9.303 -14.945 -25.310  1.00  0.00    -0.067 N 
ATOM     22  H23 UNL     1      10.294 -14.704 -25.285  1.00  0.00     0.275 HD
ATOM     23  H22 UNL     1       9.372 -15.877 -24.901  1.00  0.00     0.275 HD
ATOM     24  H21 UNL     1       8.931 -14.963 -26.260  1.00  0.00     0.275 HD
ENDBRANCH  19  21
ENDBRANCH  16  19
ENDBRANCH  10  15
ENDBRANCH   7  10
ENDBRANCH   5   6
BRANCH   5  25
HETATM   25  C26 UNL     1       1.318 -14.946 -23.232  1.00  0.00     0.009 C 
HETATM   26  C27 UNL     1       1.431 -13.848 -22.144  1.00  0.00     0.012 C 
HETATM   27  C28 UNL     1       1.183 -16.232 -22.409  1.00  0.00     0.012 C 
ENDBRANCH   5  25
ENDBRANCH   1   5
BRANCH   3  28
HETATM   28  C12 UNL     1       3.375 -12.877 -27.181  1.00  0.00     0.172 C 
HETATM   29  C13 UNL     1       4.206 -13.542 -28.283  1.00  0.00     0.042 C 
BRANCH  28  30
HETATM   30  C14 UNL     1       3.703 -11.458 -27.057  1.00  0.00     0.240 C 
HETATM   31  O4  UNL     1       4.051 -11.000 -25.943  1.00  0.00    -0.271 OA
HETATM   32  N5  UNL     1       3.633 -10.600 -28.161  1.00  0.00    -0.346 N 
ATOM     33  H5  UNL     1       3.336 -10.984 -29.058  1.00  0.00     0.163 HD
BRANCH  32  34
HETATM   34  C15 UNL     1       3.963  -9.187 -28.086  1.00  0.00     0.177 C 
BRANCH  34  35
HETATM   35  C16 UNL     1       3.196  -8.388 -29.102  1.00  0.00     0.038 C 
BRANCH  35  36
HETATM   36  C17 UNL     1       1.726  -8.404 -29.036  1.00  0.00    -0.020 C 
HETATM   37  C18 UNL     1       0.972  -7.624 -30.054  1.00  0.00     0.009 C 
HETATM   38  C19 UNL     1       1.343  -7.825 -27.660  1.00  0.00     0.009 C 
ENDBRANCH  35  36
ENDBRANCH  34  35
BRANCH  34  39
HETATM   39  C20 UNL     1       5.410  -9.026 -28.110  1.00  0.00     0.241 C 
HETATM   40  O5  UNL     1       6.053  -9.253 -29.166  1.00  0.00    -0.271 OA
HETATM   41  N6  UNL     1       6.135  -8.617 -26.966  1.00  0.00    -0.346 N 
ATOM     42  H6  UNL     1       5.595  -8.451 -26.116  1.00  0.00     0.163 HD
BRANCH  41  43
HETATM   43  C21 UNL     1       7.548  -8.412 -26.882  1.00  0.00     0.177 C 
BRANCH  43  44
HETATM   44  C22 UNL     1       7.810  -6.996 -26.610  1.00  0.00     0.254 C 
HETATM   45  N7  UNL     1       8.911  -6.624 -25.809  1.00  0.00    -0.060 NA
HETATM   46  O6  UNL     1       7.069  -6.107 -27.078  1.00  0.00    -0.275 OA
ENDBRANCH  43  44
BRANCH  43  47
HETATM   47  C23 UNL     1       8.086  -9.318 -25.788  1.00  0.00     0.009 C 
HETATM   48  C24 UNL     1       8.849 -10.480 -26.379  1.00  0.00     0.012 C 
HETATM   49  C25 UNL     1       7.058  -9.838 -24.845  1.00  0.00     0.012 C 
ENDBRANCH  43  47
ENDBRANCH  41  43
ENDBRANCH  34  39
ENDBRANCH  32  34
ENDBRANCH  28  30
ENDBRANCH   3  28
TORSDOF 18
ENDMDL
MODEL 2
REMARK VINA RESULT: -8.808961930      2.115      8.698
REMARK  18 active torsions:
REMARK  status: ('A' for Active; 'I' for Inactive)
REMARK    1  A    between atoms: C2_2  and  C4_4 
REMARK    2  A    between atoms: C4_4  and  C5_5 
REMARK    3  A    between atoms: C5_5  and  N1_6 
REMARK    4  A    between atoms: C5_5  and  C9_16 
REMARK       I    between atoms: N1_6  and  C6_8 
REMARK    5  A    between atoms: C6_8  and  C7_10 
REMARK    6  A    between atoms: C7_10  and  N2_12 
REMARK       I    between atoms: C9_16  and  N3_18 
REMARK    7  A    between atoms: N3_18  and  C10_20 
REMARK    8  A    between atoms: C10_20  and  C11_21 
REMARK    9  A    between atoms: C10_20  and  C26_47 
REMARK       I    between atoms: C11_21  and  N4_23 
REMARK   10  A    between atoms: N4_23  and  C12_25 
REMARK   11  A    between atoms: C12_25  and  C14_27 
REMARK       I    between atoms: C14_27  and  N5_29 
REMARK   12  A    between atoms: N5_29  and  C15_31 
REMARK   13  A    between atoms: C15_31  and  C16_32 
REMARK   14  A    between atoms: C15_31  and  C20_36 
REMARK   15  A    between atoms: C16_32  and  C17_33 
REMARK       I    between atoms: C20_36  and  N6_38 
REMARK   16  A    between atoms: N6_38  and  C21_40 
REMARK   17  A    between atoms: C21_40  and  C22_41 
REMARK   18  A    between atoms: C21_40  and  C23_44 
ROOT
HETATM    1  C11 UNL     1       6.252 -13.325 -25.250  1.00  0.00     0.241 C 
HETATM    2  O3  UNL     1       6.566 -14.218 -26.137  1.00  0.00    -0.271 OA
HETATM    3  N4  UNL     1       4.980 -13.324 -24.720  1.00  0.00    -0.346 N 
ATOM      4  H4  UNL     1       4.688 -12.627 -24.035  1.00  0.00     0.163 HD
ENDROOT
BRANCH   1   5
HETATM    5  C10 UNL     1       7.366 -12.404 -24.936  1.00  0.00     0.180 C 
BRANCH   5   6
HETATM    6  N3  UNL     1       7.032 -11.065 -25.438  1.00  0.00    -0.346 N 
HETATM    7  C9  UNL     1       7.594 -10.574 -26.635  1.00  0.00     0.241 C 
HETATM    8  O2  UNL     1       8.389 -11.228 -27.329  1.00  0.00    -0.271 OA
ATOM      9  H3  UNL     1       6.383 -10.479 -24.912  1.00  0.00     0.163 HD
BRANCH   7  10
HETATM   10  C5  UNL     1       7.235  -9.184 -27.144  1.00  0.00     0.177 C 
BRANCH  10  11
HETATM   11  C4  UNL     1       7.845  -8.148 -26.317  1.00  0.00     0.038 C 
BRANCH  11  12
HETATM   12  C2  UNL     1       9.104  -7.506 -26.821  1.00  0.00    -0.020 C 
HETATM   13  C1  UNL     1      10.301  -8.105 -26.049  1.00  0.00     0.009 C 
HETATM   14  C3  UNL     1       9.138  -6.015 -26.494  1.00  0.00     0.009 C 
ENDBRANCH  11  12
ENDBRANCH  10  11
BRANCH  10  15
HETATM   15  N1  UNL     1       5.799  -9.169 -27.253  1.00  0.00    -0.346 N 
HETATM   16  C6  UNL     1       5.129  -9.659 -28.430  1.00  0.00     0.248 C 
HETATM   17  O1  UNL     1       5.843 -10.089 -29.365  1.00  0.00    -0.271 OA
ATOM     18  H1  UNL     1       5.244  -8.804 -26.479  1.00  0.00     0.163 HD
BRANCH  16  19
HETATM   19  C7  UNL     1       3.670  -9.650 -28.509  1.00  0.00     0.270 C 
HETATM   20  C8  UNL     1       3.097  -8.349 -29.013  1.00  0.00     0.050 C 
BRANCH  19  21
HETATM   21  N2  UNL     1       3.243 -10.676 -29.457  1.00  0.00    -0.067 N 
ATOM     22  H23 UNL     1       3.049 -10.295 -30.383  1.00  0.00     0.275 HD
ATOM     23  H22 UNL     1       4.003 -11.305 -29.719  1.00  0.00     0.275 HD
ATOM     24  H21 UNL     1       2.444 -11.174 -29.065  1.00  0.00     0.275 HD
ENDBRANCH  19  21
ENDBRANCH  16  19
ENDBRANCH  10  15
ENDBRANCH   7  10
ENDBRANCH   5   6
BRANCH   5  25
HETATM   25  C26 UNL     1       7.870 -12.389 -23.550  1.00  0.00     0.009 C 
HETATM   26  C27 UNL     1       7.616 -10.962 -23.001  1.00  0.00     0.012 C 
HETATM   27  C28 UNL     1       9.396 -12.514 -23.486  1.00  0.00     0.012 C 
ENDBRANCH   5  25
ENDBRANCH   1   5
BRANCH   3  28
HETATM   28  C12 UNL     1       4.061 -14.371 -25.185  1.00  0.00     0.172 C 
HETATM   29  C13 UNL     1       2.727 -13.687 -25.503  1.00  0.00     0.042 C 
BRANCH  28  30
HETATM   30  C14 UNL     1       3.890 -15.421 -24.183  1.00  0.00     0.240 C 
HETATM   31  O4  UNL     1       3.339 -16.500 -24.508  1.00  0.00    -0.271 OA
HETATM   32  N5  UNL     1       4.328 -15.243 -22.866  1.00  0.00    -0.346 N 
ATOM     33  H5  UNL     1       4.763 -14.356 -22.612  1.00  0.00     0.163 HD
BRANCH  32  34
HETATM   34  C15 UNL     1       4.190 -16.266 -21.842  1.00  0.00     0.177 C 
BRANCH  34  35
HETATM   35  C16 UNL     1       3.441 -15.749 -20.645  1.00  0.00     0.038 C 
BRANCH  35  36
HETATM   36  C17 UNL     1       4.074 -14.703 -19.826  1.00  0.00    -0.020 C 
HETATM   37  C18 UNL     1       4.617 -15.090 -18.496  1.00  0.00     0.009 C 
HETATM   38  C19 UNL     1       2.995 -13.633 -19.571  1.00  0.00     0.009 C 
ENDBRANCH  35  36
ENDBRANCH  34  35
BRANCH  34  39
HETATM   39  C20 UNL     1       5.493 -16.857 -21.571  1.00  0.00     0.241 C 
HETATM   40  O5  UNL     1       5.572 -17.971 -20.993  1.00  0.00    -0.271 OA
HETATM   41  N6  UNL     1       6.697 -16.212 -21.938  1.00  0.00    -0.346 N 
ATOM     42  H6  UNL     1       6.610 -15.303 -22.393  1.00  0.00     0.163 HD
BRANCH  41  43
HETATM   43  C21 UNL     1       8.024 -16.707 -21.735  1.00  0.00     0.177 C 
BRANCH  43  44
HETATM   44  C22 UNL     1       8.638 -16.973 -23.040  1.00  0.00     0.254 C 
HETATM   45  N7  UNL     1       9.789 -16.260 -23.436  1.00  0.00    -0.060 NA
HETATM   46  O6  UNL     1       8.155 -17.827 -23.811  1.00  0.00    -0.275 OA
ENDBRANCH  43  44
BRANCH  43  47
HETATM   47  C23 UNL     1       8.792 -15.668 -20.938  1.00  0.00     0.009 C 
HETATM   48  C24 UNL     1       9.511 -16.307 -19.774  1.00  0.00     0.012 C 
HETATM   49  C25 UNL     1       7.973 -14.530 -20.439  1.00  0.00     0.012 C 
ENDBRANCH  43  47
ENDBRANCH  41  43
ENDBRANCH  34  39
ENDBRANCH  32  34
ENDBRANCH  28  30
ENDBRANCH   3  28
TORSDOF 18
ENDMDL
MODEL 3
REMARK VINA RESULT: -8.774712466      2.000      8.563
REMARK  18 active torsions:
REMARK  status: ('A' for Active; 'I' for Inactive)
REMARK    1  A    between atoms: C2_2  and  C4_4 
REMARK    2  A    between atoms: C4_4  and  C5_5 
REMARK    3  A    between atoms: C5_5  and  N1_6 
REMARK    4  A    between atoms: C5_5  and  C9_16 
REMARK       I    between atoms: N1_6  and  C6_8 
REMARK    5  A    between atoms: C6_8  and  C7_10 
REMARK    6  A    between atoms: C7_10  and  N2_12 
REMARK       I    between atoms: C9_16  and  N3_18 
REMARK    7  A    between atoms: N3_18  and  C10_20 
REMARK    8  A    between atoms: C10_20  and  C11_21 
REMARK    9  A    between atoms: C10_20  and  C26_47 
REMARK       I    between atoms: C11_21  and  N4_23 
REMARK   10  A    between atoms: N4_23  and  C12_25 
REMARK   11  A    between atoms: C12_25  and  C14_27 
REMARK       I    between atoms: C14_27  and  N5_29 
REMARK   12  A    between atoms: N5_29  and  C15_31 
REMARK   13  A    between atoms: C15_31  and  C16_32 
REMARK   14  A    between atoms: C15_31  and  C20_36 
REMARK   15  A    between atoms: C16_32  and  C17_33 
REMARK       I    between atoms: C20_36  and  N6_38 
REMARK   16  A    between atoms: N6_38  and  C21_40 
REMARK   17  A    between atoms: C21_40  and  C22_41 
REMARK   18  A    between atoms: C21_40  and  C23_44 
ROOT
HETATM    1  C11 UNL     1       5.760 -13.611 -25.939  1.00  0.00     0.241 C 
HETATM    2  O3  UNL     1       5.746 -14.349 -27.005  1.00  0.00    -0.271 OA
HETATM    3  N4  UNL     1       4.773 -13.782 -24.992  1.00  0.00    -0.346 N 
ATOM      4  H4  UNL     1       4.739 -13.208 -24.149  1.00  0.00     0.163 HD
ENDROOT
BRANCH   1   5
HETATM    5  C10 UNL     1       6.889 -12.657 -25.910  1.00  0.00     0.180 C 
BRANCH   5   6
HETATM    6  N3  UNL     1       6.369 -11.298 -26.111  1.00  0.00    -0.346 N 
HETATM    7  C9  UNL     1       6.203 -10.764 -27.405  1.00  0.00     0.241 C 
HETATM    8  O2  UNL     1       6.477 -11.395 -28.439  1.00  0.00    -0.271 OA
ATOM      9  H3  UNL     1       6.124 -10.730 -25.299  1.00  0.00     0.163 HD
BRANCH   7  10
HETATM   10  C5  UNL     1       5.659  -9.354 -27.596  1.00  0.00     0.177 C 
BRANCH  10  11
HETATM   11  C4  UNL     1       4.680  -9.312 -28.678  1.00  0.00     0.038 C 
BRANCH  11  12
HETATM   12  C2  UNL     1       3.542  -8.344 -28.549  1.00  0.00    -0.020 C 
HETATM   13  C1  UNL     1       3.122  -8.277 -27.064  1.00  0.00     0.009 C 
HETATM   14  C3  UNL     1       2.299  -8.845 -29.281  1.00  0.00     0.009 C 
ENDBRANCH  11  12
ENDBRANCH  10  11
BRANCH  10  15
HETATM   15  N1  UNL     1       6.816  -8.507 -27.730  1.00  0.00    -0.346 N 
HETATM   16  C6  UNL     1       7.630  -8.161 -26.593  1.00  0.00     0.248 C 
HETATM   17  O1  UNL     1       7.288  -8.616 -25.478  1.00  0.00    -0.271 OA
ATOM     18  H1  UNL     1       7.064  -8.144 -28.650  1.00  0.00     0.163 HD
BRANCH  16  19
HETATM   19  C7  UNL     1       8.809  -7.314 -26.758  1.00  0.00     0.270 C 
HETATM   20  C8  UNL     1       8.530  -5.844 -26.576  1.00  0.00     0.050 C 
BRANCH  19  21
HETATM   21  N2  UNL     1       9.792  -7.672 -25.737  1.00  0.00    -0.067 N 
ATOM     22  H23 UNL     1       9.546  -8.530 -25.244  1.00  0.00     0.275 HD
ATOM     23  H22 UNL     1      10.674  -7.987 -26.139  1.00  0.00     0.275 HD
ATOM     24  H21 UNL     1       9.912  -6.881 -25.105  1.00  0.00     0.275 HD
ENDBRANCH  19  21
ENDBRANCH  16  19
ENDBRANCH  10  15
ENDBRANCH   7  10
ENDBRANCH   5   6
BRANCH   5  25
HETATM   25  C26 UNL     1       7.835 -12.750 -24.782  1.00  0.00     0.009 C 
HETATM   26  C27 UNL     1       8.789 -11.535 -24.902  1.00  0.00     0.012 C 
HETATM   27  C28 UNL     1       8.783 -13.946 -24.917  1.00  0.00     0.012 C 
ENDBRANCH   5  25
ENDBRANCH   1   5
BRANCH   3  28
HETATM   28  C12 UNL     1       3.773 -14.825 -25.249  1.00  0.00     0.172 C 
HETATM   29  C13 UNL     1       2.436 -14.114 -25.490  1.00  0.00     0.042 C 
BRANCH  28  30
HETATM   30  C14 UNL     1       3.676 -15.765 -24.134  1.00  0.00     0.240 C 
HETATM   31  O4  UNL     1       3.020 -16.825 -24.276  1.00  0.00    -0.271 OA
HETATM   32  N5  UNL     1       4.300 -15.503 -22.909  1.00  0.00    -0.346 N 
ATOM     33  H5  UNL     1       4.820 -14.631 -22.804  1.00  0.00     0.163 HD
BRANCH  32  34
HETATM   34  C15 UNL     1       4.242 -16.416 -21.780  1.00  0.00     0.177 C 
BRANCH  34  35
HETATM   35  C16 UNL     1       3.476 -15.821 -20.631  1.00  0.00     0.038 C 
BRANCH  35  36
HETATM   36  C17 UNL     1       4.124 -14.768 -19.833  1.00  0.00    -0.020 C 
HETATM   37  C18 UNL     1       4.632 -15.129 -18.482  1.00  0.00     0.009 C 
HETATM   38  C19 UNL     1       3.071 -13.661 -19.630  1.00  0.00     0.009 C 
ENDBRANCH  35  36
ENDBRANCH  34  35
BRANCH  34  39
HETATM   39  C20 UNL     1       5.583 -16.892 -21.472  1.00  0.00     0.241 C 
HETATM   40  O5  UNL     1       5.742 -17.920 -20.767  1.00  0.00    -0.271 OA
HETATM   41  N6  UNL     1       6.738 -16.226 -21.945  1.00  0.00    -0.346 N 
ATOM     42  H6  UNL     1       6.587 -15.386 -22.504  1.00  0.00     0.163 HD
BRANCH  41  43
HETATM   43  C21 UNL     1       8.097 -16.613 -21.718  1.00  0.00     0.177 C 
BRANCH  43  44
HETATM   44  C22 UNL     1       8.653 -17.156 -22.961  1.00  0.00     0.254 C 
HETATM   45  N7  UNL     1       9.998 -16.901 -23.302  1.00  0.00    -0.060 NA
HETATM   46  O6  UNL     1       7.949 -17.844 -23.729  1.00  0.00    -0.275 OA
ENDBRANCH  43  44
BRANCH  43  47
HETATM   47  C23 UNL     1       8.855 -15.390 -21.233  1.00  0.00     0.009 C 
HETATM   48  C24 UNL     1       9.494 -15.651 -19.890  1.00  0.00     0.012 C 
HETATM   49  C25 UNL     1       8.047 -14.143 -21.154  1.00  0.00     0.012 C 
ENDBRANCH  43  47
ENDBRANCH  41  43
ENDBRANCH  34  39
ENDBRANCH  32  34
ENDBRANCH  28  30
ENDBRANCH   3  28
TORSDOF 18
ENDMDL
MODEL 4
REMARK VINA RESULT: -8.674054571      3.226      7.180
REMARK  18 active torsions:
REMARK  status: ('A' for Active; 'I' for Inactive)
REMARK    1  A    between atoms: C2_2  and  C4_4 
REMARK    2  A    between atoms: C4_4  and  C5_5 
REMARK    3  A    between atoms: C5_5  and  N1_6 
REMARK    4  A    between atoms: C5_5  and  C9_16 
REMARK       I    between atoms: N1_6  and  C6_8 
REMARK    5  A    between atoms: C6_8  and  C7_10 
REMARK    6  A    between atoms: C7_10  and  N2_12 
REMARK       I    between atoms: C9_16  and  N3_18 
REMARK    7  A    between atoms: N3_18  and  C10_20 
REMARK    8  A    between atoms: C10_20  and  C11_21 
REMARK    9  A    between atoms: C10_20  and  C26_47 
REMARK       I    between atoms: C11_21  and  N4_23 
REMARK   10  A    between atoms: N4_23  and  C12_25 
REMARK   11  A    between atoms: C12_25  and  C14_27 
REMARK       I    between atoms: C14_27  and  N5_29 
REMARK   12  A    between atoms: N5_29  and  C15_31 
REMARK   13  A    between atoms: C15_31  and  C16_32 
REMARK   14  A    between atoms: C15_31  and  C20_36 
REMARK   15  A    between atoms: C16_32  and  C17_33 
REMARK       I    between atoms: C20_36  and  N6_38 
REMARK   16  A    between atoms: N6_38  and  C21_40 
REMARK   17  A    between atoms: C21_40  and  C22_41 
REMARK   18  A    between atoms: C21_40  and  C23_44 
ROOT
HETATM    1  C11 UNL     1       3.736 -12.286 -21.823  1.00  0.00     0.241 C 
HETATM    2  O3  UNL     1       3.474 -11.259 -21.075  1.00  0.00    -0.271 OA
HETATM    3  N4  UNL     1       4.406 -12.094 -23.013  1.00  0.00    -0.346 N 
ATOM      4  H4  UNL     1       4.614 -12.873 -23.638  1.00  0.00     0.163 HD
ENDROOT
BRANCH   1   5
HETATM    5  C10 UNL     1       3.248 -13.558 -21.252  1.00  0.00     0.180 C 
BRANCH   5   6
HETATM    6  N3  UNL     1       2.879 -14.463 -22.349  1.00  0.00    -0.346 N 
HETATM    7  C9  UNL     1       1.607 -14.396 -22.953  1.00  0.00     0.241 C 
HETATM    8  O2  UNL     1       0.733 -13.585 -22.607  1.00  0.00    -0.271 OA
ATOM      9  H3  UNL     1       3.556 -15.151 -22.680  1.00  0.00     0.163 HD
BRANCH   7  10
HETATM   10  C5  UNL     1       1.242 -15.339 -24.093  1.00  0.00     0.177 C 
BRANCH  10  11
HETATM   11  C4  UNL     1       1.646 -14.786 -25.381  1.00  0.00     0.038 C 
BRANCH  11  12
HETATM   12  C2  UNL     1       2.854 -13.896 -25.408  1.00  0.00    -0.020 C 
HETATM   13  C1  UNL     1       2.782 -13.014 -26.675  1.00  0.00     0.009 C 
HETATM   14  C3  UNL     1       4.138 -14.706 -25.573  1.00  0.00     0.009 C 
ENDBRANCH  11  12
ENDBRANCH  10  11
BRANCH  10  15
HETATM   15  N1  UNL     1      -0.158 -15.632 -23.920  1.00  0.00    -0.346 N 
HETATM   16  C6  UNL     1      -0.606 -16.638 -22.991  1.00  0.00     0.248 C 
HETATM   17  O1  UNL     1       0.269 -17.258 -22.345  1.00  0.00    -0.271 OA
ATOM     18  H1  UNL     1      -0.847 -15.116 -24.467  1.00  0.00     0.163 HD
BRANCH  16  19
HETATM   19  C7  UNL     1      -2.033 -16.904 -22.820  1.00  0.00     0.270 C 
HETATM   20  C8  UNL     1      -2.548 -18.027 -23.686  1.00  0.00     0.050 C 
BRANCH  19  21
HETATM   21  N2  UNL     1      -2.273 -17.313 -21.438  1.00  0.00    -0.067 N 
ATOM     22  H23 UNL     1      -2.632 -18.265 -21.370  1.00  0.00     0.275 HD
ATOM     23  H22 UNL     1      -1.408 -17.449 -20.916  1.00  0.00     0.275 HD
ATOM     24  H21 UNL     1      -2.891 -16.631 -20.997  1.00  0.00     0.275 HD
ENDBRANCH  19  21
ENDBRANCH  16  19
ENDBRANCH  10  15
ENDBRANCH   7  10
ENDBRANCH   5   6
BRANCH   5  25
HETATM   25  C26 UNL     1       4.081 -14.211 -20.224  1.00  0.00     0.009 C 
HETATM   26  C27 UNL     1       3.796 -15.731 -20.322  1.00  0.00     0.012 C 
HETATM   27  C28 UNL     1       3.625 -13.867 -18.803  1.00  0.00     0.012 C 
ENDBRANCH   5  25
ENDBRANCH   1   5
BRANCH   3  28
HETATM   28  C12 UNL     1       4.808 -10.721 -23.341  1.00  0.00     0.172 C 
HETATM   29  C13 UNL     1       4.126 -10.359 -24.665  1.00  0.00     0.042 C 
BRANCH  28  30
HETATM   30  C14 UNL     1       6.260 -10.595 -23.444  1.00  0.00     0.240 C 
HETATM   31  O4  UNL     1       6.815  -9.534 -23.070  1.00  0.00    -0.271 OA
HETATM   32  N5  UNL     1       7.043 -11.636 -23.956  1.00  0.00    -0.346 N 
ATOM     33  H5  UNL     1       6.577 -12.489 -24.268  1.00  0.00     0.163 HD
BRANCH  32  34
HETATM   34  C15 UNL     1       8.490 -11.558 -24.063  1.00  0.00     0.177 C 
BRANCH  34  35
HETATM   35  C16 UNL     1       8.931 -11.443 -25.496  1.00  0.00     0.038 C 
BRANCH  35  36
HETATM   36  C17 UNL     1       9.357 -10.124 -25.989  1.00  0.00    -0.020 C 
HETATM   37  C18 UNL     1       8.303  -9.158 -26.401  1.00  0.00     0.009 C 
HETATM   38  C19 UNL     1      10.232 -10.382 -27.231  1.00  0.00     0.009 C 
ENDBRANCH  35  36
ENDBRANCH  34  35
BRANCH  34  39
HETATM   39  C20 UNL     1       9.092 -12.642 -23.298  1.00  0.00     0.241 C 
HETATM   40  O5  UNL     1      10.313 -12.907 -23.432  1.00  0.00    -0.271 OA
HETATM   41  N6  UNL     1       8.337 -13.425 -22.393  1.00  0.00    -0.346 N 
ATOM     42  H6  UNL     1       7.345 -13.202 -22.310  1.00  0.00     0.163 HD
BRANCH  41  43
HETATM   43  C21 UNL     1       8.827 -14.498 -21.583  1.00  0.00     0.177 C 
BRANCH  43  44
HETATM   44  C22 UNL     1       8.679 -14.135 -20.170  1.00  0.00     0.254 C 
HETATM   45  N7  UNL     1       7.656 -13.248 -19.774  1.00  0.00    -0.060 NA
HETATM   46  O6  UNL     1       9.450 -14.601 -19.307  1.00  0.00    -0.275 OA
ENDBRANCH  43  44
BRANCH  43  47
HETATM   47  C23 UNL     1       8.042 -15.748 -21.942  1.00  0.00     0.009 C 
HETATM   48  C24 UNL     1       8.866 -16.669 -22.810  1.00  0.00     0.012 C 
HETATM   49  C25 UNL     1       6.733 -15.497 -22.603  1.00  0.00     0.012 C 
ENDBRANCH  43  47
ENDBRANCH  41  43
ENDBRANCH  34  39
ENDBRANCH  32  34
ENDBRANCH  28  30
ENDBRANCH   3  28
TORSDOF 18
ENDMDL
MODEL 5
REMARK VINA RESULT: -8.637459458      3.142      6.679
REMARK  18 active torsions:
REMARK  status: ('A' for Active; 'I' for Inactive)
REMARK    1  A    between atoms: C2_2  and  C4_4 
REMARK    2  A    between atoms: C4_4  and  C5_5 
REMARK    3  A    between atoms: C5_5  and  N1_6 
REMARK    4  A    between atoms: C5_5  and  C9_16 
REMARK       I    between atoms: N1_6  and  C6_8 
REMARK    5  A    between atoms: C6_8  and  C7_10 
REMARK    6  A    between atoms: C7_10  and  N2_12 
REMARK       I    between atoms: C9_16  and  N3_18 
REMARK    7  A    between atoms: N3_18  and  C10_20 
REMARK    8  A    between atoms: C10_20  and  C11_21 
REMARK    9  A    between atoms: C10_20  and  C26_47 
REMARK       I    between atoms: C11_21  and  N4_23 
REMARK   10  A    between atoms: N4_23  and  C12_25 
REMARK   11  A    between atoms: C12_25  and  C14_27 
REMARK       I    between atoms: C14_27  and  N5_29 
REMARK   12  A    between atoms: N5_29  and  C15_31 
REMARK   13  A    between atoms: C15_31  and  C16_32 
REMARK   14  A    between atoms: C15_31  and  C20_36 
REMARK   15  A    between atoms: C16_32  and  C17_33 
REMARK       I    between atoms: C20_36  and  N6_38 
REMARK   16  A    between atoms: N6_38  and  C21_40 
REMARK   17  A    between atoms: C21_40  and  C22_41 
REMARK   18  A    between atoms: C21_40  and  C23_44 
ROOT
HETATM    1  C11 UNL     1       3.579 -12.445 -21.418  1.00  0.00     0.241 C 
HETATM    2  O3  UNL     1       3.459 -11.408 -20.648  1.00  0.00    -0.271 OA
HETATM    3  N4  UNL     1       4.276 -12.326 -22.601  1.00  0.00    -0.346 N 
ATOM      4  H4  UNL     1       4.376 -13.113 -23.242  1.00  0.00     0.163 HD
ENDROOT
BRANCH   1   5
HETATM    5  C10 UNL     1       2.912 -13.648 -20.875  1.00  0.00     0.180 C 
BRANCH   5   6
HETATM    6  N3  UNL     1       2.647 -14.583 -21.976  1.00  0.00    -0.346 N 
HETATM    7  C9  UNL     1       1.481 -14.474 -22.761  1.00  0.00     0.241 C 
HETATM    8  O2  UNL     1       0.620 -13.597 -22.579  1.00  0.00    -0.271 OA
ATOM      9  H3  UNL     1       3.318 -15.325 -22.176  1.00  0.00     0.163 HD
BRANCH   7  10
HETATM   10  C5  UNL     1       1.222 -15.449 -23.902  1.00  0.00     0.177 C 
BRANCH  10  11
HETATM   11  C4  UNL     1       1.700 -14.911 -25.171  1.00  0.00     0.038 C 
BRANCH  11  12
HETATM   12  C2  UNL     1       2.897 -14.007 -25.137  1.00  0.00    -0.020 C 
HETATM   13  C1  UNL     1       2.863 -13.105 -26.391  1.00  0.00     0.009 C 
HETATM   14  C3  UNL     1       4.197 -14.798 -25.264  1.00  0.00     0.009 C 
ENDBRANCH  11  12
ENDBRANCH  10  11
BRANCH  10  15
HETATM   15  N1  UNL     1      -0.178 -15.780 -23.820  1.00  0.00    -0.346 N 
HETATM   16  C6  UNL     1      -0.689 -16.632 -22.778  1.00  0.00     0.248 C 
HETATM   17  O1  UNL     1       0.132 -17.088 -21.949  1.00  0.00    -0.271 OA
ATOM     18  H1  UNL     1      -0.821 -15.401 -24.515  1.00  0.00     0.163 HD
BRANCH  16  19
HETATM   19  C7  UNL     1      -2.116 -16.938 -22.705  1.00  0.00     0.270 C 
HETATM   20  C8  UNL     1      -2.556 -18.012 -23.669  1.00  0.00     0.050 C 
BRANCH  19  21
HETATM   21  N2  UNL     1      -2.422 -17.441 -21.368  1.00  0.00    -0.067 N 
ATOM     22  H23 UNL     1      -2.014 -18.360 -21.195  1.00  0.00     0.275 HD
ATOM     23  H22 UNL     1      -1.931 -16.927 -20.637  1.00  0.00     0.275 HD
ATOM     24  H21 UNL     1      -3.434 -17.433 -21.237  1.00  0.00     0.275 HD
ENDBRANCH  19  21
ENDBRANCH  16  19
ENDBRANCH  10  15
ENDBRANCH   7  10
ENDBRANCH   5   6
BRANCH   5  25
HETATM   25  C26 UNL     1       3.526 -14.300 -19.703  1.00  0.00     0.009 C 
HETATM   26  C27 UNL     1       4.946 -13.696 -19.553  1.00  0.00     0.012 C 
HETATM   27  C28 UNL     1       3.809 -15.786 -19.947  1.00  0.00     0.012 C 
ENDBRANCH   5  25
ENDBRANCH   1   5
BRANCH   3  28
HETATM   28  C12 UNL     1       4.869 -11.016 -22.898  1.00  0.00     0.172 C 
HETATM   29  C13 UNL     1       3.874 -10.266 -23.790  1.00  0.00     0.042 C 
BRANCH  28  30
HETATM   30  C14 UNL     1       6.168 -11.151 -23.555  1.00  0.00     0.240 C 
HETATM   31  O4  UNL     1       7.193 -10.695 -22.994  1.00  0.00    -0.271 OA
HETATM   32  N5  UNL     1       6.288 -11.776 -24.802  1.00  0.00    -0.346 N 
ATOM     33  H5  UNL     1       5.444 -12.131 -25.252  1.00  0.00     0.163 HD
BRANCH  32  34
HETATM   34  C15 UNL     1       7.561 -11.943 -25.483  1.00  0.00     0.177 C 
BRANCH  34  35
HETATM   35  C16 UNL     1       7.443 -11.640 -26.951  1.00  0.00     0.038 C 
BRANCH  35  36
HETATM   36  C17 UNL     1       6.162 -11.117 -27.453  1.00  0.00    -0.020 C 
HETATM   37  C18 UNL     1       5.540 -11.795 -28.622  1.00  0.00     0.009 C 
HETATM   38  C19 UNL     1       6.421  -9.657 -27.874  1.00  0.00     0.009 C 
ENDBRANCH  35  36
ENDBRANCH  34  35
BRANCH  34  39
HETATM   39  C20 UNL     1       8.124 -13.243 -25.145  1.00  0.00     0.241 C 
HETATM   40  O5  UNL     1       8.257 -14.123 -26.032  1.00  0.00    -0.271 OA
HETATM   41  N6  UNL     1       8.534 -13.558 -23.829  1.00  0.00    -0.346 N 
ATOM     42  H6  UNL     1       8.404 -12.835 -23.122  1.00  0.00     0.163 HD
BRANCH  41  43
HETATM   43  C21 UNL     1       9.112 -14.791 -23.390  1.00  0.00     0.177 C 
BRANCH  43  44
HETATM   44  C22 UNL     1      10.342 -14.504 -22.645  1.00  0.00     0.254 C 
HETATM   45  N7  UNL     1      11.352 -13.712 -23.231  1.00  0.00    -0.060 NA
HETATM   46  O6  UNL     1      10.510 -14.953 -21.493  1.00  0.00    -0.275 OA
ENDBRANCH  43  44
BRANCH  43  47
HETATM   47  C23 UNL     1       8.080 -15.514 -22.541  1.00  0.00     0.009 C 
HETATM   48  C24 UNL     1       7.879 -16.929 -23.029  1.00  0.00     0.012 C 
HETATM   49  C25 UNL     1       6.758 -14.836 -22.451  1.00  0.00     0.012 C 
ENDBRANCH  43  47
ENDBRANCH  41  43
ENDBRANCH  34  39
ENDBRANCH  32  34
ENDBRANCH  28  30
ENDBRANCH   3  28
TORSDOF 18
ENDMDL
