MODEL 1
REMARK VINA RESULT: -6.996764785      0.000      0.000
REMARK  8 active torsions:
REMARK  status: ('A' for Active; 'I' for Inactive)
REMARK       I    between atoms: C2_2  and  N1_4 
REMARK    1  A    between atoms: N1_4  and  C3_6 
REMARK    2  A    between atoms: C6_13  and  C7_14 
REMARK    3  A    between atoms: C7_14  and  C8_15 
REMARK    4  A    between atoms: C8_15  and  O3_16 
REMARK    5  A    between atoms: O3_16  and  C9_17 
REMARK    6  A    between atoms: C14_22  and  C15_23 
REMARK    7  A    between atoms: C15_23  and  C16_24 
REMARK    8  A    between atoms: C16_24  and  C17_25 
ROOT
HETATM    1  C17 UNL     1      33.619  96.413  27.917  1.00  0.00     0.151 C 
HETATM    2  C18 UNL     1      33.231  96.899  29.244  1.00  0.00     0.062 C 
HETATM    3  N3  UNL     1      32.946  97.289  30.293  1.00  0.00    -0.197 NA
ENDROOT
BRANCH   1   4
HETATM    4  C16 UNL     1      33.495  97.388  26.825  1.00  0.00    -0.012 C 
BRANCH   4   5
HETATM    5  C15 UNL     1      32.236  97.735  26.214  1.00  0.00     0.002 C 
BRANCH   5   6
HETATM    6  C14 UNL     1      31.119  98.224  26.613  1.00  0.00    -0.052 C 
HETATM    7  C9  UNL     1      29.999  97.221  26.929  1.00  0.00     0.150 C 
HETATM    8  C10 UNL     1      28.919  97.548  25.921  1.00  0.00     0.036 C 
HETATM    9  C11 UNL     1      28.463  98.962  25.965  1.00  0.00     0.003 C 
HETATM   10  C12 UNL     1      29.529  99.992  26.014  1.00  0.00     0.004 C 
HETATM   11  C13 UNL     1      30.721  99.587  26.872  1.00  0.00     0.037 C 
BRANCH   7  12
HETATM   12  O3  UNL     1      29.601  97.538  28.224  1.00  0.00    -0.381 OA
BRANCH  12  13
HETATM   13  C8  UNL     1      29.491  96.442  29.044  1.00  0.00     0.173 C 
BRANCH  13  14
HETATM   14  C7  UNL     1      28.072  96.083  29.386  1.00  0.00     0.072 C 
BRANCH  14  15
HETATM   15  C6  UNL     1      27.613  95.054  28.382  1.00  0.00    -0.012 A 
HETATM   16  S1  UNL     1      26.530  95.247  27.075  1.00  0.00    -0.087 SA
HETATM   17  C5  UNL     1      26.557  93.657  26.464  1.00  0.00     0.101 A 
HETATM   18  C4  UNL     1      25.926  93.004  25.393  1.00  0.00     0.279 A 
HETATM   19  C20 UNL     1      27.420  93.012  27.307  1.00  0.00     0.072 A 
HETATM   20  N2  UNL     1      26.159  91.694  25.160  1.00  0.00    -0.155 N 
HETATM   21  O2  UNL     1      25.157  93.684  24.685  1.00  0.00    -0.266 OA
HETATM   22  C3  UNL     1      27.007  91.103  26.004  1.00  0.00     0.688 A 
ATOM     23  H2  UNL     1      25.717  91.190  24.391  1.00  0.00     0.187 HD
HETATM   24  N4  UNL     1      27.623  91.677  27.025  1.00  0.00    -0.190 N 
ATOM     25  H4  UNL     1      28.254  91.128  27.608  1.00  0.00     0.184 HD
HETATM   26  C19 UNL     1      27.966  93.738  28.297  1.00  0.00     0.046 A 
BRANCH  22  27
HETATM   27  N1  UNL     1      27.237  89.831  25.782  1.00  0.00    -0.160 N 
HETATM   28  C2  UNL     1      28.532  89.311  25.661  1.00  0.00     0.231 C 
HETATM   29  C1  UNL     1      29.019  88.912  24.309  1.00  0.00     0.118 C 
HETATM   30  O1  UNL     1      29.303  89.171  26.666  1.00  0.00    -0.273 OA
ATOM     31  H1  UNL     1      26.444  89.196  25.694  1.00  0.00     0.187 HD
ENDBRANCH  22  27
ENDBRANCH  14  15
ENDBRANCH  13  14
ENDBRANCH  12  13
ENDBRANCH   7  12
ENDBRANCH   5   6
ENDBRANCH   4   5
ENDBRANCH   1   4
TORSDOF 8
ENDMDL
MODEL 2
REMARK VINA RESULT: -6.984360179      3.011      3.396
REMARK  8 active torsions:
REMARK  status: ('A' for Active; 'I' for Inactive)
REMARK       I    between atoms: C2_2  and  N1_4 
REMARK    1  A    between atoms: N1_4  and  C3_6 
REMARK    2  A    between atoms: C6_13  and  C7_14 
REMARK    3  A    between atoms: C7_14  and  C8_15 
REMARK    4  A    between atoms: C8_15  and  O3_16 
REMARK    5  A    between atoms: O3_16  and  C9_17 
REMARK    6  A    between atoms: C14_22  and  C15_23 
REMARK    7  A    between atoms: C15_23  and  C16_24 
REMARK    8  A    between atoms: C16_24  and  C17_25 
ROOT
HETATM    1  C17 UNL     1      33.738  96.892  27.906  1.00  0.00     0.151 C 
HETATM    2  C18 UNL     1      35.077  97.161  28.436  1.00  0.00     0.062 C 
HETATM    3  N3  UNL     1      36.140  97.355  28.844  1.00  0.00    -0.197 NA
ENDROOT
BRANCH   1   4
HETATM    4  C16 UNL     1      33.432  97.519  26.612  1.00  0.00    -0.012 C 
BRANCH   4   5
HETATM    5  C15 UNL     1      32.092  97.669  26.104  1.00  0.00     0.002 C 
BRANCH   5   6
HETATM    6  C14 UNL     1      31.002  98.207  26.515  1.00  0.00    -0.052 C 
HETATM    7  C9  UNL     1      29.866  97.251  26.911  1.00  0.00     0.150 C 
HETATM    8  C10 UNL     1      28.763  97.564  25.923  1.00  0.00     0.036 C 
HETATM    9  C11 UNL     1      28.348  98.991  25.918  1.00  0.00     0.003 C 
HETATM   10  C12 UNL     1      29.442  99.991  25.886  1.00  0.00     0.004 C 
HETATM   11  C13 UNL     1      30.650  99.591  26.725  1.00  0.00     0.037 C 
BRANCH   7  12
HETATM   12  O3  UNL     1      29.520  97.636  28.202  1.00  0.00    -0.381 OA
BRANCH  12  13
HETATM   13  C8  UNL     1      29.218  96.578  29.024  1.00  0.00     0.173 C 
BRANCH  13  14
HETATM   14  C7  UNL     1      30.425  95.922  29.632  1.00  0.00     0.072 C 
BRANCH  14  15
HETATM   15  C6  UNL     1      30.528  94.535  29.044  1.00  0.00    -0.012 A 
HETATM   16  S1  UNL     1      29.766  93.096  29.565  1.00  0.00    -0.087 SA
HETATM   17  C5  UNL     1      30.391  92.023  28.398  1.00  0.00     0.101 A 
HETATM   18  C4  UNL     1      30.240  90.650  28.145  1.00  0.00     0.279 A 
HETATM   19  C20 UNL     1      31.185  92.826  27.627  1.00  0.00     0.072 A 
HETATM   20  N2  UNL     1      30.889  90.072  27.111  1.00  0.00    -0.155 N 
HETATM   21  O2  UNL     1      29.492  90.008  28.910  1.00  0.00    -0.266 OA
HETATM   22  C3  UNL     1      31.652  90.890  26.384  1.00  0.00     0.688 A 
ATOM     23  H2  UNL     1      30.801  89.078  26.899  1.00  0.00     0.187 HD
HETATM   24  N4  UNL     1      31.824  92.186  26.585  1.00  0.00    -0.190 N 
ATOM     25  H4  UNL     1      32.433  92.718  25.964  1.00  0.00     0.184 HD
HETATM   26  C19 UNL     1      31.253  94.125  27.963  1.00  0.00     0.046 A 
BRANCH  22  27
HETATM   27  N1  UNL     1      32.284  90.334  25.377  1.00  0.00    -0.160 N 
HETATM   28  C2  UNL     1      31.926  90.567  24.043  1.00  0.00     0.231 C 
HETATM   29  C1  UNL     1      31.230  89.484  23.290  1.00  0.00     0.118 C 
HETATM   30  O1  UNL     1      32.174  91.671  23.458  1.00  0.00    -0.273 OA
ATOM     31  H1  UNL     1      33.066  89.709  25.573  1.00  0.00     0.187 HD
ENDBRANCH  22  27
ENDBRANCH  14  15
ENDBRANCH  13  14
ENDBRANCH  12  13
ENDBRANCH   7  12
ENDBRANCH   5   6
ENDBRANCH   4   5
ENDBRANCH   1   4
TORSDOF 8
ENDMDL
MODEL 3
REMARK VINA RESULT: -6.972234714      1.870      2.192
REMARK  8 active torsions:
REMARK  status: ('A' for Active; 'I' for Inactive)
REMARK       I    between atoms: C2_2  and  N1_4 
REMARK    1  A    between atoms: N1_4  and  C3_6 
REMARK    2  A    between atoms: C6_13  and  C7_14 
REMARK    3  A    between atoms: C7_14  and  C8_15 
REMARK    4  A    between atoms: C8_15  and  O3_16 
REMARK    5  A    between atoms: O3_16  and  C9_17 
REMARK    6  A    between atoms: C14_22  and  C15_23 
REMARK    7  A    between atoms: C15_23  and  C16_24 
REMARK    8  A    between atoms: C16_24  and  C17_25 
ROOT
HETATM    1  C17 UNL     1      33.821  97.280  27.337  1.00  0.00     0.151 C 
HETATM    2  C18 UNL     1      33.279  97.273  28.698  1.00  0.00     0.062 C 
HETATM    3  N3  UNL     1      32.849  97.290  29.770  1.00  0.00    -0.197 NA
ENDROOT
BRANCH   1   4
HETATM    4  C16 UNL     1      32.830  97.143  26.260  1.00  0.00    -0.012 C 
BRANCH   4   5
HETATM    5  C15 UNL     1      31.851  98.156  25.955  1.00  0.00     0.002 C 
BRANCH   5   6
HETATM    6  C14 UNL     1      30.714  98.515  26.429  1.00  0.00    -0.052 C 
HETATM    7  C9  UNL     1      29.742  97.391  26.821  1.00  0.00     0.150 C 
HETATM    8  C10 UNL     1      28.566  97.581  25.888  1.00  0.00     0.036 C 
HETATM    9  C11 UNL     1      27.952  98.934  25.963  1.00  0.00     0.003 C 
HETATM   10  C12 UNL     1      28.892 100.080  25.937  1.00  0.00     0.004 C 
HETATM   11  C13 UNL     1      30.178  99.824  26.713  1.00  0.00     0.037 C 
BRANCH   7  12
HETATM   12  O3  UNL     1      29.399  97.671  28.140  1.00  0.00    -0.381 OA
BRANCH  12  13
HETATM   13  C8  UNL     1      29.434  96.569  28.958  1.00  0.00     0.173 C 
BRANCH  13  14
HETATM   14  C7  UNL     1      28.133  95.820  29.019  1.00  0.00     0.072 C 
BRANCH  14  15
HETATM   15  C6  UNL     1      28.328  94.518  28.281  1.00  0.00    -0.012 A 
HETATM   16  S1  UNL     1      27.165  93.330  27.886  1.00  0.00    -0.087 SA
HETATM   17  C5  UNL     1      28.174  92.219  27.080  1.00  0.00     0.101 A 
HETATM   18  C4  UNL     1      27.970  90.977  26.457  1.00  0.00     0.279 A 
HETATM   19  C20 UNL     1      29.405  92.813  27.143  1.00  0.00     0.072 A 
HETATM   20  N2  UNL     1      29.006  90.321  25.890  1.00  0.00    -0.155 N 
HETATM   21  O2  UNL     1      26.808  90.525  26.457  1.00  0.00    -0.266 OA
HETATM   22  C3  UNL     1      30.187  90.933  25.972  1.00  0.00     0.688 A 
ATOM     23  H2  UNL     1      28.891  89.418  25.430  1.00  0.00     0.187 HD
HETATM   24  N4  UNL     1      30.426  92.101  26.548  1.00  0.00    -0.190 N 
ATOM     25  H4  UNL     1      31.374  92.478  26.552  1.00  0.00     0.184 HD
HETATM   26  C19 UNL     1      29.481  94.002  27.763  1.00  0.00     0.046 A 
BRANCH  22  27
HETATM   27  N1  UNL     1      31.197  90.300  25.422  1.00  0.00    -0.160 N 
HETATM   28  C2  UNL     1      31.549  90.472  24.078  1.00  0.00     0.231 C 
HETATM   29  C1  UNL     1      31.247  89.374  23.114  1.00  0.00     0.118 C 
HETATM   30  O1  UNL     1      32.116  91.532  23.656  1.00  0.00    -0.273 OA
ATOM     31  H1  UNL     1      31.745  89.660  25.995  1.00  0.00     0.187 HD
ENDBRANCH  22  27
ENDBRANCH  14  15
ENDBRANCH  13  14
ENDBRANCH  12  13
ENDBRANCH   7  12
ENDBRANCH   5   6
ENDBRANCH   4   5
ENDBRANCH   1   4
TORSDOF 8
ENDMDL
MODEL 4
REMARK VINA RESULT: -6.856494342      3.947      7.232
REMARK  8 active torsions:
REMARK  status: ('A' for Active; 'I' for Inactive)
REMARK       I    between atoms: C2_2  and  N1_4 
REMARK    1  A    between atoms: N1_4  and  C3_6 
REMARK    2  A    between atoms: C6_13  and  C7_14 
REMARK    3  A    between atoms: C7_14  and  C8_15 
REMARK    4  A    between atoms: C8_15  and  O3_16 
REMARK    5  A    between atoms: O3_16  and  C9_17 
REMARK    6  A    between atoms: C14_22  and  C15_23 
REMARK    7  A    between atoms: C15_23  and  C16_24 
REMARK    8  A    between atoms: C16_24  and  C17_25 
ROOT
HETATM    1  C17 UNL     1      30.921  98.723  26.935  1.00  0.00     0.151 C 
HETATM    2  C18 UNL     1      32.198  98.115  26.552  1.00  0.00     0.062 C 
HETATM    3  N3  UNL     1      33.212  97.639  26.271  1.00  0.00    -0.197 NA
ENDROOT
BRANCH   1   4
HETATM    4  C16 UNL     1      29.912  97.795  27.466  1.00  0.00    -0.012 C 
BRANCH   4   5
HETATM    5  C15 UNL     1      29.299  96.758  26.676  1.00  0.00     0.002 C 
BRANCH   5   6
HETATM    6  C14 UNL     1      28.471  95.800  26.889  1.00  0.00    -0.052 C 
HETATM    7  C9  UNL     1      28.576  94.578  25.965  1.00  0.00     0.150 C 
HETATM    8  C10 UNL     1      27.250  94.555  25.236  1.00  0.00     0.036 C 
HETATM    9  C11 UNL     1      26.069  94.503  26.139  1.00  0.00     0.003 C 
HETATM   10  C12 UNL     1      26.076  95.449  27.280  1.00  0.00     0.004 C 
HETATM   11  C13 UNL     1      27.455  95.635  27.901  1.00  0.00     0.037 C 
BRANCH   7  12
HETATM   12  O3  UNL     1      28.702  93.496  26.831  1.00  0.00    -0.381 OA
BRANCH  12  13
HETATM   13  C8  UNL     1      30.005  93.129  27.058  1.00  0.00     0.173 C 
BRANCH  13  14
HETATM   14  C7  UNL     1      30.351  92.998  28.515  1.00  0.00     0.072 C 
BRANCH  14  15
HETATM   15  C6  UNL     1      31.438  94.001  28.813  1.00  0.00    -0.012 A 
HETATM   16  S1  UNL     1      31.453  95.240  29.991  1.00  0.00    -0.087 SA
HETATM   17  C5  UNL     1      32.995  95.893  29.676  1.00  0.00     0.101 A 
HETATM   18  C4  UNL     1      33.748  96.944  30.224  1.00  0.00     0.279 A 
HETATM   19  C20 UNL     1      33.460  95.118  28.649  1.00  0.00     0.072 A 
HETATM   20  N2  UNL     1      34.978  97.225  29.742  1.00  0.00    -0.155 N 
HETATM   21  O2  UNL     1      33.230  97.589  31.158  1.00  0.00    -0.266 OA
HETATM   22  C3  UNL     1      35.394  96.446  28.742  1.00  0.00     0.688 A 
ATOM     23  H2  UNL     1      35.551  97.981  30.117  1.00  0.00     0.187 HD
HETATM   24  N4  UNL     1      34.720  95.447  28.196  1.00  0.00    -0.190 N 
ATOM     25  H4  UNL     1      35.137  94.915  27.432  1.00  0.00     0.184 HD
HETATM   26  C19 UNL     1      32.653  94.140  28.206  1.00  0.00     0.046 A 
BRANCH  22  27
HETATM   27  N1  UNL     1      36.589  96.714  28.270  1.00  0.00    -0.160 N 
HETATM   28  C2  UNL     1      37.585  95.738  28.150  1.00  0.00     0.231 C 
HETATM   29  C1  UNL     1      38.729  95.761  29.107  1.00  0.00     0.118 C 
HETATM   30  O1  UNL     1      37.545  94.835  27.252  1.00  0.00    -0.273 OA
ATOM     31  H1  UNL     1      36.799  97.669  27.981  1.00  0.00     0.187 HD
ENDBRANCH  22  27
ENDBRANCH  14  15
ENDBRANCH  13  14
ENDBRANCH  12  13
ENDBRANCH   7  12
ENDBRANCH   5   6
ENDBRANCH   4   5
ENDBRANCH   1   4
TORSDOF 8
ENDMDL
MODEL 5
REMARK VINA RESULT: -6.761425769      3.561      5.792
REMARK  8 active torsions:
REMARK  status: ('A' for Active; 'I' for Inactive)
REMARK       I    between atoms: C2_2  and  N1_4 
REMARK    1  A    between atoms: N1_4  and  C3_6 
REMARK    2  A    between atoms: C6_13  and  C7_14 
REMARK    3  A    between atoms: C7_14  and  C8_15 
REMARK    4  A    between atoms: C8_15  and  O3_16 
REMARK    5  A    between atoms: O3_16  and  C9_17 
REMARK    6  A    between atoms: C14_22  and  C15_23 
REMARK    7  A    between atoms: C15_23  and  C16_24 
REMARK    8  A    between atoms: C16_24  and  C17_25 
ROOT
HETATM    1  C17 UNL     1      28.998 100.207  25.929  1.00  0.00     0.151 C 
HETATM    2  C18 UNL     1      28.017  99.124  25.818  1.00  0.00     0.062 C 
HETATM    3  N3  UNL     1      27.245  98.272  25.709  1.00  0.00    -0.197 NA
ENDROOT
BRANCH   1   4
HETATM    4  C16 UNL     1      30.397  99.781  26.067  1.00  0.00    -0.012 C 
BRANCH   4   5
HETATM    5  C15 UNL     1      30.817  98.724  26.952  1.00  0.00     0.002 C 
BRANCH   5   6
HETATM    6  C14 UNL     1      31.635  97.736  26.890  1.00  0.00    -0.052 C 
HETATM    7  C9  UNL     1      31.263  96.479  27.692  1.00  0.00     0.150 C 
HETATM    8  C10 UNL     1      32.371  96.356  28.715  1.00  0.00     0.036 C 
HETATM    9  C11 UNL     1      33.732  96.285  28.120  1.00  0.00     0.003 C 
HETATM   10  C12 UNL     1      34.037  97.281  27.065  1.00  0.00     0.004 C 
HETATM   11  C13 UNL     1      32.858  97.565  26.143  1.00  0.00     0.037 C 
BRANCH   7  12
HETATM   12  O3  UNL     1      31.308  95.446  26.762  1.00  0.00    -0.381 OA
BRANCH  12  13
HETATM   13  C8  UNL     1      30.221  94.609  26.824  1.00  0.00     0.173 C 
BRANCH  13  14
HETATM   14  C7  UNL     1      28.924  95.273  26.455  1.00  0.00     0.072 C 
BRANCH  14  15
HETATM   15  C6  UNL     1      27.882  94.806  27.441  1.00  0.00    -0.012 A 
HETATM   16  S1  UNL     1      27.197  93.249  27.613  1.00  0.00    -0.087 SA
HETATM   17  C5  UNL     1      26.140  93.560  28.913  1.00  0.00     0.101 A 
HETATM   18  C4  UNL     1      25.223  92.786  29.642  1.00  0.00     0.279 A 
HETATM   19  C20 UNL     1      26.353  94.885  29.180  1.00  0.00     0.072 A 
HETATM   20  N2  UNL     1      24.512  93.339  30.648  1.00  0.00    -0.155 N 
HETATM   21  O2  UNL     1      25.105  91.587  29.317  1.00  0.00    -0.266 OA
HETATM   22  C3  UNL     1      24.749  94.632  30.876  1.00  0.00     0.688 A 
ATOM     23  H2  UNL     1      23.838  92.805  31.196  1.00  0.00     0.187 HD
HETATM   24  N4  UNL     1      25.602  95.399  30.216  1.00  0.00    -0.190 N 
ATOM     25  H4  UNL     1      25.705  96.380  30.476  1.00  0.00     0.184 HD
HETATM   26  C19 UNL     1      27.255  95.526  28.418  1.00  0.00     0.046 A 
BRANCH  22  27
HETATM   27  N1  UNL     1      24.061  95.174  31.852  1.00  0.00    -0.160 N 
HETATM   28  C2  UNL     1      23.835  96.554  31.936  1.00  0.00     0.231 C 
HETATM   29  C1  UNL     1      24.577  97.338  32.966  1.00  0.00     0.118 C 
HETATM   30  O1  UNL     1      23.020  97.155  31.164  1.00  0.00    -0.273 OA
ATOM     31  H1  UNL     1      23.676  94.568  32.577  1.00  0.00     0.187 HD
ENDBRANCH  22  27
ENDBRANCH  14  15
ENDBRANCH  13  14
ENDBRANCH  12  13
ENDBRANCH   7  12
ENDBRANCH   5   6
ENDBRANCH   4   5
ENDBRANCH   1   4
TORSDOF 8
ENDMDL
