MODEL 1
REMARK VINA RESULT: -6.311541320      0.000      0.000
REMARK  10 active torsions:
REMARK  status: ('A' for Active; 'I' for Inactive)
REMARK    1  A    between atoms: C2_2  and  O1_3 
REMARK    2  A    between atoms: O1_3  and  C3_4 
REMARK    3  A    between atoms: C3_4  and  C4_6 
REMARK    4  A    between atoms: C4_6  and  C5_7 
REMARK    5  A    between atoms: C5_7  and  N1_8 
REMARK    6  A    between atoms: C5_7  and  C14_24 
REMARK    7  A    between atoms: N1_8  and  C6_10 
REMARK    8  A    between atoms: C6_10  and  N2_12 
REMARK    9  A    between atoms: N2_12  and  C7_14 
REMARK   10  A    between atoms: C12_20  and  O3_21 
ROOT
HETATM    1  C7  UNL     1     -29.549  13.597 -92.895  1.00  0.00     0.036 A 
HETATM    2  C8  UNL     1     -29.457  14.866 -93.379  1.00  0.00     0.031 A 
HETATM    3  C9  UNL     1     -28.262  15.352 -93.932  1.00  0.00     0.028 A 
HETATM    4  C10 UNL     1     -27.148  14.536 -93.989  1.00  0.00     0.077 A 
HETATM    5  C11 UNL     1     -25.893  14.991 -94.550  1.00  0.00     0.102 C 
HETATM    6  N3  UNL     1     -24.889  15.353 -95.014  1.00  0.00    -0.191 NA
HETATM    7  C12 UNL     1     -27.228  13.257 -93.504  1.00  0.00     0.088 A 
HETATM    8  C13 UNL     1     -28.410  12.797 -92.966  1.00  0.00     0.067 A 
ENDROOT
BRANCH   7   9
HETATM    9  O3  UNL     1     -26.103  12.451 -93.569  1.00  0.00    -0.359 OA
ATOM     10  H3  UNL     1     -26.181  11.540 -93.312  1.00  0.00     0.217 HD
ENDBRANCH   7   9
BRANCH   1  11
HETATM   11  N2  UNL     1     -30.727  13.058 -92.365  1.00  0.00    -0.333 N 
ATOM     12  H2  UNL     1     -31.128  12.283 -92.893  1.00  0.00     0.168 HD
BRANCH  11  13
HETATM   13  C6  UNL     1     -31.435  13.426 -91.215  1.00  0.00     0.172 C 
HETATM   14  S1  UNL     1     -33.083  13.591 -91.368  1.00  0.00    -0.041 SA
BRANCH  13  15
HETATM   15  N1  UNL     1     -30.918  13.700 -89.940  1.00  0.00    -0.358 N 
ATOM     16  H1  UNL     1     -30.837  14.678 -89.663  1.00  0.00     0.162 HD
BRANCH  15  17
HETATM   17  C5  UNL     1     -30.486  12.688 -88.982  1.00  0.00     0.147 C 
BRANCH  17  18
HETATM   18  C4  UNL     1     -29.059  12.295 -89.091  1.00  0.00     0.140 C 
BRANCH  18  19
HETATM   19  C3  UNL     1     -28.757  11.118 -89.906  1.00  0.00     0.260 C 
HETATM   20  O2  UNL     1     -29.666  10.564 -90.564  1.00  0.00    -0.265 OA
BRANCH  19  21
HETATM   21  O1  UNL     1     -27.495  10.559 -89.999  1.00  0.00    -0.322 OA
BRANCH  21  22
HETATM   22  C2  UNL     1     -26.343  11.383 -90.210  1.00  0.00     0.174 C 
HETATM   23  C1  UNL     1     -25.169  10.535 -90.584  1.00  0.00     0.034 C 
ENDBRANCH  21  22
ENDBRANCH  19  21
ENDBRANCH  18  19
ENDBRANCH  17  18
BRANCH  17  24
HETATM   24  C14 UNL     1     -30.993  12.976 -87.603  1.00  0.00     0.208 C 
HETATM   25 CL1  UNL     1     -30.518  11.666 -86.511  1.00  0.00    -0.082 Cl
HETATM   26 CL2  UNL     1     -32.794  12.851 -87.727  1.00  0.00    -0.082 Cl
HETATM   27 CL3  UNL     1     -30.649  14.581 -86.996  1.00  0.00    -0.082 Cl
ENDBRANCH  17  24
ENDBRANCH  15  17
ENDBRANCH  13  15
ENDBRANCH  11  13
ENDBRANCH   1  11
TORSDOF 10
ENDMDL
MODEL 2
REMARK VINA RESULT: -6.299354009      3.062      4.922
REMARK  10 active torsions:
REMARK  status: ('A' for Active; 'I' for Inactive)
REMARK    1  A    between atoms: C2_2  and  O1_3 
REMARK    2  A    between atoms: O1_3  and  C3_4 
REMARK    3  A    between atoms: C3_4  and  C4_6 
REMARK    4  A    between atoms: C4_6  and  C5_7 
REMARK    5  A    between atoms: C5_7  and  N1_8 
REMARK    6  A    between atoms: C5_7  and  C14_24 
REMARK    7  A    between atoms: N1_8  and  C6_10 
REMARK    8  A    between atoms: C6_10  and  N2_12 
REMARK    9  A    between atoms: N2_12  and  C7_14 
REMARK   10  A    between atoms: C12_20  and  O3_21 
ROOT
HETATM    1  C7  UNL     1     -28.737  12.430 -89.339  1.00  0.00     0.036 A 
HETATM    2  C8  UNL     1     -29.146  11.134 -89.415  1.00  0.00     0.031 A 
HETATM    3  C9  UNL     1     -28.304  10.131 -89.918  1.00  0.00     0.028 A 
HETATM    4  C10 UNL     1     -27.031  10.453 -90.350  1.00  0.00     0.077 A 
HETATM    5  C11 UNL     1     -26.125   9.453 -90.876  1.00  0.00     0.102 C 
HETATM    6  N3  UNL     1     -25.392   8.648 -91.285  1.00  0.00    -0.191 NA
HETATM    7  C12 UNL     1     -26.608  11.754 -90.279  1.00  0.00     0.088 A 
HETATM    8  C13 UNL     1     -27.449  12.726 -89.782  1.00  0.00     0.067 A 
ENDROOT
BRANCH   7   9
HETATM    9  O3  UNL     1     -25.330  12.061 -90.715  1.00  0.00    -0.359 OA
ATOM     10  H3  UNL     1     -25.102  12.973 -90.852  1.00  0.00     0.217 HD
ENDBRANCH   7   9
BRANCH   1  11
HETATM   11  N2  UNL     1     -29.529  13.459 -88.815  1.00  0.00    -0.333 N 
ATOM     12  H2  UNL     1     -29.356  13.688 -87.837  1.00  0.00     0.168 HD
BRANCH  11  13
HETATM   13  C6  UNL     1     -30.524  14.220 -89.439  1.00  0.00     0.172 C 
HETATM   14  S1  UNL     1     -31.363  15.290 -88.480  1.00  0.00    -0.041 SA
BRANCH  13  15
HETATM   15  N1  UNL     1     -30.923  14.175 -90.783  1.00  0.00    -0.358 N 
ATOM     16  H1  UNL     1     -31.778  13.667 -91.006  1.00  0.00     0.162 HD
BRANCH  15  17
HETATM   17  C5  UNL     1     -30.202  14.801 -91.886  1.00  0.00     0.147 C 
BRANCH  17  18
HETATM   18  C4  UNL     1     -30.128  13.986 -93.124  1.00  0.00     0.140 C 
BRANCH  18  19
HETATM   19  C3  UNL     1     -29.302  12.779 -93.073  1.00  0.00     0.260 C 
HETATM   20  O2  UNL     1     -29.798  11.699 -92.680  1.00  0.00    -0.265 OA
BRANCH  19  21
HETATM   21  O1  UNL     1     -27.968  12.751 -93.442  1.00  0.00    -0.322 OA
BRANCH  21  22
HETATM   22  C2  UNL     1     -27.513  13.467 -94.595  1.00  0.00     0.174 C 
HETATM   23  C1  UNL     1     -26.569  14.552 -94.183  1.00  0.00     0.034 C 
ENDBRANCH  21  22
ENDBRANCH  19  21
ENDBRANCH  18  19
ENDBRANCH  17  18
BRANCH  17  24
HETATM   24  C14 UNL     1     -30.588  16.238 -92.059  1.00  0.00     0.208 C 
HETATM   25 CL1  UNL     1     -32.337  16.412 -91.852  1.00  0.00    -0.082 Cl
HETATM   26 CL2  UNL     1     -30.285  16.601 -93.806  1.00  0.00    -0.082 Cl
HETATM   27 CL3  UNL     1     -29.636  17.385 -91.142  1.00  0.00    -0.082 Cl
ENDBRANCH  17  24
ENDBRANCH  15  17
ENDBRANCH  13  15
ENDBRANCH  11  13
ENDBRANCH   1  11
TORSDOF 10
ENDMDL
MODEL 3
REMARK VINA RESULT: -6.288934533      4.066      5.481
REMARK  10 active torsions:
REMARK  status: ('A' for Active; 'I' for Inactive)
REMARK    1  A    between atoms: C2_2  and  O1_3 
REMARK    2  A    between atoms: O1_3  and  C3_4 
REMARK    3  A    between atoms: C3_4  and  C4_6 
REMARK    4  A    between atoms: C4_6  and  C5_7 
REMARK    5  A    between atoms: C5_7  and  N1_8 
REMARK    6  A    between atoms: C5_7  and  C14_24 
REMARK    7  A    between atoms: N1_8  and  C6_10 
REMARK    8  A    between atoms: C6_10  and  N2_12 
REMARK    9  A    between atoms: N2_12  and  C7_14 
REMARK   10  A    between atoms: C12_20  and  O3_21 
ROOT
HETATM    1  C7  UNL     1     -30.384  14.622 -91.237  1.00  0.00     0.036 A 
HETATM    2  C8  UNL     1     -30.194  15.949 -90.998  1.00  0.00     0.031 A 
HETATM    3  C9  UNL     1     -30.957  16.926 -91.656  1.00  0.00     0.028 A 
HETATM    4  C10 UNL     1     -31.921  16.546 -92.570  1.00  0.00     0.077 A 
HETATM    5  C11 UNL     1     -32.734  17.516 -93.274  1.00  0.00     0.102 C 
HETATM    6  N3  UNL     1     -33.397  18.295 -93.828  1.00  0.00    -0.191 NA
HETATM    7  C12 UNL     1     -32.121  15.213 -92.820  1.00  0.00     0.088 A 
HETATM    8  C13 UNL     1     -31.363  14.268 -92.164  1.00  0.00     0.067 A 
ENDROOT
BRANCH   7   9
HETATM    9  O3  UNL     1     -33.092  14.849 -93.738  1.00  0.00    -0.359 OA
ATOM     10  H3  UNL     1     -32.944  15.040 -94.656  1.00  0.00     0.217 HD
ENDBRANCH   7   9
BRANCH   1  11
HETATM   11  N2  UNL     1     -29.670  13.611 -90.582  1.00  0.00    -0.333 N 
ATOM     12  H2  UNL     1     -29.595  13.716 -89.570  1.00  0.00     0.168 HD
BRANCH  11  13
HETATM   13  C6  UNL     1     -29.043  12.478 -91.112  1.00  0.00     0.172 C 
HETATM   14  S1  UNL     1     -28.988  11.128 -90.142  1.00  0.00    -0.041 SA
BRANCH  13  15
HETATM   15  N1  UNL     1     -28.428  12.345 -92.366  1.00  0.00    -0.358 N 
ATOM     16  H1  UNL     1     -28.637  11.507 -92.908  1.00  0.00     0.162 HD
BRANCH  15  17
HETATM   17  C5  UNL     1     -27.513  13.318 -92.951  1.00  0.00     0.147 C 
BRANCH  17  18
HETATM   18  C4  UNL     1     -26.081  12.930 -92.909  1.00  0.00     0.140 C 
BRANCH  18  19
HETATM   19  C3  UNL     1     -25.649  12.116 -91.772  1.00  0.00     0.260 C 
HETATM   20  O2  UNL     1     -25.207  12.668 -90.740  1.00  0.00    -0.265 OA
BRANCH  19  21
HETATM   21  O1  UNL     1     -25.700  10.732 -91.763  1.00  0.00    -0.322 OA
BRANCH  21  22
HETATM   22  C2  UNL     1     -25.364   9.996 -90.582  1.00  0.00     0.174 C 
HETATM   23  C1  UNL     1     -26.102   8.695 -90.564  1.00  0.00     0.034 C 
ENDBRANCH  21  22
ENDBRANCH  19  21
ENDBRANCH  18  19
ENDBRANCH  17  18
BRANCH  17  24
HETATM   24  C14 UNL     1     -28.021  13.844 -94.258  1.00  0.00     0.208 C 
HETATM   25 CL1  UNL     1     -26.696  13.900 -95.431  1.00  0.00    -0.082 Cl
HETATM   26 CL2  UNL     1     -28.438  15.576 -93.939  1.00  0.00    -0.082 Cl
HETATM   27 CL3  UNL     1     -29.480  13.086 -94.856  1.00  0.00    -0.082 Cl
ENDBRANCH  17  24
ENDBRANCH  15  17
ENDBRANCH  13  15
ENDBRANCH  11  13
ENDBRANCH   1  11
TORSDOF 10
ENDMDL
MODEL 4
REMARK VINA RESULT: -6.198337105      0.946      1.344
REMARK  10 active torsions:
REMARK  status: ('A' for Active; 'I' for Inactive)
REMARK    1  A    between atoms: C2_2  and  O1_3 
REMARK    2  A    between atoms: O1_3  and  C3_4 
REMARK    3  A    between atoms: C3_4  and  C4_6 
REMARK    4  A    between atoms: C4_6  and  C5_7 
REMARK    5  A    between atoms: C5_7  and  N1_8 
REMARK    6  A    between atoms: C5_7  and  C14_24 
REMARK    7  A    between atoms: N1_8  and  C6_10 
REMARK    8  A    between atoms: C6_10  and  N2_12 
REMARK    9  A    between atoms: N2_12  and  C7_14 
REMARK   10  A    between atoms: C12_20  and  O3_21 
ROOT
HETATM    1  C7  UNL     1     -29.477  13.584 -92.523  1.00  0.00     0.036 A 
HETATM    2  C8  UNL     1     -29.470  14.820 -93.092  1.00  0.00     0.031 A 
HETATM    3  C9  UNL     1     -28.359  15.288 -93.809  1.00  0.00     0.028 A 
HETATM    4  C10 UNL     1     -27.241  14.487 -93.945  1.00  0.00     0.077 A 
HETATM    5  C11 UNL     1     -26.070  14.925 -94.676  1.00  0.00     0.102 C 
HETATM    6  N3  UNL     1     -25.135  15.270 -95.276  1.00  0.00    -0.191 NA
HETATM    7  C12 UNL     1     -27.236  13.240 -93.376  1.00  0.00     0.088 A 
HETATM    8  C13 UNL     1     -28.337  12.798 -92.676  1.00  0.00     0.067 A 
ENDROOT
BRANCH   7   9
HETATM    9  O3  UNL     1     -26.108  12.449 -93.522  1.00  0.00    -0.359 OA
ATOM     10  H3  UNL     1     -25.830  12.211 -94.399  1.00  0.00     0.217 HD
ENDBRANCH   7   9
BRANCH   1  11
HETATM   11  N2  UNL     1     -30.574  13.062 -91.826  1.00  0.00    -0.333 N 
ATOM     12  H2  UNL     1     -31.061  12.296 -92.291  1.00  0.00     0.168 HD
BRANCH  11  13
HETATM   13  C6  UNL     1     -31.099  13.438 -90.584  1.00  0.00     0.172 C 
HETATM   14  S1  UNL     1     -32.372  14.509 -90.601  1.00  0.00    -0.041 SA
BRANCH  13  15
HETATM   15  N1  UNL     1     -30.665  13.037 -89.312  1.00  0.00    -0.358 N 
ATOM     16  H1  UNL     1     -30.213  13.737 -88.725  1.00  0.00     0.162 HD
BRANCH  15  17
HETATM   17  C5  UNL     1     -30.812  11.692 -88.768  1.00  0.00     0.147 C 
BRANCH  17  18
HETATM   18  C4  UNL     1     -29.535  10.974 -88.527  1.00  0.00     0.140 C 
BRANCH  18  19
HETATM   19  C3  UNL     1     -28.891  10.360 -89.688  1.00  0.00     0.260 C 
HETATM   20  O2  UNL     1     -29.455  10.393 -90.805  1.00  0.00    -0.265 OA
BRANCH  19  21
HETATM   21  O1  UNL     1     -27.661   9.728 -89.633  1.00  0.00    -0.322 OA
BRANCH  21  22
HETATM   22  C2  UNL     1     -26.589  10.135 -90.490  1.00  0.00     0.174 C 
HETATM   23  C1  UNL     1     -26.089  11.483 -90.077  1.00  0.00     0.034 C 
ENDBRANCH  21  22
ENDBRANCH  19  21
ENDBRANCH  18  19
ENDBRANCH  17  18
BRANCH  17  24
HETATM   24  C14 UNL     1     -31.820  11.646 -87.662  1.00  0.00     0.208 C 
HETATM   25 CL1  UNL     1     -31.268  12.652 -86.314  1.00  0.00    -0.082 Cl
HETATM   26 CL2  UNL     1     -31.755   9.949 -87.036  1.00  0.00    -0.082 Cl
HETATM   27 CL3  UNL     1     -33.477  11.932 -88.144  1.00  0.00    -0.082 Cl
ENDBRANCH  17  24
ENDBRANCH  15  17
ENDBRANCH  13  15
ENDBRANCH  11  13
ENDBRANCH   1  11
TORSDOF 10
ENDMDL
MODEL 5
REMARK VINA RESULT: -6.084260309      1.628      2.037
REMARK  10 active torsions:
REMARK  status: ('A' for Active; 'I' for Inactive)
REMARK    1  A    between atoms: C2_2  and  O1_3 
REMARK    2  A    between atoms: O1_3  and  C3_4 
REMARK    3  A    between atoms: C3_4  and  C4_6 
REMARK    4  A    between atoms: C4_6  and  C5_7 
REMARK    5  A    between atoms: C5_7  and  N1_8 
REMARK    6  A    between atoms: C5_7  and  C14_24 
REMARK    7  A    between atoms: N1_8  and  C6_10 
REMARK    8  A    between atoms: C6_10  and  N2_12 
REMARK    9  A    between atoms: N2_12  and  C7_14 
REMARK   10  A    between atoms: C12_20  and  O3_21 
ROOT
HETATM    1  C7  UNL     1     -29.730  13.279 -92.479  1.00  0.00     0.036 A 
HETATM    2  C8  UNL     1     -28.434  12.932 -92.245  1.00  0.00     0.031 A 
HETATM    3  C9  UNL     1     -27.418  13.242 -93.162  1.00  0.00     0.028 A 
HETATM    4  C10 UNL     1     -27.727  13.912 -94.331  1.00  0.00     0.077 A 
HETATM    5  C11 UNL     1     -26.714  14.255 -95.307  1.00  0.00     0.102 C 
HETATM    6  N3  UNL     1     -25.898  14.544 -96.084  1.00  0.00    -0.191 NA
HETATM    7  C12 UNL     1     -29.027  14.266 -94.577  1.00  0.00     0.088 A 
HETATM    8  C13 UNL     1     -30.011  13.953 -93.665  1.00  0.00     0.067 A 
ENDROOT
BRANCH   7   9
HETATM    9  O3  UNL     1     -29.321  14.938 -95.753  1.00  0.00    -0.359 OA
ATOM     10  H3  UNL     1     -28.614  15.119 -96.361  1.00  0.00     0.217 HD
ENDBRANCH   7   9
BRANCH   1  11
HETATM   11  N2  UNL     1     -30.771  13.019 -91.580  1.00  0.00    -0.333 N 
ATOM     12  H2  UNL     1     -31.520  12.428 -91.941  1.00  0.00     0.168 HD
BRANCH  11  13
HETATM   13  C6  UNL     1     -30.935  13.450 -90.259  1.00  0.00     0.172 C 
HETATM   14  S1  UNL     1     -31.708  14.905 -90.034  1.00  0.00    -0.041 SA
BRANCH  13  15
HETATM   15  N1  UNL     1     -30.501  12.811 -89.088  1.00  0.00    -0.358 N 
ATOM     16  H1  UNL     1     -29.834  13.308 -88.497  1.00  0.00     0.162 HD
BRANCH  15  17
HETATM   17  C5  UNL     1     -30.932  11.487 -88.653  1.00  0.00     0.147 C 
BRANCH  17  18
HETATM   18  C4  UNL     1     -29.833  10.517 -88.424  1.00  0.00     0.140 C 
BRANCH  18  19
HETATM   19  C3  UNL     1     -29.016  10.157 -89.583  1.00  0.00     0.260 C 
HETATM   20  O2  UNL     1     -29.476  10.293 -90.739  1.00  0.00    -0.265 OA
BRANCH  19  21
HETATM   21  O1  UNL     1     -27.727   9.661 -89.484  1.00  0.00    -0.322 OA
BRANCH  21  22
HETATM   22  C2  UNL     1     -26.669  10.208 -90.279  1.00  0.00     0.174 C 
HETATM   23  C1  UNL     1     -25.819   9.105 -90.826  1.00  0.00     0.034 C 
ENDBRANCH  21  22
ENDBRANCH  19  21
ENDBRANCH  18  19
ENDBRANCH  17  18
BRANCH  17  24
HETATM   24  C14 UNL     1     -31.982  11.566 -87.588  1.00  0.00     0.208 C 
HETATM   25 CL1  UNL     1     -31.333  12.414 -86.177  1.00  0.00    -0.082 Cl
HETATM   26 CL2  UNL     1     -32.224   9.859 -87.038  1.00  0.00    -0.082 Cl
HETATM   27 CL3  UNL     1     -33.547  12.142 -88.118  1.00  0.00    -0.082 Cl
ENDBRANCH  17  24
ENDBRANCH  15  17
ENDBRANCH  13  15
ENDBRANCH  11  13
ENDBRANCH   1  11
TORSDOF 10
ENDMDL
