MODEL 1
REMARK VINA RESULT: -7.227941316      0.000      0.000
REMARK  10 active torsions:
REMARK  status: ('A' for Active; 'I' for Inactive)
REMARK    1  A    between atoms: C2_2  and  C3_3 
REMARK    2  A    between atoms: C3_3  and  N1_4 
REMARK    3  A    between atoms: N1_4  and  C4_6 
REMARK    4  A    between atoms: C5_9  and  N3_10 
REMARK    5  A    between atoms: N3_10  and  C6_12 
REMARK    6  A    between atoms: C6_12  and  C7_13 
REMARK    7  A    between atoms: C7_13  and  N4_14 
REMARK    8  A    between atoms: C10_19  and  N6_20 
REMARK    9  A    between atoms: N6_20  and  C11_22 
REMARK   10  A    between atoms: C17_28  and  C18_29 
ROOT
HETATM    1  C4  UNL     1      11.264 -27.017 -56.403  1.00  0.00     0.707 A 
HETATM    2  N2  UNL     1      11.236 -26.946 -57.755  1.00  0.00    -0.022 N 
ATOM      3  H2  UNL     1      10.499 -27.423 -58.273  1.00  0.00     0.203 HD
HETATM    4  C5  UNL     1      12.176 -26.249 -58.417  1.00  0.00     0.707 A 
HETATM    5  N5  UNL     1      13.139 -25.626 -57.716  1.00  0.00    -0.021 N 
ATOM      6  H5  UNL     1      13.852 -25.097 -58.217  1.00  0.00     0.203 HD
HETATM    7  C10 UNL     1      13.190 -25.681 -56.367  1.00  0.00     0.711 A 
HETATM    8  N9  UNL     1      12.228 -26.394 -55.710  1.00  0.00    -0.021 N 
ATOM      9  H9  UNL     1      12.242 -26.451 -54.692  1.00  0.00     0.203 HD
ENDROOT
BRANCH   7  10
HETATM   10  N6  UNL     1      14.122 -25.079 -55.712  1.00  0.00    -0.191 N 
ATOM     11  H6  UNL     1      13.876 -24.306 -55.094  1.00  0.00     0.184 HD
BRANCH  10  12
HETATM   12  C11 UNL     1      15.483 -25.464 -55.828  1.00  0.00     0.050 A 
HETATM   13  C12 UNL     1      16.403 -24.550 -56.309  1.00  0.00     0.032 A 
HETATM   14  C13 UNL     1      17.714 -24.956 -56.408  1.00  0.00     0.034 A 
HETATM   15  C14 UNL     1      18.080 -26.231 -56.037  1.00  0.00     0.063 A 
HETATM   16  C15 UNL     1      17.164 -27.144 -55.558  1.00  0.00     0.027 A 
HETATM   17  N8  UNL     1      19.274 -26.894 -56.028  1.00  0.00    -0.295 N 
HETATM   18  C16 UNL     1      15.857 -26.744 -55.458  1.00  0.00     0.046 A 
HETATM   19  C17 UNL     1      17.820 -28.344 -55.267  1.00  0.00     0.145 A 
HETATM   20  N7  UNL     1      19.099 -28.121 -55.576  1.00  0.00    -0.293 N 
ATOM     21  H7  UNL     1      19.845 -28.809 -55.476  1.00  0.00     0.187 HD
HETATM   22  C19 UNL     1      20.493 -26.244 -56.472  1.00  0.00     0.178 C 
BRANCH  19  23
HETATM   23  C18 UNL     1      17.156 -29.560 -54.729  1.00  0.00     0.434 C 
HETATM   24  F1  UNL     1      18.083 -30.534 -54.386  1.00  0.00    -0.165 F 
HETATM   25  F2  UNL     1      16.345 -30.062 -55.720  1.00  0.00    -0.165 F 
HETATM   26  F3  UNL     1      16.439 -29.281 -53.579  1.00  0.00    -0.165 F 
ENDBRANCH  19  23
ENDBRANCH  10  12
ENDBRANCH   7  10
BRANCH   4  27
HETATM   27  N3  UNL     1      12.171 -26.169 -59.682  1.00  0.00    -0.223 N 
ATOM     28  H3  UNL     1      12.133 -25.228 -60.074  1.00  0.00     0.177 HD
BRANCH  27  29
HETATM   29  C6  UNL     1      12.211 -27.251 -60.627  1.00  0.00     0.168 C 
BRANCH  29  30
HETATM   30  C7  UNL     1      10.915 -27.261 -61.387  1.00  0.00     0.291 C 
BRANCH  30  31
HETATM   31  N4  UNL     1      10.122 -28.438 -61.115  1.00  0.00     0.081 N 
HETATM   32  C8  UNL     1       8.959 -28.161 -60.329  1.00  0.00     0.309 C 
HETATM   33  C9  UNL     1      10.892 -29.559 -60.685  1.00  0.00     0.309 C 
ENDBRANCH  30  31
ENDBRANCH  29  30
ENDBRANCH  27  29
ENDBRANCH   4  27
BRANCH   1  34
HETATM   34  N1  UNL     1      10.365 -27.683 -55.771  1.00  0.00    -0.225 N 
ATOM     35  H1  UNL     1      10.613 -28.586 -55.366  1.00  0.00     0.177 HD
BRANCH  34  36
HETATM   36  C3  UNL     1       9.024 -27.194 -55.616  1.00  0.00     0.137 C 
BRANCH  36  37
HETATM   37  C2  UNL     1       8.902 -26.228 -54.456  1.00  0.00     0.016 C 
HETATM   38  C1  UNL     1       8.791 -24.823 -55.017  1.00  0.00     0.006 C 
ENDBRANCH  36  37
ENDBRANCH  34  36
ENDBRANCH   1  34
TORSDOF 10
ENDMDL
MODEL 2
REMARK VINA RESULT: -7.221061231      2.056      2.960
REMARK  10 active torsions:
REMARK  status: ('A' for Active; 'I' for Inactive)
REMARK    1  A    between atoms: C2_2  and  C3_3 
REMARK    2  A    between atoms: C3_3  and  N1_4 
REMARK    3  A    between atoms: N1_4  and  C4_6 
REMARK    4  A    between atoms: C5_9  and  N3_10 
REMARK    5  A    between atoms: N3_10  and  C6_12 
REMARK    6  A    between atoms: C6_12  and  C7_13 
REMARK    7  A    between atoms: C7_13  and  N4_14 
REMARK    8  A    between atoms: C10_19  and  N6_20 
REMARK    9  A    between atoms: N6_20  and  C11_22 
REMARK   10  A    between atoms: C17_28  and  C18_29 
ROOT
HETATM    1  C4  UNL     1       9.812 -27.530 -57.378  1.00  0.00     0.707 A 
HETATM    2  N2  UNL     1       9.481 -28.004 -58.602  1.00  0.00    -0.022 N 
ATOM      3  H2  UNL     1       8.690 -28.640 -58.703  1.00  0.00     0.203 HD
HETATM    4  C5  UNL     1      10.189 -27.642 -59.685  1.00  0.00     0.707 A 
HETATM    5  N5  UNL     1      11.229 -26.803 -59.532  1.00  0.00    -0.021 N 
ATOM      6  H5  UNL     1      11.767 -26.526 -60.353  1.00  0.00     0.203 HD
HETATM    7  C10 UNL     1      11.581 -26.315 -58.323  1.00  0.00     0.711 A 
HETATM    8  N9  UNL     1      10.850 -26.694 -57.233  1.00  0.00    -0.021 N 
ATOM      9  H9  UNL     1      11.094 -26.340 -56.308  1.00  0.00     0.203 HD
ENDROOT
BRANCH   7  10
HETATM   10  N6  UNL     1      12.581 -25.512 -58.195  1.00  0.00    -0.191 N 
ATOM     11  H6  UNL     1      12.435 -24.511 -58.324  1.00  0.00     0.184 HD
BRANCH  10  12
HETATM   12  C11 UNL     1      13.881 -25.986 -57.879  1.00  0.00     0.050 A 
HETATM   13  C12 UNL     1      14.663 -26.528 -58.882  1.00  0.00     0.032 A 
HETATM   14  C13 UNL     1      15.918 -26.977 -58.541  1.00  0.00     0.034 A 
HETATM   15  C14 UNL     1      16.364 -26.882 -57.242  1.00  0.00     0.063 A 
HETATM   16  C15 UNL     1      15.587 -26.341 -56.240  1.00  0.00     0.027 A 
HETATM   17  N8  UNL     1      17.532 -27.236 -56.628  1.00  0.00    -0.295 N 
HETATM   18  C16 UNL     1      14.335 -25.893 -56.574  1.00  0.00     0.046 A 
HETATM   19  C17 UNL     1      16.296 -26.377 -55.036  1.00  0.00     0.145 A 
HETATM   20  N7  UNL     1      17.470 -26.933 -55.345  1.00  0.00    -0.293 N 
ATOM     21  H7  UNL     1      18.222 -27.102 -54.677  1.00  0.00     0.187 HD
HETATM   22  C19 UNL     1      18.614 -27.848 -57.376  1.00  0.00     0.178 C 
BRANCH  19  23
HETATM   23  C18 UNL     1      15.778 -25.880 -53.735  1.00  0.00     0.434 C 
HETATM   24  F1  UNL     1      16.348 -24.661 -53.395  1.00  0.00    -0.165 F 
HETATM   25  F2  UNL     1      16.119 -26.801 -52.773  1.00  0.00    -0.165 F 
HETATM   26  F3  UNL     1      14.411 -25.674 -53.779  1.00  0.00    -0.165 F 
ENDBRANCH  19  23
ENDBRANCH  10  12
ENDBRANCH   7  10
BRANCH   4  27
HETATM   27  N3  UNL     1       9.899 -28.074 -60.840  1.00  0.00    -0.223 N 
ATOM     28  H3  UNL     1       8.932 -27.944 -61.140  1.00  0.00     0.177 HD
BRANCH  27  29
HETATM   29  C6  UNL     1      10.773 -28.725 -61.776  1.00  0.00     0.168 C 
BRANCH  29  30
HETATM   30  C7  UNL     1      11.482 -29.841 -61.061  1.00  0.00     0.291 C 
BRANCH  30  31
HETATM   31  N4  UNL     1      12.865 -29.531 -60.783  1.00  0.00     0.081 N 
HETATM   32  C8  UNL     1      13.746 -29.890 -61.851  1.00  0.00     0.309 C 
HETATM   33  C9  UNL     1      13.291 -29.934 -59.483  1.00  0.00     0.309 C 
ENDBRANCH  30  31
ENDBRANCH  29  30
ENDBRANCH  27  29
ENDBRANCH   4  27
BRANCH   1  34
HETATM   34  N1  UNL     1       9.135 -27.877 -56.343  1.00  0.00    -0.225 N 
ATOM     35  H1  UNL     1       8.529 -28.696 -56.400  1.00  0.00     0.177 HD
BRANCH  34  36
HETATM   36  C3  UNL     1       9.205 -27.146 -55.108  1.00  0.00     0.137 C 
BRANCH  36  37
HETATM   37  C2  UNL     1       8.166 -26.047 -55.038  1.00  0.00     0.016 C 
HETATM   38  C1  UNL     1       8.887 -24.716 -54.957  1.00  0.00     0.006 C 
ENDBRANCH  36  37
ENDBRANCH  34  36
ENDBRANCH   1  34
TORSDOF 10
ENDMDL
MODEL 3
REMARK VINA RESULT: -7.215373737      1.690      2.068
REMARK  10 active torsions:
REMARK  status: ('A' for Active; 'I' for Inactive)
REMARK    1  A    between atoms: C2_2  and  C3_3 
REMARK    2  A    between atoms: C3_3  and  N1_4 
REMARK    3  A    between atoms: N1_4  and  C4_6 
REMARK    4  A    between atoms: C5_9  and  N3_10 
REMARK    5  A    between atoms: N3_10  and  C6_12 
REMARK    6  A    between atoms: C6_12  and  C7_13 
REMARK    7  A    between atoms: C7_13  and  N4_14 
REMARK    8  A    between atoms: C10_19  and  N6_20 
REMARK    9  A    between atoms: N6_20  and  C11_22 
REMARK   10  A    between atoms: C17_28  and  C18_29 
ROOT
HETATM    1  C4  UNL     1      10.445 -27.274 -57.043  1.00  0.00     0.707 A 
HETATM    2  N2  UNL     1      10.075 -27.634 -58.295  1.00  0.00    -0.022 N 
ATOM      3  H2  UNL     1       9.240 -28.202 -58.434  1.00  0.00     0.203 HD
HETATM    4  C5  UNL     1      10.804 -27.247 -59.355  1.00  0.00     0.707 A 
HETATM    5  N5  UNL     1      11.903 -26.498 -59.152  1.00  0.00    -0.021 N 
ATOM      6  H5  UNL     1      12.456 -26.203 -59.955  1.00  0.00     0.203 HD
HETATM    7  C10 UNL     1      12.294 -26.125 -57.914  1.00  0.00     0.711 A 
HETATM    8  N9  UNL     1      11.541 -26.528 -56.847  1.00  0.00    -0.021 N 
ATOM      9  H9  UNL     1      11.814 -26.260 -55.901  1.00  0.00     0.203 HD
ENDROOT
BRANCH   7  10
HETATM   10  N6  UNL     1      13.350 -25.408 -57.738  1.00  0.00    -0.191 N 
ATOM     11  H6  UNL     1      13.252 -24.402 -57.609  1.00  0.00     0.184 HD
BRANCH  10  12
HETATM   12  C11 UNL     1      14.647 -25.984 -57.719  1.00  0.00     0.050 A 
HETATM   13  C12 UNL     1      15.494 -25.773 -58.791  1.00  0.00     0.032 A 
HETATM   14  C13 UNL     1      16.744 -26.346 -58.740  1.00  0.00     0.034 A 
HETATM   15  C14 UNL     1      17.122 -27.099 -57.651  1.00  0.00     0.063 A 
HETATM   16  C15 UNL     1      16.280 -27.311 -56.581  1.00  0.00     0.027 A 
HETATM   17  N8  UNL     1      18.269 -27.771 -57.334  1.00  0.00    -0.295 N 
HETATM   18  C16 UNL     1      15.033 -26.744 -56.627  1.00  0.00     0.046 A 
HETATM   19  C17 UNL     1      16.930 -28.108 -55.633  1.00  0.00     0.145 A 
HETATM   20  N7  UNL     1      18.134 -28.350 -56.156  1.00  0.00    -0.293 N 
ATOM     21  H7  UNL     1      18.857 -28.910 -55.704  1.00  0.00     0.187 HD
HETATM   22  C19 UNL     1      19.405 -27.778 -58.236  1.00  0.00     0.178 C 
BRANCH  19  23
HETATM   23  C18 UNL     1      16.333 -28.545 -54.345  1.00  0.00     0.434 C 
HETATM   24  F1  UNL     1      17.215 -29.333 -53.619  1.00  0.00    -0.165 F 
HETATM   25  F2  UNL     1      15.220 -29.297 -54.637  1.00  0.00    -0.165 F 
HETATM   26  F3  UNL     1      16.020 -27.465 -53.539  1.00  0.00    -0.165 F 
ENDBRANCH  19  23
ENDBRANCH  10  12
ENDBRANCH   7  10
BRANCH   4  27
HETATM   27  N3  UNL     1      10.479 -27.572 -60.536  1.00  0.00    -0.223 N 
ATOM     28  H3  UNL     1       9.636 -27.134 -60.908  1.00  0.00     0.177 HD
BRANCH  27  29
HETATM   29  C6  UNL     1      11.160 -28.487 -61.410  1.00  0.00     0.168 C 
BRANCH  29  30
HETATM   30  C7  UNL     1      11.344 -29.788 -60.680  1.00  0.00     0.291 C 
BRANCH  30  31
HETATM   31  N4  UNL     1      12.730 -30.191 -60.608  1.00  0.00     0.081 N 
HETATM   32  C8  UNL     1      13.307 -29.981 -59.316  1.00  0.00     0.309 C 
HETATM   33  C9  UNL     1      13.516 -29.734 -61.706  1.00  0.00     0.309 C 
ENDBRANCH  30  31
ENDBRANCH  29  30
ENDBRANCH  27  29
ENDBRANCH   4  27
BRANCH   1  34
HETATM   34  N1  UNL     1       9.747 -27.645 -56.029  1.00  0.00    -0.225 N 
ATOM     35  H1  UNL     1      10.020 -28.488 -55.523  1.00  0.00     0.177 HD
BRANCH  34  36
HETATM   36  C3  UNL     1       8.596 -26.908 -55.588  1.00  0.00     0.137 C 
BRANCH  36  37
HETATM   37  C2  UNL     1       8.928 -25.960 -54.455  1.00  0.00     0.016 C 
HETATM   38  C1  UNL     1       8.863 -24.542 -54.987  1.00  0.00     0.006 C 
ENDBRANCH  36  37
ENDBRANCH  34  36
ENDBRANCH   1  34
TORSDOF 10
ENDMDL
MODEL 4
REMARK VINA RESULT: -7.143027242      2.698      3.566
REMARK  10 active torsions:
REMARK  status: ('A' for Active; 'I' for Inactive)
REMARK    1  A    between atoms: C2_2  and  C3_3 
REMARK    2  A    between atoms: C3_3  and  N1_4 
REMARK    3  A    between atoms: N1_4  and  C4_6 
REMARK    4  A    between atoms: C5_9  and  N3_10 
REMARK    5  A    between atoms: N3_10  and  C6_12 
REMARK    6  A    between atoms: C6_12  and  C7_13 
REMARK    7  A    between atoms: C7_13  and  N4_14 
REMARK    8  A    between atoms: C10_19  and  N6_20 
REMARK    9  A    between atoms: N6_20  and  C11_22 
REMARK   10  A    between atoms: C17_28  and  C18_29 
ROOT
HETATM    1  C4  UNL     1      10.044 -27.458 -57.320  1.00  0.00     0.707 A 
HETATM    2  N2  UNL     1       9.784 -27.878 -58.581  1.00  0.00    -0.022 N 
ATOM      3  H2  UNL     1       8.992 -28.494 -58.757  1.00  0.00     0.203 HD
HETATM    4  C5  UNL     1      10.566 -27.485 -59.601  1.00  0.00     0.707 A 
HETATM    5  N5  UNL     1      11.606 -26.671 -59.348  1.00  0.00    -0.021 N 
ATOM      6  H5  UNL     1      12.200 -26.372 -60.121  1.00  0.00     0.203 HD
HETATM    7  C10 UNL     1      11.888 -26.239 -58.099  1.00  0.00     0.711 A 
HETATM    8  N9  UNL     1      11.083 -26.647 -57.074  1.00  0.00    -0.021 N 
ATOM      9  H9  UNL     1      11.272 -26.335 -56.122  1.00  0.00     0.203 HD
ENDROOT
BRANCH   7  10
HETATM   10  N6  UNL     1      12.890 -25.460 -57.876  1.00  0.00    -0.191 N 
ATOM     11  H6  UNL     1      12.792 -24.460 -58.051  1.00  0.00     0.184 HD
BRANCH  10  12
HETATM   12  C11 UNL     1      14.127 -25.958 -57.391  1.00  0.00     0.050 A 
HETATM   13  C12 UNL     1      14.191 -27.254 -56.914  1.00  0.00     0.032 A 
HETATM   14  C13 UNL     1      15.406 -27.705 -56.453  1.00  0.00     0.034 A 
HETATM   15  C14 UNL     1      16.510 -26.881 -56.472  1.00  0.00     0.063 A 
HETATM   16  C15 UNL     1      16.448 -25.589 -56.947  1.00  0.00     0.027 A 
HETATM   17  N8  UNL     1      17.810 -27.053 -56.088  1.00  0.00    -0.295 N 
HETATM   18  C16 UNL     1      15.240 -25.134 -57.407  1.00  0.00     0.046 A 
HETATM   19  C17 UNL     1      17.712 -24.999 -56.842  1.00  0.00     0.145 A 
HETATM   20  N7  UNL     1      18.490 -25.946 -56.313  1.00  0.00    -0.293 N 
ATOM     21  H7  UNL     1      19.482 -25.828 -56.108  1.00  0.00     0.187 HD
HETATM   22  C19 UNL     1      18.264 -28.312 -55.529  1.00  0.00     0.178 C 
BRANCH  19  23
HETATM   23  C18 UNL     1      18.032 -23.608 -57.257  1.00  0.00     0.434 C 
HETATM   24  F1  UNL     1      16.980 -22.744 -56.986  1.00  0.00    -0.165 F 
HETATM   25  F2  UNL     1      18.245 -23.619 -58.615  1.00  0.00    -0.165 F 
HETATM   26  F3  UNL     1      19.129 -23.115 -56.574  1.00  0.00    -0.165 F 
ENDBRANCH  19  23
ENDBRANCH  10  12
ENDBRANCH   7  10
BRANCH   4  27
HETATM   27  N3  UNL     1      10.343 -27.865 -60.789  1.00  0.00    -0.223 N 
ATOM     28  H3  UNL     1       9.507 -27.486 -61.235  1.00  0.00     0.177 HD
BRANCH  27  29
HETATM   29  C6  UNL     1      11.132 -28.768 -61.581  1.00  0.00     0.168 C 
BRANCH  29  30
HETATM   30  C7  UNL     1      11.481 -29.958 -60.731  1.00  0.00     0.291 C 
BRANCH  30  31
HETATM   31  N4  UNL     1      12.908 -30.148 -60.602  1.00  0.00     0.081 N 
HETATM   32  C8  UNL     1      13.351 -30.163 -59.243  1.00  0.00     0.309 C 
HETATM   33  C9  UNL     1      13.674 -29.328 -61.482  1.00  0.00     0.309 C 
ENDBRANCH  30  31
ENDBRANCH  29  30
ENDBRANCH  27  29
ENDBRANCH   4  27
BRANCH   1  34
HETATM   34  N1  UNL     1       9.296 -27.834 -56.345  1.00  0.00    -0.225 N 
ATOM     35  H1  UNL     1       8.709 -28.660 -56.462  1.00  0.00     0.177 HD
BRANCH  34  36
HETATM   36  C3  UNL     1       9.263 -27.126 -55.095  1.00  0.00     0.137 C 
BRANCH  36  37
HETATM   37  C2  UNL     1       8.174 -26.074 -55.067  1.00  0.00     0.016 C 
HETATM   38  C1  UNL     1       8.833 -24.710 -55.000  1.00  0.00     0.006 C 
ENDBRANCH  36  37
ENDBRANCH  34  36
ENDBRANCH   1  34
TORSDOF 10
ENDMDL
MODEL 5
REMARK VINA RESULT: -7.090296646      0.866      1.096
REMARK  10 active torsions:
REMARK  status: ('A' for Active; 'I' for Inactive)
REMARK    1  A    between atoms: C2_2  and  C3_3 
REMARK    2  A    between atoms: C3_3  and  N1_4 
REMARK    3  A    between atoms: N1_4  and  C4_6 
REMARK    4  A    between atoms: C5_9  and  N3_10 
REMARK    5  A    between atoms: N3_10  and  C6_12 
REMARK    6  A    between atoms: C6_12  and  C7_13 
REMARK    7  A    between atoms: C7_13  and  N4_14 
REMARK    8  A    between atoms: C10_19  and  N6_20 
REMARK    9  A    between atoms: N6_20  and  C11_22 
REMARK   10  A    between atoms: C17_28  and  C18_29 
ROOT
HETATM    1  C4  UNL     1      11.212 -27.009 -56.523  1.00  0.00     0.707 A 
HETATM    2  N2  UNL     1      11.185 -26.988 -57.876  1.00  0.00    -0.022 N 
ATOM      3  H2  UNL     1      10.458 -27.497 -58.377  1.00  0.00     0.203 HD
HETATM    4  C5  UNL     1      12.113 -26.299 -58.562  1.00  0.00     0.707 A 
HETATM    5  N5  UNL     1      13.064 -25.634 -57.883  1.00  0.00    -0.021 N 
ATOM      6  H5  UNL     1      13.768 -25.110 -58.403  1.00  0.00     0.203 HD
HETATM    7  C10 UNL     1      13.114 -25.639 -56.533  1.00  0.00     0.711 A 
HETATM    8  N9  UNL     1      12.163 -26.344 -55.852  1.00  0.00    -0.021 N 
ATOM      9  H9  UNL     1      12.177 -26.365 -54.832  1.00  0.00     0.203 HD
ENDROOT
BRANCH   7  10
HETATM   10  N6  UNL     1      14.034 -24.997 -55.900  1.00  0.00    -0.191 N 
ATOM     11  H6  UNL     1      13.776 -24.191 -55.330  1.00  0.00     0.184 HD
BRANCH  10  12
HETATM   12  C11 UNL     1      15.398 -25.381 -55.974  1.00  0.00     0.050 A 
HETATM   13  C12 UNL     1      16.327 -24.480 -56.459  1.00  0.00     0.032 A 
HETATM   14  C13 UNL     1      17.640 -24.885 -56.517  1.00  0.00     0.034 A 
HETATM   15  C14 UNL     1      18.000 -26.149 -56.103  1.00  0.00     0.063 A 
HETATM   16  C15 UNL     1      17.075 -27.050 -55.619  1.00  0.00     0.027 A 
HETATM   17  N8  UNL     1      19.195 -26.808 -56.047  1.00  0.00    -0.295 N 
HETATM   18  C16 UNL     1      15.766 -26.651 -55.559  1.00  0.00     0.046 A 
HETATM   19  C17 UNL     1      17.726 -28.240 -55.279  1.00  0.00     0.145 A 
HETATM   20  N7  UNL     1      19.012 -28.022 -55.565  1.00  0.00    -0.293 N 
ATOM     21  H7  UNL     1      19.756 -28.706 -55.428  1.00  0.00     0.187 HD
HETATM   22  C19 UNL     1      20.423 -26.168 -56.482  1.00  0.00     0.178 C 
BRANCH  19  23
HETATM   23  C18 UNL     1      17.052 -29.441 -54.722  1.00  0.00     0.434 C 
HETATM   24  F1  UNL     1      17.969 -30.428 -54.389  1.00  0.00    -0.165 F 
HETATM   25  F2  UNL     1      16.216 -29.936 -55.695  1.00  0.00    -0.165 F 
HETATM   26  F3  UNL     1      16.361 -29.143 -53.561  1.00  0.00    -0.165 F 
ENDBRANCH  19  23
ENDBRANCH  10  12
ENDBRANCH   7  10
BRANCH   4  27
HETATM   27  N3  UNL     1      12.108 -26.265 -59.829  1.00  0.00    -0.223 N 
ATOM     28  H3  UNL     1      12.285 -25.356 -60.257  1.00  0.00     0.177 HD
BRANCH  27  29
HETATM   29  C6  UNL     1      11.884 -27.360 -60.732  1.00  0.00     0.168 C 
BRANCH  29  30
HETATM   30  C7  UNL     1      13.144 -28.176 -60.807  1.00  0.00     0.291 C 
BRANCH  30  31
HETATM   31  N4  UNL     1      12.968 -29.516 -60.298  1.00  0.00     0.081 N 
HETATM   32  C8  UNL     1      11.619 -29.981 -60.398  1.00  0.00     0.309 C 
HETATM   33  C9  UNL     1      13.592 -29.734 -59.035  1.00  0.00     0.309 C 
ENDBRANCH  30  31
ENDBRANCH  29  30
ENDBRANCH  27  29
ENDBRANCH   4  27
BRANCH   1  34
HETATM   34  N1  UNL     1      10.324 -27.669 -55.867  1.00  0.00    -0.225 N 
ATOM     35  H1  UNL     1      10.575 -28.574 -55.470  1.00  0.00     0.177 HD
BRANCH  34  36
HETATM   36  C3  UNL     1       8.992 -27.167 -55.678  1.00  0.00     0.137 C 
BRANCH  36  37
HETATM   37  C2  UNL     1       8.895 -26.250 -54.476  1.00  0.00     0.016 C 
HETATM   38  C1  UNL     1       8.800 -24.822 -54.976  1.00  0.00     0.006 C 
ENDBRANCH  36  37
ENDBRANCH  34  36
ENDBRANCH   1  34
TORSDOF 10
ENDMDL
