MODEL 1
REMARK VINA RESULT: -8.871237854      0.000      0.000
REMARK  10 active torsions:
REMARK  status: ('A' for Active; 'I' for Inactive)
REMARK    1  A    between atoms: C6_6  and  C7_7 
REMARK    2  A    between atoms: C7_7  and  N1_8 
REMARK    3  A    between atoms: N1_8  and  C8_10 
REMARK    4  A    between atoms: C9_13  and  N3_14 
REMARK    5  A    between atoms: N3_14  and  C10_16 
REMARK    6  A    between atoms: C10_16  and  C11_17 
REMARK    7  A    between atoms: N6_26  and  O1_27 
REMARK    8  A    between atoms: C14_30  and  C15_31 
REMARK    9  A    between atoms: N7_32  and  O2_34 
REMARK   10  A    between atoms: O2_34  and  C16_35 
ROOT
HETATM    1  C8  UNL     1      10.965 -27.092 -57.944  1.00  0.00     0.132 A 
HETATM    2  N2  UNL     1      10.284 -26.901 -56.784  1.00  0.00    -0.176 N 
ATOM      3  H2  UNL     1      10.785 -26.493 -55.995  1.00  0.00     0.186 HD
HETATM    4  C9  UNL     1       8.994 -27.217 -56.614  1.00  0.00     0.685 A 
HETATM    5  N4  UNL     1       8.312 -27.754 -57.631  1.00  0.00    -0.174 N 
ATOM      6  H4  UNL     1       7.330 -27.997 -57.509  1.00  0.00     0.186 HD
HETATM    7  C12 UNL     1       8.917 -27.977 -58.822  1.00  0.00     0.152 A 
HETATM    8  N5  UNL     1       8.174 -28.509 -59.815  1.00  0.00    -0.258 N 
ATOM      9  H5  UNL     1       7.193 -28.740 -59.662  1.00  0.00     0.191 HD
HETATM   10  N6  UNL     1       8.735 -28.720 -60.975  1.00  0.00    -0.173 N 
HETATM   11  C13 UNL     1      10.030 -28.427 -61.214  1.00  0.00     0.157 A 
HETATM   12  C14 UNL     1      10.837 -27.884 -60.239  1.00  0.00     0.018 A 
HETATM   13  C19 UNL     1      10.268 -27.644 -58.988  1.00  0.00     0.067 A 
ENDROOT
BRANCH   1  14
HETATM   14  N1  UNL     1      12.176 -26.755 -58.060  1.00  0.00    -0.371 N 
ATOM     15  H1  UNL     1      12.846 -27.464 -58.358  1.00  0.00     0.161 HD
BRANCH  14  16
HETATM   16  C7  UNL     1      12.671 -25.414 -57.791  1.00  0.00     0.160 C 
BRANCH  16  17
HETATM   17  C6  UNL     1      13.698 -25.381 -56.726  1.00  0.00    -0.040 A 
HETATM   18  C5  UNL     1      13.508 -25.955 -55.495  1.00  0.00     0.009 A 
HETATM   19  C4  UNL     1      14.496 -25.896 -54.537  1.00  0.00     0.001 A 
HETATM   20  C3  UNL     1      15.694 -25.260 -54.790  1.00  0.00     0.007 A 
HETATM   21  C2  UNL     1      15.891 -24.687 -56.011  1.00  0.00    -0.061 A 
HETATM   22  C1  UNL     1      17.187 -24.005 -56.270  1.00  0.00     0.048 C 
HETATM   23  C20 UNL     1      14.894 -24.748 -56.976  1.00  0.00     0.015 A 
ENDBRANCH  16  17
ENDBRANCH  14  16
ENDBRANCH   1  14
BRANCH   4  24
HETATM   24  N3  UNL     1       8.422 -27.014 -55.507  1.00  0.00    -0.197 N 
ATOM     25  H3  UNL     1       7.424 -27.222 -55.507  1.00  0.00     0.183 HD
BRANCH  24  26
HETATM   26  C10 UNL     1       8.918 -26.549 -54.272  1.00  0.00     0.194 C 
BRANCH  26  27
HETATM   27  C11 UNL     1       9.308 -25.089 -54.259  1.00  0.00     0.422 C 
HETATM   28  F1  UNL     1       9.192 -24.651 -52.952  1.00  0.00    -0.166 F 
HETATM   29  F2  UNL     1      10.629 -24.908 -54.617  1.00  0.00    -0.166 F 
HETATM   30  F3  UNL     1       8.460 -24.311 -55.021  1.00  0.00    -0.166 F 
ENDBRANCH  26  27
ENDBRANCH  24  26
ENDBRANCH   4  24
BRANCH  12  31
HETATM   31  C15 UNL     1      12.217 -27.646 -60.528  1.00  0.00     0.128 C 
HETATM   32  N7  UNL     1      13.087 -28.553 -60.571  1.00  0.00    -0.277 N 
ATOM     33  H7  UNL     1      13.988 -28.131 -60.794  1.00  0.00     0.193 HD
BRANCH  32  34
HETATM   34  O2  UNL     1      13.250 -29.814 -60.436  1.00  0.00    -0.276 OA
BRANCH  34  35
HETATM   35  C16 UNL     1      13.427 -30.586 -59.262  1.00  0.00     0.144 C 
HETATM   36  C17 UNL     1      14.219 -31.828 -59.500  1.00  0.00     0.042 C 
HETATM   37  C18 UNL     1      14.126 -29.754 -58.212  1.00  0.00     0.042 C 
ENDBRANCH  34  35
ENDBRANCH  32  34
ENDBRANCH  12  31
BRANCH  10  38
HETATM   38  O1  UNL     1       7.989 -29.271 -62.030  1.00  0.00    -0.268 OA
ATOM     39  H1  UNL     1       8.216 -29.071 -62.931  1.00  0.00     0.247 HD
ENDBRANCH  10  38
TORSDOF 10
ENDMDL
MODEL 2
REMARK VINA RESULT: -8.822365699      1.070      1.584
REMARK  10 active torsions:
REMARK  status: ('A' for Active; 'I' for Inactive)
REMARK    1  A    between atoms: C6_6  and  C7_7 
REMARK    2  A    between atoms: C7_7  and  N1_8 
REMARK    3  A    between atoms: N1_8  and  C8_10 
REMARK    4  A    between atoms: C9_13  and  N3_14 
REMARK    5  A    between atoms: N3_14  and  C10_16 
REMARK    6  A    between atoms: C10_16  and  C11_17 
REMARK    7  A    between atoms: N6_26  and  O1_27 
REMARK    8  A    between atoms: C14_30  and  C15_31 
REMARK    9  A    between atoms: N7_32  and  O2_34 
REMARK   10  A    between atoms: O2_34  and  C16_35 
ROOT
HETATM    1  C8  UNL     1      11.676 -26.681 -58.148  1.00  0.00     0.132 A 
HETATM    2  N2  UNL     1      11.260 -26.728 -56.855  1.00  0.00    -0.176 N 
ATOM      3  H2  UNL     1      11.878 -26.347 -56.138  1.00  0.00     0.186 HD
HETATM    4  C9  UNL     1      10.089 -27.245 -56.466  1.00  0.00     0.685 A 
HETATM    5  N4  UNL     1       9.259 -27.752 -57.384  1.00  0.00    -0.174 N 
ATOM      6  H4  UNL     1       8.365 -28.147 -57.094  1.00  0.00     0.186 HD
HETATM    7  C12 UNL     1       9.598 -27.744 -58.695  1.00  0.00     0.152 A 
HETATM    8  N5  UNL     1       8.714 -28.257 -59.576  1.00  0.00    -0.258 N 
ATOM      9  H5  UNL     1       7.827 -28.645 -59.256  1.00  0.00     0.191 HD
HETATM   10  N6  UNL     1       9.016 -28.247 -60.846  1.00  0.00    -0.173 N 
HETATM   11  C13 UNL     1      10.180 -27.743 -61.307  1.00  0.00     0.157 A 
HETATM   12  C14 UNL     1      11.120 -27.208 -60.456  1.00  0.00     0.018 A 
HETATM   13  C19 UNL     1      10.828 -27.201 -59.091  1.00  0.00     0.067 A 
ENDROOT
BRANCH   1  14
HETATM   14  N1  UNL     1      12.782 -26.160 -58.466  1.00  0.00    -0.371 N 
ATOM     15  H1  UNL     1      12.769 -25.306 -59.024  1.00  0.00     0.161 HD
BRANCH  14  16
HETATM   16  C7  UNL     1      14.073 -26.709 -58.082  1.00  0.00     0.160 C 
BRANCH  16  17
HETATM   17  C6  UNL     1      14.754 -25.907 -57.042  1.00  0.00    -0.040 A 
HETATM   18  C5  UNL     1      15.236 -24.645 -57.277  1.00  0.00     0.009 A 
HETATM   19  C4  UNL     1      15.865 -23.939 -56.274  1.00  0.00     0.001 A 
HETATM   20  C3  UNL     1      16.023 -24.482 -55.016  1.00  0.00     0.007 A 
HETATM   21  C2  UNL     1      15.547 -25.736 -54.774  1.00  0.00    -0.061 A 
HETATM   22  C1  UNL     1      15.726 -26.309 -53.413  1.00  0.00     0.048 C 
HETATM   23  C20 UNL     1      14.914 -26.446 -55.786  1.00  0.00     0.015 A 
ENDBRANCH  16  17
ENDBRANCH  14  16
ENDBRANCH   1  14
BRANCH   4  24
HETATM   24  N3  UNL     1       9.764 -27.258 -55.246  1.00  0.00    -0.197 N 
ATOM     25  H3  UNL     1      10.237 -27.973 -54.694  1.00  0.00     0.183 HD
BRANCH  24  26
HETATM   26  C10 UNL     1       8.865 -26.458 -54.511  1.00  0.00     0.194 C 
BRANCH  26  27
HETATM   27  C11 UNL     1       9.336 -25.043 -54.266  1.00  0.00     0.422 C 
HETATM   28  F1  UNL     1       9.140 -24.778 -52.923  1.00  0.00    -0.166 F 
HETATM   29  F2  UNL     1      10.690 -24.906 -54.499  1.00  0.00    -0.166 F 
HETATM   30  F3  UNL     1       8.598 -24.114 -54.971  1.00  0.00    -0.166 F 
ENDBRANCH  26  27
ENDBRANCH  24  26
ENDBRANCH   4  24
BRANCH  12  31
HETATM   31  C15 UNL     1      12.361 -26.740 -60.991  1.00  0.00     0.128 C 
HETATM   32  N7  UNL     1      13.259 -27.500 -61.433  1.00  0.00    -0.277 N 
ATOM     33  H7  UNL     1      14.040 -26.929 -61.755  1.00  0.00     0.193 HD
BRANCH  32  34
HETATM   34  O2  UNL     1      13.548 -28.731 -61.625  1.00  0.00    -0.276 OA
BRANCH  34  35
HETATM   35  C16 UNL     1      13.970 -29.719 -60.703  1.00  0.00     0.144 C 
HETATM   36  C17 UNL     1      12.837 -30.328 -59.947  1.00  0.00     0.042 C 
HETATM   37  C18 UNL     1      14.711 -30.813 -61.438  1.00  0.00     0.042 C 
ENDBRANCH  34  35
ENDBRANCH  32  34
ENDBRANCH  12  31
BRANCH  10  38
HETATM   38  O1  UNL     1       8.117 -28.773 -61.790  1.00  0.00    -0.268 OA
ATOM     39  H1  UNL     1       7.197 -28.538 -61.755  1.00  0.00     0.247 HD
ENDBRANCH  10  38
TORSDOF 10
ENDMDL
MODEL 3
REMARK VINA RESULT: -8.739736063      0.980      1.167
REMARK  10 active torsions:
REMARK  status: ('A' for Active; 'I' for Inactive)
REMARK    1  A    between atoms: C6_6  and  C7_7 
REMARK    2  A    between atoms: C7_7  and  N1_8 
REMARK    3  A    between atoms: N1_8  and  C8_10 
REMARK    4  A    between atoms: C9_13  and  N3_14 
REMARK    5  A    between atoms: N3_14  and  C10_16 
REMARK    6  A    between atoms: C10_16  and  C11_17 
REMARK    7  A    between atoms: N6_26  and  O1_27 
REMARK    8  A    between atoms: C14_30  and  C15_31 
REMARK    9  A    between atoms: N7_32  and  O2_34 
REMARK   10  A    between atoms: O2_34  and  C16_35 
ROOT
HETATM    1  C8  UNL     1      11.442 -27.352 -58.166  1.00  0.00     0.132 A 
HETATM    2  N2  UNL     1      10.953 -27.213 -56.906  1.00  0.00    -0.176 N 
ATOM      3  H2  UNL     1      11.595 -26.911 -56.172  1.00  0.00     0.186 HD
HETATM    4  C9  UNL     1       9.679 -27.448 -56.569  1.00  0.00     0.685 A 
HETATM    5  N4  UNL     1       8.816 -27.845 -57.509  1.00  0.00    -0.174 N 
ATOM      6  H4  UNL     1       7.844 -28.026 -57.260  1.00  0.00     0.186 HD
HETATM    7  C12 UNL     1       9.223 -28.009 -58.790  1.00  0.00     0.152 A 
HETATM    8  N5  UNL     1       8.303 -28.397 -59.698  1.00  0.00    -0.258 N 
ATOM      9  H5  UNL     1       7.338 -28.570 -59.418  1.00  0.00     0.191 HD
HETATM   10  N6  UNL     1       8.672 -28.549 -60.941  1.00  0.00    -0.173 N 
HETATM   11  C13 UNL     1       9.940 -28.330 -61.348  1.00  0.00     0.157 A 
HETATM   12  C14 UNL     1      10.921 -27.932 -60.468  1.00  0.00     0.018 A 
HETATM   13  C19 UNL     1      10.559 -27.760 -59.132  1.00  0.00     0.067 A 
ENDROOT
BRANCH   1  14
HETATM   14  N1  UNL     1      12.649 -27.095 -58.436  1.00  0.00    -0.371 N 
ATOM     15  H1  UNL     1      13.129 -27.693 -59.108  1.00  0.00     0.161 HD
BRANCH  14  16
HETATM   16  C7  UNL     1      13.393 -25.994 -57.844  1.00  0.00     0.160 C 
BRANCH  16  17
HETATM   17  C6  UNL     1      14.194 -26.405 -56.670  1.00  0.00    -0.040 A 
HETATM   18  C5  UNL     1      14.514 -27.713 -56.411  1.00  0.00     0.009 A 
HETATM   19  C4  UNL     1      15.262 -28.044 -55.303  1.00  0.00     0.001 A 
HETATM   20  C3  UNL     1      15.707 -27.072 -54.431  1.00  0.00     0.007 A 
HETATM   21  C2  UNL     1      15.394 -25.769 -54.680  1.00  0.00    -0.061 A 
HETATM   22  C1  UNL     1      15.879 -24.732 -53.731  1.00  0.00     0.048 C 
HETATM   23  C20 UNL     1      14.639 -25.438 -55.798  1.00  0.00     0.015 A 
ENDBRANCH  16  17
ENDBRANCH  14  16
ENDBRANCH   1  14
BRANCH   4  24
HETATM   24  N3  UNL     1       9.291 -27.299 -55.377  1.00  0.00    -0.197 N 
ATOM     25  H3  UNL     1       9.590 -28.039 -54.743  1.00  0.00     0.183 HD
BRANCH  24  26
HETATM   26  C10 UNL     1       8.516 -26.292 -54.767  1.00  0.00     0.194 C 
BRANCH  26  27
HETATM   27  C11 UNL     1       9.269 -25.018 -54.458  1.00  0.00     0.422 C 
HETATM   28  F1  UNL     1       9.181 -24.817 -53.092  1.00  0.00    -0.166 F 
HETATM   29  F2  UNL     1      10.613 -25.134 -54.752  1.00  0.00    -0.166 F 
HETATM   30  F3  UNL     1       8.706 -23.914 -55.064  1.00  0.00    -0.166 F 
ENDBRANCH  26  27
ENDBRANCH  24  26
ENDBRANCH   4  24
BRANCH  12  31
HETATM   31  C15 UNL     1      12.261 -27.771 -60.942  1.00  0.00     0.128 C 
HETATM   32  N7  UNL     1      13.014 -28.732 -61.242  1.00  0.00    -0.277 N 
ATOM     33  H7  UNL     1      13.912 -28.358 -61.551  1.00  0.00     0.193 HD
BRANCH  32  34
HETATM   34  O2  UNL     1      13.062 -30.008 -61.302  1.00  0.00    -0.276 OA
BRANCH  34  35
HETATM   35  C16 UNL     1      13.806 -30.926 -60.522  1.00  0.00     0.144 C 
HETATM   36  C17 UNL     1      15.276 -30.825 -60.755  1.00  0.00     0.042 C 
HETATM   37  C18 UNL     1      13.526 -30.687 -59.056  1.00  0.00     0.042 C 
ENDBRANCH  34  35
ENDBRANCH  32  34
ENDBRANCH  12  31
BRANCH  10  38
HETATM   38  O1  UNL     1       7.739 -28.952 -61.911  1.00  0.00    -0.268 OA
ATOM     39  H1  UNL     1       7.954 -29.649 -62.520  1.00  0.00     0.247 HD
ENDBRANCH  10  38
TORSDOF 10
ENDMDL
MODEL 4
REMARK VINA RESULT: -8.721592237      1.407      1.884
REMARK  10 active torsions:
REMARK  status: ('A' for Active; 'I' for Inactive)
REMARK    1  A    between atoms: C6_6  and  C7_7 
REMARK    2  A    between atoms: C7_7  and  N1_8 
REMARK    3  A    between atoms: N1_8  and  C8_10 
REMARK    4  A    between atoms: C9_13  and  N3_14 
REMARK    5  A    between atoms: N3_14  and  C10_16 
REMARK    6  A    between atoms: C10_16  and  C11_17 
REMARK    7  A    between atoms: N6_26  and  O1_27 
REMARK    8  A    between atoms: C14_30  and  C15_31 
REMARK    9  A    between atoms: N7_32  and  O2_34 
REMARK   10  A    between atoms: O2_34  and  C16_35 
ROOT
HETATM    1  C8  UNL     1      12.318 -27.505 -57.451  1.00  0.00     0.132 A 
HETATM    2  N2  UNL     1      11.348 -27.390 -56.505  1.00  0.00    -0.176 N 
ATOM      3  H2  UNL     1      11.636 -27.239 -55.538  1.00  0.00     0.186 HD
HETATM    4  C9  UNL     1      10.037 -27.462 -56.767  1.00  0.00     0.685 A 
HETATM    5  N4  UNL     1       9.631 -27.659 -58.026  1.00  0.00    -0.174 N 
ATOM      6  H4  UNL     1       8.634 -27.715 -58.233  1.00  0.00     0.186 HD
HETATM    7  C12 UNL     1      10.533 -27.785 -59.027  1.00  0.00     0.152 A 
HETATM    8  N5  UNL     1      10.063 -27.969 -60.278  1.00  0.00    -0.258 N 
ATOM      9  H5  UNL     1       9.060 -28.019 -60.454  1.00  0.00     0.191 HD
HETATM   10  N6  UNL     1      10.917 -28.080 -61.261  1.00  0.00    -0.173 N 
HETATM   11  C13 UNL     1      12.251 -28.018 -61.066  1.00  0.00     0.157 A 
HETATM   12  C14 UNL     1      12.789 -27.833 -59.813  1.00  0.00     0.018 A 
HETATM   13  C19 UNL     1      11.904 -27.709 -58.742  1.00  0.00     0.067 A 
ENDROOT
BRANCH   1  14
HETATM   14  N1  UNL     1      13.541 -27.407 -57.154  1.00  0.00    -0.371 N 
ATOM     15  H1  UNL     1      14.200 -27.183 -57.900  1.00  0.00     0.161 HD
BRANCH  14  16
HETATM   16  C7  UNL     1      14.065 -27.594 -55.810  1.00  0.00     0.160 C 
BRANCH  16  17
HETATM   17  C6  UNL     1      14.849 -26.435 -55.330  1.00  0.00    -0.040 A 
HETATM   18  C5  UNL     1      15.051 -26.176 -53.998  1.00  0.00     0.009 A 
HETATM   19  C4  UNL     1      15.788 -25.082 -53.602  1.00  0.00     0.001 A 
HETATM   20  C3  UNL     1      16.339 -24.223 -54.531  1.00  0.00     0.007 A 
HETATM   21  C2  UNL     1      16.143 -24.472 -55.857  1.00  0.00    -0.061 A 
HETATM   22  C1  UNL     1      16.742 -23.538 -56.847  1.00  0.00     0.048 C 
HETATM   23  C20 UNL     1      15.399 -25.576 -56.254  1.00  0.00     0.015 A 
ENDBRANCH  16  17
ENDBRANCH  14  16
ENDBRANCH   1  14
BRANCH   4  24
HETATM   24  N3  UNL     1       9.189 -27.346 -55.840  1.00  0.00    -0.197 N 
ATOM     25  H3  UNL     1       9.059 -28.190 -55.284  1.00  0.00     0.183 HD
BRANCH  24  26
HETATM   26  C10 UNL     1       8.388 -26.257 -55.438  1.00  0.00     0.194 C 
BRANCH  26  27
HETATM   27  C11 UNL     1       9.136 -25.158 -54.720  1.00  0.00     0.422 C 
HETATM   28  F1  UNL     1       8.490 -23.970 -55.015  1.00  0.00    -0.166 F 
HETATM   29  F2  UNL     1       9.075 -25.307 -53.349  1.00  0.00    -0.166 F 
HETATM   30  F3  UNL     1      10.437 -25.029 -55.164  1.00  0.00    -0.166 F 
ENDBRANCH  26  27
ENDBRANCH  24  26
ENDBRANCH   4  24
BRANCH  12  31
HETATM   31  C15 UNL     1      14.210 -27.833 -59.656  1.00  0.00     0.128 C 
HETATM   32  N7  UNL     1      14.946 -28.804 -59.969  1.00  0.00    -0.277 N 
ATOM     33  H7  UNL     1      15.914 -28.559 -59.762  1.00  0.00     0.193 HD
BRANCH  32  34
HETATM   34  O2  UNL     1      14.919 -29.987 -60.454  1.00  0.00    -0.276 OA
BRANCH  34  35
HETATM   35  C16 UNL     1      14.816 -31.235 -59.795  1.00  0.00     0.144 C 
HETATM   36  C17 UNL     1      13.599 -31.340 -58.939  1.00  0.00     0.042 C 
HETATM   37  C18 UNL     1      14.790 -32.346 -60.820  1.00  0.00     0.042 C 
ENDBRANCH  34  35
ENDBRANCH  32  34
ENDBRANCH  12  31
BRANCH  10  38
HETATM   38  O1  UNL     1      10.460 -28.271 -62.575  1.00  0.00    -0.268 OA
ATOM     39  H1  UNL     1       9.549 -28.108 -62.793  1.00  0.00     0.247 HD
ENDBRANCH  10  38
TORSDOF 10
ENDMDL
MODEL 5
REMARK VINA RESULT: -8.657717817      2.336      3.279
REMARK  10 active torsions:
REMARK  status: ('A' for Active; 'I' for Inactive)
REMARK    1  A    between atoms: C6_6  and  C7_7 
REMARK    2  A    between atoms: C7_7  and  N1_8 
REMARK    3  A    between atoms: N1_8  and  C8_10 
REMARK    4  A    between atoms: C9_13  and  N3_14 
REMARK    5  A    between atoms: N3_14  and  C10_16 
REMARK    6  A    between atoms: C10_16  and  C11_17 
REMARK    7  A    between atoms: N6_26  and  O1_27 
REMARK    8  A    between atoms: C14_30  and  C15_31 
REMARK    9  A    between atoms: N7_32  and  O2_34 
REMARK   10  A    between atoms: O2_34  and  C16_35 
ROOT
HETATM    1  C8  UNL     1      13.075 -27.812 -57.149  1.00  0.00     0.132 A 
HETATM    2  N2  UNL     1      12.134 -27.827 -56.169  1.00  0.00    -0.176 N 
ATOM      3  H2  UNL     1      12.429 -28.071 -55.223  1.00  0.00     0.186 HD
HETATM    4  C9  UNL     1      10.842 -27.541 -56.370  1.00  0.00     0.685 A 
HETATM    5  N4  UNL     1      10.426 -27.218 -57.599  1.00  0.00    -0.174 N 
ATOM      6  H4  UNL     1       9.444 -26.999 -57.760  1.00  0.00     0.186 HD
HETATM    7  C12 UNL     1      11.301 -27.180 -58.632  1.00  0.00     0.152 A 
HETATM    8  N5  UNL     1      10.826 -26.834 -59.847  1.00  0.00    -0.258 N 
ATOM      9  H5  UNL     1       9.837 -26.620 -59.976  1.00  0.00     0.191 HD
HETATM   10  N6  UNL     1      11.656 -26.779 -60.854  1.00  0.00    -0.173 N 
HETATM   11  C13 UNL     1      12.970 -27.057 -60.721  1.00  0.00     0.157 A 
HETATM   12  C14 UNL     1      13.511 -27.416 -59.507  1.00  0.00     0.018 A 
HETATM   13  C19 UNL     1      12.652 -27.483 -58.410  1.00  0.00     0.067 A 
ENDROOT
BRANCH   1  14
HETATM   14  N1  UNL     1      14.287 -28.067 -56.901  1.00  0.00    -0.371 N 
ATOM     15  H1  UNL     1      14.900 -28.294 -57.685  1.00  0.00     0.161 HD
BRANCH  14  16
HETATM   16  C7  UNL     1      14.858 -28.058 -55.564  1.00  0.00     0.160 C 
BRANCH  16  17
HETATM   17  C6  UNL     1      15.396 -26.736 -55.176  1.00  0.00    -0.040 A 
HETATM   18  C5  UNL     1      15.211 -26.196 -53.929  1.00  0.00     0.009 A 
HETATM   19  C4  UNL     1      15.732 -24.960 -53.617  1.00  0.00     0.001 A 
HETATM   20  C3  UNL     1      16.450 -24.237 -54.548  1.00  0.00     0.007 A 
HETATM   21  C2  UNL     1      16.639 -24.765 -55.790  1.00  0.00    -0.061 A 
HETATM   22  C1  UNL     1      17.414 -23.974 -56.783  1.00  0.00     0.048 C 
HETATM   23  C20 UNL     1      16.113 -26.012 -56.102  1.00  0.00     0.015 A 
ENDBRANCH  16  17
ENDBRANCH  14  16
ENDBRANCH   1  14
BRANCH   4  24
HETATM   24  N3  UNL     1      10.018 -27.574 -55.414  1.00  0.00    -0.197 N 
ATOM     25  H3  UNL     1      10.186 -28.323 -54.743  1.00  0.00     0.183 HD
BRANCH  24  26
HETATM   26  C10 UNL     1       8.908 -26.760 -55.110  1.00  0.00     0.194 C 
BRANCH  26  27
HETATM   27  C11 UNL     1       9.259 -25.377 -54.613  1.00  0.00     0.422 C 
HETATM   28  F1  UNL     1       9.046 -25.372 -53.246  1.00  0.00    -0.166 F 
HETATM   29  F2  UNL     1      10.595 -25.087 -54.803  1.00  0.00    -0.166 F 
HETATM   30  F3  UNL     1       8.442 -24.402 -55.150  1.00  0.00    -0.166 F 
ENDBRANCH  26  27
ENDBRANCH  24  26
ENDBRANCH   4  24
BRANCH  12  31
HETATM   31  C15 UNL     1      14.898 -27.756 -59.435  1.00  0.00     0.128 C 
HETATM   32  N7  UNL     1      15.827 -26.963 -59.734  1.00  0.00    -0.277 N 
ATOM     33  H7  UNL     1      16.718 -27.440 -59.600  1.00  0.00     0.193 HD
BRANCH  32  34
HETATM   34  O2  UNL     1      16.057 -25.774 -60.145  1.00  0.00    -0.276 OA
BRANCH  34  35
HETATM   35  C16 UNL     1      17.232 -25.221 -60.710  1.00  0.00     0.144 C 
HETATM   36  C17 UNL     1      17.237 -23.730 -60.692  1.00  0.00     0.042 C 
HETATM   37  C18 UNL     1      18.441 -25.724 -59.954  1.00  0.00     0.042 C 
ENDBRANCH  34  35
ENDBRANCH  32  34
ENDBRANCH  12  31
BRANCH  10  38
HETATM   38  O1  UNL     1      11.193 -26.422 -62.131  1.00  0.00    -0.268 OA
ATOM     39  H1  UNL     1      11.740 -26.567 -62.895  1.00  0.00     0.247 HD
ENDBRANCH  10  38
TORSDOF 10
ENDMDL
