MODEL 1
REMARK VINA RESULT: -6.290542078      0.000      0.000
REMARK  5 active torsions:
REMARK  status: ('A' for Active; 'I' for Inactive)
REMARK    1  A    between atoms: N1_1  and  S1_4 
REMARK    2  A    between atoms: S1_4  and  C1_7 
REMARK    3  A    between atoms: C1_7  and  C2_8 
REMARK       I    between atoms: C2_8  and  N2_10 
REMARK    4  A    between atoms: N2_10  and  C3_12 
REMARK       I    between atoms: N3_15  and  C6_16 
REMARK    5  A    between atoms: C6_16  and  C7_18 
ROOT
HETATM    1  C2  UNL     1     -22.492  -6.760 -15.555  1.00  0.00     0.243 C 
HETATM    2  O3  UNL     1     -22.954  -6.700 -14.388  1.00  0.00    -0.272 OA
HETATM    3  N2  UNL     1     -22.579  -7.978 -16.323  1.00  0.00    -0.353 N 
ATOM      4  H2  UNL     1     -22.205  -8.028 -17.270  1.00  0.00     0.163 HD
ENDROOT
BRANCH   3   5
HETATM    5  C3  UNL     1     -23.203  -9.111 -15.721  1.00  0.00     0.104 C 
HETATM    6  C4  UNL     1     -24.428  -9.469 -16.528  1.00  0.00     0.046 C 
HETATM    7  C5  UNL     1     -24.340 -10.954 -16.825  1.00  0.00     0.128 C 
HETATM    8  N3  UNL     1     -23.394 -11.396 -15.800  1.00  0.00    -0.348 N 
HETATM    9  C6  UNL     1     -23.469 -12.558 -14.992  1.00  0.00     0.248 C 
HETATM   10  C11 UNL     1     -22.366 -10.367 -15.812  1.00  0.00     0.151 C 
HETATM   11  O4  UNL     1     -22.545 -12.749 -14.165  1.00  0.00    -0.270 OA
BRANCH   9  12
HETATM   12  C7  UNL     1     -24.551 -13.535 -15.064  1.00  0.00     0.213 C 
HETATM   13  C8  UNL     1     -24.529 -14.532 -13.924  1.00  0.00     0.043 C 
HETATM   14  C9  UNL     1     -25.930 -15.140 -14.079  1.00  0.00     0.029 C 
HETATM   15  C10 UNL     1     -26.666 -14.037 -14.801  1.00  0.00     0.168 C 
HETATM   16  O5  UNL     1     -25.814 -12.950 -14.855  1.00  0.00    -0.376 OA
ENDBRANCH   9  12
ENDBRANCH   3   5
BRANCH   1  17
HETATM   17  C1  UNL     1     -21.857  -5.545 -16.113  1.00  0.00     0.162 C 
HETATM   18  C12 UNL     1     -20.813  -4.971 -15.182  1.00  0.00     0.037 C 
HETATM   19  C13 UNL     1     -19.717  -4.431 -16.046  1.00  0.00     0.002 C 
HETATM   20  C14 UNL     1     -20.004  -4.826 -17.461  1.00  0.00     0.002 C 
HETATM   21  C15 UNL     1     -21.112  -5.856 -17.401  1.00  0.00     0.037 C 
BRANCH  17  22
HETATM   22  S1  UNL     1     -23.093  -4.354 -16.480  1.00  0.00     0.242 S 
HETATM   23  O1  UNL     1     -23.197  -4.140 -17.953  1.00  0.00    -0.205 OA
HETATM   24  O2  UNL     1     -22.757  -3.026 -15.852  1.00  0.00    -0.205 OA
BRANCH  22  25
HETATM   25  N1  UNL     1     -24.641  -4.827 -15.895  1.00  0.00    -0.327 N 
ATOM     26  H12 UNL     1     -25.030  -5.768 -15.957  1.00  0.00     0.168 HD
ATOM     27  H11 UNL     1     -25.089  -4.008 -15.483  1.00  0.00     0.168 HD
ENDBRANCH  22  25
ENDBRANCH  17  22
ENDBRANCH   1  17
TORSDOF 5
ENDMDL
MODEL 2
REMARK VINA RESULT: -6.280319470      5.519      7.141
REMARK  5 active torsions:
REMARK  status: ('A' for Active; 'I' for Inactive)
REMARK    1  A    between atoms: N1_1  and  S1_4 
REMARK    2  A    between atoms: S1_4  and  C1_7 
REMARK    3  A    between atoms: C1_7  and  C2_8 
REMARK       I    between atoms: C2_8  and  N2_10 
REMARK    4  A    between atoms: N2_10  and  C3_12 
REMARK       I    between atoms: N3_15  and  C6_16 
REMARK    5  A    between atoms: C6_16  and  C7_18 
ROOT
HETATM    1  C2  UNL     1     -23.216  -3.445 -16.805  1.00  0.00     0.243 C 
HETATM    2  O3  UNL     1     -22.666  -2.427 -16.315  1.00  0.00    -0.272 OA
HETATM    3  N2  UNL     1     -22.752  -4.770 -16.473  1.00  0.00    -0.353 N 
ATOM      4  H2  UNL     1     -23.199  -5.596 -16.869  1.00  0.00     0.163 HD
ENDROOT
BRANCH   3   5
HETATM    5  C3  UNL     1     -21.651  -4.892 -15.574  1.00  0.00     0.104 C 
HETATM    6  C4  UNL     1     -21.722  -6.246 -14.910  1.00  0.00     0.046 C 
HETATM    7  C5  UNL     1     -20.353  -6.882 -15.062  1.00  0.00     0.128 C 
HETATM    8  N3  UNL     1     -19.522  -5.711 -15.336  1.00  0.00    -0.348 N 
HETATM    9  C6  UNL     1     -18.242  -5.410 -14.804  1.00  0.00     0.248 C 
HETATM   10  C11 UNL     1     -20.314  -4.936 -16.278  1.00  0.00     0.151 C 
HETATM   11  O4  UNL     1     -17.698  -4.341 -15.172  1.00  0.00    -0.270 OA
BRANCH   9  12
HETATM   12  C7  UNL     1     -17.528  -6.265 -13.861  1.00  0.00     0.213 C 
HETATM   13  C8  UNL     1     -17.493  -7.719 -14.284  1.00  0.00     0.043 C 
HETATM   14  C9  UNL     1     -16.410  -8.244 -13.331  1.00  0.00     0.029 C 
HETATM   15  C10 UNL     1     -15.641  -6.983 -13.015  1.00  0.00     0.168 C 
HETATM   16  O5  UNL     1     -16.150  -5.985 -13.824  1.00  0.00    -0.376 OA
ENDBRANCH   9  12
ENDBRANCH   3   5
BRANCH   1  17
HETATM   17  C1  UNL     1     -24.354  -3.240 -17.731  1.00  0.00     0.162 C 
HETATM   18  C12 UNL     1     -23.964  -2.404 -18.930  1.00  0.00     0.037 C 
HETATM   19  C13 UNL     1     -24.726  -2.948 -20.098  1.00  0.00     0.002 C 
HETATM   20  C14 UNL     1     -25.423  -4.198 -19.656  1.00  0.00     0.002 C 
HETATM   21  C15 UNL     1     -24.837  -4.560 -18.308  1.00  0.00     0.037 C 
BRANCH  17  22
HETATM   22  S1  UNL     1     -25.692  -2.508 -16.863  1.00  0.00     0.242 S 
HETATM   23  O1  UNL     1     -26.840  -3.456 -16.771  1.00  0.00    -0.205 OA
HETATM   24  O2  UNL     1     -26.180  -1.274 -17.577  1.00  0.00    -0.205 OA
BRANCH  22  25
HETATM   25  N1  UNL     1     -25.250  -2.041 -15.266  1.00  0.00    -0.327 N 
ATOM     26  H12 UNL     1     -25.489  -2.555 -14.418  1.00  0.00     0.168 HD
ATOM     27  H11 UNL     1     -24.716  -1.174 -15.324  1.00  0.00     0.168 HD
ENDBRANCH  22  25
ENDBRANCH  17  22
ENDBRANCH   1  17
TORSDOF 5
ENDMDL
MODEL 3
REMARK VINA RESULT: -6.255889013      6.029      7.431
REMARK  5 active torsions:
REMARK  status: ('A' for Active; 'I' for Inactive)
REMARK    1  A    between atoms: N1_1  and  S1_4 
REMARK    2  A    between atoms: S1_4  and  C1_7 
REMARK    3  A    between atoms: C1_7  and  C2_8 
REMARK       I    between atoms: C2_8  and  N2_10 
REMARK    4  A    between atoms: N2_10  and  C3_12 
REMARK       I    between atoms: N3_15  and  C6_16 
REMARK    5  A    between atoms: C6_16  and  C7_18 
ROOT
HETATM    1  C2  UNL     1     -22.885  -2.787 -16.352  1.00  0.00     0.243 C 
HETATM    2  O3  UNL     1     -22.820  -2.195 -15.245  1.00  0.00    -0.272 OA
HETATM    3  N2  UNL     1     -21.993  -3.876 -16.662  1.00  0.00    -0.353 N 
ATOM      4  H2  UNL     1     -22.045  -4.357 -17.560  1.00  0.00     0.163 HD
ENDROOT
BRANCH   3   5
HETATM    5  C3  UNL     1     -21.034  -4.263 -15.679  1.00  0.00     0.104 C 
HETATM    6  C4  UNL     1     -21.321  -5.686 -15.264  1.00  0.00     0.046 C 
HETATM    7  C5  UNL     1     -20.012  -6.446 -15.366  1.00  0.00     0.128 C 
HETATM    8  N3  UNL     1     -19.043  -5.350 -15.344  1.00  0.00    -0.348 N 
HETATM    9  C6  UNL     1     -17.820  -5.286 -14.629  1.00  0.00     0.248 C 
HETATM   10  C11 UNL     1     -19.628  -4.353 -16.226  1.00  0.00     0.151 C 
HETATM   11  O4  UNL     1     -17.133  -4.243 -14.748  1.00  0.00    -0.270 OA
BRANCH   9  12
HETATM   12  C7  UNL     1     -17.320  -6.354 -13.767  1.00  0.00     0.213 C 
HETATM   13  C8  UNL     1     -17.453  -7.729 -14.387  1.00  0.00     0.043 C 
HETATM   14  C9  UNL     1     -16.543  -8.531 -13.445  1.00  0.00     0.029 C 
HETATM   15  C10 UNL     1     -15.636  -7.452 -12.903  1.00  0.00     0.168 C 
HETATM   16  O5  UNL     1     -15.925  -6.293 -13.597  1.00  0.00    -0.376 OA
ENDBRANCH   9  12
ENDBRANCH   3   5
BRANCH   1  17
HETATM   17  C1  UNL     1     -23.905  -2.329 -17.323  1.00  0.00     0.162 C 
HETATM   18  C12 UNL     1     -23.962  -3.218 -18.546  1.00  0.00     0.037 C 
HETATM   19  C13 UNL     1     -25.398  -3.286 -18.961  1.00  0.00     0.002 C 
HETATM   20  C14 UNL     1     -26.218  -2.603 -17.910  1.00  0.00     0.002 C 
HETATM   21  C15 UNL     1     -25.301  -2.389 -16.725  1.00  0.00     0.037 C 
BRANCH  17  22
HETATM   22  S1  UNL     1     -23.582  -0.664 -17.772  1.00  0.00     0.242 S 
HETATM   23  O1  UNL     1     -24.656   0.237 -17.262  1.00  0.00    -0.205 OA
HETATM   24  O2  UNL     1     -23.539  -0.514 -19.270  1.00  0.00    -0.205 OA
BRANCH  22  25
HETATM   25  N1  UNL     1     -22.075  -0.108 -17.153  1.00  0.00    -0.327 N 
ATOM     26  H12 UNL     1     -21.409  -0.677 -16.630  1.00  0.00     0.168 HD
ATOM     27  H11 UNL     1     -21.972   0.876 -17.402  1.00  0.00     0.168 HD
ENDBRANCH  22  25
ENDBRANCH  17  22
ENDBRANCH   1  17
TORSDOF 5
ENDMDL
MODEL 4
REMARK VINA RESULT: -6.184014946      2.748      8.689
REMARK  5 active torsions:
REMARK  status: ('A' for Active; 'I' for Inactive)
REMARK    1  A    between atoms: N1_1  and  S1_4 
REMARK    2  A    between atoms: S1_4  and  C1_7 
REMARK    3  A    between atoms: C1_7  and  C2_8 
REMARK       I    between atoms: C2_8  and  N2_10 
REMARK    4  A    between atoms: N2_10  and  C3_12 
REMARK       I    between atoms: N3_15  and  C6_16 
REMARK    5  A    between atoms: C6_16  and  C7_18 
ROOT
HETATM    1  C2  UNL     1     -24.033 -12.836 -14.775  1.00  0.00     0.243 C 
HETATM    2  O3  UNL     1     -23.005 -13.044 -14.084  1.00  0.00    -0.272 OA
HETATM    3  N2  UNL     1     -24.243 -11.565 -15.425  1.00  0.00    -0.353 N 
ATOM      4  H2  UNL     1     -25.077 -11.395 -15.986  1.00  0.00     0.163 HD
ENDROOT
BRANCH   3   5
HETATM    5  C3  UNL     1     -23.251 -10.553 -15.261  1.00  0.00     0.104 C 
HETATM    6  C4  UNL     1     -22.275 -10.647 -16.409  1.00  0.00     0.046 C 
HETATM    7  C5  UNL     1     -22.143  -9.252 -16.989  1.00  0.00     0.128 C 
HETATM    8  N3  UNL     1     -22.631  -8.433 -15.880  1.00  0.00    -0.348 N 
HETATM    9  C6  UNL     1     -22.084  -7.221 -15.389  1.00  0.00     0.248 C 
HETATM   10  C11 UNL     1     -23.803  -9.153 -15.408  1.00  0.00     0.151 C 
HETATM   11  O4  UNL     1     -22.662  -6.676 -14.417  1.00  0.00    -0.270 OA
BRANCH   9  12
HETATM   12  C7  UNL     1     -20.897  -6.576 -15.943  1.00  0.00     0.213 C 
HETATM   13  C8  UNL     1     -21.224  -5.491 -16.948  1.00  0.00     0.043 C 
HETATM   14  C9  UNL     1     -19.855  -4.801 -17.042  1.00  0.00     0.029 C 
HETATM   15  C10 UNL     1     -19.229  -5.176 -15.720  1.00  0.00     0.168 C 
HETATM   16  O5  UNL     1     -20.202  -5.821 -14.981  1.00  0.00    -0.376 OA
ENDBRANCH   9  12
ENDBRANCH   3   5
BRANCH   1  17
HETATM   17  C1  UNL     1     -25.020 -13.933 -14.899  1.00  0.00     0.162 C 
HETATM   18  C12 UNL     1     -24.647 -15.129 -14.051  1.00  0.00     0.037 C 
HETATM   19  C13 UNL     1     -25.929 -15.708 -13.539  1.00  0.00     0.002 C 
HETATM   20  C14 UNL     1     -27.042 -14.781 -13.918  1.00  0.00     0.002 C 
HETATM   21  C15 UNL     1     -26.388 -13.502 -14.397  1.00  0.00     0.037 C 
BRANCH  17  22
HETATM   22  S1  UNL     1     -25.183 -14.386 -16.586  1.00  0.00     0.242 S 
HETATM   23  O1  UNL     1     -25.149 -15.870 -16.739  1.00  0.00    -0.205 OA
HETATM   24  O2  UNL     1     -24.050 -13.821 -17.403  1.00  0.00    -0.205 OA
BRANCH  22  25
HETATM   25  N1  UNL     1     -26.653 -13.809 -17.272  1.00  0.00    -0.327 N 
ATOM     26  H12 UNL     1     -27.580 -14.191 -17.081  1.00  0.00     0.168 HD
ATOM     27  H11 UNL     1     -26.431 -13.029 -17.891  1.00  0.00     0.168 HD
ENDBRANCH  22  25
ENDBRANCH  17  22
ENDBRANCH   1  17
TORSDOF 5
ENDMDL
MODEL 5
REMARK VINA RESULT: -6.111398166      1.405      1.574
REMARK  5 active torsions:
REMARK  status: ('A' for Active; 'I' for Inactive)
REMARK    1  A    between atoms: N1_1  and  S1_4 
REMARK    2  A    between atoms: S1_4  and  C1_7 
REMARK    3  A    between atoms: C1_7  and  C2_8 
REMARK       I    between atoms: C2_8  and  N2_10 
REMARK    4  A    between atoms: N2_10  and  C3_12 
REMARK       I    between atoms: N3_15  and  C6_16 
REMARK    5  A    between atoms: C6_16  and  C7_18 
ROOT
HETATM    1  C2  UNL     1     -22.577  -7.100 -16.623  1.00  0.00     0.243 C 
HETATM    2  O3  UNL     1     -23.440  -7.133 -17.534  1.00  0.00    -0.272 OA
HETATM    3  N2  UNL     1     -22.317  -8.260 -15.807  1.00  0.00    -0.353 N 
ATOM      4  H2  UNL     1     -21.617  -8.234 -15.066  1.00  0.00     0.163 HD
ENDROOT
BRANCH   3   5
HETATM    5  C3  UNL     1     -23.067  -9.446 -16.064  1.00  0.00     0.104 C 
HETATM    6  C4  UNL     1     -22.112 -10.614 -16.127  1.00  0.00     0.046 C 
HETATM    7  C5  UNL     1     -22.665 -11.685 -15.206  1.00  0.00     0.128 C 
HETATM    8  N3  UNL     1     -24.063 -11.270 -15.091  1.00  0.00    -0.348 N 
HETATM    9  C6  UNL     1     -25.219 -12.089 -15.133  1.00  0.00     0.248 C 
HETATM   10  C11 UNL     1     -23.983  -9.827 -14.923  1.00  0.00     0.151 C 
HETATM   11  O4  UNL     1     -26.334 -11.526 -15.017  1.00  0.00    -0.270 OA
BRANCH   9  12
HETATM   12  C7  UNL     1     -25.187 -13.539 -15.304  1.00  0.00     0.213 C 
HETATM   13  C8  UNL     1     -25.103 -14.291 -13.992  1.00  0.00     0.043 C 
HETATM   14  C9  UNL     1     -25.452 -15.705 -14.477  1.00  0.00     0.029 C 
HETATM   15  C10 UNL     1     -26.229 -15.414 -15.739  1.00  0.00     0.168 C 
HETATM   16  O5  UNL     1     -26.402 -14.045 -15.801  1.00  0.00    -0.376 OA
ENDBRANCH   9  12
ENDBRANCH   3   5
BRANCH   1  17
HETATM   17  C1  UNL     1     -21.838  -5.833 -16.413  1.00  0.00     0.162 C 
HETATM   18  C12 UNL     1     -21.047  -5.845 -15.124  1.00  0.00     0.037 C 
HETATM   19  C13 UNL     1     -19.783  -5.089 -15.389  1.00  0.00     0.002 C 
HETATM   20  C14 UNL     1     -19.726  -4.779 -16.853  1.00  0.00     0.002 C 
HETATM   21  C15 UNL     1     -20.809  -5.610 -17.508  1.00  0.00     0.037 C 
BRANCH  17  22
HETATM   22  S1  UNL     1     -22.963  -4.486 -16.447  1.00  0.00     0.242 S 
HETATM   23  O1  UNL     1     -23.078  -3.932 -17.828  1.00  0.00    -0.205 OA
HETATM   24  O2  UNL     1     -22.488  -3.373 -15.550  1.00  0.00    -0.205 OA
BRANCH  22  25
HETATM   25  N1  UNL     1     -24.536  -4.943 -15.918  1.00  0.00    -0.327 N 
ATOM     26  H12 UNL     1     -25.375  -4.370 -16.011  1.00  0.00     0.168 HD
ATOM     27  H11 UNL     1     -24.475  -5.872 -15.503  1.00  0.00     0.168 HD
ENDBRANCH  22  25
ENDBRANCH  17  22
ENDBRANCH   1  17
TORSDOF 5
ENDMDL
