MODEL 1
REMARK VINA RESULT: -6.532455631      0.000      0.000
REMARK  6 active torsions:
REMARK  status: ('A' for Active; 'I' for Inactive)
REMARK    1  A    between atoms: N1_2  and  N2_3 
REMARK       I    between atoms: N1_2  and  C2_6 
REMARK    2  A    between atoms: C2_6  and  C3_8 
REMARK       I    between atoms: N3_12  and  C7_13 
REMARK    3  A    between atoms: C7_13  and  C8_15 
REMARK    4  A    between atoms: C12_19  and  C13_20 
REMARK    5  A    between atoms: C13_20  and  N4_21 
REMARK    6  A    between atoms: N4_21  and  S1_23 
ROOT
HETATM    1  C3  UNL     1     -23.669  -9.612 -15.525  1.00  0.00     0.181 C 
HETATM    2  C4  UNL     1     -22.967 -10.937 -15.488  1.00  0.00     0.037 C 
HETATM    3  C5  UNL     1     -22.094 -10.900 -16.719  1.00  0.00     0.022 C 
HETATM    4  C6  UNL     1     -22.082  -9.470 -17.186  1.00  0.00     0.127 C 
HETATM    5  N3  UNL     1     -22.659  -8.741 -16.088  1.00  0.00    -0.338 N 
HETATM    6  C7  UNL     1     -22.352  -7.444 -15.644  1.00  0.00     0.225 C 
HETATM    7  O2  UNL     1     -23.049  -6.982 -14.673  1.00  0.00    -0.273 OA
ENDROOT
BRANCH   6   8
HETATM    8  C8  UNL     1     -21.283  -6.579 -16.213  1.00  0.00     0.083 C 
HETATM    9  C9  UNL     1     -21.926  -5.360 -16.903  1.00  0.00     0.014 C 
HETATM   10  C10 UNL     1     -21.096  -4.161 -16.558  1.00  0.00     0.001 C 
HETATM   11  C11 UNL     1     -19.815  -4.818 -16.004  1.00  0.00     0.007 C 
HETATM   12  C12 UNL     1     -20.492  -5.877 -15.151  1.00  0.00     0.013 C 
BRANCH  12  13
HETATM   13  C13 UNL     1     -19.622  -6.664 -14.285  1.00  0.00     0.115 C 
BRANCH  13  14
HETATM   14  N4  UNL     1     -18.272  -6.896 -14.656  1.00  0.00    -0.196 NA
HETATM   15  C14 UNL     1     -17.922  -8.245 -14.172  1.00  0.00     0.132 C 
BRANCH  14  16
HETATM   16  S1  UNL     1     -17.220  -5.824 -13.818  1.00  0.00     0.184 S 
HETATM   17  O3  UNL     1     -18.006  -4.919 -12.879  1.00  0.00    -0.582 OA
HETATM   18  O4  UNL     1     -16.518  -4.890 -14.775  1.00  0.00    -0.582 OA
HETATM   19  O5  UNL     1     -16.092  -6.609 -12.868  1.00  0.00    -0.582 OA
ENDBRANCH  14  16
ENDBRANCH  13  14
ENDBRANCH  12  13
ENDBRANCH   6   8
BRANCH   1  20
HETATM   20  C2  UNL     1     -24.911  -9.609 -16.301  1.00  0.00     0.260 C 
HETATM   21  N1  UNL     1     -26.137 -10.047 -15.736  1.00  0.00    -0.271 N 
HETATM   22  C1  UNL     1     -26.230 -10.510 -14.381  1.00  0.00     0.180 C 
HETATM   23  O1  UNL     1     -24.906  -9.213 -17.489  1.00  0.00    -0.269 OA
BRANCH  21  24
HETATM   24  N2  UNL     1     -27.327 -10.041 -16.506  1.00  0.00    -0.341 N 
ATOM     25  H22 UNL     1     -27.642  -9.187 -16.965  1.00  0.00     0.177 HD
ATOM     26  H21 UNL     1     -27.844 -10.918 -16.576  1.00  0.00     0.177 HD
ENDBRANCH  21  24
ENDBRANCH   1  20
TORSDOF 6
ENDMDL
MODEL 2
REMARK VINA RESULT: -6.341065770      1.252      1.444
REMARK  6 active torsions:
REMARK  status: ('A' for Active; 'I' for Inactive)
REMARK    1  A    between atoms: N1_2  and  N2_3 
REMARK       I    between atoms: N1_2  and  C2_6 
REMARK    2  A    between atoms: C2_6  and  C3_8 
REMARK       I    between atoms: N3_12  and  C7_13 
REMARK    3  A    between atoms: C7_13  and  C8_15 
REMARK    4  A    between atoms: C12_19  and  C13_20 
REMARK    5  A    between atoms: C13_20  and  N4_21 
REMARK    6  A    between atoms: N4_21  and  S1_23 
ROOT
HETATM    1  C3  UNL     1     -22.958  -9.307 -15.822  1.00  0.00     0.181 C 
HETATM    2  C4  UNL     1     -22.442 -10.486 -16.592  1.00  0.00     0.037 C 
HETATM    3  C5  UNL     1     -22.325  -9.954 -18.000  1.00  0.00     0.022 C 
HETATM    4  C6  UNL     1     -22.443  -8.458 -17.898  1.00  0.00     0.127 C 
HETATM    5  N3  UNL     1     -22.316  -8.195 -16.490  1.00  0.00    -0.338 N 
HETATM    6  C7  UNL     1     -21.725  -7.087 -15.859  1.00  0.00     0.225 C 
HETATM    7  O2  UNL     1     -21.787  -7.046 -14.580  1.00  0.00    -0.273 OA
ENDROOT
BRANCH   6   8
HETATM    8  C8  UNL     1     -21.036  -5.972 -16.564  1.00  0.00     0.083 C 
HETATM    9  C9  UNL     1     -21.979  -4.754 -16.637  1.00  0.00     0.014 C 
HETATM   10  C10 UNL     1     -21.156  -3.535 -16.355  1.00  0.00     0.001 C 
HETATM   11  C11 UNL     1     -19.723  -4.082 -16.509  1.00  0.00     0.007 C 
HETATM   12  C12 UNL     1     -19.927  -5.381 -15.748  1.00  0.00     0.013 C 
BRANCH  12  13
HETATM   13  C13 UNL     1     -18.732  -6.180 -15.500  1.00  0.00     0.115 C 
BRANCH  13  14
HETATM   14  N4  UNL     1     -18.441  -6.634 -14.187  1.00  0.00    -0.196 NA
HETATM   15  C14 UNL     1     -18.829  -5.548 -13.266  1.00  0.00     0.132 C 
BRANCH  14  16
HETATM   16  S1  UNL     1     -16.745  -6.827 -13.975  1.00  0.00     0.184 S 
HETATM   17  O3  UNL     1     -16.406  -7.052 -12.508  1.00  0.00    -0.582 OA
HETATM   18  O4  UNL     1     -16.000  -5.572 -14.367  1.00  0.00    -0.582 OA
HETATM   19  O5  UNL     1     -16.117  -8.136 -14.801  1.00  0.00    -0.582 OA
ENDBRANCH  14  16
ENDBRANCH  13  14
ENDBRANCH  12  13
ENDBRANCH   6   8
BRANCH   1  20
HETATM   20  C2  UNL     1     -24.418  -9.188 -15.807  1.00  0.00     0.260 C 
HETATM   21  N1  UNL     1     -25.245 -10.288 -15.460  1.00  0.00    -0.271 N 
HETATM   22  C1  UNL     1     -24.704 -11.567 -15.101  1.00  0.00     0.180 C 
HETATM   23  O1  UNL     1     -24.960  -8.099 -16.104  1.00  0.00    -0.269 OA
BRANCH  21  24
HETATM   24  N2  UNL     1     -26.657 -10.153 -15.457  1.00  0.00    -0.341 N 
ATOM     25  H22 UNL     1     -27.254 -10.965 -15.614  1.00  0.00     0.177 HD
ATOM     26  H21 UNL     1     -27.038  -9.222 -15.292  1.00  0.00     0.177 HD
ENDBRANCH  21  24
ENDBRANCH   1  20
TORSDOF 6
ENDMDL
MODEL 3
REMARK VINA RESULT: -6.175074006      3.408      4.799
REMARK  6 active torsions:
REMARK  status: ('A' for Active; 'I' for Inactive)
REMARK    1  A    between atoms: N1_2  and  N2_3 
REMARK       I    between atoms: N1_2  and  C2_6 
REMARK    2  A    between atoms: C2_6  and  C3_8 
REMARK       I    between atoms: N3_12  and  C7_13 
REMARK    3  A    between atoms: C7_13  and  C8_15 
REMARK    4  A    between atoms: C12_19  and  C13_20 
REMARK    5  A    between atoms: C13_20  and  N4_21 
REMARK    6  A    between atoms: N4_21  and  S1_23 
ROOT
HETATM    1  C3  UNL     1     -24.169  -8.947 -16.160  1.00  0.00     0.181 C 
HETATM    2  C4  UNL     1     -25.493  -8.399 -16.605  1.00  0.00     0.037 C 
HETATM    3  C5  UNL     1     -25.788  -7.333 -15.578  1.00  0.00     0.022 C 
HETATM    4  C6  UNL     1     -24.504  -7.098 -14.832  1.00  0.00     0.127 C 
HETATM    5  N3  UNL     1     -23.512  -7.774 -15.625  1.00  0.00    -0.338 N 
HETATM    6  C7  UNL     1     -22.170  -7.414 -15.835  1.00  0.00     0.225 C 
HETATM    7  O2  UNL     1     -21.459  -8.214 -16.540  1.00  0.00    -0.273 OA
ENDROOT
BRANCH   6   8
HETATM    8  C8  UNL     1     -21.523  -6.183 -15.306  1.00  0.00     0.083 C 
HETATM    9  C9  UNL     1     -20.184  -6.556 -14.639  1.00  0.00     0.014 C 
HETATM   10  C10 UNL     1     -19.185  -5.510 -15.029  1.00  0.00     0.001 C 
HETATM   11  C11 UNL     1     -20.097  -4.398 -15.585  1.00  0.00     0.007 C 
HETATM   12  C12 UNL     1     -21.019  -5.290 -16.399  1.00  0.00     0.013 C 
BRANCH  12  13
HETATM   13  C13 UNL     1     -21.985  -4.612 -17.256  1.00  0.00     0.115 C 
BRANCH  13  14
HETATM   14  N4  UNL     1     -23.199  -4.122 -16.709  1.00  0.00    -0.196 NA
HETATM   15  C14 UNL     1     -24.285  -4.603 -17.586  1.00  0.00     0.132 C 
BRANCH  14  16
HETATM   16  S1  UNL     1     -23.260  -2.406 -16.807  1.00  0.00     0.184 S 
HETATM   17  O3  UNL     1     -21.957  -1.849 -17.363  1.00  0.00    -0.582 OA
HETATM   18  O4  UNL     1     -23.403  -1.788 -15.436  1.00  0.00    -0.582 OA
HETATM   19  O5  UNL     1     -24.471  -1.841 -17.809  1.00  0.00    -0.582 OA
ENDBRANCH  14  16
ENDBRANCH  13  14
ENDBRANCH  12  13
ENDBRANCH   6   8
BRANCH   1  20
HETATM   20  C2  UNL     1     -24.263 -10.034 -15.184  1.00  0.00     0.260 C 
HETATM   21  N1  UNL     1     -23.390 -11.153 -15.237  1.00  0.00    -0.271 N 
HETATM   22  C1  UNL     1     -22.371 -11.279 -16.238  1.00  0.00     0.180 C 
HETATM   23  O1  UNL     1     -25.125  -9.989 -14.278  1.00  0.00    -0.269 OA
BRANCH  21  24
HETATM   24  N2  UNL     1     -23.501 -12.197 -14.285  1.00  0.00    -0.341 N 
ATOM     25  H22 UNL     1     -22.864 -12.993 -14.313  1.00  0.00     0.177 HD
ATOM     26  H21 UNL     1     -24.237 -12.115 -13.584  1.00  0.00     0.177 HD
ENDBRANCH  21  24
ENDBRANCH   1  20
TORSDOF 6
ENDMDL
MODEL 4
REMARK VINA RESULT: -6.122017459      3.990      7.002
REMARK  6 active torsions:
REMARK  status: ('A' for Active; 'I' for Inactive)
REMARK    1  A    between atoms: N1_2  and  N2_3 
REMARK       I    between atoms: N1_2  and  C2_6 
REMARK    2  A    between atoms: C2_6  and  C3_8 
REMARK       I    between atoms: N3_12  and  C7_13 
REMARK    3  A    between atoms: C7_13  and  C8_15 
REMARK    4  A    between atoms: C12_19  and  C13_20 
REMARK    5  A    between atoms: C13_20  and  N4_21 
REMARK    6  A    between atoms: N4_21  and  S1_23 
ROOT
HETATM    1  C3  UNL     1     -22.275  -6.590 -16.247  1.00  0.00     0.181 C 
HETATM    2  C4  UNL     1     -22.506  -6.815 -14.782  1.00  0.00     0.037 C 
HETATM    3  C5  UNL     1     -24.006  -6.951 -14.686  1.00  0.00     0.022 C 
HETATM    4  C6  UNL     1     -24.504  -7.138 -16.093  1.00  0.00     0.127 C 
HETATM    5  N3  UNL     1     -23.311  -7.399 -16.852  1.00  0.00    -0.338 N 
HETATM    6  C7  UNL     1     -23.154  -8.235 -17.971  1.00  0.00     0.225 C 
HETATM    7  O2  UNL     1     -21.996  -8.259 -18.519  1.00  0.00    -0.273 OA
ENDROOT
BRANCH   6   8
HETATM    8  C8  UNL     1     -24.224  -9.088 -18.555  1.00  0.00     0.083 C 
HETATM    9  C9  UNL     1     -23.885  -9.395 -20.028  1.00  0.00     0.014 C 
HETATM   10  C10 UNL     1     -24.218 -10.835 -20.272  1.00  0.00     0.001 C 
HETATM   11  C11 UNL     1     -25.079 -11.170 -19.037  1.00  0.00     0.007 C 
HETATM   12  C12 UNL     1     -24.210 -10.480 -18.000  1.00  0.00     0.013 C 
BRANCH  12  13
HETATM   13  C13 UNL     1     -24.582 -10.684 -16.604  1.00  0.00     0.115 C 
BRANCH  13  14
HETATM   14  N4  UNL     1     -23.614 -11.134 -15.670  1.00  0.00    -0.196 NA
HETATM   15  C14 UNL     1     -22.371 -11.378 -16.428  1.00  0.00     0.132 C 
BRANCH  14  16
HETATM   16  S1  UNL     1     -24.060 -12.664 -15.023  1.00  0.00     0.184 S 
HETATM   17  O3  UNL     1     -24.214 -13.696 -16.131  1.00  0.00    -0.582 OA
HETATM   18  O4  UNL     1     -25.412 -12.598 -14.351  1.00  0.00    -0.582 OA
HETATM   19  O5  UNL     1     -22.934 -13.290 -13.960  1.00  0.00    -0.582 OA
ENDBRANCH  14  16
ENDBRANCH  13  14
ENDBRANCH  12  13
ENDBRANCH   6   8
BRANCH   1  20
HETATM   20  C2  UNL     1     -22.342  -5.187 -16.660  1.00  0.00     0.260 C 
HETATM   21  N1  UNL     1     -21.293  -4.278 -16.363  1.00  0.00    -0.271 N 
HETATM   22  C1  UNL     1     -20.114  -4.679 -15.653  1.00  0.00     0.180 C 
HETATM   23  O1  UNL     1     -23.340  -4.767 -17.289  1.00  0.00    -0.269 OA
BRANCH  21  24
HETATM   24  N2  UNL     1     -21.381  -2.922 -16.768  1.00  0.00    -0.341 N 
ATOM     25  H22 UNL     1     -20.537  -2.362 -16.886  1.00  0.00     0.177 HD
ATOM     26  H21 UNL     1     -22.312  -2.541 -16.931  1.00  0.00     0.177 HD
ENDBRANCH  21  24
ENDBRANCH   1  20
TORSDOF 6
ENDMDL
MODEL 5
REMARK VINA RESULT: -6.118664522      3.531      5.035
REMARK  6 active torsions:
REMARK  status: ('A' for Active; 'I' for Inactive)
REMARK    1  A    between atoms: N1_2  and  N2_3 
REMARK       I    between atoms: N1_2  and  C2_6 
REMARK    2  A    between atoms: C2_6  and  C3_8 
REMARK       I    between atoms: N3_12  and  C7_13 
REMARK    3  A    between atoms: C7_13  and  C8_15 
REMARK    4  A    between atoms: C12_19  and  C13_20 
REMARK    5  A    between atoms: C13_20  and  N4_21 
REMARK    6  A    between atoms: N4_21  and  S1_23 
ROOT
HETATM    1  C3  UNL     1     -24.247  -8.575 -16.332  1.00  0.00     0.181 C 
HETATM    2  C4  UNL     1     -25.643  -8.105 -16.614  1.00  0.00     0.037 C 
HETATM    3  C5  UNL     1     -25.881  -7.069 -15.542  1.00  0.00     0.022 C 
HETATM    4  C6  UNL     1     -24.536  -6.763 -14.944  1.00  0.00     0.127 C 
HETATM    5  N3  UNL     1     -23.604  -7.370 -15.856  1.00  0.00    -0.338 N 
HETATM    6  C7  UNL     1     -22.318  -6.927 -16.212  1.00  0.00     0.225 C 
HETATM    7  O2  UNL     1     -21.647  -7.675 -17.007  1.00  0.00    -0.273 OA
ENDROOT
BRANCH   6   8
HETATM    8  C8  UNL     1     -21.690  -5.664 -15.740  1.00  0.00     0.083 C 
HETATM    9  C9  UNL     1     -20.207  -5.925 -15.405  1.00  0.00     0.014 C 
HETATM   10  C10 UNL     1     -19.421  -4.757 -15.918  1.00  0.00     0.001 C 
HETATM   11  C11 UNL     1     -20.534  -3.722 -16.177  1.00  0.00     0.007 C 
HETATM   12  C12 UNL     1     -21.525  -4.663 -16.842  1.00  0.00     0.013 C 
BRANCH  12  13
HETATM   13  C13 UNL     1     -22.715  -4.047 -17.418  1.00  0.00     0.115 C 
BRANCH  13  14
HETATM   14  N4  UNL     1     -23.730  -3.533 -16.569  1.00  0.00    -0.196 NA
HETATM   15  C14 UNL     1     -25.022  -3.913 -17.172  1.00  0.00     0.132 C 
BRANCH  14  16
HETATM   16  S1  UNL     1     -23.712  -1.813 -16.576  1.00  0.00     0.184 S 
HETATM   17  O3  UNL     1     -23.522  -1.268 -15.167  1.00  0.00    -0.582 OA
HETATM   18  O4  UNL     1     -25.037  -1.256 -17.042  1.00  0.00    -0.582 OA
HETATM   19  O5  UNL     1     -22.475  -1.165 -17.493  1.00  0.00    -0.582 OA
ENDBRANCH  14  16
ENDBRANCH  13  14
ENDBRANCH  12  13
ENDBRANCH   6   8
BRANCH   1  20
HETATM   20  C2  UNL     1     -24.164  -9.676 -15.370  1.00  0.00     0.260 C 
HETATM   21  N1  UNL     1     -23.176 -10.688 -15.488  1.00  0.00    -0.271 N 
HETATM   22  C1  UNL     1     -22.206 -10.689 -16.546  1.00  0.00     0.180 C 
HETATM   23  O1  UNL     1     -24.974  -9.737 -14.418  1.00  0.00    -0.269 OA
BRANCH  21  24
HETATM   24  N2  UNL     1     -23.115 -11.748 -14.549  1.00  0.00    -0.341 N 
ATOM     25  H22 UNL     1     -22.412 -11.745 -13.810  1.00  0.00     0.177 HD
ATOM     26  H21 UNL     1     -23.798 -12.500 -14.647  1.00  0.00     0.177 HD
ENDBRANCH  21  24
ENDBRANCH   1  20
TORSDOF 6
ENDMDL
