MODEL 1
REMARK VINA RESULT: -10.565516919      0.000      0.000
REMARK  13 active torsions:
REMARK  status: ('A' for Active; 'I' for Inactive)
REMARK       I    between atoms: C2_2  and  N1_4 
REMARK    1  A    between atoms: N1_4  and  C3_6 
REMARK    2  A    between atoms: C5_8  and  C6_9 
REMARK    3  A    between atoms: C6_9  and  O2_10 
REMARK    4  A    between atoms: C6_9  and  N2_12 
REMARK    5  A    between atoms: N3_14  and  N4_16 
REMARK    6  A    between atoms: C8_20  and  N6_21 
REMARK    7  A    between atoms: N6_21  and  C9_23 
REMARK    8  A    between atoms: C9_23  and  O3_24 
REMARK    9  A    between atoms: C9_23  and  C10_26 
REMARK   10  A    between atoms: C10_26  and  O4_27 
REMARK   11  A    between atoms: C10_26  and  O5_29 
REMARK   12  A    between atoms: O5_29  and  C11_30 
REMARK   13  A    between atoms: C13_36  and  N9_37 
ROOT
HETATM    1  C11 UNL     1      21.413 -11.097  65.396  1.00  0.00     0.367 C 
HETATM    2  O6  UNL     1      20.595 -11.502  64.533  1.00  0.00    -0.247 OA
HETATM    3  C12 UNL     1      22.699 -10.651  64.962  1.00  0.00     0.170 C 
HETATM    4  N7  UNL     1      23.744 -10.305  64.609  1.00  0.00    -0.186 NA
ENDROOT
BRANCH   1   5
HETATM    5  O5  UNL     1      21.012 -11.111  66.719  1.00  0.00    -0.274 OA
BRANCH   5   6
HETATM    6  C10 UNL     1      21.473 -10.129  67.623  1.00  0.00     0.316 C 
BRANCH   6   7
HETATM    7  C9  UNL     1      20.650  -8.862  67.542  1.00  0.00     0.276 C 
BRANCH   7   8
HETATM    8  N6  UNL     1      21.489  -7.750  67.915  1.00  0.00    -0.331 N 
ATOM      9  H6  UNL     1      22.482  -7.748  67.681  1.00  0.00     0.165 HD
BRANCH   8  10
HETATM   10  C8  UNL     1      20.911  -6.658  68.614  1.00  0.00     0.195 A 
HETATM   11  N5  UNL     1      20.154  -5.715  68.131  1.00  0.00    -0.342 N 
HETATM   12  C7  UNL     1      19.764  -4.785  69.163  1.00  0.00     0.295 A 
ATOM     13  H5  UNL     1      19.873  -5.643  67.153  1.00  0.00     0.164 HD
HETATM   14  N4  UNL     1      20.386  -5.307  70.340  1.00  0.00    -0.199 N 
HETATM   15  N8  UNL     1      21.097  -6.460  70.008  1.00  0.00    -0.252 N 
ATOM     16  H8  UNL     1      21.643  -7.045  70.642  1.00  0.00     0.192 HD
BRANCH  14  17
HETATM   17  N3  UNL     1      20.324  -4.787  71.642  1.00  0.00    -0.226 N 
HETATM   18  N2  UNL     1      21.208  -5.032  72.485  1.00  0.00    -0.288 N 
ATOM     19  H2  UNL     1      21.981  -5.628  72.189  1.00  0.00     0.185 HD
ATOM     20  H3  UNL     1      19.537  -4.193  71.904  1.00  0.00     0.210 HD
BRANCH  18  21
HETATM   21  C6  UNL     1      21.232  -4.549  73.834  1.00  0.00     0.272 C 
BRANCH  21  22
HETATM   22  C5  UNL     1      22.581  -4.078  74.238  1.00  0.00     0.037 A 
HETATM   23  C4  UNL     1      22.794  -2.739  74.609  1.00  0.00     0.048 A 
HETATM   24  C3  UNL     1      24.003  -2.260  74.987  1.00  0.00     0.077 A 
HETATM   25  C14 UNL     1      25.064  -3.172  74.994  1.00  0.00     0.144 A 
HETATM   26  N10 UNL     1      24.854  -4.444  74.639  1.00  0.00    -0.329 N 
HETATM   27  N11 UNL     1      26.341  -2.695  75.386  1.00  0.00    -0.080 NA
HETATM   28  C13 UNL     1      23.658  -4.923  74.265  1.00  0.00     0.110 A 
ATOM     29  H10 UNL     1      25.647  -5.085  74.654  1.00  0.00     0.168 HD
BRANCH  24  30
HETATM   30  N1  UNL     1      24.219  -0.912  75.361  1.00  0.00    -0.325 N 
HETATM   31  C2  UNL     1      23.523   0.232  74.991  1.00  0.00     0.218 C 
HETATM   32  C1  UNL     1      23.942   1.577  75.523  1.00  0.00     0.117 C 
HETATM   33  O1  UNL     1      22.552   0.239  74.231  1.00  0.00    -0.274 OA
ATOM     34  H1  UNL     1      25.001  -0.758  75.997  1.00  0.00     0.169 HD
ENDBRANCH  24  30
BRANCH  28  35
HETATM   35  N9  UNL     1      23.553  -6.177  73.937  1.00  0.00    -0.385 N 
ATOM     36  H92 UNL     1      22.888  -6.768  74.438  1.00  0.00     0.157 HD
ATOM     37  H91 UNL     1      24.117  -6.588  73.193  1.00  0.00     0.157 HD
ENDBRANCH  28  35
ENDBRANCH  21  22
BRANCH  21  38
HETATM   38  O2  UNL     1      20.766  -5.507  74.746  1.00  0.00    -0.371 OA
ATOM     39  H2  UNL     1      21.304  -6.289  74.699  1.00  0.00     0.212 HD
ENDBRANCH  21  38
ENDBRANCH  18  21
ENDBRANCH  14  17
ENDBRANCH   8  10
ENDBRANCH   7   8
BRANCH   7  40
HETATM   40  O3  UNL     1      19.571  -8.913  68.419  1.00  0.00    -0.372 OA
ATOM     41  H3  UNL     1      19.870  -9.280  69.243  1.00  0.00     0.212 HD
ENDBRANCH   7  40
ENDBRANCH   6   7
BRANCH   6  42
HETATM   42  O4  UNL     1      21.324 -10.665  68.897  1.00  0.00    -0.367 OA
ATOM     43  H4  UNL     1      21.666 -11.551  68.890  1.00  0.00     0.212 HD
ENDBRANCH   6  42
ENDBRANCH   5   6
ENDBRANCH   1   5
TORSDOF 13
ENDMDL
MODEL 2
REMARK VINA RESULT: -10.336088193      1.598      2.765
REMARK  13 active torsions:
REMARK  status: ('A' for Active; 'I' for Inactive)
REMARK       I    between atoms: C2_2  and  N1_4 
REMARK    1  A    between atoms: N1_4  and  C3_6 
REMARK    2  A    between atoms: C5_8  and  C6_9 
REMARK    3  A    between atoms: C6_9  and  O2_10 
REMARK    4  A    between atoms: C6_9  and  N2_12 
REMARK    5  A    between atoms: N3_14  and  N4_16 
REMARK    6  A    between atoms: C8_20  and  N6_21 
REMARK    7  A    between atoms: N6_21  and  C9_23 
REMARK    8  A    between atoms: C9_23  and  O3_24 
REMARK    9  A    between atoms: C9_23  and  C10_26 
REMARK   10  A    between atoms: C10_26  and  O4_27 
REMARK   11  A    between atoms: C10_26  and  O5_29 
REMARK   12  A    between atoms: O5_29  and  C11_30 
REMARK   13  A    between atoms: C13_36  and  N9_37 
ROOT
HETATM    1  C11 UNL     1      21.425 -11.090  65.400  1.00  0.00     0.367 C 
HETATM    2  O6  UNL     1      20.592 -11.478  64.545  1.00  0.00    -0.247 OA
HETATM    3  C12 UNL     1      22.713 -10.659  64.955  1.00  0.00     0.170 C 
HETATM    4  N7  UNL     1      23.758 -10.327  64.593  1.00  0.00    -0.186 NA
ENDROOT
BRANCH   1   5
HETATM    5  O5  UNL     1      21.039 -11.106  66.728  1.00  0.00    -0.274 OA
BRANCH   5   6
HETATM    6  C10 UNL     1      21.505 -10.122  67.628  1.00  0.00     0.316 C 
BRANCH   6   7
HETATM    7  C9  UNL     1      20.700  -8.845  67.527  1.00  0.00     0.276 C 
BRANCH   7   8
HETATM    8  N6  UNL     1      21.543  -7.744  67.926  1.00  0.00    -0.331 N 
ATOM      9  H6  UNL     1      22.534  -7.738  67.688  1.00  0.00     0.165 HD
BRANCH   8  10
HETATM   10  C8  UNL     1      20.968  -6.671  68.656  1.00  0.00     0.195 A 
HETATM   11  N5  UNL     1      20.277  -5.671  68.188  1.00  0.00    -0.342 N 
HETATM   12  C7  UNL     1      19.866  -4.785  69.250  1.00  0.00     0.295 A 
ATOM     13  H5  UNL     1      20.055  -5.533  67.202  1.00  0.00     0.164 HD
HETATM   14  N4  UNL     1      20.400  -5.398  70.427  1.00  0.00    -0.199 N 
HETATM   15  N8  UNL     1      21.084  -6.559  70.067  1.00  0.00    -0.252 N 
ATOM     16  H8  UNL     1      21.570  -7.201  70.694  1.00  0.00     0.192 HD
BRANCH  14  17
HETATM   17  N3  UNL     1      20.285  -4.950  71.752  1.00  0.00    -0.226 N 
HETATM   18  N2  UNL     1      19.823  -3.825  72.022  1.00  0.00    -0.288 N 
ATOM     19  H2  UNL     1      19.529  -3.242  71.239  1.00  0.00     0.185 HD
ATOM     20  H3  UNL     1      20.588  -5.559  72.512  1.00  0.00     0.210 HD
BRANCH  18  21
HETATM   21  C6  UNL     1      19.668  -3.281  73.339  1.00  0.00     0.272 C 
BRANCH  21  22
HETATM   22  C5  UNL     1      20.748  -2.321  73.682  1.00  0.00     0.037 A 
HETATM   23  C4  UNL     1      22.017  -2.778  74.076  1.00  0.00     0.048 A 
HETATM   24  C3  UNL     1      23.036  -1.944  74.398  1.00  0.00     0.077 A 
HETATM   25  C14 UNL     1      22.771  -0.573  74.320  1.00  0.00     0.144 A 
HETATM   26  N10 UNL     1      21.561  -0.145  73.945  1.00  0.00    -0.329 N 
HETATM   27  N11 UNL     1      23.822   0.321  74.652  1.00  0.00    -0.080 NA
HETATM   28  C13 UNL     1      20.550  -0.967  73.625  1.00  0.00     0.110 A 
ATOM     29  H10 UNL     1      21.398   0.860  73.899  1.00  0.00     0.168 HD
BRANCH  24  30
HETATM   30  N1  UNL     1      24.314  -2.403  74.795  1.00  0.00    -0.325 N 
HETATM   31  C2  UNL     1      24.800  -3.701  74.888  1.00  0.00     0.218 C 
HETATM   32  C1  UNL     1      26.214  -3.948  75.341  1.00  0.00     0.117 C 
HETATM   33  O1  UNL     1      24.142  -4.709  74.622  1.00  0.00    -0.274 OA
ATOM     34  H1  UNL     1      24.978  -1.671  75.050  1.00  0.00     0.169 HD
ENDBRANCH  24  30
BRANCH  28  35
HETATM   35  N9  UNL     1      19.407  -0.457  73.271  1.00  0.00    -0.385 N 
ATOM     36  H92 UNL     1      18.976  -0.762  72.397  1.00  0.00     0.157 HD
ATOM     37  H91 UNL     1      18.929   0.241  73.842  1.00  0.00     0.157 HD
ENDBRANCH  28  35
ENDBRANCH  21  22
BRANCH  21  38
HETATM   38  O2  UNL     1      19.588  -4.281  74.318  1.00  0.00    -0.371 OA
ATOM     39  H2  UNL     1      18.866  -4.100  74.909  1.00  0.00     0.212 HD
ENDBRANCH  21  38
ENDBRANCH  18  21
ENDBRANCH  14  17
ENDBRANCH   8  10
ENDBRANCH   7   8
BRANCH   7  40
HETATM   40  O3  UNL     1      19.597  -8.885  68.375  1.00  0.00    -0.372 OA
ATOM     41  H3  UNL     1      18.809  -8.866  67.845  1.00  0.00     0.212 HD
ENDBRANCH   7  40
ENDBRANCH   6   7
BRANCH   6  42
HETATM   42  O4  UNL     1      21.337 -10.644  68.905  1.00  0.00    -0.367 OA
ATOM     43  H4  UNL     1      22.166 -11.014  69.188  1.00  0.00     0.212 HD
ENDBRANCH   6  42
ENDBRANCH   5   6
ENDBRANCH   1   5
TORSDOF 13
ENDMDL
MODEL 3
REMARK VINA RESULT: -10.229275236      2.215      2.865
REMARK  13 active torsions:
REMARK  status: ('A' for Active; 'I' for Inactive)
REMARK       I    between atoms: C2_2  and  N1_4 
REMARK    1  A    between atoms: N1_4  and  C3_6 
REMARK    2  A    between atoms: C5_8  and  C6_9 
REMARK    3  A    between atoms: C6_9  and  O2_10 
REMARK    4  A    between atoms: C6_9  and  N2_12 
REMARK    5  A    between atoms: N3_14  and  N4_16 
REMARK    6  A    between atoms: C8_20  and  N6_21 
REMARK    7  A    between atoms: N6_21  and  C9_23 
REMARK    8  A    between atoms: C9_23  and  O3_24 
REMARK    9  A    between atoms: C9_23  and  C10_26 
REMARK   10  A    between atoms: C10_26  and  O4_27 
REMARK   11  A    between atoms: C10_26  and  O5_29 
REMARK   12  A    between atoms: O5_29  and  C11_30 
REMARK   13  A    between atoms: C13_36  and  N9_37 
ROOT
HETATM    1  C11 UNL     1      21.707 -10.989  64.864  1.00  0.00     0.367 C 
HETATM    2  O6  UNL     1      20.567 -10.508  64.653  1.00  0.00    -0.247 OA
HETATM    3  C12 UNL     1      21.981 -12.321  64.426  1.00  0.00     0.170 C 
HETATM    4  N7  UNL     1      22.193 -13.404  64.084  1.00  0.00    -0.186 NA
ENDROOT
BRANCH   1   5
HETATM    5  O5  UNL     1      22.631 -10.191  65.513  1.00  0.00    -0.274 OA
BRANCH   5   6
HETATM    6  C10 UNL     1      22.584 -10.022  66.914  1.00  0.00     0.316 C 
BRANCH   6   7
HETATM    7  C9  UNL     1      21.205 -10.308  67.466  1.00  0.00     0.276 C 
BRANCH   7   8
HETATM    8  N6  UNL     1      20.407  -9.113  67.339  1.00  0.00    -0.331 N 
ATOM      9  H6  UNL     1      19.592  -9.096  66.727  1.00  0.00     0.165 HD
BRANCH   8  10
HETATM   10  C8  UNL     1      20.776  -7.961  68.083  1.00  0.00     0.195 A 
HETATM   11  N5  UNL     1      21.414  -6.909  67.656  1.00  0.00    -0.342 N 
HETATM   12  C7  UNL     1      21.600  -5.951  68.719  1.00  0.00     0.295 A 
ATOM     13  H5  UNL     1      21.740  -6.780  66.698  1.00  0.00     0.164 HD
HETATM   14  N4  UNL     1      20.973  -6.570  69.845  1.00  0.00    -0.199 N 
HETATM   15  N8  UNL     1      20.466  -7.811  69.461  1.00  0.00    -0.252 N 
ATOM     16  H8  UNL     1      19.970  -8.479  70.053  1.00  0.00     0.192 HD
BRANCH  14  17
HETATM   17  N3  UNL     1      20.857  -6.059  71.147  1.00  0.00    -0.226 N 
HETATM   18  N2  UNL     1      21.453  -6.581  72.108  1.00  0.00    -0.288 N 
ATOM     19  H2  UNL     1      22.032  -7.398  71.909  1.00  0.00     0.185 HD
ATOM     20  H3  UNL     1      20.271  -5.240  71.310  1.00  0.00     0.210 HD
BRANCH  18  21
HETATM   21  C6  UNL     1      21.397  -6.133  73.468  1.00  0.00     0.272 C 
BRANCH  21  22
HETATM   22  C5  UNL     1      21.673  -4.680  73.594  1.00  0.00     0.037 A 
HETATM   23  C4  UNL     1      20.645  -3.735  73.433  1.00  0.00     0.048 A 
HETATM   24  C3  UNL     1      20.844  -2.400  73.539  1.00  0.00     0.077 A 
HETATM   25  C14 UNL     1      22.149  -1.982  73.822  1.00  0.00     0.144 A 
HETATM   26  N10 UNL     1      23.123  -2.885  73.974  1.00  0.00    -0.329 N 
HETATM   27  N11 UNL     1      22.384  -0.587  73.938  1.00  0.00    -0.080 NA
HETATM   28  C13 UNL     1      22.929  -4.209  73.870  1.00  0.00     0.110 A 
ATOM     29  H10 UNL     1      24.064  -2.551  74.179  1.00  0.00     0.168 HD
BRANCH  24  30
HETATM   30  N1  UNL     1      19.810  -1.448  73.378  1.00  0.00    -0.325 N 
HETATM   31  C2  UNL     1      18.592  -1.344  74.038  1.00  0.00     0.218 C 
HETATM   32  C1  UNL     1      17.637  -0.232  73.693  1.00  0.00     0.117 C 
HETATM   33  O1  UNL     1      18.210  -2.118  74.918  1.00  0.00    -0.274 OA
ATOM     34  H1  UNL     1      19.984  -0.732  72.672  1.00  0.00     0.169 HD
ENDBRANCH  24  30
BRANCH  28  35
HETATM   35  N9  UNL     1      23.941  -5.012  74.034  1.00  0.00    -0.385 N 
ATOM     36  H92 UNL     1      23.838  -5.821  74.646  1.00  0.00     0.157 HD
ATOM     37  H91 UNL     1      24.834  -4.853  73.567  1.00  0.00     0.157 HD
ENDBRANCH  28  35
ENDBRANCH  21  22
BRANCH  21  38
HETATM   38  O2  UNL     1      22.263  -6.859  74.299  1.00  0.00    -0.371 OA
ATOM     39  H2  UNL     1      22.222  -7.783  74.082  1.00  0.00     0.212 HD
ENDBRANCH  21  38
ENDBRANCH  18  21
ENDBRANCH  14  17
ENDBRANCH   8  10
ENDBRANCH   7   8
BRANCH   7  40
HETATM   40  O3  UNL     1      21.271 -10.652  68.814  1.00  0.00    -0.372 OA
ATOM     41  H3  UNL     1      21.014 -11.562  68.905  1.00  0.00     0.212 HD
ENDBRANCH   7  40
ENDBRANCH   6   7
BRANCH   6  42
HETATM   42  O4  UNL     1      23.471 -10.946  67.453  1.00  0.00    -0.367 OA
ATOM     43  H4  UNL     1      23.008 -11.457  68.107  1.00  0.00     0.212 HD
ENDBRANCH   6  42
ENDBRANCH   5   6
ENDBRANCH   1   5
TORSDOF 13
ENDMDL
MODEL 4
REMARK VINA RESULT: -10.177423470      1.279      1.386
REMARK  13 active torsions:
REMARK  status: ('A' for Active; 'I' for Inactive)
REMARK       I    between atoms: C2_2  and  N1_4 
REMARK    1  A    between atoms: N1_4  and  C3_6 
REMARK    2  A    between atoms: C5_8  and  C6_9 
REMARK    3  A    between atoms: C6_9  and  O2_10 
REMARK    4  A    between atoms: C6_9  and  N2_12 
REMARK    5  A    between atoms: N3_14  and  N4_16 
REMARK    6  A    between atoms: C8_20  and  N6_21 
REMARK    7  A    between atoms: N6_21  and  C9_23 
REMARK    8  A    between atoms: C9_23  and  O3_24 
REMARK    9  A    between atoms: C9_23  and  C10_26 
REMARK   10  A    between atoms: C10_26  and  O4_27 
REMARK   11  A    between atoms: C10_26  and  O5_29 
REMARK   12  A    between atoms: O5_29  and  C11_30 
REMARK   13  A    between atoms: C13_36  and  N9_37 
ROOT
HETATM    1  C11 UNL     1      22.106 -11.011  66.458  1.00  0.00     0.367 C 
HETATM    2  O6  UNL     1      22.473 -11.849  67.317  1.00  0.00    -0.247 OA
HETATM    3  C12 UNL     1      21.676 -11.485  65.180  1.00  0.00     0.170 C 
HETATM    4  N7  UNL     1      21.344 -11.871  64.143  1.00  0.00    -0.186 NA
ENDROOT
BRANCH   1   5
HETATM    5  O5  UNL     1      22.142  -9.674  66.807  1.00  0.00    -0.274 OA
BRANCH   5   6
HETATM    6  C10 UNL     1      21.432  -9.202  67.932  1.00  0.00     0.316 C 
BRANCH   6   7
HETATM    7  C9  UNL     1      20.646  -7.948  67.614  1.00  0.00     0.276 C 
BRANCH   7   8
HETATM    8  N6  UNL     1      21.430  -6.806  68.015  1.00  0.00    -0.331 N 
ATOM      9  H6  UNL     1      22.275  -6.552  67.505  1.00  0.00     0.165 HD
BRANCH   8  10
HETATM   10  C8  UNL     1      21.005  -6.042  69.133  1.00  0.00     0.195 A 
HETATM   11  N5  UNL     1      20.079  -5.127  69.166  1.00  0.00    -0.342 N 
HETATM   12  C7  UNL     1      19.941  -4.577  70.493  1.00  0.00     0.295 A 
ATOM     13  H5  UNL     1      19.524  -4.836  68.360  1.00  0.00     0.164 HD
HETATM   14  N4  UNL     1      20.910  -5.298  71.259  1.00  0.00    -0.199 N 
HETATM   15  N8  UNL     1      21.572  -6.201  70.426  1.00  0.00    -0.252 N 
ATOM     16  H8  UNL     1      22.315  -6.847  70.694  1.00  0.00     0.192 HD
BRANCH  14  17
HETATM   17  N3  UNL     1      21.191  -5.163  72.627  1.00  0.00    -0.226 N 
HETATM   18  N2  UNL     1      21.533  -4.070  73.118  1.00  0.00    -0.288 N 
ATOM     19  H2  UNL     1      21.600  -3.275  72.482  1.00  0.00     0.185 HD
ATOM     20  H3  UNL     1      21.113  -5.979  73.235  1.00  0.00     0.210 HD
BRANCH  18  21
HETATM   21  C6  UNL     1      21.840  -3.834  74.498  1.00  0.00     0.272 C 
BRANCH  21  22
HETATM   22  C5  UNL     1      23.180  -3.219  74.678  1.00  0.00     0.037 A 
HETATM   23  C4  UNL     1      23.310  -1.847  74.955  1.00  0.00     0.048 A 
HETATM   24  C3  UNL     1      24.508  -1.239  75.129  1.00  0.00     0.077 A 
HETATM   25  C14 UNL     1      25.644  -2.049  75.020  1.00  0.00     0.144 A 
HETATM   26  N10 UNL     1      25.512  -3.353  74.756  1.00  0.00    -0.329 N 
HETATM   27  N11 UNL     1      26.910  -1.435  75.199  1.00  0.00    -0.080 NA
HETATM   28  C13 UNL     1      24.328  -3.959  74.584  1.00  0.00     0.110 A 
ATOM     29  H10 UNL     1      26.358  -3.917  74.682  1.00  0.00     0.168 HD
BRANCH  24  30
HETATM   30  N1  UNL     1      24.641   0.142  75.408  1.00  0.00    -0.325 N 
HETATM   31  C2  UNL     1      23.706   1.164  75.289  1.00  0.00     0.218 C 
HETATM   32  C1  UNL     1      24.081   2.577  75.649  1.00  0.00     0.117 C 
HETATM   33  O1  UNL     1      22.549   1.004  74.896  1.00  0.00    -0.274 OA
ATOM     34  H1  UNL     1      25.559   0.431  75.746  1.00  0.00     0.169 HD
ENDBRANCH  24  30
BRANCH  28  35
HETATM   35  N9  UNL     1      24.301  -5.235  74.330  1.00  0.00    -0.385 N 
ATOM     36  H92 UNL     1      24.238  -5.895  75.107  1.00  0.00     0.157 HD
ATOM     37  H91 UNL     1      24.342  -5.595  73.376  1.00  0.00     0.157 HD
ENDBRANCH  28  35
ENDBRANCH  21  22
BRANCH  21  38
HETATM   38  O2  UNL     1      21.741  -5.001  75.268  1.00  0.00    -0.371 OA
ATOM     39  H2  UNL     1      21.974  -5.758  74.742  1.00  0.00     0.212 HD
ENDBRANCH  21  38
ENDBRANCH  18  21
ENDBRANCH  14  17
ENDBRANCH   8  10
ENDBRANCH   7   8
BRANCH   7  40
HETATM   40  O3  UNL     1      19.443  -7.925  68.315  1.00  0.00    -0.372 OA
ATOM     41  H3  UNL     1      19.637  -7.888  69.244  1.00  0.00     0.212 HD
ENDBRANCH   7  40
ENDBRANCH   6   7
BRANCH   6  42
HETATM   42  O4  UNL     1      20.533 -10.203  68.281  1.00  0.00    -0.367 OA
ATOM     43  H4  UNL     1      20.673 -10.945  67.704  1.00  0.00     0.212 HD
ENDBRANCH   6  42
ENDBRANCH   5   6
ENDBRANCH   1   5
TORSDOF 13
ENDMDL
MODEL 5
REMARK VINA RESULT: -10.153336199      3.416      4.260
REMARK  13 active torsions:
REMARK  status: ('A' for Active; 'I' for Inactive)
REMARK       I    between atoms: C2_2  and  N1_4 
REMARK    1  A    between atoms: N1_4  and  C3_6 
REMARK    2  A    between atoms: C5_8  and  C6_9 
REMARK    3  A    between atoms: C6_9  and  O2_10 
REMARK    4  A    between atoms: C6_9  and  N2_12 
REMARK    5  A    between atoms: N3_14  and  N4_16 
REMARK    6  A    between atoms: C8_20  and  N6_21 
REMARK    7  A    between atoms: N6_21  and  C9_23 
REMARK    8  A    between atoms: C9_23  and  O3_24 
REMARK    9  A    between atoms: C9_23  and  C10_26 
REMARK   10  A    between atoms: C10_26  and  O4_27 
REMARK   11  A    between atoms: C10_26  and  O5_29 
REMARK   12  A    between atoms: O5_29  and  C11_30 
REMARK   13  A    between atoms: C13_36  and  N9_37 
ROOT
HETATM    1  C11 UNL     1      21.424 -11.049  65.416  1.00  0.00     0.367 C 
HETATM    2  O6  UNL     1      20.616 -11.472  64.553  1.00  0.00    -0.247 OA
HETATM    3  C12 UNL     1      22.715 -10.609  64.988  1.00  0.00     0.170 C 
HETATM    4  N7  UNL     1      23.763 -10.269  64.641  1.00  0.00    -0.186 NA
ENDROOT
BRANCH   1   5
HETATM    5  O5  UNL     1      21.008 -11.037  66.734  1.00  0.00    -0.274 OA
BRANCH   5   6
HETATM    6  C10 UNL     1      21.449 -10.030  67.622  1.00  0.00     0.316 C 
BRANCH   6   7
HETATM    7  C9  UNL     1      20.581  -8.794  67.542  1.00  0.00     0.276 C 
BRANCH   7   8
HETATM    8  N6  UNL     1      21.417  -7.637  67.749  1.00  0.00    -0.331 N 
ATOM      9  H6  UNL     1      22.341  -7.582  67.322  1.00  0.00     0.165 HD
BRANCH   8  10
HETATM   10  C8  UNL     1      20.931  -6.576  68.558  1.00  0.00     0.195 A 
HETATM   11  N5  UNL     1      19.980  -5.733  68.277  1.00  0.00    -0.342 N 
HETATM   12  C7  UNL     1      19.780  -4.800  69.359  1.00  0.00     0.295 A 
ATOM     13  H5  UNL     1      19.446  -5.732  67.408  1.00  0.00     0.164 HD
HETATM   14  N4  UNL     1      20.741  -5.206  70.337  1.00  0.00    -0.199 N 
HETATM   15  N8  UNL     1      21.457  -6.299  69.849  1.00  0.00    -0.252 N 
ATOM     16  H8  UNL     1      22.208  -6.800  70.324  1.00  0.00     0.192 HD
BRANCH  14  17
HETATM   17  N3  UNL     1      20.970  -4.637  71.600  1.00  0.00    -0.226 N 
HETATM   18  N2  UNL     1      20.835  -3.415  71.798  1.00  0.00    -0.288 N 
ATOM     19  H2  UNL     1      20.549  -2.843  71.003  1.00  0.00     0.185 HD
ATOM     20  H3  UNL     1      21.254  -5.238  72.373  1.00  0.00     0.210 HD
BRANCH  18  21
HETATM   21  C6  UNL     1      21.046  -2.743  73.046  1.00  0.00     0.272 C 
BRANCH  21  22
HETATM   22  C5  UNL     1      19.770  -2.431  73.740  1.00  0.00     0.037 A 
HETATM   23  C4  UNL     1      19.182  -1.160  73.626  1.00  0.00     0.048 A 
HETATM   24  C3  UNL     1      18.020  -0.826  74.237  1.00  0.00     0.077 A 
HETATM   25  C14 UNL     1      17.408  -1.821  75.007  1.00  0.00     0.144 A 
HETATM   26  N10 UNL     1      17.974  -3.028  75.111  1.00  0.00    -0.329 N 
HETATM   27  N11 UNL     1      16.190  -1.496  75.657  1.00  0.00    -0.080 NA
HETATM   28  C13 UNL     1      19.124  -3.363  74.508  1.00  0.00     0.110 A 
ATOM     29  H10 UNL     1      17.505  -3.732  75.680  1.00  0.00     0.168 HD
BRANCH  24  30
HETATM   30  N1  UNL     1      17.426   0.454  74.123  1.00  0.00    -0.325 N 
HETATM   31  C2  UNL     1      16.624   0.971  73.113  1.00  0.00     0.218 C 
HETATM   32  C1  UNL     1      16.101   2.379  73.210  1.00  0.00     0.117 C 
HETATM   33  O1  UNL     1      16.292   0.348  72.102  1.00  0.00    -0.274 OA
ATOM     34  H1  UNL     1      17.615   1.091  74.897  1.00  0.00     0.169 HD
ENDBRANCH  24  30
BRANCH  28  35
HETATM   35  N9  UNL     1      19.597  -4.565  74.668  1.00  0.00    -0.385 N 
ATOM     36  H92 UNL     1      20.605  -4.713  74.616  1.00  0.00     0.157 HD
ATOM     37  H91 UNL     1      18.987  -5.363  74.845  1.00  0.00     0.157 HD
ENDBRANCH  28  35
ENDBRANCH  21  22
BRANCH  21  38
HETATM   38  O2  UNL     1      21.807  -1.575  72.895  1.00  0.00    -0.371 OA
ATOM     39  H2  UNL     1      22.634  -1.665  73.354  1.00  0.00     0.212 HD
ENDBRANCH  21  38
ENDBRANCH  18  21
ENDBRANCH  14  17
ENDBRANCH   8  10
ENDBRANCH   7   8
BRANCH   7  40
HETATM   40  O3  UNL     1      19.600  -8.810  68.529  1.00  0.00    -0.372 OA
ATOM     41  H3  UNL     1      19.892  -9.376  69.235  1.00  0.00     0.212 HD
ENDBRANCH   7  40
ENDBRANCH   6   7
BRANCH   6  42
HETATM   42  O4  UNL     1      21.339 -10.558  68.903  1.00  0.00    -0.367 OA
ATOM     43  H4  UNL     1      20.667 -11.229  68.893  1.00  0.00     0.212 HD
ENDBRANCH   6  42
ENDBRANCH   5   6
ENDBRANCH   1   5
TORSDOF 13
ENDMDL
