MODEL 1
REMARK VINA RESULT: -6.630363034      0.000      0.000
REMARK  8 active torsions:
REMARK  status: ('A' for Active; 'I' for Inactive)
REMARK    1  A    between atoms: N1_2  and  C2_4 
REMARK    2  A    between atoms: C3_7  and  N3_8 
REMARK    3  A    between atoms: C6_11  and  C7_12 
REMARK    4  A    between atoms: C12_18  and  N4_19 
REMARK    5  A    between atoms: N4_19  and  C13_20 
REMARK    6  A    between atoms: C13_20  and  C14_21 
REMARK    7  A    between atoms: N6_32  and  C23_34 
REMARK    8  A    between atoms: C23_34  and  C24_35 
ROOT
HETATM    1  C2  UNL     1      11.999  53.327  86.584  1.00  0.00     0.681 A 
HETATM    2  N2  UNL     1      10.757  52.902  86.778  1.00  0.00    -0.176 N 
ATOM      3  H2  UNL     1      10.166  52.695  85.973  1.00  0.00     0.186 HD
HETATM    4  C3  UNL     1      10.262  52.739  88.018  1.00  0.00     0.134 A 
HETATM    5  C6  UNL     1      10.999  53.000  89.135  1.00  0.00     0.079 A 
HETATM    6  C12 UNL     1      12.344  53.461  88.922  1.00  0.00     0.207 A 
HETATM    7  N7  UNL     1      12.769  53.598  87.655  1.00  0.00    -0.163 N 
ATOM      8  H7  UNL     1      13.722  53.923  87.497  1.00  0.00     0.187 HD
ENDROOT
BRANCH   6   9
HETATM    9  N4  UNL     1      13.002  53.687  89.895  1.00  0.00    -0.397 NA
BRANCH   9  10
HETATM   10  C13 UNL     1      13.724  53.938  90.948  1.00  0.00     0.200 C 
BRANCH  10  11
HETATM   11  C14 UNL     1      13.196  53.901  92.327  1.00  0.00     0.037 A 
HETATM   12  C15 UNL     1      12.654  54.969  92.984  1.00  0.00     0.031 A 
HETATM   13  C16 UNL     1      12.181  54.824  94.291  1.00  0.00    -0.008 A 
HETATM   14  C17 UNL     1      11.640  55.930  94.937  1.00  0.00     0.014 A 
HETATM   15  C21 UNL     1      12.279  53.591  94.878  1.00  0.00     0.044 A 
HETATM   16  C18 UNL     1      11.171  55.810  96.229  1.00  0.00     0.001 A 
HETATM   17  C19 UNL     1      11.263  54.572  96.832  1.00  0.00     0.002 A 
HETATM   18  C20 UNL     1      11.805  53.486  96.173  1.00  0.00     0.030 A 
HETATM   19  N5  UNL     1      12.818  52.545  94.212  1.00  0.00    -0.341 N 
HETATM   20  C22 UNL     1      13.284  52.640  92.960  1.00  0.00     0.114 A 
ATOM     21  H5  UNL     1      12.873  51.643  94.684  1.00  0.00     0.167 HD
HETATM   22  N6  UNL     1      13.809  51.682  92.288  1.00  0.00    -0.369 N 
ATOM     23  H6  UNL     1      14.134  51.877  91.340  1.00  0.00     0.161 HD
BRANCH  22  24
HETATM   24  C23 UNL     1      13.964  50.344  92.800  1.00  0.00     0.190 C 
BRANCH  24  25
HETATM   25  C24 UNL     1      13.414  49.332  91.849  1.00  0.00     0.250 C 
HETATM   26  O2  UNL     1      13.515  49.449  90.639  1.00  0.00    -0.305 OA
ENDBRANCH  24  25
ENDBRANCH  22  24
ENDBRANCH  10  11
ENDBRANCH   9  10
ENDBRANCH   6   9
BRANCH   5  27
HETATM   27  C7  UNL     1      10.496  52.833  90.483  1.00  0.00     0.007 A 
HETATM   28  C8  UNL     1      10.615  51.655  91.225  1.00  0.00     0.154 A 
HETATM   29  O1  UNL     1      10.046  51.818  92.397  1.00  0.00    -0.327 OA
HETATM   30  C9  UNL     1       9.542  53.028  92.518  1.00  0.00     0.049 A 
HETATM   31  C10 UNL     1       8.814  53.596  93.709  1.00  0.00     0.076 C 
HETATM   32  C11 UNL     1       9.816  53.680  91.324  1.00  0.00     0.046 A 
ENDBRANCH   5  27
BRANCH   4  33
HETATM   33  N3  UNL     1       8.935  52.270  88.109  1.00  0.00    -0.375 N 
HETATM   34  C4  UNL     1       7.836  53.183  88.168  1.00  0.00     0.150 C 
HETATM   35  C5  UNL     1       8.709  50.850  88.132  1.00  0.00     0.150 C 
ENDBRANCH   4  33
BRANCH   1  36
HETATM   36  N1  UNL     1      12.551  53.513  85.439  1.00  0.00    -0.230 N 
HETATM   37  C1  UNL     1      12.765  52.555  84.407  1.00  0.00     0.165 C 
ATOM     38  H1  UNL     1      12.875  54.460  85.245  1.00  0.00     0.177 HD
ENDBRANCH   1  36
TORSDOF 8
ENDMDL
MODEL 2
REMARK VINA RESULT: -6.416520138      3.622      9.034
REMARK  8 active torsions:
REMARK  status: ('A' for Active; 'I' for Inactive)
REMARK    1  A    between atoms: N1_2  and  C2_4 
REMARK    2  A    between atoms: C3_7  and  N3_8 
REMARK    3  A    between atoms: C6_11  and  C7_12 
REMARK    4  A    between atoms: C12_18  and  N4_19 
REMARK    5  A    between atoms: N4_19  and  C13_20 
REMARK    6  A    between atoms: C13_20  and  C14_21 
REMARK    7  A    between atoms: N6_32  and  C23_34 
REMARK    8  A    between atoms: C23_34  and  C24_35 
ROOT
HETATM    1  C2  UNL     1      12.116  53.071  90.015  1.00  0.00     0.681 A 
HETATM    2  N2  UNL     1      12.014  51.805  90.403  1.00  0.00    -0.176 N 
ATOM      3  H2  UNL     1      12.157  51.569  91.385  1.00  0.00     0.186 HD
HETATM    4  C3  UNL     1      11.727  50.828  89.525  1.00  0.00     0.134 A 
HETATM    5  C6  UNL     1      11.527  51.078  88.199  1.00  0.00     0.079 A 
HETATM    6  C12 UNL     1      11.637  52.448  87.781  1.00  0.00     0.207 A 
HETATM    7  N7  UNL     1      11.925  53.370  88.716  1.00  0.00    -0.163 N 
ATOM      8  H7  UNL     1      12.004  54.344  88.427  1.00  0.00     0.187 HD
ENDROOT
BRANCH   6   9
HETATM    9  N4  UNL     1      11.458  52.680  86.622  1.00  0.00    -0.397 NA
BRANCH   9  10
HETATM   10  C13 UNL     1      11.256  52.936  85.362  1.00  0.00     0.200 C 
BRANCH  10  11
HETATM   11  C14 UNL     1      12.068  52.361  84.271  1.00  0.00     0.037 A 
HETATM   12  C15 UNL     1      13.379  52.662  84.032  1.00  0.00     0.031 A 
HETATM   13  C16 UNL     1      14.057  52.057  82.971  1.00  0.00    -0.008 A 
HETATM   14  C17 UNL     1      15.389  52.387  82.747  1.00  0.00     0.014 A 
HETATM   15  C21 UNL     1      13.370  51.163  82.193  1.00  0.00     0.044 A 
HETATM   16  C18 UNL     1      16.077  51.805  81.703  1.00  0.00     0.001 A 
HETATM   17  C19 UNL     1      15.395  50.902  80.912  1.00  0.00     0.002 A 
HETATM   18  C20 UNL     1      14.072  50.588  81.150  1.00  0.00     0.030 A 
HETATM   19  N5  UNL     1      12.072  50.877  82.445  1.00  0.00    -0.341 N 
HETATM   20  C22 UNL     1      11.385  51.435  83.450  1.00  0.00     0.114 A 
ATOM     21  H5  UNL     1      11.596  50.206  81.843  1.00  0.00     0.167 HD
HETATM   22  N6  UNL     1      10.154  51.202  83.727  1.00  0.00    -0.369 N 
ATOM     23  H6  UNL     1       9.735  51.693  84.518  1.00  0.00     0.161 HD
BRANCH  22  24
HETATM   24  C23 UNL     1       9.331  50.284  82.981  1.00  0.00     0.190 C 
BRANCH  24  25
HETATM   25  C24 UNL     1       8.658  50.967  81.837  1.00  0.00     0.250 C 
HETATM   26  O2  UNL     1       9.247  51.259  80.809  1.00  0.00    -0.305 OA
ENDBRANCH  24  25
ENDBRANCH  22  24
ENDBRANCH  10  11
ENDBRANCH   9  10
ENDBRANCH   6   9
BRANCH   5  27
HETATM   27  C7  UNL     1      11.214  50.048  87.229  1.00  0.00     0.007 A 
HETATM   28  C8  UNL     1       9.917  49.642  86.905  1.00  0.00     0.154 A 
HETATM   29  O1  UNL     1       9.970  48.685  86.009  1.00  0.00    -0.327 OA
HETATM   30  C9  UNL     1      11.215  48.399  85.689  1.00  0.00     0.049 A 
HETATM   31  C10 UNL     1      11.686  47.364  84.701  1.00  0.00     0.076 C 
HETATM   32  C11 UNL     1      12.011  49.248  86.446  1.00  0.00     0.046 A 
ENDBRANCH   5  27
BRANCH   4  33
HETATM   33  N3  UNL     1      11.631  49.522  90.046  1.00  0.00    -0.375 N 
HETATM   34  C4  UNL     1      12.765  48.651  90.061  1.00  0.00     0.150 C 
HETATM   35  C5  UNL     1      10.366  49.085  90.574  1.00  0.00     0.150 C 
ENDBRANCH   4  33
BRANCH   1  36
HETATM   36  N1  UNL     1      12.388  54.064  90.782  1.00  0.00    -0.230 N 
HETATM   37  C1  UNL     1      13.673  54.549  91.158  1.00  0.00     0.165 C 
ATOM     38  H1  UNL     1      11.589  54.565  91.169  1.00  0.00     0.177 HD
ENDBRANCH   1  36
TORSDOF 8
ENDMDL
MODEL 3
REMARK VINA RESULT: -6.382027428      1.259      1.353
REMARK  8 active torsions:
REMARK  status: ('A' for Active; 'I' for Inactive)
REMARK    1  A    between atoms: N1_2  and  C2_4 
REMARK    2  A    between atoms: C3_7  and  N3_8 
REMARK    3  A    between atoms: C6_11  and  C7_12 
REMARK    4  A    between atoms: C12_18  and  N4_19 
REMARK    5  A    between atoms: N4_19  and  C13_20 
REMARK    6  A    between atoms: C13_20  and  C14_21 
REMARK    7  A    between atoms: N6_32  and  C23_34 
REMARK    8  A    between atoms: C23_34  and  C24_35 
ROOT
HETATM    1  C2  UNL     1      12.456  53.642  87.132  1.00  0.00     0.681 A 
HETATM    2  N2  UNL     1      11.191  53.241  87.164  1.00  0.00    -0.176 N 
ATOM      3  H2  UNL     1      10.677  53.136  86.289  1.00  0.00     0.186 HD
HETATM    4  C3  UNL     1      10.575  52.970  88.328  1.00  0.00     0.134 A 
HETATM    5  C6  UNL     1      11.206  53.093  89.530  1.00  0.00     0.079 A 
HETATM    6  C12 UNL     1      12.575  53.527  89.494  1.00  0.00     0.207 A 
HETATM    7  N7  UNL     1      13.124  53.777  88.294  1.00  0.00    -0.163 N 
ATOM      8  H7  UNL     1      14.095  54.085  88.260  1.00  0.00     0.187 HD
ENDROOT
BRANCH   6   9
HETATM    9  N4  UNL     1      13.141  53.632  90.543  1.00  0.00    -0.397 NA
BRANCH   9  10
HETATM   10  C13 UNL     1      13.764  53.749  91.679  1.00  0.00     0.200 C 
BRANCH  10  11
HETATM   11  C14 UNL     1      13.076  53.966  92.968  1.00  0.00     0.037 A 
HETATM   12  C15 UNL     1      12.571  55.163  93.391  1.00  0.00     0.031 A 
HETATM   13  C16 UNL     1      11.935  55.257  94.632  1.00  0.00    -0.008 A 
HETATM   14  C17 UNL     1      11.435  56.489  95.040  1.00  0.00     0.014 A 
HETATM   15  C21 UNL     1      11.838  54.124  95.395  1.00  0.00     0.044 A 
HETATM   16  C18 UNL     1      10.808  56.607  96.262  1.00  0.00     0.001 A 
HETATM   17  C19 UNL     1      10.703  55.471  97.040  1.00  0.00     0.002 A 
HETATM   18  C20 UNL     1      11.207  54.257  96.618  1.00  0.00     0.030 A 
HETATM   19  N5  UNL     1      12.345  52.948  94.959  1.00  0.00    -0.341 N 
HETATM   20  C22 UNL     1      12.962  52.813  93.778  1.00  0.00     0.114 A 
ATOM     21  H5  UNL     1      12.252  52.127  95.557  1.00  0.00     0.167 HD
HETATM   22  N6  UNL     1      13.463  51.724  93.322  1.00  0.00    -0.369 N 
ATOM     23  H6  UNL     1      13.916  51.745  92.408  1.00  0.00     0.161 HD
BRANCH  22  24
HETATM   24  C23 UNL     1      13.422  50.471  94.034  1.00  0.00     0.190 C 
BRANCH  24  25
HETATM   25  C24 UNL     1      14.605  50.318  94.931  1.00  0.00     0.250 C 
HETATM   26  O2  UNL     1      14.703  50.913  95.992  1.00  0.00    -0.305 OA
ENDBRANCH  24  25
ENDBRANCH  22  24
ENDBRANCH  10  11
ENDBRANCH   9  10
ENDBRANCH   6   9
BRANCH   5  27
HETATM   27  C7  UNL     1      10.570  52.806  90.800  1.00  0.00     0.007 A 
HETATM   28  C8  UNL     1      10.574  51.552  91.416  1.00  0.00     0.154 A 
HETATM   29  O1  UNL     1       9.903  51.616  92.542  1.00  0.00    -0.327 OA
HETATM   30  C9  UNL     1       9.434  52.829  92.750  1.00  0.00     0.049 A 
HETATM   31  C10 UNL     1       8.618  53.300  93.925  1.00  0.00     0.076 C 
HETATM   32  C11 UNL     1       9.845  53.590  91.664  1.00  0.00     0.046 A 
ENDBRANCH   5  27
BRANCH   4  33
HETATM   33  N3  UNL     1       9.235  52.539  88.245  1.00  0.00    -0.375 N 
HETATM   34  C4  UNL     1       8.156  53.472  88.340  1.00  0.00     0.150 C 
HETATM   35  C5  UNL     1       8.975  51.137  88.052  1.00  0.00     0.150 C 
ENDBRANCH   4  33
BRANCH   1  36
HETATM   36  N1  UNL     1      13.121  53.924  86.070  1.00  0.00    -0.230 N 
HETATM   37  C1  UNL     1      13.109  53.234  84.825  1.00  0.00     0.165 C 
ATOM     38  H1  UNL     1      13.729  54.740  86.125  1.00  0.00     0.177 HD
ENDBRANCH   1  36
TORSDOF 8
ENDMDL
MODEL 4
REMARK VINA RESULT: -6.087203192      3.636      9.074
REMARK  8 active torsions:
REMARK  status: ('A' for Active; 'I' for Inactive)
REMARK    1  A    between atoms: N1_2  and  C2_4 
REMARK    2  A    between atoms: C3_7  and  N3_8 
REMARK    3  A    between atoms: C6_11  and  C7_12 
REMARK    4  A    between atoms: C12_18  and  N4_19 
REMARK    5  A    between atoms: N4_19  and  C13_20 
REMARK    6  A    between atoms: C13_20  and  C14_21 
REMARK    7  A    between atoms: N6_32  and  C23_34 
REMARK    8  A    between atoms: C23_34  and  C24_35 
ROOT
HETATM    1  C2  UNL     1      12.810  53.952  88.631  1.00  0.00     0.681 A 
HETATM    2  N2  UNL     1      12.456  53.259  89.706  1.00  0.00    -0.176 N 
ATOM      3  H2  UNL     1      12.746  53.583  90.629  1.00  0.00     0.186 HD
HETATM    4  C3  UNL     1      11.722  52.137  89.602  1.00  0.00     0.134 A 
HETATM    5  C6  UNL     1      11.305  51.651  88.398  1.00  0.00     0.079 A 
HETATM    6  C12 UNL     1      11.689  52.403  87.235  1.00  0.00     0.207 A 
HETATM    7  N7  UNL     1      12.421  53.514  87.418  1.00  0.00    -0.163 N 
ATOM      8  H7  UNL     1      12.697  54.053  86.598  1.00  0.00     0.187 HD
ENDROOT
BRANCH   6   9
HETATM    9  N4  UNL     1      11.324  51.989  86.174  1.00  0.00    -0.397 NA
BRANCH   9  10
HETATM   10  C13 UNL     1      10.919  51.536  85.023  1.00  0.00     0.200 C 
BRANCH  10  11
HETATM   11  C14 UNL     1      11.809  51.358  83.858  1.00  0.00     0.037 A 
HETATM   12  C15 UNL     1      13.091  51.821  83.776  1.00  0.00     0.031 A 
HETATM   13  C16 UNL     1      13.848  51.595  82.624  1.00  0.00    -0.008 A 
HETATM   14  C17 UNL     1      15.149  52.083  82.566  1.00  0.00     0.014 A 
HETATM   15  C21 UNL     1      13.266  50.901  81.596  1.00  0.00     0.044 A 
HETATM   16  C18 UNL     1      15.913  51.875  81.437  1.00  0.00     0.001 A 
HETATM   17  C19 UNL     1      15.337  51.177  80.394  1.00  0.00     0.002 A 
HETATM   18  C20 UNL     1      14.044  50.700  80.470  1.00  0.00     0.030 A 
HETATM   19  N5  UNL     1      11.995  50.450  81.695  1.00  0.00    -0.341 N 
HETATM   20  C22 UNL     1      11.234  50.646  82.779  1.00  0.00     0.114 A 
ATOM     21  H5  UNL     1      11.598  49.938  80.908  1.00  0.00     0.167 HD
HETATM   22  N6  UNL     1      10.024  50.244  82.921  1.00  0.00    -0.369 N 
ATOM     23  H6  UNL     1       9.542  50.458  83.794  1.00  0.00     0.161 HD
BRANCH  22  24
HETATM   24  C23 UNL     1       9.309  49.507  81.910  1.00  0.00     0.190 C 
BRANCH  24  25
HETATM   25  C24 UNL     1       8.587  50.424  80.979  1.00  0.00     0.250 C 
HETATM   26  O2  UNL     1       9.165  51.089  80.135  1.00  0.00    -0.305 OA
ENDBRANCH  24  25
ENDBRANCH  22  24
ENDBRANCH  10  11
ENDBRANCH   9  10
ENDBRANCH   6   9
BRANCH   5  27
HETATM   27  C7  UNL     1      10.512  50.447  88.253  1.00  0.00     0.007 A 
HETATM   28  C8  UNL     1       9.115  50.419  88.277  1.00  0.00     0.154 A 
HETATM   29  O1  UNL     1       8.701  49.182  88.135  1.00  0.00    -0.327 OA
HETATM   30  C9  UNL     1       9.714  48.350  88.014  1.00  0.00     0.049 A 
HETATM   31  C10 UNL     1       9.649  46.856  87.835  1.00  0.00     0.076 C 
HETATM   32  C11 UNL     1      10.861  49.129  88.085  1.00  0.00     0.046 A 
ENDBRANCH   5  27
BRANCH   4  33
HETATM   33  N3  UNL     1      11.392  51.487  90.808  1.00  0.00    -0.375 N 
HETATM   34  C4  UNL     1      12.214  50.439  91.327  1.00  0.00     0.150 C 
HETATM   35  C5  UNL     1      10.211  51.908  91.514  1.00  0.00     0.150 C 
ENDBRANCH   4  33
BRANCH   1  36
HETATM   36  N1  UNL     1      13.510  55.029  88.637  1.00  0.00    -0.230 N 
HETATM   37  C1  UNL     1      14.348  55.519  89.680  1.00  0.00     0.165 C 
ATOM     38  H1  UNL     1      13.460  55.602  87.795  1.00  0.00     0.177 HD
ENDBRANCH   1  36
TORSDOF 8
ENDMDL
MODEL 5
REMARK VINA RESULT: -6.001542144      3.205      5.359
REMARK  8 active torsions:
REMARK  status: ('A' for Active; 'I' for Inactive)
REMARK    1  A    between atoms: N1_2  and  C2_4 
REMARK    2  A    between atoms: C3_7  and  N3_8 
REMARK    3  A    between atoms: C6_11  and  C7_12 
REMARK    4  A    between atoms: C12_18  and  N4_19 
REMARK    5  A    between atoms: N4_19  and  C13_20 
REMARK    6  A    between atoms: C13_20  and  C14_21 
REMARK    7  A    between atoms: N6_32  and  C23_34 
REMARK    8  A    between atoms: C23_34  and  C24_35 
ROOT
HETATM    1  C2  UNL     1      13.471  54.027  91.231  1.00  0.00     0.681 A 
HETATM    2  N2  UNL     1      12.614  53.042  90.988  1.00  0.00    -0.176 N 
ATOM      3  H2  UNL     1      12.743  52.458  90.163  1.00  0.00     0.186 HD
HETATM    4  C3  UNL     1      11.578  52.802  91.811  1.00  0.00     0.134 A 
HETATM    5  C6  UNL     1      11.349  53.548  92.929  1.00  0.00     0.079 A 
HETATM    6  C12 UNL     1      12.278  54.613  93.190  1.00  0.00     0.207 A 
HETATM    7  N7  UNL     1      13.289  54.792  92.324  1.00  0.00    -0.163 N 
ATOM      8  H7  UNL     1      13.952  55.545  92.503  1.00  0.00     0.187 HD
ENDROOT
BRANCH   6   9
HETATM    9  N4  UNL     1      12.090  55.271  94.171  1.00  0.00    -0.397 NA
BRANCH   9  10
HETATM   10  C13 UNL     1      11.893  55.991  95.237  1.00  0.00     0.200 C 
BRANCH  10  11
HETATM   11  C14 UNL     1      10.572  56.158  95.876  1.00  0.00     0.037 A 
HETATM   12  C15 UNL     1       9.578  56.971  95.412  1.00  0.00     0.031 A 
HETATM   13  C16 UNL     1       8.362  57.054  96.096  1.00  0.00    -0.008 A 
HETATM   14  C17 UNL     1       7.369  57.894  95.604  1.00  0.00     0.014 A 
HETATM   15  C21 UNL     1       8.206  56.299  97.228  1.00  0.00     0.044 A 
HETATM   16  C18 UNL     1       6.162  57.995  96.264  1.00  0.00     0.001 A 
HETATM   17  C19 UNL     1       5.993  57.239  97.407  1.00  0.00     0.002 A 
HETATM   18  C20 UNL     1       6.991  56.410  97.880  1.00  0.00     0.030 A 
HETATM   19  N5  UNL     1       9.202  55.500  97.672  1.00  0.00    -0.341 N 
HETATM   20  C22 UNL     1      10.383  55.391  97.050  1.00  0.00     0.114 A 
ATOM     21  H5  UNL     1       9.047  54.954  98.519  1.00  0.00     0.167 HD
HETATM   22  N6  UNL     1      11.360  54.653  97.432  1.00  0.00    -0.369 N 
ATOM     23  H6  UNL     1      12.216  54.658  96.876  1.00  0.00     0.161 HD
BRANCH  22  24
HETATM   24  C23 UNL     1      11.312  53.818  98.605  1.00  0.00     0.190 C 
BRANCH  24  25
HETATM   25  C24 UNL     1      11.858  54.530  99.799  1.00  0.00     0.250 C 
HETATM   26  O2  UNL     1      11.342  55.539 100.253  1.00  0.00    -0.305 OA
ENDBRANCH  24  25
ENDBRANCH  22  24
ENDBRANCH  10  11
ENDBRANCH   9  10
ENDBRANCH   6   9
BRANCH   5  27
HETATM   27  C7  UNL     1      10.244  53.312  93.836  1.00  0.00     0.007 A 
HETATM   28  C8  UNL     1      10.302  52.457  94.940  1.00  0.00     0.154 A 
HETATM   29  O1  UNL     1       9.139  52.449  95.547  1.00  0.00    -0.327 OA
HETATM   30  C9  UNL     1       8.278  53.240  94.941  1.00  0.00     0.049 A 
HETATM   31  C10 UNL     1       6.847  53.499  95.333  1.00  0.00     0.076 C 
HETATM   32  C11 UNL     1       8.957  53.791  93.863  1.00  0.00     0.046 A 
ENDBRANCH   5  27
BRANCH   4  33
HETATM   33  N3  UNL     1      10.738  51.723  91.465  1.00  0.00    -0.375 N 
HETATM   34  C4  UNL     1       9.570  51.929  90.667  1.00  0.00     0.150 C 
HETATM   35  C5  UNL     1      11.086  50.407  91.926  1.00  0.00     0.150 C 
ENDBRANCH   4  33
BRANCH   1  36
HETATM   36  N1  UNL     1      14.483  54.329  90.500  1.00  0.00    -0.230 N 
HETATM   37  C1  UNL     1      14.667  55.496  89.704  1.00  0.00     0.165 C 
ATOM     38  H1  UNL     1      15.246  53.653  90.488  1.00  0.00     0.177 HD
ENDBRANCH   1  36
TORSDOF 8
ENDMDL
