MODEL 1
REMARK VINA RESULT: -4.142338135      0.000      0.000
REMARK  1 active torsions:
REMARK  status: ('A' for Active; 'I' for Inactive)
REMARK    1  A    between atoms: C4_10  and  C5_11 
ROOT
HETATM    1  C1  UNL     1      29.971   9.837   6.430  1.00  0.00     0.064 C 
HETATM    2  C2  UNL     1      31.430   9.934   6.038  1.00  0.00     0.004 A 
HETATM    3  N1  UNL     1      31.749   9.997   4.818  1.00  0.00    -0.198 N 
ATOM      4  H1  UNL     1      31.007   9.980   4.117  1.00  0.00     0.183 HD
HETATM    5  C3  UNL     1      33.084  10.090   4.385  1.00  0.00     0.702 A 
HETATM    6  N2  UNL     1      33.665  10.156   3.144  1.00  0.00    -0.130 N 
ATOM      7  H2  UNL     1      33.161  10.155   2.257  1.00  0.00     0.205 HD
HETATM    8  N3  UNL     1      34.976  10.219   3.275  1.00  0.00    -0.272 N 
ATOM      9  H3  UNL     1      35.654  10.277   2.515  1.00  0.00     0.189 HD
HETATM   10  C4  UNL     1      35.258  10.195   4.589  1.00  0.00     0.150 A 
HETATM   11  N4  UNL     1      34.080  10.114   5.274  1.00  0.00    -0.143 N 
HETATM   12  C6  UNL     1      33.867  10.070   6.693  1.00  0.00     0.134 A 
HETATM   13  C7  UNL     1      34.436  11.339   7.348  1.00  0.00     0.058 C 
HETATM   14 CL3  UNL     1      34.748   8.706   7.438  1.00  0.00    -0.094 Cl
HETATM   15  C8  UNL     1      32.440   9.942   7.106  1.00  0.00     0.101 A 
ENDROOT
BRANCH  10  16
HETATM   16  C5  UNL     1      36.627  10.244   5.189  1.00  0.00     0.247 C 
HETATM   17 CL1  UNL     1      37.784   9.452   4.057  1.00  0.00    -0.100 Cl
HETATM   18 CL2  UNL     1      37.143  11.952   5.285  1.00  0.00    -0.100 Cl
ENDBRANCH  10  16
TORSDOF 1
ENDMDL
MODEL 2
REMARK VINA RESULT: -3.965427645      2.077      2.734
REMARK  1 active torsions:
REMARK  status: ('A' for Active; 'I' for Inactive)
REMARK    1  A    between atoms: C4_10  and  C5_11 
ROOT
HETATM    1  C1  UNL     1      30.478  10.464   6.987  1.00  0.00     0.064 C 
HETATM    2  C2  UNL     1      31.967  10.359   6.738  1.00  0.00     0.004 A 
HETATM    3  N1  UNL     1      32.608   9.363   7.177  1.00  0.00    -0.198 N 
ATOM      4  H1  UNL     1      32.101   8.645   7.695  1.00  0.00     0.183 HD
HETATM    5  C3  UNL     1      33.991   9.203   6.980  1.00  0.00     0.702 A 
HETATM    6  N2  UNL     1      34.887   8.236   7.363  1.00  0.00    -0.130 N 
ATOM      7  H2  UNL     1      34.657   7.398   7.897  1.00  0.00     0.205 HD
HETATM    8  N3  UNL     1      36.092   8.559   6.935  1.00  0.00    -0.272 N 
ATOM      9  H3  UNL     1      36.946   8.020   7.078  1.00  0.00     0.189 HD
HETATM   10  C4  UNL     1      35.993   9.727   6.276  1.00  0.00     0.150 A 
HETATM   11  N4  UNL     1      34.687  10.123   6.307  1.00  0.00    -0.143 N 
HETATM   12  C6  UNL     1      34.090  11.296   5.735  1.00  0.00     0.134 A 
HETATM   13  C7  UNL     1      34.304  11.303   4.214  1.00  0.00     0.058 C 
HETATM   14 CL3  UNL     1      34.873  12.783   6.341  1.00  0.00    -0.094 Cl
HETATM   15  C8  UNL     1      32.629  11.440   5.993  1.00  0.00     0.101 A 
ENDROOT
BRANCH  10  16
HETATM   16  C5  UNL     1      37.124  10.462   5.628  1.00  0.00     0.247 C 
HETATM   17 CL1  UNL     1      38.566  10.372   6.704  1.00  0.00    -0.100 Cl
HETATM   18 CL2  UNL     1      37.583   9.593   4.136  1.00  0.00    -0.100 Cl
ENDBRANCH  10  16
TORSDOF 1
ENDMDL
MODEL 3
REMARK VINA RESULT: -3.902901231      9.540     10.649
REMARK  1 active torsions:
REMARK  status: ('A' for Active; 'I' for Inactive)
REMARK    1  A    between atoms: C4_10  and  C5_11 
ROOT
HETATM    1  C1  UNL     1      29.521  18.921   6.237  1.00  0.00     0.064 C 
HETATM    2  C2  UNL     1      28.903  18.299   5.004  1.00  0.00     0.004 A 
HETATM    3  N1  UNL     1      28.437  17.126   5.060  1.00  0.00    -0.198 N 
ATOM      4  H1  UNL     1      28.490  16.621   5.944  1.00  0.00     0.183 HD
HETATM    5  C3  UNL     1      27.849  16.490   3.952  1.00  0.00     0.702 A 
HETATM    6  N2  UNL     1      27.298  15.246   3.770  1.00  0.00    -0.130 N 
ATOM      7  H2  UNL     1      27.217  14.526   4.488  1.00  0.00     0.205 HD
HETATM    8  N3  UNL     1      26.888  15.126   2.521  1.00  0.00    -0.272 N 
ATOM      9  H3  UNL     1      26.441  14.306   2.111  1.00  0.00     0.189 HD
HETATM   10  C4  UNL     1      27.167  16.278   1.887  1.00  0.00     0.150 A 
HETATM   11  N4  UNL     1      27.763  17.121   2.779  1.00  0.00    -0.143 N 
HETATM   12  C6  UNL     1      28.232  18.462   2.573  1.00  0.00     0.134 A 
HETATM   13  C7  UNL     1      27.066  19.363   2.138  1.00  0.00     0.058 C 
HETATM   14 CL3  UNL     1      29.422  18.535   1.242  1.00  0.00    -0.094 Cl
HETATM   15  C8  UNL     1      28.875  19.087   3.764  1.00  0.00     0.101 A 
ENDROOT
BRANCH  10  16
HETATM   16  C5  UNL     1      26.875  16.575   0.450  1.00  0.00     0.247 C 
HETATM   17 CL1  UNL     1      27.369  15.158  -0.547  1.00  0.00    -0.100 Cl
HETATM   18 CL2  UNL     1      25.105  16.711   0.248  1.00  0.00    -0.100 Cl
ENDBRANCH  10  16
TORSDOF 1
ENDMDL
MODEL 4
REMARK VINA RESULT: -3.834453897      9.182     10.257
REMARK  1 active torsions:
REMARK  status: ('A' for Active; 'I' for Inactive)
REMARK    1  A    between atoms: C4_10  and  C5_11 
ROOT
HETATM    1  C1  UNL     1      30.693  16.623   7.185  1.00  0.00     0.064 C 
HETATM    2  C2  UNL     1      29.863  16.936   5.959  1.00  0.00     0.004 A 
HETATM    3  N1  UNL     1      28.977  16.121   5.577  1.00  0.00    -0.198 N 
ATOM      4  H1  UNL     1      28.840  15.262   6.109  1.00  0.00     0.183 HD
HETATM    5  C3  UNL     1      28.170  16.351   4.448  1.00  0.00     0.702 A 
HETATM    6  N2  UNL     1      27.174  15.625   3.844  1.00  0.00    -0.130 N 
ATOM      7  H2  UNL     1      26.829  14.719   4.163  1.00  0.00     0.205 HD
HETATM    8  N3  UNL     1      26.731  16.279   2.788  1.00  0.00    -0.272 N 
ATOM      9  H3  UNL     1      25.993  15.971   2.155  1.00  0.00     0.189 HD
HETATM   10  C4  UNL     1      27.428  17.425   2.695  1.00  0.00     0.150 A 
HETATM   11  N4  UNL     1      28.320  17.465   3.728  1.00  0.00    -0.143 N 
HETATM   12  C6  UNL     1      29.273  18.488   4.053  1.00  0.00     0.134 A 
HETATM   13  C7  UNL     1      28.545  19.816   4.317  1.00  0.00     0.058 C 
HETATM   14 CL3  UNL     1      30.377  18.805   2.685  1.00  0.00    -0.094 Cl
HETATM   15  C8  UNL     1      30.126  18.190   5.239  1.00  0.00     0.101 A 
ENDROOT
BRANCH  10  16
HETATM   16  C5  UNL     1      27.255  18.468   1.637  1.00  0.00     0.247 C 
HETATM   17 CL1  UNL     1      27.764  17.779   0.053  1.00  0.00    -0.100 Cl
HETATM   18 CL2  UNL     1      25.511  18.819   1.469  1.00  0.00    -0.100 Cl
ENDBRANCH  10  16
TORSDOF 1
ENDMDL
MODEL 5
REMARK VINA RESULT: -3.804841537      9.294     10.433
REMARK  1 active torsions:
REMARK  status: ('A' for Active; 'I' for Inactive)
REMARK    1  A    between atoms: C4_10  and  C5_11 
ROOT
HETATM    1  C1  UNL     1      26.596  14.448   1.042  1.00  0.00     0.064 C 
HETATM    2  C2  UNL     1      27.159  15.568   1.891  1.00  0.00     0.004 A 
HETATM    3  N1  UNL     1      27.509  15.337   3.082  1.00  0.00    -0.198 N 
ATOM      4  H1  UNL     1      27.403  14.391   3.448  1.00  0.00     0.183 HD
HETATM    5  C3  UNL     1      28.041  16.330   3.923  1.00  0.00     0.702 A 
HETATM    6  N2  UNL     1      28.471  16.323   5.227  1.00  0.00    -0.130 N 
ATOM      7  H2  UNL     1      28.477  15.509   5.841  1.00  0.00     0.205 HD
HETATM    8  N3  UNL     1      28.875  17.533   5.563  1.00  0.00    -0.272 N 
ATOM      9  H3  UNL     1      29.244  17.814   6.472  1.00  0.00     0.189 HD
HETATM   10  C4  UNL     1      28.713  18.331   4.493  1.00  0.00     0.150 A 
HETATM   11  N4  UNL     1      28.195  17.579   3.478  1.00  0.00    -0.143 N 
HETATM   12  C6  UNL     1      27.859  17.984   2.142  1.00  0.00     0.134 A 
HETATM   13  C7  UNL     1      29.109  18.519   1.427  1.00  0.00     0.058 C 
HETATM   14 CL3  UNL     1      26.690  19.335   2.149  1.00  0.00    -0.094 Cl
HETATM   15  C8  UNL     1      27.272  16.907   1.294  1.00  0.00     0.101 A 
ENDROOT
BRANCH  10  16
HETATM   16  C5  UNL     1      29.041  19.789   4.434  1.00  0.00     0.247 C 
HETATM   17 CL1  UNL     1      28.276  20.613   5.841  1.00  0.00    -0.100 Cl
HETATM   18 CL2  UNL     1      30.803  19.983   4.664  1.00  0.00    -0.100 Cl
ENDBRANCH  10  16
TORSDOF 1
ENDMDL
