MODEL 1
REMARK VINA RESULT: -9.334419432      0.000      0.000
REMARK  8 active torsions:
REMARK  status: ('A' for Active; 'I' for Inactive)
REMARK    1  A    between atoms: C2_2  and  C3_3 
REMARK    2  A    between atoms: C4_8  and  N3_9 
REMARK    3  A    between atoms: C9_14  and  N4_15 
REMARK    4  A    between atoms: C10_18  and  C11_19 
REMARK    5  A    between atoms: C10_18  and  C13_21 
REMARK    6  A    between atoms: C23_32  and  O2_33 
REMARK    7  A    between atoms: N5_37  and  C26_38 
REMARK    8  A    between atoms: C26_38  and  C27_39 
ROOT
HETATM    1  C3  UNL     1     -78.206 -18.577  82.655  1.00  0.00     0.039 A 
HETATM    2  N1  UNL     1     -77.517 -18.001  81.594  1.00  0.00    -0.302 N 
ATOM      3  H1  UNL     1     -78.032 -17.822  80.733  1.00  0.00     0.186 HD
HETATM    4  N2  UNL     1     -76.277 -17.680  81.625  1.00  0.00    -0.283 N 
ATOM      5  H2  UNL     1     -75.852 -17.263  80.797  1.00  0.00     0.188 HD
HETATM    6  C4  UNL     1     -75.509 -17.882  82.734  1.00  0.00     0.156 A 
HETATM    7  C16 UNL     1     -76.093 -18.443  83.829  1.00  0.00     0.095 A 
HETATM    8  C17 UNL     1     -77.474 -18.807  83.774  1.00  0.00     0.032 A 
HETATM    9  C18 UNL     1     -77.793 -19.349  85.000  1.00  0.00     0.012 A 
HETATM   10  C19 UNL     1     -78.920 -19.907  85.499  1.00  0.00    -0.040 A 
HETATM   11  C20 UNL     1     -80.053 -20.427  84.740  1.00  0.00     0.050 C 
HETATM   12  C21 UNL     1     -78.912 -20.370  86.823  1.00  0.00    -0.022 A 
HETATM   13  C22 UNL     1     -80.165 -20.926  87.393  1.00  0.00     0.052 C 
HETATM   14  C23 UNL     1     -77.801 -20.291  87.613  1.00  0.00     0.074 A 
HETATM   15  C24 UNL     1     -76.663 -19.733  87.071  1.00  0.00     0.067 A 
HETATM   16  C25 UNL     1     -76.637 -19.256  85.770  1.00  0.00     0.049 A 
HETATM   17  N5  UNL     1     -75.625 -18.717  85.061  1.00  0.00    -0.337 N 
ENDROOT
BRANCH   6  18
HETATM   18  N3  UNL     1     -74.157 -17.558  82.609  1.00  0.00    -0.291 N 
HETATM   19  C5  UNL     1     -73.713 -16.436  83.202  1.00  0.00     0.101 A 
HETATM   20  C6  UNL     1     -72.398 -16.052  83.216  1.00  0.00     0.027 A 
HETATM   21  C7  UNL     1     -71.455 -16.841  82.597  1.00  0.00    -0.020 A 
HETATM   22  C8  UNL     1     -71.873 -17.996  81.983  1.00  0.00     0.029 A 
HETATM   23  C15 UNL     1     -69.977 -16.739  82.416  1.00  0.00     0.208 C 
HETATM   24  C9  UNL     1     -73.241 -18.327  82.008  1.00  0.00     0.116 A 
HETATM   25  C10 UNL     1     -70.681 -18.634  81.412  1.00  0.00     0.092 C 
HETATM   26  O1  UNL     1     -69.619 -18.004  82.018  1.00  0.00    -0.371 OA
BRANCH  24  27
HETATM   27  N4  UNL     1     -73.585 -19.439  81.448  1.00  0.00    -0.384 N 
ATOM     28  H42 UNL     1     -74.553 -19.520  81.139  1.00  0.00     0.157 HD
ATOM     29  H41 UNL     1     -72.899 -20.181  81.306  1.00  0.00     0.157 HD
ENDBRANCH  24  27
BRANCH  25  30
HETATM   30  C11 UNL     1     -70.573 -18.433  79.916  1.00  0.00     0.039 C 
HETATM   31  C12 UNL     1     -70.732 -19.675  79.113  1.00  0.00     0.008 C 
ENDBRANCH  25  30
BRANCH  25  32
HETATM   32  C13 UNL     1     -70.570 -20.105  81.758  1.00  0.00     0.039 C 
HETATM   33  C14 UNL     1     -70.300 -20.154  83.268  1.00  0.00     0.008 C 
ENDBRANCH  25  32
ENDBRANCH   6  18
BRANCH  17  34
HETATM   34  C26 UNL     1     -74.340 -18.456  85.625  1.00  0.00     0.200 C 
BRANCH  34  35
HETATM   35  C27 UNL     1     -74.337 -17.163  86.435  1.00  0.00     0.371 C 
HETATM   36  F1  UNL     1     -75.321 -16.306  86.011  1.00  0.00    -0.213 F 
HETATM   37  F2  UNL     1     -74.623 -17.435  87.768  1.00  0.00    -0.213 F 
ENDBRANCH  34  35
ENDBRANCH  17  34
BRANCH   1  38
HETATM   38  C2  UNL     1     -79.653 -18.554  82.517  1.00  0.00     0.055 C 
HETATM   39  C1  UNL     1     -80.113 -18.188  81.090  1.00  0.00     0.011 C 
ENDBRANCH   1  38
BRANCH  14  40
HETATM   40  O2  UNL     1     -77.771 -20.741  88.914  1.00  0.00    -0.360 OA
ATOM     41  H2  UNL     1     -77.064 -20.540  89.515  1.00  0.00     0.217 HD
ENDBRANCH  14  40
TORSDOF 8
ENDMDL
MODEL 2
REMARK VINA RESULT: -9.234042224      3.455      6.435
REMARK  8 active torsions:
REMARK  status: ('A' for Active; 'I' for Inactive)
REMARK    1  A    between atoms: C2_2  and  C3_3 
REMARK    2  A    between atoms: C4_8  and  N3_9 
REMARK    3  A    between atoms: C9_14  and  N4_15 
REMARK    4  A    between atoms: C10_18  and  C11_19 
REMARK    5  A    between atoms: C10_18  and  C13_21 
REMARK    6  A    between atoms: C23_32  and  O2_33 
REMARK    7  A    between atoms: N5_37  and  C26_38 
REMARK    8  A    between atoms: C26_38  and  C27_39 
ROOT
HETATM    1  C3  UNL     1     -77.848 -19.863  86.765  1.00  0.00     0.039 A 
HETATM    2  N1  UNL     1     -77.363 -20.094  88.048  1.00  0.00    -0.302 N 
ATOM      3  H1  UNL     1     -77.972 -20.579  88.706  1.00  0.00     0.186 HD
HETATM    4  N2  UNL     1     -76.203 -19.738  88.458  1.00  0.00    -0.283 N 
ATOM      5  H2  UNL     1     -75.931 -19.948  89.419  1.00  0.00     0.188 HD
HETATM    6  C4  UNL     1     -75.322 -19.084  87.648  1.00  0.00     0.156 A 
HETATM    7  C16 UNL     1     -75.704 -18.809  86.370  1.00  0.00     0.095 A 
HETATM    8  C17 UNL     1     -77.006 -19.202  85.931  1.00  0.00     0.032 A 
HETATM    9  C18 UNL     1     -77.123 -18.798  84.619  1.00  0.00     0.012 A 
HETATM   10  C19 UNL     1     -78.136 -18.849  83.723  1.00  0.00    -0.040 A 
HETATM   11  C20 UNL     1     -79.554 -19.040  84.010  1.00  0.00     0.050 C 
HETATM   12  C21 UNL     1     -77.921 -18.340  82.434  1.00  0.00    -0.022 A 
HETATM   13  C22 UNL     1     -79.009 -18.452  81.430  1.00  0.00     0.052 C 
HETATM   14  C23 UNL     1     -76.731 -17.780  82.065  1.00  0.00     0.074 A 
HETATM   15  C24 UNL     1     -75.724 -17.725  83.004  1.00  0.00     0.067 A 
HETATM   16  C25 UNL     1     -75.899 -18.228  84.285  1.00  0.00     0.049 A 
HETATM   17  N5  UNL     1     -75.058 -18.236  85.338  1.00  0.00    -0.337 N 
ENDROOT
BRANCH   6  18
HETATM   18  N3  UNL     1     -74.123 -18.687  88.243  1.00  0.00    -0.291 N 
HETATM   19  C5  UNL     1     -73.056 -19.497  88.127  1.00  0.00     0.101 A 
HETATM   20  C6  UNL     1     -71.808 -19.182  88.599  1.00  0.00     0.027 A 
HETATM   21  C7  UNL     1     -71.606 -17.976  89.230  1.00  0.00    -0.020 A 
HETATM   22  C8  UNL     1     -72.674 -17.123  89.364  1.00  0.00     0.029 A 
HETATM   23  C15 UNL     1     -70.420 -17.319  89.853  1.00  0.00     0.208 C 
HETATM   24  C9  UNL     1     -73.928 -17.512  88.854  1.00  0.00     0.116 A 
HETATM   25  C10 UNL     1     -72.186 -15.929  90.063  1.00  0.00     0.092 C 
HETATM   26  O1  UNL     1     -70.815 -16.010  89.983  1.00  0.00    -0.371 OA
BRANCH  24  27
HETATM   27  N4  UNL     1     -74.896 -16.666  88.971  1.00  0.00    -0.384 N 
ATOM     28  H42 UNL     1     -75.272 -16.520  89.908  1.00  0.00     0.157 HD
ATOM     29  H41 UNL     1     -75.238 -16.155  88.157  1.00  0.00     0.157 HD
ENDBRANCH  24  27
BRANCH  25  30
HETATM   30  C11 UNL     1     -72.584 -15.905  91.522  1.00  0.00     0.039 C 
HETATM   31  C12 UNL     1     -72.006 -14.778  92.302  1.00  0.00     0.008 C 
ENDBRANCH  25  30
BRANCH  25  32
HETATM   32  C13 UNL     1     -72.586 -14.636  89.383  1.00  0.00     0.039 C 
HETATM   33  C14 UNL     1     -71.304 -14.098  88.732  1.00  0.00     0.008 C 
ENDBRANCH  25  32
ENDBRANCH   6  18
BRANCH  17  34
HETATM   34  C26 UNL     1     -73.714 -17.762  85.257  1.00  0.00     0.200 C 
BRANCH  34  35
HETATM   35  C27 UNL     1     -73.645 -16.246  85.419  1.00  0.00     0.371 C 
HETATM   36  F1  UNL     1     -74.773 -15.757  86.028  1.00  0.00    -0.213 F 
HETATM   37  F2  UNL     1     -72.587 -15.904  86.254  1.00  0.00    -0.213 F 
ENDBRANCH  34  35
ENDBRANCH  17  34
BRANCH   1  38
HETATM   38  C2  UNL     1     -79.036 -20.627  86.423  1.00  0.00     0.055 C 
HETATM   39  C1  UNL     1     -79.899 -20.976  87.655  1.00  0.00     0.011 C 
ENDBRANCH   1  38
BRANCH  14  40
HETATM   40  O2  UNL     1     -76.500 -17.272  80.806  1.00  0.00    -0.360 OA
ATOM     41  H2  UNL     1     -75.718 -16.781  80.582  1.00  0.00     0.217 HD
ENDBRANCH  14  40
TORSDOF 8
ENDMDL
MODEL 3
REMARK VINA RESULT: -9.224924761      4.307      6.897
REMARK  8 active torsions:
REMARK  status: ('A' for Active; 'I' for Inactive)
REMARK    1  A    between atoms: C2_2  and  C3_3 
REMARK    2  A    between atoms: C4_8  and  N3_9 
REMARK    3  A    between atoms: C9_14  and  N4_15 
REMARK    4  A    between atoms: C10_18  and  C11_19 
REMARK    5  A    between atoms: C10_18  and  C13_21 
REMARK    6  A    between atoms: C23_32  and  O2_33 
REMARK    7  A    between atoms: N5_37  and  C26_38 
REMARK    8  A    between atoms: C26_38  and  C27_39 
ROOT
HETATM    1  C3  UNL     1     -77.987 -20.807  89.180  1.00  0.00     0.039 A 
HETATM    2  N1  UNL     1     -77.145 -20.799  90.287  1.00  0.00    -0.302 N 
ATOM      3  H1  UNL     1     -77.472 -21.260  91.136  1.00  0.00     0.186 HD
HETATM    4  N2  UNL     1     -75.987 -20.251  90.312  1.00  0.00    -0.283 N 
ATOM      5  H2  UNL     1     -75.438 -20.294  91.171  1.00  0.00     0.188 HD
HETATM    6  C4  UNL     1     -75.469 -19.613  89.224  1.00  0.00     0.156 A 
HETATM    7  C16 UNL     1     -76.218 -19.565  88.088  1.00  0.00     0.095 A 
HETATM    8  C17 UNL     1     -77.513 -20.170  88.079  1.00  0.00     0.032 A 
HETATM    9  C18 UNL     1     -78.040 -19.967  86.822  1.00  0.00     0.012 A 
HETATM   10  C19 UNL     1     -79.235 -20.264  86.262  1.00  0.00    -0.040 A 
HETATM   11  C20 UNL     1     -80.477 -20.584  86.959  1.00  0.00     0.050 C 
HETATM   12  C21 UNL     1     -79.456 -19.913  84.922  1.00  0.00    -0.022 A 
HETATM   13  C22 UNL     1     -80.742 -20.294  84.286  1.00  0.00     0.052 C 
HETATM   14  C23 UNL     1     -78.510 -19.269  84.175  1.00  0.00     0.074 A 
HETATM   15  C24 UNL     1     -77.309 -18.964  84.779  1.00  0.00     0.067 A 
HETATM   16  C25 UNL     1     -77.053 -19.304  86.098  1.00  0.00     0.049 A 
HETATM   17  N5  UNL     1     -75.970 -19.065  86.864  1.00  0.00    -0.337 N 
ENDROOT
BRANCH   6  18
HETATM   18  N3  UNL     1     -74.231 -18.995  89.410  1.00  0.00    -0.291 N 
HETATM   19  C5  UNL     1     -73.126 -19.652  89.016  1.00  0.00     0.101 A 
HETATM   20  C6  UNL     1     -71.864 -19.121  89.074  1.00  0.00     0.027 A 
HETATM   21  C7  UNL     1     -71.687 -17.844  89.558  1.00  0.00    -0.020 A 
HETATM   22  C8  UNL     1     -72.796 -17.143  89.967  1.00  0.00     0.029 A 
HETATM   23  C15 UNL     1     -70.496 -16.970  89.762  1.00  0.00     0.208 C 
HETATM   24  C9  UNL     1     -74.062 -17.753  89.879  1.00  0.00     0.116 A 
HETATM   25  C10 UNL     1     -72.327 -15.833  90.430  1.00  0.00     0.092 C 
HETATM   26  O1  UNL     1     -71.045 -15.724  89.944  1.00  0.00    -0.371 OA
BRANCH  24  27
HETATM   27  N4  UNL     1     -75.079 -17.046  90.243  1.00  0.00    -0.384 N 
ATOM     28  H42 UNL     1     -74.955 -16.034  90.259  1.00  0.00     0.157 HD
ATOM     29  H41 UNL     1     -75.965 -17.494  90.473  1.00  0.00     0.157 HD
ENDBRANCH  24  27
BRANCH  25  30
HETATM   30  C11 UNL     1     -72.283 -15.729  91.939  1.00  0.00     0.039 C 
HETATM   31  C12 UNL     1     -71.679 -14.471  92.454  1.00  0.00     0.008 C 
ENDBRANCH  25  30
BRANCH  25  32
HETATM   32  C13 UNL     1     -73.114 -14.678  89.843  1.00  0.00     0.039 C 
HETATM   33  C14 UNL     1     -72.209 -14.069  88.763  1.00  0.00     0.008 C 
ENDBRANCH  25  32
ENDBRANCH   6  18
BRANCH  17  34
HETATM   34  C26 UNL     1     -74.787 -18.447  86.356  1.00  0.00     0.200 C 
BRANCH  34  35
HETATM   35  C27 UNL     1     -74.828 -16.932  86.532  1.00  0.00     0.371 C 
HETATM   36  F1  UNL     1     -73.578 -16.424  86.784  1.00  0.00    -0.213 F 
HETATM   37  F2  UNL     1     -75.251 -16.326  85.354  1.00  0.00    -0.213 F 
ENDBRANCH  34  35
ENDBRANCH  17  34
BRANCH   1  38
HETATM   38  C2  UNL     1     -79.089 -21.750  89.268  1.00  0.00     0.055 C 
HETATM   39  C1  UNL     1     -79.465 -22.098  90.724  1.00  0.00     0.011 C 
ENDBRANCH   1  38
BRANCH  14  40
HETATM   40  O2  UNL     1     -78.707 -18.915  82.860  1.00  0.00    -0.360 OA
ATOM     41  H2  UNL     1     -77.995 -18.813  82.239  1.00  0.00     0.217 HD
ENDBRANCH  14  40
TORSDOF 8
ENDMDL
MODEL 4
REMARK VINA RESULT: -9.200967049      2.357      3.892
REMARK  8 active torsions:
REMARK  status: ('A' for Active; 'I' for Inactive)
REMARK    1  A    between atoms: C2_2  and  C3_3 
REMARK    2  A    between atoms: C4_8  and  N3_9 
REMARK    3  A    between atoms: C9_14  and  N4_15 
REMARK    4  A    between atoms: C10_18  and  C11_19 
REMARK    5  A    between atoms: C10_18  and  C13_21 
REMARK    6  A    between atoms: C23_32  and  O2_33 
REMARK    7  A    between atoms: N5_37  and  C26_38 
REMARK    8  A    between atoms: C26_38  and  C27_39 
ROOT
HETATM    1  C3  UNL     1     -75.660 -19.951  87.403  1.00  0.00     0.039 A 
HETATM    2  N1  UNL     1     -74.327 -19.557  87.439  1.00  0.00    -0.302 N 
ATOM      3  H1  UNL     1     -73.759 -19.871  88.226  1.00  0.00     0.186 HD
HETATM    4  N2  UNL     1     -73.764 -18.826  86.551  1.00  0.00    -0.283 N 
ATOM      5  H2  UNL     1     -72.778 -18.585  86.660  1.00  0.00     0.188 HD
HETATM    6  C4  UNL     1     -74.444 -18.362  85.464  1.00  0.00     0.156 A 
HETATM    7  C16 UNL     1     -75.759 -18.692  85.338  1.00  0.00     0.095 A 
HETATM    8  C17 UNL     1     -76.376 -19.498  86.344  1.00  0.00     0.032 A 
HETATM    9  C18 UNL     1     -77.691 -19.668  85.968  1.00  0.00     0.012 A 
HETATM   10  C19 UNL     1     -78.747 -20.282  86.551  1.00  0.00    -0.040 A 
HETATM   11  C20 UNL     1     -78.882 -20.651  87.956  1.00  0.00     0.050 C 
HETATM   12  C21 UNL     1     -79.981 -20.276  85.883  1.00  0.00    -0.022 A 
HETATM   13  C22 UNL     1     -81.125 -21.001  86.490  1.00  0.00     0.052 C 
HETATM   14  C23 UNL     1     -80.151 -19.656  84.677  1.00  0.00     0.074 A 
HETATM   15  C24 UNL     1     -79.061 -19.025  84.118  1.00  0.00     0.067 A 
HETATM   16  C25 UNL     1     -77.824 -19.019  84.744  1.00  0.00     0.049 A 
HETATM   17  N5  UNL     1     -76.666 -18.436  84.377  1.00  0.00    -0.337 N 
ENDROOT
BRANCH   6  18
HETATM   18  N3  UNL     1     -73.732 -17.514  84.613  1.00  0.00    -0.291 N 
HETATM   19  C5  UNL     1     -73.561 -16.234  84.988  1.00  0.00     0.101 A 
HETATM   20  C6  UNL     1     -72.817 -15.328  84.278  1.00  0.00     0.027 A 
HETATM   21  C7  UNL     1     -72.198 -15.721  83.113  1.00  0.00    -0.020 A 
HETATM   22  C8  UNL     1     -72.351 -17.024  82.702  1.00  0.00     0.029 A 
HETATM   23  C15 UNL     1     -71.338 -15.027  82.112  1.00  0.00     0.208 C 
HETATM   24  C9  UNL     1     -73.130 -17.900  83.482  1.00  0.00     0.116 A 
HETATM   25  C10 UNL     1     -71.599 -17.169  81.451  1.00  0.00     0.092 C 
HETATM   26  O1  UNL     1     -70.785 -16.062  81.397  1.00  0.00    -0.371 OA
BRANCH  24  27
HETATM   27  N4  UNL     1     -73.219 -19.123  83.077  1.00  0.00    -0.384 N 
ATOM     28  H42 UNL     1     -72.378 -19.538  82.675  1.00  0.00     0.157 HD
ATOM     29  H41 UNL     1     -74.089 -19.642  83.185  1.00  0.00     0.157 HD
ENDBRANCH  24  27
BRANCH  25  30
HETATM   30  C11 UNL     1     -72.493 -17.172  80.231  1.00  0.00     0.039 C 
HETATM   31  C12 UNL     1     -71.770 -17.061  78.935  1.00  0.00     0.008 C 
ENDBRANCH  25  30
BRANCH  25  32
HETATM   32  C13 UNL     1     -70.688 -18.380  81.442  1.00  0.00     0.039 C 
HETATM   33  C14 UNL     1     -69.619 -18.099  82.508  1.00  0.00     0.008 C 
ENDBRANCH  25  32
ENDBRANCH   6  18
BRANCH  17  34
HETATM   34  C26 UNL     1     -76.507 -17.749  83.136  1.00  0.00     0.200 C 
BRANCH  34  35
HETATM   35  C27 UNL     1     -76.607 -18.705  81.951  1.00  0.00     0.371 C 
HETATM   36  F1  UNL     1     -77.698 -18.419  81.169  1.00  0.00    -0.213 F 
HETATM   37  F2  UNL     1     -75.500 -18.556  81.123  1.00  0.00    -0.213 F 
ENDBRANCH  34  35
ENDBRANCH  17  34
BRANCH   1  38
HETATM   38  C2  UNL     1     -75.995 -21.028  88.320  1.00  0.00     0.055 C 
HETATM   39  C1  UNL     1     -75.721 -20.665  89.795  1.00  0.00     0.011 C 
ENDBRANCH   1  38
BRANCH  14  40
HETATM   40  O2  UNL     1     -81.353 -19.637  84.007  1.00  0.00    -0.360 OA
ATOM     41  H2  UNL     1     -81.630 -20.332  83.422  1.00  0.00     0.217 HD
ENDBRANCH  14  40
TORSDOF 8
ENDMDL
MODEL 5
REMARK VINA RESULT: -9.137554382      1.645      2.915
REMARK  8 active torsions:
REMARK  status: ('A' for Active; 'I' for Inactive)
REMARK    1  A    between atoms: C2_2  and  C3_3 
REMARK    2  A    between atoms: C4_8  and  N3_9 
REMARK    3  A    between atoms: C9_14  and  N4_15 
REMARK    4  A    between atoms: C10_18  and  C11_19 
REMARK    5  A    between atoms: C10_18  and  C13_21 
REMARK    6  A    between atoms: C23_32  and  O2_33 
REMARK    7  A    between atoms: N5_37  and  C26_38 
REMARK    8  A    between atoms: C26_38  and  C27_39 
ROOT
HETATM    1  C3  UNL     1     -78.617 -18.816  82.937  1.00  0.00     0.039 A 
HETATM    2  N1  UNL     1     -77.715 -18.303  82.011  1.00  0.00    -0.302 N 
ATOM      3  H1  UNL     1     -78.073 -18.035  81.095  1.00  0.00     0.186 HD
HETATM    4  N2  UNL     1     -76.463 -18.144  82.232  1.00  0.00    -0.283 N 
ATOM      5  H2  UNL     1     -75.874 -17.761  81.493  1.00  0.00     0.188 HD
HETATM    6  C4  UNL     1     -75.896 -18.474  83.428  1.00  0.00     0.156 A 
HETATM    7  C16 UNL     1     -76.697 -18.987  84.402  1.00  0.00     0.095 A 
HETATM    8  C17 UNL     1     -78.090 -19.169  84.136  1.00  0.00     0.032 A 
HETATM    9  C18 UNL     1     -78.647 -19.701  85.278  1.00  0.00     0.012 A 
HETATM   10  C19 UNL     1     -79.895 -20.124  85.586  1.00  0.00    -0.040 A 
HETATM   11  C20 UNL     1     -80.960 -20.474  84.652  1.00  0.00     0.050 C 
HETATM   12  C21 UNL     1     -80.138 -20.622  86.875  1.00  0.00    -0.022 A 
HETATM   13  C22 UNL     1     -81.519 -21.029  87.236  1.00  0.00     0.052 C 
HETATM   14  C23 UNL     1     -79.152 -20.707  87.817  1.00  0.00     0.074 A 
HETATM   15  C24 UNL     1     -77.887 -20.285  87.468  1.00  0.00     0.067 A 
HETATM   16  C25 UNL     1     -77.614 -19.778  86.207  1.00  0.00     0.049 A 
HETATM   17  N5  UNL     1     -76.451 -19.353  85.673  1.00  0.00    -0.337 N 
ENDROOT
BRANCH   6  18
HETATM   18  N3  UNL     1     -74.510 -18.322  83.510  1.00  0.00    -0.291 N 
HETATM   19  C5  UNL     1     -73.732 -19.299  83.012  1.00  0.00     0.101 A 
HETATM   20  C6  UNL     1     -72.364 -19.231  82.964  1.00  0.00     0.027 A 
HETATM   21  C7  UNL     1     -71.723 -18.112  83.443  1.00  0.00    -0.020 A 
HETATM   22  C8  UNL     1     -72.488 -17.093  83.957  1.00  0.00     0.029 A 
HETATM   23  C15 UNL     1     -70.292 -17.704  83.550  1.00  0.00     0.208 C 
HETATM   24  C9  UNL     1     -73.889 -17.232  83.975  1.00  0.00     0.116 A 
HETATM   25  C10 UNL     1     -71.564 -16.039  84.390  1.00  0.00     0.092 C 
HETATM   26  O1  UNL     1     -70.365 -16.354  83.793  1.00  0.00    -0.371 OA
BRANCH  24  27
HETATM   27  N4  UNL     1     -74.570 -16.235  84.434  1.00  0.00    -0.384 N 
ATOM     28  H42 UNL     1     -74.576 -16.108  85.446  1.00  0.00     0.157 HD
ATOM     29  H41 UNL     1     -75.051 -15.600  83.799  1.00  0.00     0.157 HD
ENDBRANCH  24  27
BRANCH  25  30
HETATM   30  C11 UNL     1     -71.366 -16.018  85.890  1.00  0.00     0.039 C 
HETATM   31  C12 UNL     1     -71.786 -14.752  86.550  1.00  0.00     0.008 C 
ENDBRANCH  25  30
BRANCH  25  32
HETATM   32  C13 UNL     1     -71.951 -14.664  83.887  1.00  0.00     0.039 C 
HETATM   33  C14 UNL     1     -71.544 -14.635  82.407  1.00  0.00     0.008 C 
ENDBRANCH  25  32
ENDBRANCH   6  18
BRANCH  17  34
HETATM   34  C26 UNL     1     -75.240 -19.275  86.425  1.00  0.00     0.200 C 
BRANCH  34  35
HETATM   35  C27 UNL     1     -75.219 -18.043  87.324  1.00  0.00     0.371 C 
HETATM   36  F1  UNL     1     -75.531 -18.366  88.621  1.00  0.00    -0.213 F 
HETATM   37  F2  UNL     1     -73.938 -17.506  87.367  1.00  0.00    -0.213 F 
ENDBRANCH  34  35
ENDBRANCH  17  34
BRANCH   1  38
HETATM   38  C2  UNL     1     -80.014 -18.604  82.597  1.00  0.00     0.055 C 
HETATM   39  C1  UNL     1     -80.214 -18.161  81.132  1.00  0.00     0.011 C 
ENDBRANCH   1  38
BRANCH  14  40
HETATM   40  O2  UNL     1     -79.368 -21.195  89.086  1.00  0.00    -0.360 OA
ATOM     41  H2  UNL     1     -80.236 -21.350  89.440  1.00  0.00     0.217 HD
ENDBRANCH  14  40
TORSDOF 8
ENDMDL
