MODEL 1
REMARK VINA RESULT: -7.966367064      0.000      0.000
REMARK  7 active torsions:
REMARK  status: ('A' for Active; 'I' for Inactive)
REMARK    1  A    between atoms: O1_2  and  C2_3 
REMARK    2  A    between atoms: C4_5  and  C5_6 
REMARK    3  A    between atoms: N1_7  and  N2_9 
REMARK    4  A    between atoms: C6_10  and  C7_11 
REMARK    5  A    between atoms: C7_11  and  O2_12 
REMARK    6  A    between atoms: C8_14  and  C9_15 
REMARK    7  A    between atoms: C18_29  and  O4_30 
ROOT
HETATM    1  N2  UNL     1     -77.739 -18.571  83.463  1.00  0.00    -0.224 N 
HETATM    2  C6  UNL     1     -78.302 -19.166  84.564  1.00  0.00     0.095 A 
HETATM    3  C8  UNL     1     -79.596 -19.415  84.273  1.00  0.00     0.117 A 
HETATM    4  O3  UNL     1     -79.744 -18.959  83.012  1.00  0.00    -0.280 OA
HETATM    5  C15 UNL     1     -78.671 -18.467  82.534  1.00  0.00     0.241 A 
HETATM    6  S1  UNL     1     -78.491 -17.825  81.040  1.00  0.00    -0.031 SA
ENDROOT
BRANCH   1   7
HETATM    7  N1  UNL     1     -76.408 -18.171  83.400  1.00  0.00    -0.302 N 
HETATM    8  C5  UNL     1     -75.626 -18.684  82.545  1.00  0.00     0.119 C 
ATOM      9  H1  UNL     1     -76.060 -17.462  84.046  1.00  0.00     0.186 HD
BRANCH   8  10
HETATM   10  C4  UNL     1     -74.211 -18.308  82.425  1.00  0.00    -0.015 A 
HETATM   11  C3  UNL     1     -73.719 -17.185  83.054  1.00  0.00     0.052 A 
HETATM   12  C2  UNL     1     -72.391 -16.812  82.955  1.00  0.00     0.103 A 
HETATM   13  C18 UNL     1     -71.522 -17.576  82.210  1.00  0.00     0.116 A 
HETATM   14  C17 UNL     1     -72.000 -18.703  81.574  1.00  0.00     0.047 A 
HETATM   15  C16 UNL     1     -73.330 -19.061  81.684  1.00  0.00     0.035 A 
HETATM   16 BR1  UNL     1     -70.819 -19.765  80.545  1.00  0.00    -0.048 Br
BRANCH  12  17
HETATM   17  O1  UNL     1     -71.887 -15.681  83.585  1.00  0.00    -0.353 OA
HETATM   18  C1  UNL     1     -72.168 -15.474  84.976  1.00  0.00     0.210 C 
ENDBRANCH  12  17
BRANCH  13  19
HETATM   19  O4  UNL     1     -70.189 -17.216  82.101  1.00  0.00    -0.357 OA
ATOM     20  H4  UNL     1     -69.509 -17.778  82.452  1.00  0.00     0.218 HD
ENDBRANCH  13  19
ENDBRANCH   8  10
ENDBRANCH   1   7
BRANCH   2  21
HETATM   21  C7  UNL     1     -77.580 -19.474  85.820  1.00  0.00     0.226 C 
BRANCH  21  22
HETATM   22  O2  UNL     1     -76.750 -18.391  86.175  1.00  0.00    -0.395 OA
ATOM     23  H2  UNL     1     -75.934 -18.714  86.539  1.00  0.00     0.209 HD
ENDBRANCH  21  22
ENDBRANCH   2  21
BRANCH   3  24
HETATM   24  C9  UNL     1     -80.696 -20.017  85.006  1.00  0.00     0.022 A 
HETATM   25  C10 UNL     1     -80.661 -21.255  85.541  1.00  0.00     0.018 A 
HETATM   26  C11 UNL     1     -81.763 -21.807  86.234  1.00  0.00     0.025 A 
HETATM   27  C12 UNL     1     -82.916 -21.082  86.385  1.00  0.00     0.035 A 
HETATM   28 CL1  UNL     1     -84.278 -21.785  87.252  1.00  0.00    -0.084 Cl
HETATM   29  C13 UNL     1     -82.955 -19.828  85.846  1.00  0.00     0.048 A 
HETATM   30  C14 UNL     1     -81.873 -19.300  85.171  1.00  0.00     0.048 A 
HETATM   31 CL2  UNL     1     -81.969 -17.685  84.496  1.00  0.00    -0.083 Cl
ENDBRANCH   3  24
TORSDOF 7
ENDMDL
MODEL 2
REMARK VINA RESULT: -7.917211789      1.620      2.143
REMARK  7 active torsions:
REMARK  status: ('A' for Active; 'I' for Inactive)
REMARK    1  A    between atoms: O1_2  and  C2_3 
REMARK    2  A    between atoms: C4_5  and  C5_6 
REMARK    3  A    between atoms: N1_7  and  N2_9 
REMARK    4  A    between atoms: C6_10  and  C7_11 
REMARK    5  A    between atoms: C7_11  and  O2_12 
REMARK    6  A    between atoms: C8_14  and  C9_15 
REMARK    7  A    between atoms: C18_29  and  O4_30 
ROOT
HETATM    1  N2  UNL     1     -77.920 -18.886  83.480  1.00  0.00    -0.224 N 
HETATM    2  C6  UNL     1     -78.498 -19.452  84.589  1.00  0.00     0.095 A 
HETATM    3  C8  UNL     1     -79.820 -19.565  84.346  1.00  0.00     0.117 A 
HETATM    4  O3  UNL     1     -79.970 -19.061  83.104  1.00  0.00    -0.280 OA
HETATM    5  C15 UNL     1     -78.873 -18.665  82.593  1.00  0.00     0.241 A 
HETATM    6  S1  UNL     1     -78.687 -18.003  81.109  1.00  0.00    -0.031 SA
ENDROOT
BRANCH   1   7
HETATM    7  N1  UNL     1     -76.560 -18.618  83.372  1.00  0.00    -0.302 N 
HETATM    8  C5  UNL     1     -76.135 -17.426  83.451  1.00  0.00     0.119 C 
ATOM      9  H1  UNL     1     -75.901 -19.383  83.229  1.00  0.00     0.186 HD
BRANCH   8  10
HETATM   10  C4  UNL     1     -74.713 -17.074  83.345  1.00  0.00    -0.015 A 
HETATM   11  C3  UNL     1     -74.011 -17.293  82.180  1.00  0.00     0.052 A 
HETATM   12  C2  UNL     1     -72.673 -16.969  82.058  1.00  0.00     0.103 A 
HETATM   13  C18 UNL     1     -72.007 -16.409  83.124  1.00  0.00     0.116 A 
HETATM   14  C17 UNL     1     -72.696 -16.183  84.299  1.00  0.00     0.047 A 
HETATM   15  C16 UNL     1     -74.034 -16.513  84.402  1.00  0.00     0.035 A 
HETATM   16 BR1  UNL     1     -71.796 -15.414  85.775  1.00  0.00    -0.048 Br
BRANCH  12  17
HETATM   17  O1  UNL     1     -71.958 -17.187  80.887  1.00  0.00    -0.353 OA
HETATM   18  C1  UNL     1     -72.391 -16.552  79.676  1.00  0.00     0.210 C 
ENDBRANCH  12  17
BRANCH  13  19
HETATM   19  O4  UNL     1     -70.666 -16.079  83.019  1.00  0.00    -0.357 OA
ATOM     20  H4  UNL     1     -70.335 -15.279  83.411  1.00  0.00     0.218 HD
ENDBRANCH  13  19
ENDBRANCH   8  10
ENDBRANCH   1   7
BRANCH   2  21
HETATM   21  C7  UNL     1     -77.762 -19.865  85.807  1.00  0.00     0.226 C 
BRANCH  21  22
HETATM   22  O2  UNL     1     -77.019 -18.777  86.311  1.00  0.00    -0.395 OA
ATOM     23  H2  UNL     1     -77.389 -18.487  87.137  1.00  0.00     0.209 HD
ENDBRANCH  21  22
ENDBRANCH   2  21
BRANCH   3  24
HETATM   24  C9  UNL     1     -80.945 -20.075  85.109  1.00  0.00     0.022 A 
HETATM   25  C10 UNL     1     -80.988 -21.304  85.665  1.00  0.00     0.018 A 
HETATM   26  C11 UNL     1     -82.113 -21.764  86.387  1.00  0.00     0.025 A 
HETATM   27  C12 UNL     1     -83.208 -20.957  86.546  1.00  0.00     0.035 A 
HETATM   28 CL1  UNL     1     -84.600 -21.548  87.450  1.00  0.00    -0.084 Cl
HETATM   29  C13 UNL     1     -83.169 -19.713  85.986  1.00  0.00     0.048 A 
HETATM   30  C14 UNL     1     -82.066 -19.274  85.282  1.00  0.00     0.048 A 
HETATM   31 CL2  UNL     1     -82.061 -17.668  84.580  1.00  0.00    -0.083 Cl
ENDBRANCH   3  24
TORSDOF 7
ENDMDL
MODEL 3
REMARK VINA RESULT: -7.914147256      4.315      9.082
REMARK  7 active torsions:
REMARK  status: ('A' for Active; 'I' for Inactive)
REMARK    1  A    between atoms: O1_2  and  C2_3 
REMARK    2  A    between atoms: C4_5  and  C5_6 
REMARK    3  A    between atoms: N1_7  and  N2_9 
REMARK    4  A    between atoms: C6_10  and  C7_11 
REMARK    5  A    between atoms: C7_11  and  O2_12 
REMARK    6  A    between atoms: C8_14  and  C9_15 
REMARK    7  A    between atoms: C18_29  and  O4_30 
ROOT
HETATM    1  N2  UNL     1     -77.435 -18.579  83.518  1.00  0.00    -0.224 N 
HETATM    2  C6  UNL     1     -76.086 -18.622  83.764  1.00  0.00     0.095 A 
HETATM    3  C8  UNL     1     -75.452 -18.432  82.589  1.00  0.00     0.117 A 
HETATM    4  O3  UNL     1     -76.452 -18.284  81.695  1.00  0.00    -0.280 OA
HETATM    5  C15 UNL     1     -77.607 -18.368  82.226  1.00  0.00     0.241 A 
HETATM    6  S1  UNL     1     -79.037 -18.238  81.442  1.00  0.00    -0.031 SA
ENDROOT
BRANCH   1   7
HETATM    7  N1  UNL     1     -78.403 -18.738  84.503  1.00  0.00    -0.302 N 
HETATM    8  C5  UNL     1     -78.785 -19.898  84.844  1.00  0.00     0.119 C 
ATOM      9  H1  UNL     1     -78.809 -17.917  84.954  1.00  0.00     0.186 HD
BRANCH   8  10
HETATM   10  C4  UNL     1     -79.803 -20.136  85.876  1.00  0.00    -0.015 A 
HETATM   11  C3  UNL     1     -81.136 -19.891  85.630  1.00  0.00     0.052 A 
HETATM   12  C2  UNL     1     -82.110 -20.107  86.586  1.00  0.00     0.103 A 
HETATM   13  C18 UNL     1     -81.754 -20.583  87.827  1.00  0.00     0.116 A 
HETATM   14  C17 UNL     1     -80.422 -20.833  88.089  1.00  0.00     0.047 A 
HETATM   15  C16 UNL     1     -79.462 -20.611  87.121  1.00  0.00     0.035 A 
HETATM   16 BR1  UNL     1     -79.914 -21.488  89.791  1.00  0.00    -0.048 Br
BRANCH  12  17
HETATM   17  O1  UNL     1     -83.456 -19.862  86.346  1.00  0.00    -0.353 OA
HETATM   18  C1  UNL     1     -83.876 -18.530  86.020  1.00  0.00     0.210 C 
ENDBRANCH  12  17
BRANCH  13  19
HETATM   19  O4  UNL     1     -82.718 -20.806  88.797  1.00  0.00    -0.357 OA
ATOM     20  H4  UNL     1     -82.505 -20.708  89.717  1.00  0.00     0.218 HD
ENDBRANCH  13  19
ENDBRANCH   8  10
ENDBRANCH   1   7
BRANCH   2  21
HETATM   21  C7  UNL     1     -75.477 -18.827  85.099  1.00  0.00     0.226 C 
BRANCH  21  22
HETATM   22  O2  UNL     1     -75.948 -17.848  85.998  1.00  0.00    -0.395 OA
ATOM     23  H2  UNL     1     -75.301 -17.160  86.096  1.00  0.00     0.209 HD
ENDBRANCH  21  22
ENDBRANCH   2  21
BRANCH   3  24
HETATM   24  C9  UNL     1     -74.056 -18.369  82.195  1.00  0.00     0.022 A 
HETATM   25  C10 UNL     1     -73.454 -19.273  81.393  1.00  0.00     0.018 A 
HETATM   26  C11 UNL     1     -72.086 -19.180  81.047  1.00  0.00     0.025 A 
HETATM   27  C12 UNL     1     -71.323 -18.147  81.525  1.00  0.00     0.035 A 
HETATM   28 CL1  UNL     1     -69.621 -18.047  81.082  1.00  0.00    -0.084 Cl
HETATM   29  C13 UNL     1     -71.928 -17.230  82.335  1.00  0.00     0.048 A 
HETATM   30  C14 UNL     1     -73.263 -17.331  82.666  1.00  0.00     0.048 A 
HETATM   31 CL2  UNL     1     -73.997 -16.130  83.711  1.00  0.00    -0.083 Cl
ENDBRANCH   3  24
TORSDOF 7
ENDMDL
MODEL 4
REMARK VINA RESULT: -7.900857734      0.933      1.044
REMARK  7 active torsions:
REMARK  status: ('A' for Active; 'I' for Inactive)
REMARK    1  A    between atoms: O1_2  and  C2_3 
REMARK    2  A    between atoms: C4_5  and  C5_6 
REMARK    3  A    between atoms: N1_7  and  N2_9 
REMARK    4  A    between atoms: C6_10  and  C7_11 
REMARK    5  A    between atoms: C7_11  and  O2_12 
REMARK    6  A    between atoms: C8_14  and  C9_15 
REMARK    7  A    between atoms: C18_29  and  O4_30 
ROOT
HETATM    1  N2  UNL     1     -77.852 -18.875  83.488  1.00  0.00    -0.224 N 
HETATM    2  C6  UNL     1     -78.431 -19.437  84.598  1.00  0.00     0.095 A 
HETATM    3  C8  UNL     1     -79.753 -19.546  84.355  1.00  0.00     0.117 A 
HETATM    4  O3  UNL     1     -79.902 -19.046  83.111  1.00  0.00    -0.280 OA
HETATM    5  C15 UNL     1     -78.803 -18.655  82.600  1.00  0.00     0.241 A 
HETATM    6  S1  UNL     1     -78.616 -17.997  81.113  1.00  0.00    -0.031 SA
ENDROOT
BRANCH   1   7
HETATM    7  N1  UNL     1     -76.491 -18.610  83.379  1.00  0.00    -0.302 N 
HETATM    8  C5  UNL     1     -76.075 -17.415  83.316  1.00  0.00     0.119 C 
ATOM      9  H1  UNL     1     -75.824 -19.382  83.350  1.00  0.00     0.186 HD
BRANCH   8  10
HETATM   10  C4  UNL     1     -74.652 -17.066  83.200  1.00  0.00    -0.015 A 
HETATM   11  C3  UNL     1     -74.016 -16.340  84.184  1.00  0.00     0.052 A 
HETATM   12  C2  UNL     1     -72.679 -16.001  84.096  1.00  0.00     0.103 A 
HETATM   13  C18 UNL     1     -71.947 -16.394  82.999  1.00  0.00     0.116 A 
HETATM   14  C17 UNL     1     -72.570 -17.121  82.005  1.00  0.00     0.047 A 
HETATM   15  C16 UNL     1     -73.907 -17.451  82.110  1.00  0.00     0.035 A 
HETATM   16 BR1  UNL     1     -71.578 -17.668  80.489  1.00  0.00    -0.048 Br
BRANCH  12  17
HETATM   17  O1  UNL     1     -72.030 -15.269  85.082  1.00  0.00    -0.353 OA
HETATM   18  C1  UNL     1     -72.231 -15.621  86.458  1.00  0.00     0.210 C 
ENDBRANCH  12  17
BRANCH  13  19
HETATM   19  O4  UNL     1     -70.606 -16.062  82.895  1.00  0.00    -0.357 OA
ATOM     20  H4  UNL     1     -69.970 -16.710  82.617  1.00  0.00     0.218 HD
ENDBRANCH  13  19
ENDBRANCH   8  10
ENDBRANCH   1   7
BRANCH   2  21
HETATM   21  C7  UNL     1     -77.696 -19.847  85.817  1.00  0.00     0.226 C 
BRANCH  21  22
HETATM   22  O2  UNL     1     -76.958 -18.757  86.323  1.00  0.00    -0.395 OA
ATOM     23  H2  UNL     1     -76.130 -19.062  86.675  1.00  0.00     0.209 HD
ENDBRANCH  21  22
ENDBRANCH   2  21
BRANCH   3  24
HETATM   24  C9  UNL     1     -80.880 -20.051  85.119  1.00  0.00     0.022 A 
HETATM   25  C10 UNL     1     -80.912 -21.265  85.709  1.00  0.00     0.018 A 
HETATM   26  C11 UNL     1     -82.038 -21.721  86.431  1.00  0.00     0.025 A 
HETATM   27  C12 UNL     1     -83.147 -20.926  86.555  1.00  0.00     0.035 A 
HETATM   28 CL1  UNL     1     -84.540 -21.511  87.459  1.00  0.00    -0.084 Cl
HETATM   29  C13 UNL     1     -83.118 -19.698  85.961  1.00  0.00     0.048 A 
HETATM   30  C14 UNL     1     -82.014 -19.263  85.258  1.00  0.00     0.048 A 
HETATM   31 CL2  UNL     1     -82.023 -17.676  84.510  1.00  0.00    -0.083 Cl
ENDBRANCH   3  24
TORSDOF 7
ENDMDL
MODEL 5
REMARK VINA RESULT: -7.811031948      4.474      9.049
REMARK  7 active torsions:
REMARK  status: ('A' for Active; 'I' for Inactive)
REMARK    1  A    between atoms: O1_2  and  C2_3 
REMARK    2  A    between atoms: C4_5  and  C5_6 
REMARK    3  A    between atoms: N1_7  and  N2_9 
REMARK    4  A    between atoms: C6_10  and  C7_11 
REMARK    5  A    between atoms: C7_11  and  O2_12 
REMARK    6  A    between atoms: C8_14  and  C9_15 
REMARK    7  A    between atoms: C18_29  and  O4_30 
ROOT
HETATM    1  N2  UNL     1     -77.568 -18.464  83.289  1.00  0.00    -0.224 N 
HETATM    2  C6  UNL     1     -76.237 -18.556  83.608  1.00  0.00     0.095 A 
HETATM    3  C8  UNL     1     -75.534 -18.380  82.471  1.00  0.00     0.117 A 
HETATM    4  O3  UNL     1     -76.478 -18.191  81.526  1.00  0.00    -0.280 OA
HETATM    5  C15 UNL     1     -77.662 -18.238  81.992  1.00  0.00     0.241 A 
HETATM    6  S1  UNL     1     -79.041 -18.054  81.132  1.00  0.00    -0.031 SA
ENDROOT
BRANCH   1   7
HETATM    7  N1  UNL     1     -78.594 -18.596  84.219  1.00  0.00    -0.302 N 
HETATM    8  C5  UNL     1     -79.031 -19.744  84.531  1.00  0.00     0.119 C 
ATOM      9  H1  UNL     1     -78.997 -17.765  84.653  1.00  0.00     0.186 HD
BRANCH   8  10
HETATM   10  C4  UNL     1     -80.111 -19.954  85.505  1.00  0.00    -0.015 A 
HETATM   11  C3  UNL     1     -79.918 -20.735  86.623  1.00  0.00     0.052 A 
HETATM   12  C2  UNL     1     -80.920 -20.946  87.552  1.00  0.00     0.103 A 
HETATM   13  C18 UNL     1     -82.153 -20.363  87.369  1.00  0.00     0.116 A 
HETATM   14  C17 UNL     1     -82.362 -19.578  86.253  1.00  0.00     0.047 A 
HETATM   15  C16 UNL     1     -81.349 -19.378  85.335  1.00  0.00     0.035 A 
HETATM   16 BR1  UNL     1     -84.052 -18.769  85.986  1.00  0.00    -0.048 Br
BRANCH  12  17
HETATM   17  O1  UNL     1     -80.734 -21.733  88.681  1.00  0.00    -0.353 OA
HETATM   18  C1  UNL     1     -79.723 -21.365  89.630  1.00  0.00     0.210 C 
ENDBRANCH  12  17
BRANCH  13  19
HETATM   19  O4  UNL     1     -83.168 -20.564  88.290  1.00  0.00    -0.357 OA
ATOM     20  H4  UNL     1     -83.732 -19.845  88.549  1.00  0.00     0.218 HD
ENDBRANCH  13  19
ENDBRANCH   8  10
ENDBRANCH   1   7
BRANCH   2  21
HETATM   21  C7  UNL     1     -75.709 -18.791  84.972  1.00  0.00     0.226 C 
BRANCH  21  22
HETATM   22  O2  UNL     1     -76.216 -17.818  85.858  1.00  0.00    -0.395 OA
ATOM     23  H2  UNL     1     -77.166 -17.839  85.853  1.00  0.00     0.209 HD
ENDBRANCH  21  22
ENDBRANCH   2  21
BRANCH   3  24
HETATM   24  C9  UNL     1     -74.117 -18.363  82.153  1.00  0.00     0.022 A 
HETATM   25  C10 UNL     1     -73.507 -19.270  81.362  1.00  0.00     0.018 A 
HETATM   26  C11 UNL     1     -72.120 -19.223  81.092  1.00  0.00     0.025 A 
HETATM   27  C12 UNL     1     -71.345 -18.233  81.637  1.00  0.00     0.035 A 
HETATM   28 CL1  UNL     1     -69.619 -18.190  81.289  1.00  0.00    -0.084 Cl
HETATM   29  C13 UNL     1     -71.957 -17.313  82.438  1.00  0.00     0.048 A 
HETATM   30  C14 UNL     1     -73.312 -17.369  82.694  1.00  0.00     0.048 A 
HETATM   31 CL2  UNL     1     -74.055 -16.165  83.730  1.00  0.00    -0.083 Cl
ENDBRANCH   3  24
TORSDOF 7
ENDMDL
