MODEL 1
REMARK VINA RESULT: -8.263195048      0.000      0.000
REMARK  10 active torsions:
REMARK  status: ('A' for Active; 'I' for Inactive)
REMARK    1  A    between atoms: N1_6  and  C5_7 
REMARK    2  A    between atoms: C5_7  and  S1_12 
REMARK    3  A    between atoms: N2_8  and  O1_10 
REMARK    4  A    between atoms: S1_12  and  C6_13 
REMARK    5  A    between atoms: C6_13  and  C7_14 
REMARK    6  A    between atoms: C7_14  and  C8_15 
REMARK    7  A    between atoms: C8_15  and  O2_16 
REMARK    8  A    between atoms: O2_16  and  C9_17 
REMARK    9  A    between atoms: C9_17  and  C10_19 
REMARK   10  A    between atoms: C12_22  and  C13_23 
ROOT
HETATM    1  C10 UNL     1     -99.583 -18.430  49.885  1.00  0.00     0.120 C 
HETATM    2  C11 UNL     1     -99.895 -18.813  51.221  1.00  0.00     0.105 C 
HETATM    3  N3  UNL     1    -100.130 -19.144  52.330  1.00  0.00    -0.191 NA
HETATM    4  C12 UNL     1    -100.498 -18.381  48.962  1.00  0.00     0.042 C 
ENDROOT
BRANCH   1   5
HETATM    5  C9  UNL     1     -98.189 -18.110  49.529  1.00  0.00     0.303 C 
HETATM    6  O3  UNL     1     -97.598 -18.797  48.690  1.00  0.00    -0.258 OA
BRANCH   5   7
HETATM    7  O2  UNL     1     -97.536 -17.050  50.123  1.00  0.00    -0.317 OA
BRANCH   7   8
HETATM    8  C8  UNL     1     -96.946 -17.017  51.390  1.00  0.00     0.180 C 
BRANCH   8   9
HETATM    9  C7  UNL     1     -95.789 -16.060  51.397  1.00  0.00     0.037 C 
BRANCH   9  10
HETATM   10  C6  UNL     1     -96.120 -14.945  50.409  1.00  0.00     0.084 C 
BRANCH  10  11
HETATM   11  S1  UNL     1     -94.911 -15.037  49.087  1.00  0.00    -0.092 SA
BRANCH  11  12
HETATM   12  C5  UNL     1     -95.491 -16.114  47.799  1.00  0.00     0.162 C 
HETATM   13  N2  UNL     1     -95.038 -17.351  47.922  1.00  0.00    -0.247 N 
ATOM     14  H2  UNL     1     -95.332 -18.030  47.218  1.00  0.00     0.196 HD
BRANCH  12  15
HETATM   15  N1  UNL     1     -96.339 -15.777  46.736  1.00  0.00    -0.351 N 
HETATM   16  C4  UNL     1     -97.550 -15.001  47.052  1.00  0.00     0.129 C 
HETATM   17  C3  UNL     1     -98.785 -15.768  46.681  1.00  0.00     0.063 C 
HETATM   18  C2  UNL     1     -98.675 -16.753  45.588  1.00  0.00     0.103 C 
HETATM   19  C1  UNL     1     -99.529 -16.360  44.373  1.00  0.00     0.052 C 
HETATM   20  F1  UNL     1     -99.291 -17.934  46.054  1.00  0.00    -0.243 F 
HETATM   21  C22 UNL     1     -97.337 -17.144  45.106  1.00  0.00     0.073 C 
HETATM   22  C19 UNL     1     -96.237 -16.115  45.352  1.00  0.00     0.030 C 
HETATM   23  C20 UNL     1     -94.956 -16.760  44.940  1.00  0.00     0.038 C 
HETATM   24  C21 UNL     1     -96.484 -14.935  44.432  1.00  0.00     0.038 C 
ENDBRANCH  12  15
BRANCH  13  25
HETATM   25  O1  UNL     1     -94.224 -17.786  48.899  1.00  0.00    -0.288 OA
ATOM     26  H1  UNL     1     -94.207 -18.671  49.245  1.00  0.00     0.244 HD
ENDBRANCH  13  25
ENDBRANCH  11  12
ENDBRANCH  10  11
ENDBRANCH   9  10
ENDBRANCH   8   9
ENDBRANCH   7   8
ENDBRANCH   5   7
ENDBRANCH   1   5
BRANCH   4  27
HETATM   27  C13 UNL     1    -101.908 -18.664  49.152  1.00  0.00    -0.013 A 
HETATM   28  C14 UNL     1    -102.355 -19.513  50.124  1.00  0.00     0.015 A 
HETATM   29  C15 UNL     1    -103.729 -19.760  50.239  1.00  0.00     0.024 A 
HETATM   30  C16 UNL     1    -104.588 -19.145  49.377  1.00  0.00     0.035 A 
HETATM   31 CL1  UNL     1    -106.304 -19.460  49.531  1.00  0.00    -0.084 Cl
HETATM   32  C17 UNL     1    -104.125 -18.282  48.394  1.00  0.00     0.048 A 
HETATM   33  C18 UNL     1    -102.779 -18.030  48.266  1.00  0.00     0.045 A 
HETATM   34 CL2  UNL     1    -102.187 -16.951  47.033  1.00  0.00    -0.083 Cl
ENDBRANCH   4  27
TORSDOF 10
ENDMDL
MODEL 2
REMARK VINA RESULT: -8.190699177      3.066      5.271
REMARK  10 active torsions:
REMARK  status: ('A' for Active; 'I' for Inactive)
REMARK    1  A    between atoms: N1_6  and  C5_7 
REMARK    2  A    between atoms: C5_7  and  S1_12 
REMARK    3  A    between atoms: N2_8  and  O1_10 
REMARK    4  A    between atoms: S1_12  and  C6_13 
REMARK    5  A    between atoms: C6_13  and  C7_14 
REMARK    6  A    between atoms: C7_14  and  C8_15 
REMARK    7  A    between atoms: C8_15  and  O2_16 
REMARK    8  A    between atoms: O2_16  and  C9_17 
REMARK    9  A    between atoms: C9_17  and  C10_19 
REMARK   10  A    between atoms: C12_22  and  C13_23 
ROOT
HETATM    1  C10 UNL     1     -97.865 -16.315  45.103  1.00  0.00     0.120 C 
HETATM    2  C11 UNL     1     -98.819 -15.815  44.171  1.00  0.00     0.105 C 
HETATM    3  N3  UNL     1     -99.594 -15.380  43.394  1.00  0.00    -0.191 NA
HETATM    4  C12 UNL     1     -98.235 -16.885  46.212  1.00  0.00     0.042 C 
ENDROOT
BRANCH   1   5
HETATM    5  C9  UNL     1     -96.426 -16.159  44.823  1.00  0.00     0.303 C 
HETATM    6  O3  UNL     1     -95.929 -15.028  44.783  1.00  0.00    -0.258 OA
BRANCH   5   7
HETATM    7  O2  UNL     1     -95.628 -17.262  44.603  1.00  0.00    -0.317 OA
BRANCH   7   8
HETATM    8  C8  UNL     1     -94.498 -17.651  45.328  1.00  0.00     0.180 C 
BRANCH   8   9
HETATM    9  C7  UNL     1     -94.825 -17.732  46.791  1.00  0.00     0.037 C 
BRANCH   9  10
HETATM   10  C6  UNL     1     -93.529 -17.487  47.557  1.00  0.00     0.084 C 
BRANCH  10  11
HETATM   11  S1  UNL     1     -92.889 -15.900  47.016  1.00  0.00    -0.092 SA
BRANCH  11  12
HETATM   12  C5  UNL     1     -93.913 -14.585  47.629  1.00  0.00     0.162 C 
HETATM   13  N2  UNL     1     -94.063 -13.601  46.757  1.00  0.00    -0.247 N 
ATOM     14  H2  UNL     1     -94.642 -12.810  47.038  1.00  0.00     0.196 HD
BRANCH  12  15
HETATM   15  N1  UNL     1     -94.536 -14.515  48.882  1.00  0.00    -0.351 N 
HETATM   16  C4  UNL     1     -93.688 -14.695  50.074  1.00  0.00     0.129 C 
HETATM   17  C3  UNL     1     -94.129 -15.891  50.865  1.00  0.00     0.063 C 
HETATM   18  C2  UNL     1     -95.547 -16.288  50.770  1.00  0.00     0.103 C 
HETATM   19  C1  UNL     1     -96.275 -16.137  52.114  1.00  0.00     0.052 C 
HETATM   20  F1  UNL     1     -95.556 -17.681  50.547  1.00  0.00    -0.243 F 
HETATM   21  C22 UNL     1     -96.390 -15.693  49.717  1.00  0.00     0.073 C 
HETATM   22  C19 UNL     1     -95.916 -14.336  49.201  1.00  0.00     0.030 C 
HETATM   23  C20 UNL     1     -96.802 -13.989  48.051  1.00  0.00     0.038 C 
HETATM   24  C21 UNL     1     -96.147 -13.312  50.295  1.00  0.00     0.038 C 
ENDBRANCH  12  15
BRANCH  13  25
HETATM   25  O1  UNL     1     -93.515 -13.562  45.530  1.00  0.00    -0.288 OA
ATOM     26  H1  UNL     1     -93.594 -12.840  44.917  1.00  0.00     0.244 HD
ENDBRANCH  13  25
ENDBRANCH  11  12
ENDBRANCH  10  11
ENDBRANCH   9  10
ENDBRANCH   8   9
ENDBRANCH   7   8
ENDBRANCH   5   7
ENDBRANCH   1   5
BRANCH   4  27
HETATM   27  C13 UNL     1     -99.605 -17.114  46.631  1.00  0.00    -0.013 A 
HETATM   28  C14 UNL     1    -100.665 -16.529  46.001  1.00  0.00     0.015 A 
HETATM   29  C15 UNL     1    -101.962 -16.775  46.470  1.00  0.00     0.024 A 
HETATM   30  C16 UNL     1    -102.133 -17.596  47.546  1.00  0.00     0.035 A 
HETATM   31 CL1  UNL     1    -103.758 -17.898  48.124  1.00  0.00    -0.084 Cl
HETATM   32  C17 UNL     1    -101.050 -18.187  48.180  1.00  0.00     0.048 A 
HETATM   33  C18 UNL     1     -99.770 -17.955  47.732  1.00  0.00     0.045 A 
HETATM   34 CL2  UNL     1     -98.401 -18.690  48.522  1.00  0.00    -0.083 Cl
ENDBRANCH   4  27
TORSDOF 10
ENDMDL
MODEL 3
REMARK VINA RESULT: -8.164058269      6.301     10.155
REMARK  10 active torsions:
REMARK  status: ('A' for Active; 'I' for Inactive)
REMARK    1  A    between atoms: N1_6  and  C5_7 
REMARK    2  A    between atoms: C5_7  and  S1_12 
REMARK    3  A    between atoms: N2_8  and  O1_10 
REMARK    4  A    between atoms: S1_12  and  C6_13 
REMARK    5  A    between atoms: C6_13  and  C7_14 
REMARK    6  A    between atoms: C7_14  and  C8_15 
REMARK    7  A    between atoms: C8_15  and  O2_16 
REMARK    8  A    between atoms: O2_16  and  C9_17 
REMARK    9  A    between atoms: C9_17  and  C10_19 
REMARK   10  A    between atoms: C12_22  and  C13_23 
ROOT
HETATM    1  C10 UNL     1    -101.798 -18.805  48.681  1.00  0.00     0.120 C 
HETATM    2  C11 UNL     1    -101.464 -18.773  50.065  1.00  0.00     0.105 C 
HETATM    3  N3  UNL     1    -101.212 -18.738  51.218  1.00  0.00    -0.191 NA
HETATM    4  C12 UNL     1    -100.940 -18.458  47.768  1.00  0.00     0.042 C 
ENDROOT
BRANCH   1   5
HETATM    5  C9  UNL     1    -103.155 -19.212  48.271  1.00  0.00     0.303 C 
HETATM    6  O3  UNL     1    -103.390 -20.401  48.031  1.00  0.00    -0.258 OA
BRANCH   5   7
HETATM    7  O2  UNL     1    -104.164 -18.281  48.153  1.00  0.00    -0.317 OA
BRANCH   7   8
HETATM    8  C8  UNL     1    -104.891 -17.679  49.184  1.00  0.00     0.180 C 
BRANCH   8   9
HETATM    9  C7  UNL     1    -104.413 -16.272  49.401  1.00  0.00     0.037 C 
BRANCH   9  10
HETATM   10  C6  UNL     1    -105.566 -15.497  50.032  1.00  0.00     0.084 C 
BRANCH  10  11
HETATM   11  S1  UNL     1    -106.381 -16.607  51.182  1.00  0.00    -0.092 SA
BRANCH  11  12
HETATM   12  C5  UNL     1    -107.324 -15.679  52.367  1.00  0.00     0.162 C 
HETATM   13  N2  UNL     1    -106.953 -15.914  53.615  1.00  0.00    -0.247 N 
ATOM     14  H2  UNL     1    -107.450 -15.414  54.353  1.00  0.00     0.196 HD
BRANCH  12  15
HETATM   15  N1  UNL     1    -108.360 -14.775  52.098  1.00  0.00    -0.351 N 
HETATM   16  C4  UNL     1    -108.348 -14.097  50.790  1.00  0.00     0.129 C 
HETATM   17  C3  UNL     1    -108.237 -12.611  50.963  1.00  0.00     0.063 C 
HETATM   18  C2  UNL     1    -108.762 -12.027  52.212  1.00  0.00     0.103 C 
HETATM   19  C1  UNL     1    -109.958 -11.098  51.952  1.00  0.00     0.052 C 
HETATM   20  F1  UNL     1    -107.765 -11.152  52.692  1.00  0.00    -0.243 F 
HETATM   21  C22 UNL     1    -109.106 -12.921  53.333  1.00  0.00     0.073 C 
HETATM   22  C19 UNL     1    -109.439 -14.357  52.935  1.00  0.00     0.030 C 
HETATM   23  C20 UNL     1    -109.600 -15.121  54.206  1.00  0.00     0.038 C 
HETATM   24  C21 UNL     1    -110.777 -14.348  52.221  1.00  0.00     0.038 C 
ENDBRANCH  12  15
BRANCH  13  25
HETATM   25  O1  UNL     1    -105.975 -16.757  53.989  1.00  0.00    -0.288 OA
ATOM     26  H1  UNL     1    -106.098 -17.670  54.222  1.00  0.00     0.244 HD
ENDBRANCH  13  25
ENDBRANCH  11  12
ENDBRANCH  10  11
ENDBRANCH   9  10
ENDBRANCH   8   9
ENDBRANCH   7   8
ENDBRANCH   5   7
ENDBRANCH   1   5
BRANCH   4  27
HETATM   27  C13 UNL     1     -99.572 -18.037  48.007  1.00  0.00    -0.013 A 
HETATM   28  C14 UNL     1     -98.770 -18.657  48.922  1.00  0.00     0.015 A 
HETATM   29  C15 UNL     1     -97.465 -18.186  49.120  1.00  0.00     0.024 A 
HETATM   30  C16 UNL     1     -97.028 -17.119  48.392  1.00  0.00     0.035 A 
HETATM   31 CL1  UNL     1     -95.396 -16.539  48.646  1.00  0.00    -0.084 Cl
HETATM   32  C17 UNL     1     -97.850 -16.496  47.463  1.00  0.00     0.048 A 
HETATM   33  C18 UNL     1     -99.134 -16.946  47.258  1.00  0.00     0.045 A 
HETATM   34 CL2  UNL     1    -100.175 -16.169  46.096  1.00  0.00    -0.083 Cl
ENDBRANCH   4  27
TORSDOF 10
ENDMDL
MODEL 4
REMARK VINA RESULT: -8.125386444      3.279      5.402
REMARK  10 active torsions:
REMARK  status: ('A' for Active; 'I' for Inactive)
REMARK    1  A    between atoms: N1_6  and  C5_7 
REMARK    2  A    between atoms: C5_7  and  S1_12 
REMARK    3  A    between atoms: N2_8  and  O1_10 
REMARK    4  A    between atoms: S1_12  and  C6_13 
REMARK    5  A    between atoms: C6_13  and  C7_14 
REMARK    6  A    between atoms: C7_14  and  C8_15 
REMARK    7  A    between atoms: C8_15  and  O2_16 
REMARK    8  A    between atoms: O2_16  and  C9_17 
REMARK    9  A    between atoms: C9_17  and  C10_19 
REMARK   10  A    between atoms: C12_22  and  C13_23 
ROOT
HETATM    1  C10 UNL     1    -100.840 -18.655  49.727  1.00  0.00     0.120 C 
HETATM    2  C11 UNL     1    -101.528 -18.697  50.973  1.00  0.00     0.105 C 
HETATM    3  N3  UNL     1    -102.119 -18.717  51.995  1.00  0.00    -0.191 NA
HETATM    4  C12 UNL     1     -99.546 -18.540  49.670  1.00  0.00     0.042 C 
ENDROOT
BRANCH   1   5
HETATM    5  C9  UNL     1    -101.610 -18.715  48.471  1.00  0.00     0.303 C 
HETATM    6  O3  UNL     1    -102.645 -19.386  48.419  1.00  0.00    -0.258 OA
BRANCH   5   7
HETATM    7  O2  UNL     1    -101.186 -18.029  47.352  1.00  0.00    -0.317 OA
BRANCH   7   8
HETATM    8  C8  UNL     1    -101.752 -16.880  46.793  1.00  0.00     0.180 C 
BRANCH   8   9
HETATM    9  C7  UNL     1    -100.913 -16.395  45.646  1.00  0.00     0.037 C 
BRANCH   9  10
HETATM   10  C6  UNL     1     -99.525 -16.089  46.200  1.00  0.00     0.084 C 
BRANCH  10  11
HETATM   11  S1  UNL     1     -98.339 -16.914  45.136  1.00  0.00    -0.092 SA
BRANCH  11  12
HETATM   12  C5  UNL     1     -97.137 -15.751  44.540  1.00  0.00     0.162 C 
HETATM   13  N2  UNL     1     -97.570 -15.049  43.505  1.00  0.00    -0.247 N 
ATOM     14  H2  UNL     1     -96.934 -14.358  43.108  1.00  0.00     0.196 HD
BRANCH  12  15
HETATM   15  N1  UNL     1     -95.851 -15.531  45.050  1.00  0.00    -0.351 N 
HETATM   16  C4  UNL     1     -94.725 -16.178  44.356  1.00  0.00     0.129 C 
HETATM   17  C3  UNL     1     -94.007 -17.125  45.273  1.00  0.00     0.063 C 
HETATM   18  C2  UNL     1     -94.057 -16.842  46.720  1.00  0.00     0.103 C 
HETATM   19  C1  UNL     1     -92.668 -16.512  47.288  1.00  0.00     0.052 C 
HETATM   20  F1  UNL     1     -94.388 -18.060  47.352  1.00  0.00    -0.243 F 
HETATM   21  C22 UNL     1     -95.013 -15.839  47.223  1.00  0.00     0.073 C 
HETATM   22  C19 UNL     1     -95.445 -14.791  46.202  1.00  0.00     0.030 C 
HETATM   23  C20 UNL     1     -96.516 -13.981  46.855  1.00  0.00     0.038 C 
HETATM   24  C21 UNL     1     -94.264 -13.878  45.937  1.00  0.00     0.038 C 
ENDBRANCH  12  15
BRANCH  13  25
HETATM   25  O1  UNL     1     -98.781 -15.175  42.935  1.00  0.00    -0.288 OA
ATOM     26  H1  UNL     1     -99.321 -15.957  42.960  1.00  0.00     0.244 HD
ENDBRANCH  13  25
ENDBRANCH  11  12
ENDBRANCH  10  11
ENDBRANCH   9  10
ENDBRANCH   8   9
ENDBRANCH   7   8
ENDBRANCH   5   7
ENDBRANCH   1   5
BRANCH   4  27
HETATM   27  C13 UNL     1     -98.651 -18.472  50.810  1.00  0.00    -0.013 A 
HETATM   28  C14 UNL     1     -98.723 -19.359  51.845  1.00  0.00     0.015 A 
HETATM   29  C15 UNL     1     -97.843 -19.223  52.927  1.00  0.00     0.024 A 
HETATM   30  C16 UNL     1     -96.934 -18.206  52.918  1.00  0.00     0.035 A 
HETATM   31 CL1  UNL     1     -95.838 -18.046  54.274  1.00  0.00    -0.084 Cl
HETATM   32  C17 UNL     1     -96.867 -17.310  51.861  1.00  0.00     0.048 A 
HETATM   33  C18 UNL     1     -97.725 -17.429  50.792  1.00  0.00     0.045 A 
HETATM   34 CL2  UNL     1     -97.652 -16.306  49.461  1.00  0.00    -0.083 Cl
ENDBRANCH   4  27
TORSDOF 10
ENDMDL
MODEL 5
REMARK VINA RESULT: -7.983916912      2.143      4.072
REMARK  10 active torsions:
REMARK  status: ('A' for Active; 'I' for Inactive)
REMARK    1  A    between atoms: N1_6  and  C5_7 
REMARK    2  A    between atoms: C5_7  and  S1_12 
REMARK    3  A    between atoms: N2_8  and  O1_10 
REMARK    4  A    between atoms: S1_12  and  C6_13 
REMARK    5  A    between atoms: C6_13  and  C7_14 
REMARK    6  A    between atoms: C7_14  and  C8_15 
REMARK    7  A    between atoms: C8_15  and  O2_16 
REMARK    8  A    between atoms: O2_16  and  C9_17 
REMARK    9  A    between atoms: C9_17  and  C10_19 
REMARK   10  A    between atoms: C12_22  and  C13_23 
ROOT
HETATM    1  C10 UNL     1     -99.401 -18.327  49.086  1.00  0.00     0.120 C 
HETATM    2  C11 UNL     1     -99.525 -18.421  50.501  1.00  0.00     0.105 C 
HETATM    3  N3  UNL     1     -99.604 -18.514  51.676  1.00  0.00    -0.191 NA
HETATM    4  C12 UNL     1    -100.434 -18.448  48.305  1.00  0.00     0.042 C 
ENDROOT
BRANCH   1   5
HETATM    5  C9  UNL     1     -98.071 -18.114  48.486  1.00  0.00     0.303 C 
HETATM    6  O3  UNL     1     -97.068 -18.568  49.046  1.00  0.00    -0.258 OA
BRANCH   5   7
HETATM    7  O2  UNL     1     -97.934 -17.413  47.306  1.00  0.00    -0.317 OA
BRANCH   7   8
HETATM    8  C8  UNL     1     -98.235 -16.067  47.078  1.00  0.00     0.180 C 
BRANCH   8   9
HETATM    9  C7  UNL     1     -97.479 -15.197  48.041  1.00  0.00     0.037 C 
BRANCH   9  10
HETATM   10  C6  UNL     1     -96.509 -14.353  47.220  1.00  0.00     0.084 C 
BRANCH  10  11
HETATM   11  S1  UNL     1     -95.022 -15.332  46.992  1.00  0.00    -0.092 SA
BRANCH  11  12
HETATM   12  C5  UNL     1     -94.577 -16.134  48.512  1.00  0.00     0.162 C 
HETATM   13  N2  UNL     1     -94.501 -17.450  48.396  1.00  0.00    -0.247 N 
ATOM     14  H2  UNL     1     -94.248 -17.981  49.229  1.00  0.00     0.196 HD
BRANCH  12  15
HETATM   15  N1  UNL     1     -94.315 -15.521  49.745  1.00  0.00    -0.351 N 
HETATM   16  C4  UNL     1     -95.178 -15.884  50.882  1.00  0.00     0.129 C 
HETATM   17  C3  UNL     1     -95.911 -14.682  51.399  1.00  0.00     0.063 C 
HETATM   18  C2  UNL     1     -95.281 -13.362  51.206  1.00  0.00     0.103 C 
HETATM   19  C1  UNL     1     -94.903 -12.706  52.543  1.00  0.00     0.052 C 
HETATM   20  F1  UNL     1     -96.284 -12.513  50.695  1.00  0.00    -0.243 F 
HETATM   21  C22 UNL     1     -94.130 -13.244  50.291  1.00  0.00     0.073 C 
HETATM   22  C19 UNL     1     -93.340 -14.532  50.077  1.00  0.00     0.030 C 
HETATM   23  C20 UNL     1     -92.334 -14.239  49.015  1.00  0.00     0.038 C 
HETATM   24  C21 UNL     1     -92.591 -14.842  51.359  1.00  0.00     0.038 C 
ENDBRANCH  12  15
BRANCH  13  25
HETATM   25  O1  UNL     1     -94.730 -18.143  47.267  1.00  0.00    -0.288 OA
ATOM     26  H1  UNL     1     -95.459 -18.000  46.674  1.00  0.00     0.244 HD
ENDBRANCH  13  25
ENDBRANCH  11  12
ENDBRANCH  10  11
ENDBRANCH   9  10
ENDBRANCH   8   9
ENDBRANCH   7   8
ENDBRANCH   5   7
ENDBRANCH   1   5
BRANCH   4  27
HETATM   27  C13 UNL     1    -101.803 -18.657  48.738  1.00  0.00    -0.013 A 
HETATM   28  C14 UNL     1    -102.125 -19.540  49.728  1.00  0.00     0.015 A 
HETATM   29  C15 UNL     1    -103.470 -19.711  50.083  1.00  0.00     0.024 A 
HETATM   30  C16 UNL     1    -104.425 -18.989  49.430  1.00  0.00     0.035 A 
HETATM   31 CL1  UNL     1    -106.102 -19.209  49.882  1.00  0.00    -0.084 Cl
HETATM   32  C17 UNL     1    -104.088 -18.093  48.426  1.00  0.00     0.048 A 
HETATM   33  C18 UNL     1    -102.772 -17.914  48.064  1.00  0.00     0.045 A 
HETATM   34 CL2  UNL     1    -102.339 -16.794  46.802  1.00  0.00    -0.083 Cl
ENDBRANCH   4  27
TORSDOF 10
ENDMDL
