MODEL 1
REMARK VINA RESULT: -10.165213120      0.000      0.000
REMARK  5 active torsions:
REMARK  status: ('A' for Active; 'I' for Inactive)
REMARK    1  A    between atoms: N3_6  and  C4_7 
REMARK    2  A    between atoms: C4_7  and  C5_8 
REMARK    3  A    between atoms: C4_7  and  C10_14 
REMARK    4  A    between atoms: C5_8  and  C6_9 
REMARK    5  A    between atoms: C12_16  and  C13_17 
ROOT
HETATM    1  N1  UNL     1    -105.721 -19.072  49.369  1.00  0.00    -0.191 NA
HETATM    2  C1  UNL     1    -104.579 -18.924  49.354  1.00  0.00     0.105 C 
HETATM    3  C2  UNL     1    -103.154 -18.729  49.313  1.00  0.00     0.115 A 
HETATM    4  C3  UNL     1    -102.403 -18.327  48.240  1.00  0.00     0.143 A 
HETATM    5  N2  UNL     1    -102.970 -18.027  46.962  1.00  0.00    -0.081 NA
HETATM    6  N3  UNL     1    -101.079 -18.263  48.612  1.00  0.00    -0.321 N 
HETATM    7  C17 UNL     1    -101.010 -18.624  49.914  1.00  0.00     0.065 A 
HETATM    8  C18 UNL     1     -99.975 -18.742  50.814  1.00  0.00     0.035 A 
HETATM    9  C19 UNL     1    -100.197 -19.142  52.131  1.00  0.00     0.044 A 
HETATM   10  C20 UNL     1    -101.481 -19.424  52.540  1.00  0.00     0.104 A 
HETATM   11 CL3  UNL     1    -101.780 -19.932  54.205  1.00  0.00    -0.065 Cl
HETATM   12  N6  UNL     1    -102.465 -19.302  51.648  1.00  0.00    -0.344 N 
ATOM     13  H6  UNL     1    -103.414 -19.514  51.959  1.00  0.00     0.167 HD
HETATM   14  C21 UNL     1    -102.301 -18.920  50.370  1.00  0.00     0.085 A 
ENDROOT
BRANCH   6  15
HETATM   15  C4  UNL     1    -100.074 -17.869  47.692  1.00  0.00     0.143 C 
BRANCH  15  16
HETATM   16  C5  UNL     1    -100.304 -16.686  46.831  1.00  0.00     0.038 C 
BRANCH  16  17
HETATM   17  C6  UNL     1     -99.639 -16.918  45.446  1.00  0.00     0.014 C 
HETATM   18  C7  UNL     1     -98.538 -15.882  45.364  1.00  0.00     0.033 C 
HETATM   19  C8  UNL     1     -98.607 -15.491  43.919  1.00  0.00     0.168 C 
HETATM   20  O1  UNL     1     -99.900 -15.658  43.498  1.00  0.00    -0.391 OA
HETATM   21  C9  UNL     1    -100.550 -16.513  44.343  1.00  0.00     0.172 C 
ENDBRANCH  16  17
ENDBRANCH  15  16
BRANCH  15  22
HETATM   22  C10 UNL     1     -98.723 -17.780  48.362  1.00  0.00     0.051 A 
HETATM   23  C11 UNL     1     -98.120 -16.677  48.944  1.00  0.00     0.061 A 
HETATM   24  C12 UNL     1     -96.916 -17.038  49.422  1.00  0.00     0.069 A 
HETATM   25  N4  UNL     1     -96.767 -18.347  49.144  1.00  0.00    -0.299 N 
HETATM   26  N5  UNL     1     -97.836 -18.774  48.520  1.00  0.00    -0.302 N 
ATOM     27  H4  UNL     1     -95.953 -18.915  49.382  1.00  0.00     0.187 HD
ATOM     28  H5  UNL     1     -97.975 -19.732  48.198  1.00  0.00     0.186 HD
BRANCH  24  29
HETATM   29  C13 UNL     1     -95.861 -16.272  50.130  1.00  0.00     0.056 A 
HETATM   30  S1  UNL     1     -94.774 -16.878  51.327  1.00  0.00    -0.096 SA
HETATM   31  C14 UNL     1     -93.901 -15.460  51.651  1.00  0.00     0.076 A 
HETATM   32  C15 UNL     1     -94.473 -14.545  50.820  1.00  0.00     0.063 A 
HETATM   33 CL1  UNL     1     -93.861 -12.861  50.816  1.00  0.00    -0.082 Cl
HETATM   34  C16 UNL     1     -95.488 -14.965  50.033  1.00  0.00     0.075 A 
HETATM   35 CL2  UNL     1     -96.336 -13.870  48.891  1.00  0.00    -0.081 Cl
ENDBRANCH  24  29
ENDBRANCH  15  22
ENDBRANCH   6  15
TORSDOF 5
ENDMDL
MODEL 2
REMARK VINA RESULT: -9.685581687      3.926      5.926
REMARK  5 active torsions:
REMARK  status: ('A' for Active; 'I' for Inactive)
REMARK    1  A    between atoms: N3_6  and  C4_7 
REMARK    2  A    between atoms: C4_7  and  C5_8 
REMARK    3  A    between atoms: C4_7  and  C10_14 
REMARK    4  A    between atoms: C5_8  and  C6_9 
REMARK    5  A    between atoms: C12_16  and  C13_17 
ROOT
HETATM    1  N1  UNL     1     -97.519 -18.983  52.871  1.00  0.00    -0.191 NA
HETATM    2  C1  UNL     1     -97.367 -18.247  51.998  1.00  0.00     0.105 C 
HETATM    3  C2  UNL     1     -97.187 -17.343  50.893  1.00  0.00     0.115 A 
HETATM    4  C3  UNL     1     -97.413 -17.602  49.567  1.00  0.00     0.143 A 
HETATM    5  N2  UNL     1     -97.886 -18.864  49.089  1.00  0.00    -0.081 NA
HETATM    6  N3  UNL     1     -97.121 -16.476  48.829  1.00  0.00    -0.321 N 
HETATM    7  C17 UNL     1     -96.717 -15.520  49.699  1.00  0.00     0.065 A 
HETATM    8  C18 UNL     1     -96.310 -14.214  49.554  1.00  0.00     0.035 A 
HETATM    9  C19 UNL     1     -95.943 -13.439  50.652  1.00  0.00     0.044 A 
HETATM   10  C20 UNL     1     -95.991 -13.993  51.912  1.00  0.00     0.104 A 
HETATM   11 CL3  UNL     1     -95.529 -13.025  53.315  1.00  0.00    -0.065 Cl
HETATM   12  N6  UNL     1     -96.389 -15.261  52.025  1.00  0.00    -0.344 N 
ATOM     13  H6  UNL     1     -96.421 -15.665  52.961  1.00  0.00     0.167 HD
HETATM   14  C21 UNL     1     -96.752 -16.047  50.997  1.00  0.00     0.085 A 
ENDROOT
BRANCH   6  15
HETATM   15  C4  UNL     1     -97.269 -16.461  47.420  1.00  0.00     0.143 C 
BRANCH  15  16
HETATM   16  C5  UNL     1     -98.405 -15.726  46.818  1.00  0.00     0.038 C 
BRANCH  16  17
HETATM   17  C6  UNL     1     -99.212 -16.684  45.899  1.00  0.00     0.014 C 
HETATM   18  C7  UNL     1     -99.177 -16.034  44.531  1.00  0.00     0.033 C 
HETATM   19  C8  UNL     1    -100.555 -16.335  44.026  1.00  0.00     0.168 C 
HETATM   20  O1  UNL     1    -101.392 -16.418  45.107  1.00  0.00    -0.391 OA
HETATM   21  C9  UNL     1    -100.659 -16.653  46.237  1.00  0.00     0.172 C 
ENDBRANCH  16  17
ENDBRANCH  15  16
BRANCH  15  22
HETATM   22  C10 UNL     1     -95.975 -16.084  46.738  1.00  0.00     0.051 A 
HETATM   23  C11 UNL     1     -95.743 -15.057  45.836  1.00  0.00     0.061 A 
HETATM   24  C12 UNL     1     -94.447 -15.077  45.475  1.00  0.00     0.069 A 
HETATM   25  N4  UNL     1     -93.876 -16.100  46.140  1.00  0.00    -0.299 N 
HETATM   26  N5  UNL     1     -94.784 -16.685  46.880  1.00  0.00    -0.302 N 
ATOM     27  H4  UNL     1     -92.895 -16.373  46.077  1.00  0.00     0.187 HD
ATOM     28  H5  UNL     1     -94.610 -17.489  47.483  1.00  0.00     0.186 HD
BRANCH  24  29
HETATM   29  C13 UNL     1     -93.664 -14.222  44.550  1.00  0.00     0.056 A 
HETATM   30  S1  UNL     1     -93.410 -14.489  42.863  1.00  0.00    -0.096 SA
HETATM   31  C14 UNL     1     -92.450 -13.136  42.509  1.00  0.00     0.076 A 
HETATM   32  C15 UNL     1     -92.348 -12.504  43.711  1.00  0.00     0.063 A 
HETATM   33 CL1  UNL     1     -91.402 -10.987  43.827  1.00  0.00    -0.082 Cl
HETATM   34  C16 UNL     1     -92.976 -13.066  44.768  1.00  0.00     0.075 A 
HETATM   35 CL2  UNL     1     -92.927 -12.345  46.411  1.00  0.00    -0.081 Cl
ENDBRANCH  24  29
ENDBRANCH  15  22
ENDBRANCH   6  15
TORSDOF 5
ENDMDL
MODEL 3
REMARK VINA RESULT: -9.440863498      1.787      2.885
REMARK  5 active torsions:
REMARK  status: ('A' for Active; 'I' for Inactive)
REMARK    1  A    between atoms: N3_6  and  C4_7 
REMARK    2  A    between atoms: C4_7  and  C5_8 
REMARK    3  A    between atoms: C4_7  and  C10_14 
REMARK    4  A    between atoms: C5_8  and  C6_9 
REMARK    5  A    between atoms: C12_16  and  C13_17 
ROOT
HETATM    1  N1  UNL     1    -100.519 -19.763  52.920  1.00  0.00    -0.191 NA
HETATM    2  C1  UNL     1    -100.612 -19.342  51.852  1.00  0.00     0.105 C 
HETATM    3  C2  UNL     1    -100.704 -18.817  50.516  1.00  0.00     0.115 A 
HETATM    4  C3  UNL     1     -99.671 -18.414  49.711  1.00  0.00     0.143 A 
HETATM    5  N2  UNL     1     -98.301 -18.473  50.115  1.00  0.00    -0.081 NA
HETATM    6  N3  UNL     1    -100.179 -17.976  48.508  1.00  0.00    -0.321 N 
HETATM    7  C17 UNL     1    -101.525 -18.109  48.568  1.00  0.00     0.065 A 
HETATM    8  C18 UNL     1    -102.546 -17.845  47.684  1.00  0.00     0.035 A 
HETATM    9  C19 UNL     1    -103.878 -18.088  48.015  1.00  0.00     0.044 A 
HETATM   10  C20 UNL     1    -104.177 -18.605  49.256  1.00  0.00     0.104 A 
HETATM   11 CL3  UNL     1    -105.860 -18.919  49.693  1.00  0.00    -0.065 Cl
HETATM   12  N6  UNL     1    -103.169 -18.852  50.093  1.00  0.00    -0.344 N 
ATOM     13  H6  UNL     1    -103.399 -19.234  51.011  1.00  0.00     0.167 HD
HETATM   14  C21 UNL     1    -101.871 -18.634  49.819  1.00  0.00     0.085 A 
ENDROOT
BRANCH   6  15
HETATM   15  C4  UNL     1     -99.327 -17.501  47.479  1.00  0.00     0.143 C 
BRANCH  15  16
HETATM   16  C5  UNL     1     -99.859 -16.546  46.481  1.00  0.00     0.038 C 
BRANCH  16  17
HETATM   17  C6  UNL     1     -99.132 -16.759  45.123  1.00  0.00     0.014 C 
HETATM   18  C7  UNL     1     -98.047 -15.703  45.092  1.00  0.00     0.033 C 
HETATM   19  C8  UNL     1     -98.063 -15.306  43.647  1.00  0.00     0.168 C 
HETATM   20  O1  UNL     1     -99.335 -15.494  43.172  1.00  0.00    -0.391 OA
HETATM   21  C9  UNL     1    -100.004 -16.365  43.985  1.00  0.00     0.172 C 
ENDBRANCH  16  17
ENDBRANCH  15  16
BRANCH  15  22
HETATM   22  C10 UNL     1     -98.016 -17.004  48.041  1.00  0.00     0.051 A 
HETATM   23  C11 UNL     1     -97.756 -15.811  48.697  1.00  0.00     0.061 A 
HETATM   24  C12 UNL     1     -96.453 -15.769  49.028  1.00  0.00     0.069 A 
HETATM   25  N4  UNL     1     -95.905 -16.917  48.587  1.00  0.00    -0.299 N 
HETATM   26  N5  UNL     1     -96.833 -17.636  48.007  1.00  0.00    -0.302 N 
ATOM     27  H4  UNL     1     -94.925 -17.183  48.688  1.00  0.00     0.187 HD
ATOM     28  H5  UNL     1     -96.678 -18.553  47.588  1.00  0.00     0.186 HD
BRANCH  24  29
HETATM   29  C13 UNL     1     -95.643 -14.744  49.731  1.00  0.00     0.056 A 
HETATM   30  S1  UNL     1     -95.656 -14.402  51.424  1.00  0.00    -0.096 SA
HETATM   31  C14 UNL     1     -94.510 -13.153  51.463  1.00  0.00     0.076 A 
HETATM   32  C15 UNL     1     -94.141 -13.028  50.158  1.00  0.00     0.063 A 
HETATM   33 CL1  UNL     1     -92.918 -11.798  49.707  1.00  0.00    -0.082 Cl
HETATM   34  C16 UNL     1     -94.727 -13.851  49.261  1.00  0.00     0.075 A 
HETATM   35 CL2  UNL     1     -94.339 -13.798  47.509  1.00  0.00    -0.081 Cl
ENDBRANCH  24  29
ENDBRANCH  15  22
ENDBRANCH   6  15
TORSDOF 5
ENDMDL
MODEL 4
REMARK VINA RESULT: -9.389104743      2.286      3.501
REMARK  5 active torsions:
REMARK  status: ('A' for Active; 'I' for Inactive)
REMARK    1  A    between atoms: N3_6  and  C4_7 
REMARK    2  A    between atoms: C4_7  and  C5_8 
REMARK    3  A    between atoms: C4_7  and  C10_14 
REMARK    4  A    between atoms: C5_8  and  C6_9 
REMARK    5  A    between atoms: C12_16  and  C13_17 
ROOT
HETATM    1  N1  UNL     1    -102.040 -19.775  54.274  1.00  0.00    -0.191 NA
HETATM    2  C1  UNL     1    -101.616 -19.520  53.234  1.00  0.00     0.105 C 
HETATM    3  C2  UNL     1    -101.065 -19.209  51.942  1.00  0.00     0.115 A 
HETATM    4  C3  UNL     1     -99.745 -19.230  51.578  1.00  0.00     0.143 A 
HETATM    5  N2  UNL     1     -98.694 -19.590  52.478  1.00  0.00    -0.081 NA
HETATM    6  N3  UNL     1     -99.634 -18.868  50.253  1.00  0.00    -0.321 N 
HETATM    7  C17 UNL     1    -100.885 -18.624  49.798  1.00  0.00     0.065 A 
HETATM    8  C18 UNL     1    -101.394 -18.240  48.579  1.00  0.00     0.035 A 
HETATM    9  C19 UNL     1    -102.763 -18.061  48.385  1.00  0.00     0.044 A 
HETATM   10  C20 UNL     1    -103.624 -18.275  49.437  1.00  0.00     0.104 A 
HETATM   11 CL3  UNL     1    -105.362 -18.052  49.209  1.00  0.00    -0.065 Cl
HETATM   12  N6  UNL     1    -103.104 -18.647  50.608  1.00  0.00    -0.344 N 
ATOM     13  H6  UNL     1    -103.749 -18.802  51.383  1.00  0.00     0.167 HD
HETATM   14  C21 UNL     1    -101.794 -18.832  50.843  1.00  0.00     0.085 A 
ENDROOT
BRANCH   6  15
HETATM   15  C4  UNL     1     -98.372 -18.809  49.610  1.00  0.00     0.143 C 
BRANCH  15  16
HETATM   16  C5  UNL     1     -98.308 -18.473  48.170  1.00  0.00     0.038 C 
BRANCH  16  17
HETATM   17  C6  UNL     1     -97.614 -17.095  47.990  1.00  0.00     0.014 C 
HETATM   18  C7  UNL     1     -98.586 -16.272  47.171  1.00  0.00     0.033 C 
HETATM   19  C8  UNL     1     -97.651 -15.505  46.286  1.00  0.00     0.168 C 
HETATM   20  O1  UNL     1     -96.530 -16.268  46.095  1.00  0.00    -0.391 OA
HETATM   21  C9  UNL     1     -96.438 -17.204  47.087  1.00  0.00     0.172 C 
ENDBRANCH  16  17
ENDBRANCH  15  16
BRANCH  15  22
HETATM   22  C10 UNL     1     -97.397 -17.963  50.394  1.00  0.00     0.051 A 
HETATM   23  C11 UNL     1     -97.459 -16.606  50.668  1.00  0.00     0.061 A 
HETATM   24  C12 UNL     1     -96.384 -16.257  51.397  1.00  0.00     0.069 A 
HETATM   25  N4  UNL     1     -95.660 -17.378  51.578  1.00  0.00    -0.299 N 
HETATM   26  N5  UNL     1     -96.265 -18.376  50.983  1.00  0.00    -0.302 N 
ATOM     27  H4  UNL     1     -94.782 -17.440  52.095  1.00  0.00     0.187 HD
ATOM     28  H5  UNL     1     -95.922 -19.337  50.971  1.00  0.00     0.186 HD
BRANCH  24  29
HETATM   29  C13 UNL     1     -95.948 -14.955  51.958  1.00  0.00     0.056 A 
HETATM   30  S1  UNL     1     -96.087 -14.442  53.601  1.00  0.00    -0.096 SA
HETATM   31  C14 UNL     1     -95.397 -12.898  53.468  1.00  0.00     0.076 A 
HETATM   32  C15 UNL     1     -95.073 -12.814  52.148  1.00  0.00     0.063 A 
HETATM   33 CL1  UNL     1     -94.299 -11.322  51.528  1.00  0.00    -0.082 Cl
HETATM   34  C16 UNL     1     -95.358 -13.879  51.366  1.00  0.00     0.075 A 
HETATM   35 CL2  UNL     1     -94.989 -13.909  49.609  1.00  0.00    -0.081 Cl
ENDBRANCH  24  29
ENDBRANCH  15  22
ENDBRANCH   6  15
TORSDOF 5
ENDMDL
MODEL 5
REMARK VINA RESULT: -9.384263035      4.060      8.033
REMARK  5 active torsions:
REMARK  status: ('A' for Active; 'I' for Inactive)
REMARK    1  A    between atoms: N3_6  and  C4_7 
REMARK    2  A    between atoms: C4_7  and  C5_8 
REMARK    3  A    between atoms: C4_7  and  C10_14 
REMARK    4  A    between atoms: C5_8  and  C6_9 
REMARK    5  A    between atoms: C12_16  and  C13_17 
ROOT
HETATM    1  N1  UNL     1     -93.550 -18.102  44.061  1.00  0.00    -0.191 NA
HETATM    2  C1  UNL     1     -94.267 -17.750  44.891  1.00  0.00     0.105 C 
HETATM    3  C2  UNL     1     -95.146 -17.316  45.944  1.00  0.00     0.115 A 
HETATM    4  C3  UNL     1     -94.924 -17.395  47.293  1.00  0.00     0.143 A 
HETATM    5  N2  UNL     1     -93.728 -17.939  47.855  1.00  0.00    -0.081 NA
HETATM    6  N3  UNL     1     -96.009 -16.871  47.962  1.00  0.00    -0.321 N 
HETATM    7  C17 UNL     1     -96.900 -16.467  47.027  1.00  0.00     0.065 A 
HETATM    8  C18 UNL     1     -98.141 -15.874  47.090  1.00  0.00     0.035 A 
HETATM    9  C19 UNL     1     -98.855 -15.556  45.936  1.00  0.00     0.044 A 
HETATM   10  C20 UNL     1     -98.306 -15.839  44.706  1.00  0.00     0.104 A 
HETATM   11 CL3  UNL     1     -99.198 -15.442  43.234  1.00  0.00    -0.065 Cl
HETATM   12  N6  UNL     1     -97.102 -16.413  44.673  1.00  0.00    -0.344 N 
ATOM     13  H6  UNL     1     -96.703 -16.621  43.758  1.00  0.00     0.167 HD
HETATM   14  C21 UNL     1     -96.377 -16.739  45.756  1.00  0.00     0.085 A 
ENDROOT
BRANCH   6  15
HETATM   15  C4  UNL     1     -96.046 -16.822  49.378  1.00  0.00     0.143 C 
BRANCH  15  16
HETATM   16  C5  UNL     1     -96.022 -15.508  50.059  1.00  0.00     0.038 C 
BRANCH  16  17
HETATM   17  C6  UNL     1     -96.019 -15.722  51.598  1.00  0.00     0.014 C 
HETATM   18  C7  UNL     1     -96.281 -14.350  52.183  1.00  0.00     0.033 C 
HETATM   19  C8  UNL     1     -95.395 -14.370  53.391  1.00  0.00     0.168 C 
HETATM   20  O1  UNL     1     -94.331 -15.190  53.120  1.00  0.00    -0.391 OA
HETATM   21  C9  UNL     1     -94.651 -16.030  52.091  1.00  0.00     0.172 C 
ENDBRANCH  16  17
ENDBRANCH  15  16
BRANCH  15  22
HETATM   22  C10 UNL     1     -97.162 -17.680  49.926  1.00  0.00     0.051 A 
HETATM   23  C11 UNL     1     -98.530 -17.492  49.811  1.00  0.00     0.061 A 
HETATM   24  C12 UNL     1     -99.164 -18.493  50.449  1.00  0.00     0.069 A 
HETATM   25  N4  UNL     1     -98.209 -19.295  50.955  1.00  0.00    -0.299 N 
HETATM   26  N5  UNL     1     -97.034 -18.808  50.641  1.00  0.00    -0.302 N 
ATOM     27  H4  UNL     1     -98.373 -20.145  51.494  1.00  0.00     0.187 HD
ATOM     28  H5  UNL     1     -96.143 -19.229  50.905  1.00  0.00     0.186 HD
BRANCH  24  29
HETATM   29  C13 UNL     1    -100.605 -18.788  50.641  1.00  0.00     0.056 A 
HETATM   30  S1  UNL     1    -101.387 -19.180  52.130  1.00  0.00    -0.096 SA
HETATM   31  C14 UNL     1    -102.975 -19.376  51.566  1.00  0.00     0.076 A 
HETATM   32  C15 UNL     1    -102.863 -19.131  50.232  1.00  0.00     0.063 A 
HETATM   33 CL1  UNL     1    -104.324 -19.225  49.198  1.00  0.00    -0.082 Cl
HETATM   34  C16 UNL     1    -101.637 -18.827  49.752  1.00  0.00     0.075 A 
HETATM   35 CL2  UNL     1    -101.340 -18.482  48.016  1.00  0.00    -0.081 Cl
ENDBRANCH  24  29
ENDBRANCH  15  22
ENDBRANCH   6  15
TORSDOF 5
ENDMDL
