MODEL 1
REMARK VINA RESULT: -10.339025017      0.000      0.000
REMARK  5 active torsions:
REMARK  status: ('A' for Active; 'I' for Inactive)
REMARK    1  A    between atoms: O1_1  and  N1_3 
REMARK    2  A    between atoms: C3_8  and  N3_9 
REMARK    3  A    between atoms: N3_9  and  C4_11 
REMARK    4  A    between atoms: C7_14  and  C8_15 
REMARK    5  A    between atoms: C8_15  and  N4_16 
ROOT
HETATM    1  N1  UNL     1      17.626  94.976   6.200  1.00  0.00    -0.202 N 
HETATM    2  C1  UNL     1      17.255  94.938   7.457  1.00  0.00     0.163 A 
HETATM    3  C2  UNL     1      16.441  95.764   8.300  1.00  0.00     0.102 A 
HETATM    4  N2  UNL     1      16.267  95.372   9.602  1.00  0.00    -0.338 N 
ATOM      5  H2  UNL     1      16.736  94.511   9.882  1.00  0.00     0.167 HD
HETATM    6  C3  UNL     1      15.564  95.981  10.530  1.00  0.00     0.101 A 
HETATM    7  C15 UNL     1      14.908  97.152  10.209  1.00  0.00     0.050 A 
HETATM    8  C16 UNL     1      15.021  97.626   8.927  1.00  0.00     0.030 A 
HETATM    9  C17 UNL     1      15.799  96.917   7.971  1.00  0.00     0.064 A 
HETATM   10 CL1  UNL     1      15.871  97.650   6.402  1.00  0.00    -0.082 Cl
HETATM   11  N5  UNL     1      17.840  93.793   7.958  1.00  0.00    -0.337 N 
ATOM     12  H5  UNL     1      17.744  93.470   8.921  1.00  0.00     0.167 HD
HETATM   13  C18 UNL     1      18.540  93.170   7.026  1.00  0.00     0.066 A 
HETATM   14  C19 UNL     1      19.285  92.020   7.035  1.00  0.00     0.056 A 
HETATM   15  C20 UNL     1      19.902  91.627   5.894  1.00  0.00     0.037 A 
HETATM   16 CL2  UNL     1      20.866  90.171   5.842  1.00  0.00    -0.084 Cl
HETATM   17  C21 UNL     1      19.788  92.373   4.725  1.00  0.00     0.050 A 
HETATM   18  C22 UNL     1      19.033  93.538   4.716  1.00  0.00     0.067 A 
HETATM   19 CL3  UNL     1      18.915  94.459   3.243  1.00  0.00    -0.082 Cl
HETATM   20  C23 UNL     1      18.425  93.901   5.881  1.00  0.00     0.113 A 
ENDROOT
BRANCH   6  21
HETATM   21  N3  UNL     1      15.493  95.478  11.864  1.00  0.00    -0.372 N 
ATOM     22  H3  UNL     1      15.957  96.012  12.599  1.00  0.00     0.161 HD
BRANCH  21  23
HETATM   23  C4  UNL     1      14.815  94.279  12.239  1.00  0.00     0.083 C 
HETATM   24  C5  UNL     1      14.826  94.196  13.739  1.00  0.00     0.026 C 
HETATM   25  C6  UNL     1      14.401  92.786  14.147  1.00  0.00     0.012 C 
HETATM   26  C7  UNL     1      13.503  92.250  13.100  1.00  0.00     0.024 C 
HETATM   27  C13 UNL     1      12.576  93.306  12.537  1.00  0.00     0.012 C 
HETATM   28  C14 UNL     1      13.419  94.213  11.671  1.00  0.00     0.026 C 
BRANCH  26  29
HETATM   29  C8  UNL     1      12.840  90.981  13.493  1.00  0.00     0.068 C 
BRANCH  29  30
HETATM   30  N4  UNL     1      12.906  89.845  12.733  1.00  0.00    -0.369 N 
HETATM   31  C9  UNL     1      12.613  89.697  11.397  1.00  0.00     0.089 C 
HETATM   32  C10 UNL     1      11.856  88.427  11.032  1.00  0.00     0.212 C 
HETATM   33  O2  UNL     1      12.205  87.337  11.781  1.00  0.00    -0.385 OA
HETATM   34  C11 UNL     1      13.362  87.450  12.513  1.00  0.00     0.188 C 
HETATM   35  C12 UNL     1      13.307  88.673  13.424  1.00  0.00     0.153 C 
ENDBRANCH  29  30
ENDBRANCH  26  29
ENDBRANCH  21  23
ENDBRANCH   6  21
BRANCH   1  36
HETATM   36  O1  UNL     1      17.309  95.887   5.243  1.00  0.00    -0.281 OA
ATOM     37  H1  UNL     1      17.281  95.777   4.299  1.00  0.00     0.245 HD
ENDBRANCH   1  36
TORSDOF 5
ENDMDL
MODEL 2
REMARK VINA RESULT: -10.115134281      4.054      6.349
REMARK  5 active torsions:
REMARK  status: ('A' for Active; 'I' for Inactive)
REMARK    1  A    between atoms: O1_1  and  N1_3 
REMARK    2  A    between atoms: C3_8  and  N3_9 
REMARK    3  A    between atoms: N3_9  and  C4_11 
REMARK    4  A    between atoms: C7_14  and  C8_15 
REMARK    5  A    between atoms: C8_15  and  N4_16 
ROOT
HETATM    1  N1  UNL     1      18.100  94.823   5.276  1.00  0.00    -0.202 N 
HETATM    2  C1  UNL     1      17.530  94.892   6.454  1.00  0.00     0.163 A 
HETATM    3  C2  UNL     1      16.650  95.821   7.103  1.00  0.00     0.102 A 
HETATM    4  N2  UNL     1      16.242  95.529   8.378  1.00  0.00    -0.338 N 
ATOM      5  H2  UNL     1      16.598  94.663   8.780  1.00  0.00     0.167 HD
HETATM    6  C3  UNL     1      15.443  96.240   9.141  1.00  0.00     0.101 A 
HETATM    7  C15 UNL     1      14.931  97.424   8.650  1.00  0.00     0.050 A 
HETATM    8  C16 UNL     1      15.283  97.803   7.380  1.00  0.00     0.030 A 
HETATM    9  C17 UNL     1      16.153  96.985   6.608  1.00  0.00     0.064 A 
HETATM   10 CL1  UNL     1      16.528  97.605   5.032  1.00  0.00    -0.082 Cl
HETATM   11  N5  UNL     1      17.944  93.751   7.110  1.00  0.00    -0.337 N 
ATOM     12  H5  UNL     1      17.672  93.500   8.060  1.00  0.00     0.167 HD
HETATM   13  C18 UNL     1      18.740  93.025   6.343  1.00  0.00     0.066 A 
HETATM   14  C19 UNL     1      19.391  91.836   6.540  1.00  0.00     0.056 A 
HETATM   15  C20 UNL     1      20.155  91.330   5.541  1.00  0.00     0.037 A 
HETATM   16 CL2  UNL     1      21.010  89.819   5.732  1.00  0.00    -0.084 Cl
HETATM   17  C21 UNL     1      20.284  92.001   4.329  1.00  0.00     0.050 A 
HETATM   18  C22 UNL     1      19.624  93.206   4.129  1.00  0.00     0.067 A 
HETATM   19 CL3  UNL     1      19.810  94.031   2.607  1.00  0.00    -0.082 Cl
HETATM   20  C23 UNL     1      18.863  93.683   5.155  1.00  0.00     0.113 A 
ENDROOT
BRANCH   6  21
HETATM   21  N3  UNL     1      15.122  95.834  10.472  1.00  0.00    -0.372 N 
ATOM     22  H3  UNL     1      15.055  94.834  10.660  1.00  0.00     0.161 HD
BRANCH  21  23
HETATM   23  C4  UNL     1      14.889  96.733  11.556  1.00  0.00     0.083 C 
HETATM   24  C5  UNL     1      14.094  95.998  12.597  1.00  0.00     0.026 C 
HETATM   25  C6  UNL     1      13.562  97.016  13.606  1.00  0.00     0.012 C 
HETATM   26  C7  UNL     1      14.503  98.158  13.654  1.00  0.00     0.024 C 
HETATM   27  C13 UNL     1      15.948  97.721  13.543  1.00  0.00     0.012 C 
HETATM   28  C14 UNL     1      16.172  97.303  12.109  1.00  0.00     0.026 C 
BRANCH  26  29
HETATM   29  C8  UNL     1      14.218  99.103  14.763  1.00  0.00     0.068 C 
BRANCH  29  30
HETATM   30  N4  UNL     1      14.397 100.454  14.648  1.00  0.00    -0.369 N 
HETATM   31  C9  UNL     1      13.446 101.421  14.415  1.00  0.00     0.089 C 
HETATM   32  C10 UNL     1      13.857 102.520  13.444  1.00  0.00     0.212 C 
HETATM   33  O2  UNL     1      15.178 102.864  13.521  1.00  0.00    -0.385 OA
HETATM   34  C11 UNL     1      15.857 102.419  14.629  1.00  0.00     0.188 C 
HETATM   35  C12 UNL     1      15.737 100.903  14.763  1.00  0.00     0.153 C 
ENDBRANCH  29  30
ENDBRANCH  26  29
ENDBRANCH  21  23
ENDBRANCH   6  21
BRANCH   1  36
HETATM   36  O1  UNL     1      18.007  95.684   4.229  1.00  0.00    -0.281 OA
ATOM     37  H1  UNL     1      18.683  96.227   3.840  1.00  0.00     0.245 HD
ENDBRANCH   1  36
TORSDOF 5
ENDMDL
MODEL 3
REMARK VINA RESULT: -9.559029432      0.942      1.323
REMARK  5 active torsions:
REMARK  status: ('A' for Active; 'I' for Inactive)
REMARK    1  A    between atoms: O1_1  and  N1_3 
REMARK    2  A    between atoms: C3_8  and  N3_9 
REMARK    3  A    between atoms: N3_9  and  C4_11 
REMARK    4  A    between atoms: C7_14  and  C8_15 
REMARK    5  A    between atoms: C8_15  and  N4_16 
ROOT
HETATM    1  N1  UNL     1      17.375  95.314   6.648  1.00  0.00    -0.202 N 
HETATM    2  C1  UNL     1      17.058  95.080   7.899  1.00  0.00     0.163 A 
HETATM    3  C2  UNL     1      16.286  95.765   8.895  1.00  0.00     0.102 A 
HETATM    4  N2  UNL     1      16.165  95.175  10.126  1.00  0.00    -0.338 N 
ATOM      5  H2  UNL     1      16.639  94.281  10.248  1.00  0.00     0.167 HD
HETATM    6  C3  UNL     1      15.506  95.632  11.167  1.00  0.00     0.101 A 
HETATM    7  C15 UNL     1      14.845  96.839  11.061  1.00  0.00     0.050 A 
HETATM    8  C16 UNL     1      14.907  97.507   9.865  1.00  0.00     0.030 A 
HETATM    9  C17 UNL     1      15.639  96.955   8.777  1.00  0.00     0.064 A 
HETATM   10 CL1  UNL     1      15.650  97.924   7.339  1.00  0.00    -0.082 Cl
HETATM   11  N5  UNL     1      17.655  93.871   8.191  1.00  0.00    -0.337 N 
ATOM     12  H5  UNL     1      17.598  93.402   9.094  1.00  0.00     0.167 HD
HETATM   13  C18 UNL     1      18.311  93.400   7.144  1.00  0.00     0.066 A 
HETATM   14  C19 UNL     1      19.047  92.263   6.941  1.00  0.00     0.056 A 
HETATM   15  C20 UNL     1      19.613  92.052   5.727  1.00  0.00     0.037 A 
HETATM   16 CL2  UNL     1      20.563  90.622   5.408  1.00  0.00    -0.084 Cl
HETATM   17  C21 UNL     1      19.454  92.972   4.695  1.00  0.00     0.050 A 
HETATM   18  C22 UNL     1      18.708  94.124   4.900  1.00  0.00     0.067 A 
HETATM   19 CL3  UNL     1      18.534  95.263   3.595  1.00  0.00    -0.082 Cl
HETATM   20  C23 UNL     1      18.153  94.301   6.132  1.00  0.00     0.113 A 
ENDROOT
BRANCH   6  21
HETATM   21  N3  UNL     1      15.487  94.928  12.408  1.00  0.00    -0.372 N 
ATOM     22  H3  UNL     1      16.080  95.276  13.162  1.00  0.00     0.161 HD
BRANCH  21  23
HETATM   23  C4  UNL     1      14.695  93.768  12.666  1.00  0.00     0.083 C 
HETATM   24  C5  UNL     1      14.688  93.539  14.150  1.00  0.00     0.026 C 
HETATM   25  C6  UNL     1      14.127  92.144  14.421  1.00  0.00     0.012 C 
HETATM   26  C7  UNL     1      13.188  91.801  13.328  1.00  0.00     0.024 C 
HETATM   27  C13 UNL     1      12.372  92.990  12.873  1.00  0.00     0.012 C 
HETATM   28  C14 UNL     1      13.303  93.893  12.097  1.00  0.00     0.026 C 
BRANCH  26  29
HETATM   29  C8  UNL     1      12.404  90.569  13.597  1.00  0.00     0.068 C 
BRANCH  29  30
HETATM   30  N4  UNL     1      12.969  89.324  13.625  1.00  0.00    -0.369 N 
HETATM   31  C9  UNL     1      13.453  88.634  14.714  1.00  0.00     0.089 C 
HETATM   32  C10 UNL     1      14.754  87.878  14.481  1.00  0.00     0.212 C 
HETATM   33  O2  UNL     1      14.872  87.346  13.226  1.00  0.00    -0.385 OA
HETATM   34  C11 UNL     1      13.720  87.295  12.479  1.00  0.00     0.188 C 
HETATM   35  C12 UNL     1      13.086  88.679  12.367  1.00  0.00     0.153 C 
ENDBRANCH  29  30
ENDBRANCH  26  29
ENDBRANCH  21  23
ENDBRANCH   6  21
BRANCH   1  36
HETATM   36  O1  UNL     1      17.025  96.363   5.859  1.00  0.00    -0.281 OA
ATOM     37  H1  UNL     1      17.540  96.811   5.199  1.00  0.00     0.245 HD
ENDBRANCH   1  36
TORSDOF 5
ENDMDL
MODEL 4
REMARK VINA RESULT: -9.115447158      3.468      4.489
REMARK  5 active torsions:
REMARK  status: ('A' for Active; 'I' for Inactive)
REMARK    1  A    between atoms: O1_1  and  N1_3 
REMARK    2  A    between atoms: C3_8  and  N3_9 
REMARK    3  A    between atoms: N3_9  and  C4_11 
REMARK    4  A    between atoms: C7_14  and  C8_15 
REMARK    5  A    between atoms: C8_15  and  N4_16 
ROOT
HETATM    1  N1  UNL     1      17.737  95.214   5.298  1.00  0.00    -0.202 N 
HETATM    2  C1  UNL     1      17.372  95.169   6.557  1.00  0.00     0.163 A 
HETATM    3  C2  UNL     1      16.573  95.999   7.412  1.00  0.00     0.102 A 
HETATM    4  N2  UNL     1      16.401  95.598   8.711  1.00  0.00    -0.338 N 
ATOM      5  H2  UNL     1      16.860  94.729   8.981  1.00  0.00     0.167 HD
HETATM    6  C3  UNL     1      15.712  96.208   9.648  1.00  0.00     0.101 A 
HETATM    7  C15 UNL     1      15.069  97.391   9.341  1.00  0.00     0.050 A 
HETATM    8  C16 UNL     1      15.182  97.874   8.063  1.00  0.00     0.030 A 
HETATM    9  C17 UNL     1      15.945  97.163   7.096  1.00  0.00     0.064 A 
HETATM   10 CL1  UNL     1      16.019  97.909   5.533  1.00  0.00    -0.082 Cl
HETATM   11  N5  UNL     1      17.944  94.013   7.046  1.00  0.00    -0.337 N 
ATOM     12  H5  UNL     1      17.850  93.683   8.006  1.00  0.00     0.167 HD
HETATM   13  C18 UNL     1      18.631  93.389   6.105  1.00  0.00     0.066 A 
HETATM   14  C19 UNL     1      19.361  92.229   6.099  1.00  0.00     0.056 A 
HETATM   15  C20 UNL     1      19.967  91.837   4.951  1.00  0.00     0.037 A 
HETATM   16 CL2  UNL     1      20.911  90.369   4.882  1.00  0.00    -0.084 Cl
HETATM   17  C21 UNL     1      19.857  92.596   3.790  1.00  0.00     0.050 A 
HETATM   18  C22 UNL     1      19.117  93.770   3.795  1.00  0.00     0.067 A 
HETATM   19 CL3  UNL     1      19.003  94.706   2.331  1.00  0.00    -0.082 Cl
HETATM   20  C23 UNL     1      18.520  94.131   4.967  1.00  0.00     0.113 A 
ENDROOT
BRANCH   6  21
HETATM   21  N3  UNL     1      15.640  95.695  10.978  1.00  0.00    -0.372 N 
ATOM     22  H3  UNL     1      16.351  95.023  11.268  1.00  0.00     0.161 HD
BRANCH  21  23
HETATM   23  C4  UNL     1      14.640  96.058  11.930  1.00  0.00     0.083 C 
HETATM   24  C5  UNL     1      14.328  94.841  12.753  1.00  0.00     0.026 C 
HETATM   25  C6  UNL     1      13.052  95.110  13.550  1.00  0.00     0.012 C 
HETATM   26  C7  UNL     1      12.961  96.566  13.802  1.00  0.00     0.024 C 
HETATM   27  C13 UNL     1      14.310  97.188  14.089  1.00  0.00     0.012 C 
HETATM   28  C14 UNL     1      15.062  97.232  12.780  1.00  0.00     0.026 C 
BRANCH  26  29
HETATM   29  C8  UNL     1      11.888  96.927  14.763  1.00  0.00     0.068 C 
BRANCH  29  30
HETATM   30  N4  UNL     1      10.567  96.979  14.412  1.00  0.00    -0.369 N 
HETATM   31  C9  UNL     1       9.830  98.079  14.036  1.00  0.00     0.089 C 
HETATM   32  C10 UNL     1       8.418  98.144  14.604  1.00  0.00     0.212 C 
HETATM   33  O2  UNL     1       7.813  96.923  14.728  1.00  0.00    -0.385 OA
HETATM   34  C11 UNL     1       8.408  95.881  14.061  1.00  0.00     0.188 C 
HETATM   35  C12 UNL     1       9.873  95.744  14.469  1.00  0.00     0.153 C 
ENDBRANCH  29  30
ENDBRANCH  26  29
ENDBRANCH  21  23
ENDBRANCH   6  21
BRANCH   1  36
HETATM   36  O1  UNL     1      17.428  96.137   4.351  1.00  0.00    -0.281 OA
ATOM     37  H1  UNL     1      18.008  96.701   3.854  1.00  0.00     0.245 HD
ENDBRANCH   1  36
TORSDOF 5
ENDMDL
MODEL 5
REMARK VINA RESULT: -9.114271618      3.093      3.915
REMARK  5 active torsions:
REMARK  status: ('A' for Active; 'I' for Inactive)
REMARK    1  A    between atoms: O1_1  and  N1_3 
REMARK    2  A    between atoms: C3_8  and  N3_9 
REMARK    3  A    between atoms: N3_9  and  C4_11 
REMARK    4  A    between atoms: C7_14  and  C8_15 
REMARK    5  A    between atoms: C8_15  and  N4_16 
ROOT
HETATM    1  N1  UNL     1      17.987  94.764   5.227  1.00  0.00    -0.202 N 
HETATM    2  C1  UNL     1      17.649  94.947   6.481  1.00  0.00     0.163 A 
HETATM    3  C2  UNL     1      16.863  95.915   7.189  1.00  0.00     0.102 A 
HETATM    4  N2  UNL     1      16.722  95.756   8.543  1.00  0.00    -0.338 N 
ATOM      5  H2  UNL     1      17.193  94.951   8.955  1.00  0.00     0.167 HD
HETATM    6  C3  UNL     1      16.048  96.523   9.370  1.00  0.00     0.101 A 
HETATM    7  C15 UNL     1      15.391  97.628   8.868  1.00  0.00     0.050 A 
HETATM    8  C16 UNL     1      15.473  97.873   7.521  1.00  0.00     0.030 A 
HETATM    9  C17 UNL     1      16.221  97.001   6.682  1.00  0.00     0.064 A 
HETATM   10 CL1  UNL     1      16.256  97.452   5.009  1.00  0.00    -0.082 Cl
HETATM   11  N5  UNL     1      18.240  93.900   7.157  1.00  0.00    -0.337 N 
ATOM     12  H5  UNL     1      18.168  93.749   8.163  1.00  0.00     0.167 HD
HETATM   13  C18 UNL     1      18.911  93.118   6.329  1.00  0.00     0.066 A 
HETATM   14  C19 UNL     1      19.648  91.978   6.517  1.00  0.00     0.056 A 
HETATM   15  C20 UNL     1      20.232  91.387   5.446  1.00  0.00     0.037 A 
HETATM   16 CL2  UNL     1      21.185  89.934   5.622  1.00  0.00    -0.084 Cl
HETATM   17  C21 UNL     1      20.092  91.923   4.169  1.00  0.00     0.050 A 
HETATM   18  C22 UNL     1      19.344  93.077   3.979  1.00  0.00     0.067 A 
HETATM   19 CL3  UNL     1      19.193  93.732   2.372  1.00  0.00    -0.082 Cl
HETATM   20  C23 UNL     1      18.770  93.642   5.079  1.00  0.00     0.113 A 
ENDROOT
BRANCH   6  21
HETATM   21  N3  UNL     1      16.009  96.258  10.772  1.00  0.00    -0.372 N 
ATOM     22  H3  UNL     1      16.852  96.445  11.315  1.00  0.00     0.161 HD
BRANCH  21  23
HETATM   23  C4  UNL     1      14.869  95.750  11.465  1.00  0.00     0.083 C 
HETATM   24  C5  UNL     1      14.478  94.453  10.815  1.00  0.00     0.026 C 
HETATM   25  C6  UNL     1      13.091  94.058  11.320  1.00  0.00     0.012 C 
HETATM   26  C7  UNL     1      12.918  94.613  12.682  1.00  0.00     0.024 C 
HETATM   27  C13 UNL     1      14.190  94.546  13.499  1.00  0.00     0.012 C 
HETATM   28  C14 UNL     1      15.125  95.596  12.944  1.00  0.00     0.026 C 
BRANCH  26  29
HETATM   29  C8  UNL     1      11.705  94.103  13.370  1.00  0.00     0.068 C 
BRANCH  29  30
HETATM   30  N4  UNL     1      10.830  94.921  14.032  1.00  0.00    -0.369 N 
HETATM   31  C9  UNL     1       9.710  94.567  14.748  1.00  0.00     0.089 C 
HETATM   32  C10 UNL     1       8.499  95.470  14.554  1.00  0.00     0.212 C 
HETATM   33  O2  UNL     1       8.812  96.790  14.382  1.00  0.00    -0.385 OA
HETATM   34  C11 UNL     1      10.095  97.156  14.707  1.00  0.00     0.188 C 
HETATM   35  C12 UNL     1      11.109  96.309  13.943  1.00  0.00     0.153 C 
ENDBRANCH  29  30
ENDBRANCH  26  29
ENDBRANCH  21  23
ENDBRANCH   6  21
BRANCH   1  36
HETATM   36  O1  UNL     1      17.651  95.500   4.135  1.00  0.00    -0.281 OA
ATOM     37  H1  UNL     1      18.217  95.967   3.532  1.00  0.00     0.245 HD
ENDBRANCH   1  36
TORSDOF 5
ENDMDL
