MODEL 1
REMARK VINA RESULT: -5.141560110      0.000      0.000
REMARK  4 active torsions:
REMARK  status: ('A' for Active; 'I' for Inactive)
REMARK    1  A    between atoms: N1_2  and  C2_5 
REMARK    2  A    between atoms: C2_5  and  C3_6 
REMARK    3  A    between atoms: C7_10  and  C8_11 
REMARK    4  A    between atoms: C9_13  and  N2_14 
ROOT
HETATM    1  C3  UNL     1       8.063  15.975  16.850  1.00  0.00     0.042 C 
HETATM    2  C4  UNL     1       9.211  16.845  17.223  1.00  0.00     0.008 C 
HETATM    3  C5  UNL     1       9.801  17.624  16.092  1.00  0.00     0.001 C 
HETATM    4  C6  UNL     1       8.725  18.375  15.316  1.00  0.00     0.009 C 
HETATM    5  C7  UNL     1       7.773  17.286  14.804  1.00  0.00     0.045 C 
HETATM    6  C9  UNL     1       7.069  16.735  16.004  1.00  0.00     0.195 C 
ENDROOT
BRANCH   1   7
HETATM    7  C2  UNL     1       8.572  14.734  16.173  1.00  0.00     0.238 C 
BRANCH   7   8
HETATM    8  N1  UNL     1       8.115  13.515  16.814  1.00  0.00    -0.079 N 
HETATM    9  C1  UNL     1       8.448  12.424  15.911  1.00  0.00     0.267 C 
ATOM     10  H12 UNL     1       7.129  13.539  17.072  1.00  0.00     0.276 HD
ATOM     11  H11 UNL     1       8.489  13.388  17.754  1.00  0.00     0.276 HD
ENDBRANCH   7   8
ENDBRANCH   1   7
BRANCH   6  12
HETATM   12  N2  UNL     1       5.882  15.998  15.719  1.00  0.00    -0.074 N 
ATOM     13  H23 UNL     1       5.540  15.527  16.557  1.00  0.00     0.274 HD
ATOM     14  H22 UNL     1       5.099  16.629  15.548  1.00  0.00     0.274 HD
ATOM     15  H21 UNL     1       5.987  15.336  14.950  1.00  0.00     0.274 HD
ENDBRANCH   6  12
BRANCH   5  16
HETATM   16  C8  UNL     1       6.841  17.837  13.756  1.00  0.00     0.229 C 
HETATM   17  F1  UNL     1       7.498  17.759  12.544  1.00  0.00    -0.255 F 
ENDBRANCH   5  16
TORSDOF 4
ENDMDL
MODEL 2
REMARK VINA RESULT: -4.692000621      2.512      4.085
REMARK  4 active torsions:
REMARK  status: ('A' for Active; 'I' for Inactive)
REMARK    1  A    between atoms: N1_2  and  C2_5 
REMARK    2  A    between atoms: C2_5  and  C3_6 
REMARK    3  A    between atoms: C7_10  and  C8_11 
REMARK    4  A    between atoms: C9_13  and  N2_14 
ROOT
HETATM    1  C3  UNL     1       8.586  17.500  16.384  1.00  0.00     0.042 C 
HETATM    2  C4  UNL     1       7.416  18.166  15.750  1.00  0.00     0.008 C 
HETATM    3  C5  UNL     1       6.827  17.428  14.591  1.00  0.00     0.001 C 
HETATM    4  C6  UNL     1       6.551  15.971  14.946  1.00  0.00     0.009 C 
HETATM    5  C7  UNL     1       7.917  15.392  15.336  1.00  0.00     0.045 C 
HETATM    6  C9  UNL     1       8.300  16.038  16.630  1.00  0.00     0.195 C 
ENDROOT
BRANCH   1   7
HETATM    7  C2  UNL     1       9.808  17.718  15.538  1.00  0.00     0.238 C 
BRANCH   7   8
HETATM    8  N1  UNL     1      10.299  19.082  15.598  1.00  0.00    -0.079 N 
HETATM    9  C1  UNL     1      11.733  19.016  15.363  1.00  0.00     0.267 C 
ATOM     10  H12 UNL     1      10.053  19.563  16.463  1.00  0.00     0.276 HD
ATOM     11  H11 UNL     1       9.814  19.714  14.960  1.00  0.00     0.276 HD
ENDBRANCH   7   8
ENDBRANCH   1   7
BRANCH   6  12
HETATM   12  N2  UNL     1       9.331  15.370  17.354  1.00  0.00    -0.074 N 
ATOM     13  H23 UNL     1      10.225  15.455  16.871  1.00  0.00     0.274 HD
ATOM     14  H22 UNL     1       9.553  15.873  18.213  1.00  0.00     0.274 HD
ATOM     15  H21 UNL     1       9.121  14.391  17.553  1.00  0.00     0.274 HD
ENDBRANCH   6  12
BRANCH   5  16
HETATM   16  C8  UNL     1       7.864  13.888  15.403  1.00  0.00     0.229 C 
HETATM   17  F1  UNL     1       8.914  13.409  14.644  1.00  0.00    -0.255 F 
ENDBRANCH   5  16
TORSDOF 4
ENDMDL
MODEL 3
REMARK VINA RESULT: -4.645809549      2.482      3.738
REMARK  4 active torsions:
REMARK  status: ('A' for Active; 'I' for Inactive)
REMARK    1  A    between atoms: N1_2  and  C2_5 
REMARK    2  A    between atoms: C2_5  and  C3_6 
REMARK    3  A    between atoms: C7_10  and  C8_11 
REMARK    4  A    between atoms: C9_13  and  N2_14 
ROOT
HETATM    1  C3  UNL     1       8.282  17.067  16.963  1.00  0.00     0.042 C 
HETATM    2  C4  UNL     1       7.538  18.005  16.080  1.00  0.00     0.008 C 
HETATM    3  C5  UNL     1       7.568  17.655  14.627  1.00  0.00     0.001 C 
HETATM    4  C6  UNL     1       7.173  16.200  14.400  1.00  0.00     0.009 C 
HETATM    5  C7  UNL     1       8.204  15.382  15.189  1.00  0.00     0.045 C 
HETATM    6  C9  UNL     1       7.930  15.635  16.638  1.00  0.00     0.195 C 
ENDROOT
BRANCH   1   7
HETATM    7  C2  UNL     1       9.755  17.339  16.859  1.00  0.00     0.238 C 
BRANCH   7   8
HETATM    8  N1  UNL     1      10.187  18.435  17.708  1.00  0.00    -0.079 N 
HETATM    9  C1  UNL     1      11.293  17.929  18.505  1.00  0.00     0.267 C 
ATOM     10  H12 UNL     1       9.434  18.833  18.268  1.00  0.00     0.276 HD
ATOM     11  H11 UNL     1      10.418  19.282  17.188  1.00  0.00     0.276 HD
ENDBRANCH   7   8
ENDBRANCH   1   7
BRANCH   6  12
HETATM   12  N2  UNL     1       8.509  14.688  17.534  1.00  0.00    -0.074 N 
ATOM     13  H23 UNL     1       8.006  14.676  18.421  1.00  0.00     0.274 HD
ATOM     14  H22 UNL     1       8.324  13.735  17.220  1.00  0.00     0.274 HD
ATOM     15  H21 UNL     1       9.508  14.830  17.687  1.00  0.00     0.274 HD
ENDBRANCH   6  12
BRANCH   5  16
HETATM   16  C8  UNL     1       8.142  13.927  14.806  1.00  0.00     0.229 C 
HETATM   17  F1  UNL     1       9.443  13.488  14.659  1.00  0.00    -0.255 F 
ENDBRANCH   5  16
TORSDOF 4
ENDMDL
MODEL 4
REMARK VINA RESULT: -4.551307128      2.559      4.138
REMARK  4 active torsions:
REMARK  status: ('A' for Active; 'I' for Inactive)
REMARK    1  A    between atoms: N1_2  and  C2_5 
REMARK    2  A    between atoms: C2_5  and  C3_6 
REMARK    3  A    between atoms: C7_10  and  C8_11 
REMARK    4  A    between atoms: C9_13  and  N2_14 
ROOT
HETATM    1  C3  UNL     1       6.831  16.596  15.024  1.00  0.00     0.042 C 
HETATM    2  C4  UNL     1       6.789  15.115  15.157  1.00  0.00     0.008 C 
HETATM    3  C5  UNL     1       8.085  14.484  15.552  1.00  0.00     0.001 C 
HETATM    4  C6  UNL     1       8.682  15.165  16.778  1.00  0.00     0.009 C 
HETATM    5  C7  UNL     1       8.881  16.628  16.361  1.00  0.00     0.045 C 
HETATM    6  C9  UNL     1       7.515  17.221  16.217  1.00  0.00     0.195 C 
ENDROOT
BRANCH   1   7
HETATM    7  C2  UNL     1       7.484  16.965  13.722  1.00  0.00     0.238 C 
BRANCH   7   8
HETATM    8  N1  UNL     1       6.648  17.813  12.892  1.00  0.00    -0.079 N 
HETATM    9  C1  UNL     1       7.380  18.029  11.654  1.00  0.00     0.267 C 
ATOM     10  H12 UNL     1       6.368  18.679  13.353  1.00  0.00     0.276 HD
ATOM     11  H11 UNL     1       5.711  17.438  12.747  1.00  0.00     0.276 HD
ENDBRANCH   7   8
ENDBRANCH   1   7
BRANCH   6  12
HETATM   12  N2  UNL     1       7.474  18.646  16.215  1.00  0.00    -0.074 N 
ATOM     13  H23 UNL     1       7.701  19.012  15.290  1.00  0.00     0.274 HD
ATOM     14  H22 UNL     1       6.514  18.980  16.300  1.00  0.00     0.274 HD
ATOM     15  H21 UNL     1       8.068  19.071  16.927  1.00  0.00     0.274 HD
ENDBRANCH   6  12
BRANCH   5  16
HETATM   16  C8  UNL     1       9.755  17.355  17.350  1.00  0.00     0.229 C 
HETATM   17  F1  UNL     1      10.660  18.102  16.622  1.00  0.00    -0.255 F 
ENDBRANCH   5  16
TORSDOF 4
ENDMDL
MODEL 5
REMARK VINA RESULT: -4.415817352      1.107      1.107
REMARK  4 active torsions:
REMARK  status: ('A' for Active; 'I' for Inactive)
REMARK    1  A    between atoms: N1_2  and  C2_5 
REMARK    2  A    between atoms: C2_5  and  C3_6 
REMARK    3  A    between atoms: C7_10  and  C8_11 
REMARK    4  A    between atoms: C9_13  and  N2_14 
ROOT
HETATM    1  C3  UNL     1       8.143  15.439  16.526  1.00  0.00     0.042 C 
HETATM    2  C4  UNL     1       9.264  16.323  16.946  1.00  0.00     0.008 C 
HETATM    3  C5  UNL     1       9.628  17.384  15.959  1.00  0.00     0.001 C 
HETATM    4  C6  UNL     1       8.400  18.169  15.511  1.00  0.00     0.009 C 
HETATM    5  C7  UNL     1       7.469  17.123  14.884  1.00  0.00     0.045 C 
HETATM    6  C9  UNL     1       6.986  16.256  16.003  1.00  0.00     0.195 C 
ENDROOT
BRANCH   1   7
HETATM    7  C2  UNL     1       8.642  14.434  15.528  1.00  0.00     0.238 C 
BRANCH   7   8
HETATM    8  N1  UNL     1       8.953  13.149  16.128  1.00  0.00    -0.079 N 
HETATM    9  C1  UNL     1       7.944  12.216  15.650  1.00  0.00     0.267 C 
ATOM     10  H12 UNL     1       9.022  13.184  17.145  1.00  0.00     0.276 HD
ATOM     11  H11 UNL     1       9.908  12.839  15.947  1.00  0.00     0.276 HD
ENDBRANCH   7   8
ENDBRANCH   1   7
BRANCH   6  12
HETATM   12  N2  UNL     1       5.828  15.478  15.704  1.00  0.00    -0.074 N 
ATOM     13  H23 UNL     1       5.498  15.671  14.759  1.00  0.00     0.274 HD
ATOM     14  H22 UNL     1       6.072  14.493  15.602  1.00  0.00     0.274 HD
ATOM     15  H21 UNL     1       5.074  15.594  16.381  1.00  0.00     0.274 HD
ENDBRANCH   6  12
BRANCH   5  16
HETATM   16  C8  UNL     1       6.359  17.787  14.111  1.00  0.00     0.229 C 
HETATM   17  F1  UNL     1       5.526  18.391  15.032  1.00  0.00    -0.255 F 
ENDBRANCH   5  16
TORSDOF 4
ENDMDL
