MODEL 1
REMARK VINA RESULT: -4.881303565      0.000      0.000
REMARK  4 active torsions:
REMARK  status: ('A' for Active; 'I' for Inactive)
REMARK    1  A    between atoms: N1_2  and  C2_5 
REMARK    2  A    between atoms: C2_5  and  C3_6 
REMARK    3  A    between atoms: C3_6  and  C4_7 
REMARK    4  A    between atoms: C4_7  and  N2_8 
ROOT
HETATM    1  C3  UNL     1       7.863  17.097  14.878  1.00  0.00     0.017 C 
HETATM    2  C5  UNL     1       7.751  15.553  14.829  1.00  0.00     0.001 C 
HETATM    3  C6  UNL     1       8.441  15.074  16.055  1.00  0.00     0.043 C 
HETATM    4  C7  UNL     1       7.858  16.070  17.052  1.00  0.00     0.175 C 
HETATM    5  F1  UNL     1       8.753  16.690  17.834  1.00  0.00    -0.249 F 
HETATM    6  C8  UNL     1       7.059  16.933  16.115  1.00  0.00     0.032 C 
HETATM    7  C9  UNL     1       6.339  15.781  15.374  1.00  0.00     0.014 C 
ENDROOT
BRANCH   1   8
HETATM    8  C2  UNL     1       7.158  17.709  13.698  1.00  0.00     0.243 C 
BRANCH   8   9
HETATM    9  N1  UNL     1       8.096  17.759  12.584  1.00  0.00    -0.078 N 
HETATM   10  C1  UNL     1       7.408  18.097  11.339  1.00  0.00     0.267 C 
ATOM     11  H12 UNL     1       8.625  16.891  12.498  1.00  0.00     0.276 HD
ATOM     12  H11 UNL     1       8.871  18.394  12.772  1.00  0.00     0.276 HD
ENDBRANCH   8   9
ENDBRANCH   1   8
BRANCH   1  13
HETATM   13  C4  UNL     1       9.262  17.578  14.965  1.00  0.00     0.241 C 
BRANCH  13  14
HETATM   14  N2  UNL     1       9.390  18.863  15.602  1.00  0.00    -0.079 N 
ATOM     15  H23 UNL     1       9.422  18.760  16.617  1.00  0.00     0.274 HD
ATOM     16  H22 UNL     1      10.318  19.255  15.442  1.00  0.00     0.274 HD
ATOM     17  H21 UNL     1       8.666  19.528  15.329  1.00  0.00     0.274 HD
ENDBRANCH  13  14
ENDBRANCH   1  13
TORSDOF 4
ENDMDL
MODEL 2
REMARK VINA RESULT: -4.704210336      2.656      3.913
REMARK  4 active torsions:
REMARK  status: ('A' for Active; 'I' for Inactive)
REMARK    1  A    between atoms: N1_2  and  C2_5 
REMARK    2  A    between atoms: C2_5  and  C3_6 
REMARK    3  A    between atoms: C3_6  and  C4_7 
REMARK    4  A    between atoms: C4_7  and  N2_8 
ROOT
HETATM    1  C3  UNL     1       8.070  15.811  16.070  1.00  0.00     0.017 C 
HETATM    2  C5  UNL     1       9.271  16.622  15.519  1.00  0.00     0.001 C 
HETATM    3  C6  UNL     1       8.703  17.935  15.121  1.00  0.00     0.043 C 
HETATM    4  C7  UNL     1       7.825  18.188  16.342  1.00  0.00     0.175 C 
HETATM    5  F1  UNL     1       6.557  18.533  16.076  1.00  0.00    -0.249 F 
HETATM    6  C8  UNL     1       8.038  16.897  17.082  1.00  0.00     0.032 C 
HETATM    7  C9  UNL     1       9.583  16.888  16.995  1.00  0.00     0.014 C 
ENDROOT
BRANCH   1   8
HETATM    8  C2  UNL     1       8.528  14.462  16.550  1.00  0.00     0.243 C 
BRANCH   8   9
HETATM    9  N1  UNL     1       8.661  13.588  15.391  1.00  0.00    -0.078 N 
HETATM   10  C1  UNL     1       8.251  12.223  15.718  1.00  0.00     0.267 C 
ATOM     11  H12 UNL     1       9.604  13.615  15.004  1.00  0.00     0.276 HD
ATOM     12  H11 UNL     1       8.153  13.951  14.586  1.00  0.00     0.276 HD
ENDBRANCH   8   9
ENDBRANCH   1   8
BRANCH   1  13
HETATM   13  C4  UNL     1       6.962  15.678  15.095  1.00  0.00     0.241 C 
BRANCH  13  14
HETATM   14  N2  UNL     1       5.683  15.431  15.709  1.00  0.00    -0.079 N 
ATOM     15  H23 UNL     1       5.102  16.269  15.682  1.00  0.00     0.274 HD
ATOM     16  H22 UNL     1       5.117  14.813  15.128  1.00  0.00     0.274 HD
ATOM     17  H21 UNL     1       5.750  15.070  16.661  1.00  0.00     0.274 HD
ENDBRANCH  13  14
ENDBRANCH   1  13
TORSDOF 4
ENDMDL
MODEL 3
REMARK VINA RESULT: -4.583311063      1.650      2.448
REMARK  4 active torsions:
REMARK  status: ('A' for Active; 'I' for Inactive)
REMARK    1  A    between atoms: N1_2  and  C2_5 
REMARK    2  A    between atoms: C2_5  and  C3_6 
REMARK    3  A    between atoms: C3_6  and  C4_7 
REMARK    4  A    between atoms: C4_7  and  N2_8 
ROOT
HETATM    1  C3  UNL     1       7.538  16.902  15.010  1.00  0.00     0.017 C 
HETATM    2  C5  UNL     1       7.596  17.757  16.301  1.00  0.00     0.001 C 
HETATM    3  C6  UNL     1       8.058  16.826  17.363  1.00  0.00     0.043 C 
HETATM    4  C7  UNL     1       9.177  16.134  16.593  1.00  0.00     0.175 C 
HETATM    5  F1  UNL     1       9.157  14.794  16.632  1.00  0.00    -0.249 F 
HETATM    6  C8  UNL     1       8.998  16.778  15.246  1.00  0.00     0.032 C 
HETATM    7  C9  UNL     1       8.939  18.241  15.748  1.00  0.00     0.014 C 
ENDROOT
BRANCH   1   8
HETATM    8  C2  UNL     1       7.117  17.750  13.841  1.00  0.00     0.243 C 
BRANCH   8   9
HETATM    9  N1  UNL     1       7.576  17.102  12.620  1.00  0.00    -0.078 N 
HETATM   10  C1  UNL     1       7.535  18.029  11.490  1.00  0.00     0.267 C 
ATOM     11  H12 UNL     1       7.052  16.248  12.426  1.00  0.00     0.276 HD
ATOM     12  H11 UNL     1       8.502  16.691  12.737  1.00  0.00     0.276 HD
ENDBRANCH   8   9
ENDBRANCH   1   8
BRANCH   1  13
HETATM   13  C4  UNL     1       6.666  15.711  15.139  1.00  0.00     0.241 C 
BRANCH  13  14
HETATM   14  N2  UNL     1       5.423  15.978  15.815  1.00  0.00    -0.079 N 
ATOM     15  H23 UNL     1       5.193  16.971  15.768  1.00  0.00     0.274 HD
ATOM     16  H22 UNL     1       4.636  15.598  15.289  1.00  0.00     0.274 HD
ATOM     17  H21 UNL     1       5.404  15.649  16.780  1.00  0.00     0.274 HD
ENDBRANCH  13  14
ENDBRANCH   1  13
TORSDOF 4
ENDMDL
MODEL 4
REMARK VINA RESULT: -4.444047295      3.330      4.790
REMARK  4 active torsions:
REMARK  status: ('A' for Active; 'I' for Inactive)
REMARK    1  A    between atoms: N1_2  and  C2_5 
REMARK    2  A    between atoms: C2_5  and  C3_6 
REMARK    3  A    between atoms: C3_6  and  C4_7 
REMARK    4  A    between atoms: C4_7  and  N2_8 
ROOT
HETATM    1  C3  UNL     1       8.579  13.772  15.552  1.00  0.00     0.017 C 
HETATM    2  C5  UNL     1       8.213  12.582  16.474  1.00  0.00     0.001 C 
HETATM    3  C6  UNL     1       7.714  11.522  15.561  1.00  0.00     0.043 C 
HETATM    4  C7  UNL     1       8.780  11.631  14.476  1.00  0.00     0.175 C 
HETATM    5  F1  UNL     1       8.315  11.724  13.222  1.00  0.00    -0.249 F 
HETATM    6  C8  UNL     1       9.560  12.804  15.001  1.00  0.00     0.032 C 
HETATM    7  C9  UNL     1       9.715  12.288  16.451  1.00  0.00     0.014 C 
ENDROOT
BRANCH   1   8
HETATM    8  C2  UNL     1       9.142  14.907  16.364  1.00  0.00     0.243 C 
BRANCH   8   9
HETATM    9  N1  UNL     1       8.097  15.387  17.259  1.00  0.00    -0.078 N 
HETATM   10  C1  UNL     1       8.102  16.848  17.329  1.00  0.00     0.267 C 
ATOM     11  H12 UNL     1       8.171  14.965  18.185  1.00  0.00     0.276 HD
ATOM     12  H11 UNL     1       7.181  15.025  16.997  1.00  0.00     0.276 HD
ENDBRANCH   8   9
ENDBRANCH   1   8
BRANCH   1  13
HETATM   13  C4  UNL     1       7.446  14.231  14.716  1.00  0.00     0.241 C 
BRANCH  13  14
HETATM   14  N2  UNL     1       7.695  15.481  14.046  1.00  0.00    -0.079 N 
ATOM     15  H23 UNL     1       8.365  15.356  13.287  1.00  0.00     0.274 HD
ATOM     16  H22 UNL     1       6.879  15.770  13.505  1.00  0.00     0.274 HD
ATOM     17  H21 UNL     1       7.994  16.228  14.673  1.00  0.00     0.274 HD
ENDBRANCH  13  14
ENDBRANCH   1  13
TORSDOF 4
ENDMDL
MODEL 5
REMARK VINA RESULT: -4.366244634      1.755      3.109
REMARK  4 active torsions:
REMARK  status: ('A' for Active; 'I' for Inactive)
REMARK    1  A    between atoms: N1_2  and  C2_5 
REMARK    2  A    between atoms: C2_5  and  C3_6 
REMARK    3  A    between atoms: C3_6  and  C4_7 
REMARK    4  A    between atoms: C4_7  and  N2_8 
ROOT
HETATM    1  C3  UNL     1       8.007  17.153  15.269  1.00  0.00     0.017 C 
HETATM    2  C5  UNL     1       6.886  16.605  16.187  1.00  0.00     0.001 C 
HETATM    3  C6  UNL     1       6.466  15.323  15.566  1.00  0.00     0.043 C 
HETATM    4  C7  UNL     1       7.846  14.754  15.255  1.00  0.00     0.175 C 
HETATM    5  F1  UNL     1       8.014  14.309  14.001  1.00  0.00    -0.249 F 
HETATM    6  C8  UNL     1       8.703  15.910  15.687  1.00  0.00     0.032 C 
HETATM    7  C9  UNL     1       8.041  16.124  17.069  1.00  0.00     0.014 C 
ENDROOT
BRANCH   1   8
HETATM    8  C2  UNL     1       8.550  18.443  15.820  1.00  0.00     0.243 C 
BRANCH   8   9
HETATM    9  N1  UNL     1       9.888  18.642  15.279  1.00  0.00    -0.078 N 
HETATM   10  C1  UNL     1      10.894  18.570  16.337  1.00  0.00     0.267 C 
ATOM     11  H12 UNL     1       9.956  19.514  14.753  1.00  0.00     0.276 HD
ATOM     12  H11 UNL     1      10.088  17.989  14.522  1.00  0.00     0.276 HD
ENDBRANCH   8   9
ENDBRANCH   1   8
BRANCH   1  13
HETATM   13  C4  UNL     1       7.577  17.320  13.861  1.00  0.00     0.241 C 
BRANCH  13  14
HETATM   14  N2  UNL     1       6.470  18.226  13.701  1.00  0.00    -0.079 N 
ATOM     15  H23 UNL     1       5.740  18.027  14.386  1.00  0.00     0.274 HD
ATOM     16  H22 UNL     1       6.728  19.167  13.997  1.00  0.00     0.274 HD
ATOM     17  H21 UNL     1       6.085  18.237  12.756  1.00  0.00     0.274 HD
ENDBRANCH  13  14
ENDBRANCH   1  13
TORSDOF 4
ENDMDL
