MODEL 1
REMARK VINA RESULT: -5.843561495      0.000      0.000
REMARK  3 active torsions:
REMARK  status: ('A' for Active; 'I' for Inactive)
REMARK    1  A    between atoms: C5_5  and  C6_6 
REMARK    2  A    between atoms: C6_6  and  C7_7 
REMARK       I    between atoms: N1_8  and  C8_10 
REMARK       I    between atoms: C8_10  and  N2_12 
REMARK    3  A    between atoms: N2_12  and  C9_14 
ROOT
HETATM    1  C6  UNL     1       9.172  12.690  -1.912  1.00  0.00     0.069 C 
ENDROOT
BRANCH   1   2
HETATM    2  C5  UNL     1       9.086  11.439  -1.028  1.00  0.00     0.085 C 
HETATM    3  C4  UNL     1       9.732  11.651   0.296  1.00  0.00     0.054 C 
HETATM    4  C2  UNL     1       9.087  10.774   1.364  1.00  0.00     0.022 C 
HETATM    5  C1  UNL     1       9.739  11.191   2.687  1.00  0.00     0.037 C 
HETATM    6  C3  UNL     1       9.388   9.325   1.162  1.00  0.00     0.037 C 
HETATM    7  N4  UNL     1       7.712  11.108   1.433  1.00  0.00    -0.389 N 
HETATM    8  C15 UNL     1       7.022  11.232   0.201  1.00  0.00     0.088 C 
ATOM      9  H4  UNL     1       7.240  11.252   2.327  1.00  0.00     0.156 HD
HETATM   10  N3  UNL     1       7.757  10.933  -0.973  1.00  0.00    -0.393 N 
HETATM   11  C16 UNL     1       5.826  10.268   0.249  1.00  0.00     0.062 C 
HETATM   12  C17 UNL     1       6.396  12.629   0.162  1.00  0.00     0.062 C 
ATOM     13  H3  UNL     1       7.357  10.386  -1.735  1.00  0.00     0.156 HD
ENDBRANCH   1   2
BRANCH   1  14
HETATM   14  C7  UNL     1       9.583  13.846  -1.067  1.00  0.00     0.067 C 
HETATM   15  N1  UNL     1       9.768  15.005  -1.571  1.00  0.00    -0.323 N 
HETATM   16  C8  UNL     1      10.154  16.086  -0.767  1.00  0.00     0.320 C 
ATOM     17  H1  UNL     1       9.633  15.145  -2.572  1.00  0.00     0.169 HD
HETATM   18  O1  UNL     1       9.805  17.257  -1.053  1.00  0.00    -0.247 OA
HETATM   19  N2  UNL     1      10.947  15.907   0.390  1.00  0.00    -0.338 N 
ATOM     20  H2  UNL     1      11.240  14.961   0.637  1.00  0.00     0.164 HD
BRANCH  19  21
HETATM   21  C9  UNL     1      11.361  16.996   1.236  1.00  0.00     0.086 C 
HETATM   22  C10 UNL     1      10.392  17.199   2.376  1.00  0.00     0.025 C 
HETATM   23  C11 UNL     1      10.507  16.032   3.312  1.00  0.00     0.002 C 
HETATM   24  C12 UNL     1      11.898  16.004   3.897  1.00  0.00     0.000 C 
HETATM   25  C13 UNL     1      12.962  15.903   2.835  1.00  0.00     0.002 C 
HETATM   26  C14 UNL     1      12.770  16.888   1.720  1.00  0.00     0.025 C 
ENDBRANCH  19  21
ENDBRANCH   1  14
TORSDOF 3
ENDMDL
MODEL 2
REMARK VINA RESULT: -5.738828191      4.355      8.169
REMARK  3 active torsions:
REMARK  status: ('A' for Active; 'I' for Inactive)
REMARK    1  A    between atoms: C5_5  and  C6_6 
REMARK    2  A    between atoms: C6_6  and  C7_7 
REMARK       I    between atoms: N1_8  and  C8_10 
REMARK       I    between atoms: C8_10  and  N2_12 
REMARK    3  A    between atoms: N2_12  and  C9_14 
ROOT
HETATM    1  C6  UNL     1       6.331  11.816   0.215  1.00  0.00     0.069 C 
ENDROOT
BRANCH   1   2
HETATM    2  C5  UNL     1       7.612  11.543   1.015  1.00  0.00     0.085 C 
HETATM    3  C4  UNL     1       8.265  10.274   0.596  1.00  0.00     0.054 C 
HETATM    4  C2  UNL     1       9.772  10.333   0.827  1.00  0.00     0.022 C 
HETATM    5  C1  UNL     1      10.332   9.038   0.229  1.00  0.00     0.037 C 
HETATM    6  C3  UNL     1      10.121  10.335   2.279  1.00  0.00     0.037 C 
HETATM    7  N4  UNL     1      10.287  11.418   0.074  1.00  0.00    -0.389 N 
HETATM    8  C15 UNL     1       9.576  12.642   0.148  1.00  0.00     0.088 C 
ATOM      9  H4  UNL     1      11.129  11.322  -0.495  1.00  0.00     0.156 HD
HETATM   10  N3  UNL     1       8.466  12.681   1.029  1.00  0.00    -0.393 N 
HETATM   11  C16 UNL     1      10.568  13.718   0.616  1.00  0.00     0.062 C 
HETATM   12  C17 UNL     1       9.205  13.047  -1.281  1.00  0.00     0.062 C 
ATOM     13  H3  UNL     1       8.291  13.479   1.640  1.00  0.00     0.156 HD
ENDBRANCH   1   2
BRANCH   1  14
HETATM   14  C7  UNL     1       5.173  11.236   0.952  1.00  0.00     0.067 C 
HETATM   15  N1  UNL     1       4.798  10.031   0.755  1.00  0.00    -0.323 N 
HETATM   16  C8  UNL     1       3.708   9.494   1.454  1.00  0.00     0.320 C 
ATOM     17  H1  UNL     1       5.297   9.452   0.080  1.00  0.00     0.169 HD
HETATM   18  O1  UNL     1       3.661   8.270   1.731  1.00  0.00    -0.247 OA
HETATM   19  N2  UNL     1       2.623  10.299   1.873  1.00  0.00    -0.338 N 
ATOM     20  H2  UNL     1       2.645  11.295   1.656  1.00  0.00     0.164 HD
BRANCH  19  21
HETATM   21  C9  UNL     1       1.489   9.778   2.591  1.00  0.00     0.086 C 
HETATM   22  C10 UNL     1       1.460  10.293   4.011  1.00  0.00     0.025 C 
HETATM   23  C11 UNL     1       1.146  11.760   3.978  1.00  0.00     0.002 C 
HETATM   24  C12 UNL     1      -0.232  11.957   3.394  1.00  0.00     0.000 C 
HETATM   25  C13 UNL     1      -0.350  11.387   2.004  1.00  0.00     0.002 C 
HETATM   26  C14 UNL     1       0.182   9.988   1.900  1.00  0.00     0.025 C 
ENDBRANCH  19  21
ENDBRANCH   1  14
TORSDOF 3
ENDMDL
MODEL 3
REMARK VINA RESULT: -5.603228926      2.909      4.155
REMARK  3 active torsions:
REMARK  status: ('A' for Active; 'I' for Inactive)
REMARK    1  A    between atoms: C5_5  and  C6_6 
REMARK    2  A    between atoms: C6_6  and  C7_7 
REMARK       I    between atoms: N1_8  and  C8_10 
REMARK       I    between atoms: C8_10  and  N2_12 
REMARK    3  A    between atoms: N2_12  and  C9_14 
ROOT
HETATM    1  C6  UNL     1       9.420  13.252   1.758  1.00  0.00     0.069 C 
ENDROOT
BRANCH   1   2
HETATM    2  C5  UNL     1       9.188  11.785   2.143  1.00  0.00     0.085 C 
HETATM    3  C4  UNL     1       7.744  11.427   2.111  1.00  0.00     0.054 C 
HETATM    4  C2  UNL     1       7.557   9.944   1.801  1.00  0.00     0.022 C 
HETATM    5  C1  UNL     1       6.044   9.742   1.657  1.00  0.00     0.037 C 
HETATM    6  C3  UNL     1       8.013   9.071   2.923  1.00  0.00     0.037 C 
HETATM    7  N4  UNL     1       8.152   9.682   0.542  1.00  0.00    -0.389 N 
HETATM    8  C15 UNL     1       9.441  10.228   0.319  1.00  0.00     0.088 C 
ATOM      9  H4  UNL     1       7.676   9.128  -0.170  1.00  0.00     0.156 HD
HETATM   10  N3  UNL     1      10.039  10.914   1.406  1.00  0.00    -0.393 N 
HETATM   11  C16 UNL     1      10.372   9.062  -0.052  1.00  0.00     0.062 C 
HETATM   12  C17 UNL     1       9.366  11.086  -0.947  1.00  0.00     0.062 C 
ATOM     13  H3  UNL     1      11.022  10.791   1.646  1.00  0.00     0.156 HD
ENDBRANCH   1   2
BRANCH   1  14
HETATM   14  C7  UNL     1       9.725  14.029   2.993  1.00  0.00     0.067 C 
HETATM   15  N1  UNL     1      10.267  15.183   2.934  1.00  0.00    -0.323 N 
HETATM   16  C8  UNL     1      10.549  15.906   4.102  1.00  0.00     0.320 C 
ATOM     17  H1  UNL     1      10.498  15.585   2.026  1.00  0.00     0.169 HD
HETATM   18  O1  UNL     1      10.526  17.161   4.103  1.00  0.00    -0.247 OA
HETATM   19  N2  UNL     1      10.869  15.259   5.318  1.00  0.00    -0.338 N 
ATOM     20  H2  UNL     1      10.892  14.240   5.335  1.00  0.00     0.164 HD
BRANCH  19  21
HETATM   21  C9  UNL     1      11.164  15.972   6.534  1.00  0.00     0.086 C 
HETATM   22  C10 UNL     1      10.612  15.247   7.738  1.00  0.00     0.025 C 
HETATM   23  C11 UNL     1      11.398  13.983   7.934  1.00  0.00     0.002 C 
HETATM   24  C12 UNL     1      12.835  14.337   8.233  1.00  0.00     0.000 C 
HETATM   25  C13 UNL     1      13.463  15.154   7.134  1.00  0.00     0.002 C 
HETATM   26  C14 UNL     1      12.608  16.310   6.705  1.00  0.00     0.025 C 
ENDBRANCH  19  21
ENDBRANCH   1  14
TORSDOF 3
ENDMDL
MODEL 4
REMARK VINA RESULT: -5.593087422      4.389      8.224
REMARK  3 active torsions:
REMARK  status: ('A' for Active; 'I' for Inactive)
REMARK    1  A    between atoms: C5_5  and  C6_6 
REMARK    2  A    between atoms: C6_6  and  C7_7 
REMARK       I    between atoms: N1_8  and  C8_10 
REMARK       I    between atoms: C8_10  and  N2_12 
REMARK    3  A    between atoms: N2_12  and  C9_14 
ROOT
HETATM    1  C6  UNL     1       6.421  10.586  -0.119  1.00  0.00     0.069 C 
ENDROOT
BRANCH   1   2
HETATM    2  C5  UNL     1       7.341  11.598   0.577  1.00  0.00     0.085 C 
HETATM    3  C4  UNL     1       8.526  10.938   1.189  1.00  0.00     0.054 C 
HETATM    4  C2  UNL     1       9.715  11.893   1.244  1.00  0.00     0.022 C 
HETATM    5  C1  UNL     1      10.892  11.055   1.756  1.00  0.00     0.037 C 
HETATM    6  C3  UNL     1       9.504  13.000   2.223  1.00  0.00     0.037 C 
HETATM    7  N4  UNL     1      10.012  12.298  -0.081  1.00  0.00    -0.389 N 
HETATM    8  C15 UNL     1       8.916  12.682  -0.893  1.00  0.00     0.088 C 
ATOM      9  H4  UNL     1      10.969  12.312  -0.434  1.00  0.00     0.156 HD
HETATM   10  N3  UNL     1       7.640  12.698  -0.274  1.00  0.00    -0.393 N 
HETATM   11  C16 UNL     1       9.197  14.107  -1.395  1.00  0.00     0.062 C 
HETATM   12  C17 UNL     1       8.946  11.811  -2.152  1.00  0.00     0.062 C 
ATOM     13  H3  UNL     1       6.975  13.455  -0.431  1.00  0.00     0.156 HD
ENDBRANCH   1   2
BRANCH   1  14
HETATM   14  C7  UNL     1       5.235  10.341   0.750  1.00  0.00     0.067 C 
HETATM   15  N1  UNL     1       4.702   9.183   0.835  1.00  0.00    -0.323 N 
HETATM   16  C8  UNL     1       3.588   8.964   1.656  1.00  0.00     0.320 C 
ATOM     17  H1  UNL     1       5.093   8.409   0.298  1.00  0.00     0.169 HD
HETATM   18  O1  UNL     1       3.401   7.848   2.201  1.00  0.00    -0.247 OA
HETATM   19  N2  UNL     1       2.633   9.977   1.902  1.00  0.00    -0.338 N 
ATOM     20  H2  UNL     1       2.770  10.889   1.467  1.00  0.00     0.164 HD
BRANCH  19  21
HETATM   21  C9  UNL     1       1.478   9.783   2.739  1.00  0.00     0.086 C 
HETATM   22  C10 UNL     1       1.515  10.696   3.941  1.00  0.00     0.025 C 
HETATM   23  C11 UNL     1       1.312  12.108   3.473  1.00  0.00     0.002 C 
HETATM   24  C12 UNL     1      -0.058  12.228   2.851  1.00  0.00     0.000 C 
HETATM   25  C13 UNL     1      -0.246  11.283   1.693  1.00  0.00     0.002 C 
HETATM   26  C14 UNL     1       0.177   9.879   2.012  1.00  0.00     0.025 C 
ENDBRANCH  19  21
ENDBRANCH   1  14
TORSDOF 3
ENDMDL
MODEL 5
REMARK VINA RESULT: -5.587210333      4.351      8.379
REMARK  3 active torsions:
REMARK  status: ('A' for Active; 'I' for Inactive)
REMARK    1  A    between atoms: C5_5  and  C6_6 
REMARK    2  A    between atoms: C6_6  and  C7_7 
REMARK       I    between atoms: N1_8  and  C8_10 
REMARK       I    between atoms: C8_10  and  N2_12 
REMARK    3  A    between atoms: N2_12  and  C9_14 
ROOT
HETATM    1  C6  UNL     1       6.692  11.639   1.646  1.00  0.00     0.069 C 
ENDROOT
BRANCH   1   2
HETATM    2  C5  UNL     1       7.225  11.186   0.280  1.00  0.00     0.085 C 
HETATM    3  C4  UNL     1       7.749  12.329  -0.516  1.00  0.00     0.054 C 
HETATM    4  C2  UNL     1       8.846  11.872  -1.472  1.00  0.00     0.022 C 
HETATM    5  C1  UNL     1       9.390  13.151  -2.117  1.00  0.00     0.037 C 
HETATM    6  C3  UNL     1       8.314  11.015  -2.573  1.00  0.00     0.037 C 
HETATM    7  N4  UNL     1       9.887  11.298  -0.700  1.00  0.00    -0.389 N 
HETATM    8  C15 UNL     1       9.502  10.390   0.318  1.00  0.00     0.088 C 
ATOM      9  H4  UNL     1      10.867  11.527  -0.869  1.00  0.00     0.156 HD
HETATM   10  N3  UNL     1       8.120  10.087   0.411  1.00  0.00    -0.393 N 
HETATM   11  C16 UNL     1      10.242   9.069   0.056  1.00  0.00     0.062 C 
HETATM   12  C17 UNL     1      10.079  10.906   1.639  1.00  0.00     0.062 C 
ATOM     13  H3  UNL     1       7.786   9.136   0.563  1.00  0.00     0.156 HD
ENDBRANCH   1   2
BRANCH   1  14
HETATM   14  C7  UNL     1       5.377  10.979   1.888  1.00  0.00     0.067 C 
HETATM   15  N1  UNL     1       4.986   9.997   1.172  1.00  0.00    -0.323 N 
HETATM   16  C8  UNL     1       3.748   9.384   1.409  1.00  0.00     0.320 C 
ATOM     17  H1  UNL     1       5.581   9.656   0.417  1.00  0.00     0.169 HD
HETATM   18  O1  UNL     1       3.579   8.163   1.168  1.00  0.00    -0.247 OA
HETATM   19  N2  UNL     1       2.646  10.105   1.923  1.00  0.00    -0.338 N 
ATOM     20  H2  UNL     1       2.766  11.097   2.124  1.00  0.00     0.164 HD
BRANCH  19  21
HETATM   21  C9  UNL     1       1.362   9.504   2.177  1.00  0.00     0.086 C 
HETATM   22  C10 UNL     1       1.217   9.119   3.630  1.00  0.00     0.025 C 
HETATM   23  C11 UNL     1       1.127  10.375   4.447  1.00  0.00     0.002 C 
HETATM   24  C12 UNL     1      -0.116  11.134   4.051  1.00  0.00     0.000 C 
HETATM   25  C13 UNL     1      -0.128  11.486   2.586  1.00  0.00     0.002 C 
HETATM   26  C14 UNL     1       0.205  10.320   1.702  1.00  0.00     0.025 C 
ENDBRANCH  19  21
ENDBRANCH   1  14
TORSDOF 3
ENDMDL
