MODEL 1
REMARK VINA RESULT: -6.027785713      0.000      0.000
REMARK  9 active torsions:
REMARK  status: ('A' for Active; 'I' for Inactive)
REMARK    1  A    between atoms: C2_2  and  C3_3 
REMARK    2  A    between atoms: C3_3  and  C4_4 
REMARK    3  A    between atoms: C4_4  and  C5_5 
REMARK    4  A    between atoms: C5_5  and  C6_6 
REMARK    5  A    between atoms: C5_5  and  N1_8 
REMARK    6  A    between atoms: C10_11  and  N2_12 
REMARK    7  A    between atoms: C12_14  and  C13_15 
REMARK    8  A    between atoms: C14_18  and  N4_19 
REMARK    9  A    between atoms: C15_24  and  N6_25 
ROOT
HETATM    1  N2  UNL     1       6.853   9.684   1.693  1.00  0.00    -0.187 N 
HETATM    2  C11 UNL     1       6.522   8.356   1.636  1.00  0.00     0.130 A 
HETATM    3  C12 UNL     1       5.237   7.878   1.723  1.00  0.00     0.089 A 
HETATM    4  C14 UNL     1       4.243   8.806   1.876  1.00  0.00     0.131 A 
HETATM    5  N5  UNL     1       4.604  10.143   1.930  1.00  0.00    -0.176 N 
ATOM      6  H5  UNL     1       3.866  10.838   2.042  1.00  0.00     0.186 HD
HETATM    7  C15 UNL     1       5.865  10.570   1.842  1.00  0.00     0.679 A 
ENDROOT
BRANCH   1   8
HETATM    8  C10 UNL     1       8.206  10.045   1.590  1.00  0.00     0.118 C 
HETATM    9  C9  UNL     1       8.943   9.562   0.387  1.00  0.00     0.046 C 
HETATM   10  C8  UNL     1      10.282  10.305   0.205  1.00  0.00     0.119 C 
HETATM   11  N1  UNL     1      10.651  11.041   1.321  1.00  0.00    -0.407 N 
HETATM   12  C19 UNL     1      10.448  10.337   2.529  1.00  0.00     0.128 C 
HETATM   13  C16 UNL     1       9.100   9.735   2.771  1.00  0.00    -0.010 C 
HETATM   14  C17 UNL     1       9.150   8.234   3.041  1.00  0.00     0.018 C 
HETATM   15  C18 UNL     1       8.628  10.327   4.067  1.00  0.00     0.018 C 
BRANCH  11  16
HETATM   16  C5  UNL     1      10.993  12.372   1.325  1.00  0.00     0.078 C 
BRANCH  16  17
HETATM   17  C4  UNL     1      10.430  13.199   2.425  1.00  0.00     0.025 C 
BRANCH  17  18
HETATM   18  C3  UNL     1       9.083  13.764   2.225  1.00  0.00     0.002 C 
BRANCH  18  19
HETATM   19  C2  UNL     1       8.469  14.021   3.618  1.00  0.00    -0.004 C 
HETATM   20  C1  UNL     1       9.590  13.906   4.609  1.00  0.00     0.005 C 
ENDBRANCH  18  19
ENDBRANCH  17  18
ENDBRANCH  16  17
BRANCH  16  21
HETATM   21  C6  UNL     1      10.638  13.117   0.030  1.00  0.00     0.020 C 
HETATM   22  C7  UNL     1      11.867  13.987  -0.278  1.00  0.00     0.007 C 
ENDBRANCH  16  21
ENDBRANCH  11  16
ENDBRANCH   1   8
BRANCH   7  23
HETATM   23  N6  UNL     1       6.069  11.865   1.908  1.00  0.00    -0.234 N 
ATOM     24  H62 UNL     1       6.919  12.182   2.374  1.00  0.00     0.174 HD
ATOM     25  H61 UNL     1       5.423  12.550   1.518  1.00  0.00     0.174 HD
ENDBRANCH   7  23
BRANCH   3  26
HETATM   26  C13 UNL     1       5.001   6.456   1.654  1.00  0.00     0.270 C 
HETATM   27  N3  UNL     1       6.043   5.563   2.000  1.00  0.00    -0.057 NA
HETATM   28  O1  UNL     1       3.928   5.963   1.306  1.00  0.00    -0.271 OA
ENDBRANCH   3  26
BRANCH   4  29
HETATM   29  N4  UNL     1       3.033   8.533   1.967  1.00  0.00    -0.384 N 
ATOM     30  H42 UNL     1       2.728   7.622   1.627  1.00  0.00     0.157 HD
ATOM     31  H41 UNL     1       2.329   9.157   2.360  1.00  0.00     0.157 HD
ENDBRANCH   4  29
TORSDOF 9
ENDMDL
MODEL 2
REMARK VINA RESULT: -6.006688975      0.991      1.505
REMARK  9 active torsions:
REMARK  status: ('A' for Active; 'I' for Inactive)
REMARK    1  A    between atoms: C2_2  and  C3_3 
REMARK    2  A    between atoms: C3_3  and  C4_4 
REMARK    3  A    between atoms: C4_4  and  C5_5 
REMARK    4  A    between atoms: C5_5  and  C6_6 
REMARK    5  A    between atoms: C5_5  and  N1_8 
REMARK    6  A    between atoms: C10_11  and  N2_12 
REMARK    7  A    between atoms: C12_14  and  C13_15 
REMARK    8  A    between atoms: C14_18  and  N4_19 
REMARK    9  A    between atoms: C15_24  and  N6_25 
ROOT
HETATM    1  N2  UNL     1       6.712   9.847   1.555  1.00  0.00    -0.187 N 
HETATM    2  C11 UNL     1       6.446   8.504   1.540  1.00  0.00     0.130 A 
HETATM    3  C12 UNL     1       5.192   7.965   1.691  1.00  0.00     0.089 A 
HETATM    4  C14 UNL     1       4.160   8.845   1.866  1.00  0.00     0.131 A 
HETATM    5  N5  UNL     1       4.455  10.200   1.877  1.00  0.00    -0.176 N 
ATOM      6  H5  UNL     1       3.687  10.860   2.006  1.00  0.00     0.186 HD
HETATM    7  C15 UNL     1       5.688  10.686   1.727  1.00  0.00     0.679 A 
ENDROOT
BRANCH   1   8
HETATM    8  C10 UNL     1       8.040  10.272   1.387  1.00  0.00     0.118 C 
HETATM    9  C9  UNL     1       8.762   9.768   0.183  1.00  0.00     0.046 C 
HETATM   10  C8  UNL     1      10.052  10.570  -0.082  1.00  0.00     0.119 C 
HETATM   11  N1  UNL     1      10.417  11.379   0.984  1.00  0.00    -0.407 N 
HETATM   12  C19 UNL     1      10.292  10.727   2.230  1.00  0.00     0.128 C 
HETATM   13  C16 UNL     1       8.987  10.068   2.549  1.00  0.00    -0.010 C 
HETATM   14  C17 UNL     1       9.126   8.587   2.890  1.00  0.00     0.018 C 
HETATM   15  C18 UNL     1       8.527  10.699   3.830  1.00  0.00     0.018 C 
BRANCH  11  16
HETATM   16  C5  UNL     1      10.688  12.724   0.911  1.00  0.00     0.078 C 
BRANCH  16  17
HETATM   17  C4  UNL     1      10.551  13.498   2.173  1.00  0.00     0.025 C 
BRANCH  17  18
HETATM   18  C3  UNL     1      11.359  14.725   2.305  1.00  0.00     0.002 C 
BRANCH  18  19
HETATM   19  C2  UNL     1      12.829  14.354   2.016  1.00  0.00    -0.004 C 
HETATM   20  C1  UNL     1      13.600  15.642   1.992  1.00  0.00     0.005 C 
ENDBRANCH  18  19
ENDBRANCH  17  18
ENDBRANCH  16  17
BRANCH  16  21
HETATM   21  C6  UNL     1       9.846  13.481  -0.127  1.00  0.00     0.020 C 
HETATM   22  C7  UNL     1      10.845  13.909  -1.212  1.00  0.00     0.007 C 
ENDBRANCH  16  21
ENDBRANCH  11  16
ENDBRANCH   1   8
BRANCH   7  23
HETATM   23  N6  UNL     1       5.829  11.991   1.757  1.00  0.00    -0.234 N 
ATOM     24  H62 UNL     1       6.262  12.434   0.947  1.00  0.00     0.174 HD
ATOM     25  H61 UNL     1       5.528  12.564   2.544  1.00  0.00     0.174 HD
ENDBRANCH   7  23
BRANCH   3  26
HETATM   26  C13 UNL     1       5.025   6.532   1.662  1.00  0.00     0.270 C 
HETATM   27  N3  UNL     1       6.108   5.700   2.033  1.00  0.00    -0.057 NA
HETATM   28  O1  UNL     1       3.977   5.977   1.327  1.00  0.00    -0.271 OA
ENDBRANCH   3  26
BRANCH   4  29
HETATM   29  N4  UNL     1       2.969   8.515   2.015  1.00  0.00    -0.384 N 
ATOM     30  H42 UNL     1       2.779   7.666   2.544  1.00  0.00     0.157 HD
ATOM     31  H41 UNL     1       2.175   9.037   1.645  1.00  0.00     0.157 HD
ENDBRANCH   4  29
TORSDOF 9
ENDMDL
MODEL 3
REMARK VINA RESULT: -5.798663494      0.819      2.203
REMARK  9 active torsions:
REMARK  status: ('A' for Active; 'I' for Inactive)
REMARK    1  A    between atoms: C2_2  and  C3_3 
REMARK    2  A    between atoms: C3_3  and  C4_4 
REMARK    3  A    between atoms: C4_4  and  C5_5 
REMARK    4  A    between atoms: C5_5  and  C6_6 
REMARK    5  A    between atoms: C5_5  and  N1_8 
REMARK    6  A    between atoms: C10_11  and  N2_12 
REMARK    7  A    between atoms: C12_14  and  C13_15 
REMARK    8  A    between atoms: C14_18  and  N4_19 
REMARK    9  A    between atoms: C15_24  and  N6_25 
ROOT
HETATM    1  N2  UNL     1       6.498   9.734   1.635  1.00  0.00    -0.187 N 
HETATM    2  C11 UNL     1       6.274   8.383   1.577  1.00  0.00     0.130 A 
HETATM    3  C12 UNL     1       5.042   7.798   1.742  1.00  0.00     0.089 A 
HETATM    4  C14 UNL     1       3.988   8.638   1.979  1.00  0.00     0.131 A 
HETATM    5  N5  UNL     1       4.240  10.000   2.032  1.00  0.00    -0.176 N 
ATOM      6  H5  UNL     1       3.456  10.630   2.207  1.00  0.00     0.186 HD
HETATM    7  C15 UNL     1       5.453  10.532   1.866  1.00  0.00     0.679 A 
ENDROOT
BRANCH   1   8
HETATM    8  C10 UNL     1       7.806  10.207   1.446  1.00  0.00     0.118 C 
HETATM    9  C9  UNL     1       8.509   9.770   0.206  1.00  0.00     0.046 C 
HETATM   10  C8  UNL     1       9.765  10.623  -0.065  1.00  0.00     0.119 C 
HETATM   11  N1  UNL     1      10.135  11.405   1.019  1.00  0.00    -0.407 N 
HETATM   12  C19 UNL     1      10.066  10.706   2.244  1.00  0.00     0.128 C 
HETATM   13  C16 UNL     1       8.792   9.994   2.574  1.00  0.00    -0.010 C 
HETATM   14  C17 UNL     1       8.987   8.507   2.856  1.00  0.00     0.018 C 
HETATM   15  C18 UNL     1       8.348  10.563   3.889  1.00  0.00     0.018 C 
BRANCH  11  16
HETATM   16  C5  UNL     1      10.360  12.760   0.988  1.00  0.00     0.078 C 
BRANCH  16  17
HETATM   17  C4  UNL     1      11.675  13.203   0.453  1.00  0.00     0.025 C 
BRANCH  17  18
HETATM   18  C3  UNL     1      11.664  14.241  -0.594  1.00  0.00     0.002 C 
BRANCH  18  19
HETATM   19  C2  UNL     1      10.579  13.860  -1.624  1.00  0.00    -0.004 C 
HETATM   20  C1  UNL     1      10.107  15.143  -2.243  1.00  0.00     0.005 C 
ENDBRANCH  18  19
ENDBRANCH  17  18
ENDBRANCH  16  17
BRANCH  16  21
HETATM   21  C6  UNL     1      10.218  13.454   2.351  1.00  0.00     0.020 C 
HETATM   22  C7  UNL     1       8.890  14.222   2.269  1.00  0.00     0.007 C 
ENDBRANCH  16  21
ENDBRANCH  11  16
ENDBRANCH   1   8
BRANCH   7  23
HETATM   23  N6  UNL     1       5.553  11.839   1.940  1.00  0.00    -0.234 N 
ATOM     24  H62 UNL     1       6.461  12.251   1.729  1.00  0.00     0.174 HD
ATOM     25  H61 UNL     1       4.773  12.442   2.197  1.00  0.00     0.174 HD
ENDBRANCH   7  23
BRANCH   3  26
HETATM   26  C13 UNL     1       4.920   6.363   1.664  1.00  0.00     0.270 C 
HETATM   27  N3  UNL     1       6.038   5.554   1.976  1.00  0.00    -0.057 NA
HETATM   28  O1  UNL     1       3.882   5.787   1.336  1.00  0.00    -0.271 OA
ENDBRANCH   3  26
BRANCH   4  29
HETATM   29  N4  UNL     1       2.813   8.264   2.148  1.00  0.00    -0.384 N 
ATOM     30  H42 UNL     1       2.216   8.202   1.324  1.00  0.00     0.157 HD
ATOM     31  H41 UNL     1       2.411   8.015   3.051  1.00  0.00     0.157 HD
ENDBRANCH   4  29
TORSDOF 9
ENDMDL
MODEL 4
REMARK VINA RESULT: -5.686028111      2.749      5.021
REMARK  9 active torsions:
REMARK  status: ('A' for Active; 'I' for Inactive)
REMARK    1  A    between atoms: C2_2  and  C3_3 
REMARK    2  A    between atoms: C3_3  and  C4_4 
REMARK    3  A    between atoms: C4_4  and  C5_5 
REMARK    4  A    between atoms: C5_5  and  C6_6 
REMARK    5  A    between atoms: C5_5  and  N1_8 
REMARK    6  A    between atoms: C10_11  and  N2_12 
REMARK    7  A    between atoms: C12_14  and  C13_15 
REMARK    8  A    between atoms: C14_18  and  N4_19 
REMARK    9  A    between atoms: C15_24  and  N6_25 
ROOT
HETATM    1  N2  UNL     1       9.857  11.521   2.185  1.00  0.00    -0.187 N 
HETATM    2  C11 UNL     1       9.068  10.432   2.448  1.00  0.00     0.130 A 
HETATM    3  C12 UNL     1       9.137   9.245   1.759  1.00  0.00     0.089 A 
HETATM    4  C14 UNL     1      10.061   9.171   0.752  1.00  0.00     0.131 A 
HETATM    5  N5  UNL     1      10.848  10.285   0.507  1.00  0.00    -0.176 N 
ATOM      6  H5  UNL     1      11.538  10.233  -0.243  1.00  0.00     0.186 HD
HETATM    7  C15 UNL     1      10.750  11.422   1.198  1.00  0.00     0.679 A 
ENDROOT
BRANCH   1   8
HETATM    8  C10 UNL     1       9.690  12.676   2.964  1.00  0.00     0.118 C 
HETATM    9  C9  UNL     1       9.426  12.477   4.419  1.00  0.00     0.046 C 
HETATM   10  C8  UNL     1       9.619  13.783   5.215  1.00  0.00     0.119 C 
HETATM   11  N1  UNL     1       9.711  14.905   4.404  1.00  0.00    -0.407 N 
HETATM   12  C19 UNL     1       8.757  14.904   3.363  1.00  0.00     0.128 C 
HETATM   13  C16 UNL     1       8.666  13.688   2.496  1.00  0.00    -0.010 C 
HETATM   14  C17 UNL     1       7.269  13.076   2.459  1.00  0.00     0.018 C 
HETATM   15  C18 UNL     1       8.889  14.180   1.097  1.00  0.00     0.018 C 
BRANCH  11  16
HETATM   16  C5  UNL     1      10.717  15.840   4.443  1.00  0.00     0.078 C 
BRANCH  16  17
HETATM   17  C4  UNL     1      11.984  15.482   3.753  1.00  0.00     0.025 C 
BRANCH  17  18
HETATM   18  C3  UNL     1      12.120  15.880   2.339  1.00  0.00     0.002 C 
BRANCH  18  19
HETATM   19  C2  UNL     1      13.611  16.180   2.076  1.00  0.00    -0.004 C 
HETATM   20  C1  UNL     1      14.289  14.854   1.889  1.00  0.00     0.005 C 
ENDBRANCH  18  19
ENDBRANCH  17  18
ENDBRANCH  16  17
BRANCH  16  21
HETATM   21  C6  UNL     1      11.128  16.264   5.860  1.00  0.00     0.020 C 
HETATM   22  C7  UNL     1      12.654  16.438   5.797  1.00  0.00     0.007 C 
ENDBRANCH  16  21
ENDBRANCH  11  16
ENDBRANCH   1   8
BRANCH   7  23
HETATM   23  N6  UNL     1      11.556  12.402   0.862  1.00  0.00    -0.234 N 
ATOM     24  H62 UNL     1      11.141  13.323   0.722  1.00  0.00     0.174 HD
ATOM     25  H61 UNL     1      12.561  12.279   0.740  1.00  0.00     0.174 HD
ENDBRANCH   7  23
BRANCH   3  26
HETATM   26  C13 UNL     1       8.255   8.162   2.118  1.00  0.00     0.270 C 
HETATM   27  N3  UNL     1       8.731   7.132   2.965  1.00  0.00    -0.057 NA
HETATM   28  O1  UNL     1       7.091   8.076   1.725  1.00  0.00    -0.271 OA
ENDBRANCH   3  26
BRANCH   4  29
HETATM   29  N4  UNL     1      10.246   8.168   0.040  1.00  0.00    -0.384 N 
ATOM     30  H42 UNL     1      10.702   8.308  -0.861  1.00  0.00     0.157 HD
ATOM     31  H41 UNL     1       9.976   7.219   0.297  1.00  0.00     0.157 HD
ENDBRANCH   4  29
TORSDOF 9
ENDMDL
MODEL 5
REMARK VINA RESULT: -5.566059149      2.703      4.968
REMARK  9 active torsions:
REMARK  status: ('A' for Active; 'I' for Inactive)
REMARK    1  A    between atoms: C2_2  and  C3_3 
REMARK    2  A    between atoms: C3_3  and  C4_4 
REMARK    3  A    between atoms: C4_4  and  C5_5 
REMARK    4  A    between atoms: C5_5  and  C6_6 
REMARK    5  A    between atoms: C5_5  and  N1_8 
REMARK    6  A    between atoms: C10_11  and  N2_12 
REMARK    7  A    between atoms: C12_14  and  C13_15 
REMARK    8  A    between atoms: C14_18  and  N4_19 
REMARK    9  A    between atoms: C15_24  and  N6_25 
ROOT
HETATM    1  N2  UNL     1       9.892  11.481   2.223  1.00  0.00    -0.187 N 
HETATM    2  C11 UNL     1       9.025  10.450   2.472  1.00  0.00     0.130 A 
HETATM    3  C12 UNL     1       9.005   9.272   1.765  1.00  0.00     0.089 A 
HETATM    4  C14 UNL     1       9.919   9.144   0.755  1.00  0.00     0.131 A 
HETATM    5  N5  UNL     1      10.786  10.202   0.524  1.00  0.00    -0.176 N 
ATOM      6  H5  UNL     1      11.469  10.110  -0.229  1.00  0.00     0.186 HD
HETATM    7  C15 UNL     1      10.774  11.332   1.232  1.00  0.00     0.679 A 
ENDROOT
BRANCH   1   8
HETATM    8  C10 UNL     1       9.812  12.634   3.020  1.00  0.00     0.118 C 
HETATM    9  C9  UNL     1       9.482  12.437   4.461  1.00  0.00     0.046 C 
HETATM   10  C8  UNL     1       9.774  13.704   5.289  1.00  0.00     0.119 C 
HETATM   11  N1  UNL     1      10.001  14.825   4.505  1.00  0.00    -0.407 N 
HETATM   12  C19 UNL     1       9.086  14.935   3.435  1.00  0.00     0.128 C 
HETATM   13  C16 UNL     1       8.907  13.748   2.541  1.00  0.00    -0.010 C 
HETATM   14  C17 UNL     1       7.459  13.277   2.448  1.00  0.00     0.018 C 
HETATM   15  C18 UNL     1       9.223  14.241   1.159  1.00  0.00     0.018 C 
BRANCH  11  16
HETATM   16  C5  UNL     1      11.091  15.657   4.594  1.00  0.00     0.078 C 
BRANCH  16  17
HETATM   17  C4  UNL     1      11.518  16.047   5.964  1.00  0.00     0.025 C 
BRANCH  17  18
HETATM   18  C3  UNL     1      12.817  15.534   6.438  1.00  0.00     0.002 C 
BRANCH  18  19
HETATM   19  C2  UNL     1      12.551  14.653   7.678  1.00  0.00    -0.004 C 
HETATM   20  C1  UNL     1      13.863  14.024   8.046  1.00  0.00     0.005 C 
ENDBRANCH  18  19
ENDBRANCH  17  18
ENDBRANCH  16  17
BRANCH  16  21
HETATM   21  C6  UNL     1      10.942  16.975   3.821  1.00  0.00     0.020 C 
HETATM   22  C7  UNL     1      12.102  16.978   2.813  1.00  0.00     0.007 C 
ENDBRANCH  16  21
ENDBRANCH  11  16
ENDBRANCH   1   8
BRANCH   7  23
HETATM   23  N6  UNL     1      11.650  12.255   0.910  1.00  0.00    -0.234 N 
ATOM     24  H62 UNL     1      11.892  12.942   1.623  1.00  0.00     0.174 HD
ATOM     25  H61 UNL     1      12.088  12.308  -0.010  1.00  0.00     0.174 HD
ENDBRANCH   7  23
BRANCH   3  26
HETATM   26  C13 UNL     1       8.046   8.251   2.110  1.00  0.00     0.270 C 
HETATM   27  N3  UNL     1       8.460   7.146   2.892  1.00  0.00    -0.057 NA
HETATM   28  O1  UNL     1       6.866   8.283   1.758  1.00  0.00    -0.271 OA
ENDBRANCH   3  26
BRANCH   4  29
HETATM   29  N4  UNL     1      10.029   8.142   0.026  1.00  0.00    -0.384 N 
ATOM     30  H42 UNL     1      10.271   7.259   0.475  1.00  0.00     0.157 HD
ATOM     31  H41 UNL     1       9.893   8.144  -0.984  1.00  0.00     0.157 HD
ENDBRANCH   4  29
TORSDOF 9
ENDMDL
