MODEL 1
REMARK VINA RESULT: -6.691174370      0.000      0.000
REMARK  5 active torsions:
REMARK  status: ('A' for Active; 'I' for Inactive)
REMARK    1  A    between atoms: C1_2  and  C2_4 
REMARK    2  A    between atoms: C2_4  and  N1_5 
REMARK       I    between atoms: N1_5  and  C3_7 
REMARK       I    between atoms: C3_7  and  N2_9 
REMARK    3  A    between atoms: C7_13  and  C8_14 
REMARK    4  A    between atoms: C8_14  and  C9_15 
REMARK    5  A    between atoms: C9_15  and  C10_16 
ROOT
HETATM    1  N1  UNL     1       8.670  47.491  71.662  1.00  0.00    -0.333 N 
ATOM      2  H1  UNL     1       9.460  47.844  71.120  1.00  0.00     0.164 HD
HETATM    3  C3  UNL     1       7.876  48.382  72.433  1.00  0.00     0.319 C 
HETATM    4  O3  UNL     1       6.918  47.901  73.081  1.00  0.00    -0.247 OA
HETATM    5  N2  UNL     1       8.150  49.772  72.475  1.00  0.00    -0.330 N 
HETATM    6  C4  UNL     1       9.232  50.437  71.762  1.00  0.00     0.128 C 
HETATM    7  C5  UNL     1       8.653  51.804  71.386  1.00  0.00     0.022 C 
HETATM    8  C6  UNL     1       7.268  51.821  72.043  1.00  0.00     0.027 C 
HETATM    9  C7  UNL     1       7.489  50.824  73.175  1.00  0.00     0.089 C 
ENDROOT
BRANCH   9  10
HETATM   10  C8  UNL     1       6.242  50.457  73.902  1.00  0.00     0.026 C 
BRANCH  10  11
HETATM   11  C9  UNL     1       5.462  51.746  74.121  1.00  0.00     0.006 C 
BRANCH  11  12
HETATM   12  C10 UNL     1       3.979  51.539  73.993  1.00  0.00    -0.014 C 
HETATM   13  C11 UNL     1       3.533  51.222  72.607  1.00  0.00     0.004 C 
HETATM   14  C12 UNL     1       2.005  51.147  72.630  1.00  0.00     0.000 C 
HETATM   15  C13 UNL     1       1.434  52.502  72.905  1.00  0.00     0.000 C 
HETATM   16  C14 UNL     1       2.401  53.437  73.571  1.00  0.00     0.000 C 
HETATM   17  C15 UNL     1       3.291  52.746  74.572  1.00  0.00     0.004 C 
ENDBRANCH  11  12
ENDBRANCH  10  11
ENDBRANCH   9  10
BRANCH   1  18
HETATM   18  C2  UNL     1       8.354  46.089  71.650  1.00  0.00     0.237 C 
BRANCH  18  19
HETATM   19  C1  UNL     1       7.653  45.753  70.403  1.00  0.00     0.191 C 
HETATM   20  O1  UNL     1       7.971  46.326  69.334  1.00  0.00    -0.647 OA
HETATM   21  O2  UNL     1       6.650  44.806  70.421  1.00  0.00    -0.647 OA
ENDBRANCH  18  19
ENDBRANCH   1  18
TORSDOF 5
ENDMDL
MODEL 2
REMARK VINA RESULT: -6.398648750      4.417      7.395
REMARK  5 active torsions:
REMARK  status: ('A' for Active; 'I' for Inactive)
REMARK    1  A    between atoms: C1_2  and  C2_4 
REMARK    2  A    between atoms: C2_4  and  N1_5 
REMARK       I    between atoms: N1_5  and  C3_7 
REMARK       I    between atoms: C3_7  and  N2_9 
REMARK    3  A    between atoms: C7_13  and  C8_14 
REMARK    4  A    between atoms: C8_14  and  C9_15 
REMARK    5  A    between atoms: C9_15  and  C10_16 
ROOT
HETATM    1  N1  UNL     1       4.318  55.599  71.570  1.00  0.00    -0.333 N 
ATOM      2  H1  UNL     1       3.337  55.767  71.793  1.00  0.00     0.164 HD
HETATM    3  C3  UNL     1       4.983  54.454  72.084  1.00  0.00     0.319 C 
HETATM    4  O3  UNL     1       6.188  54.291  71.783  1.00  0.00    -0.247 OA
HETATM    5  N2  UNL     1       4.315  53.518  72.914  1.00  0.00    -0.330 N 
HETATM    6  C4  UNL     1       2.920  53.607  73.324  1.00  0.00     0.128 C 
HETATM    7  C5  UNL     1       2.451  52.150  73.385  1.00  0.00     0.022 C 
HETATM    8  C6  UNL     1       3.715  51.334  73.088  1.00  0.00     0.027 C 
HETATM    9  C7  UNL     1       4.789  52.323  73.528  1.00  0.00     0.089 C 
ENDROOT
BRANCH   9  10
HETATM   10  C8  UNL     1       6.173  51.899  73.176  1.00  0.00     0.026 C 
BRANCH  10  11
HETATM   11  C9  UNL     1       6.346  50.479  73.695  1.00  0.00     0.006 C 
BRANCH  11  12
HETATM   12  C10 UNL     1       7.632  49.858  73.227  1.00  0.00    -0.014 C 
HETATM   13  C11 UNL     1       8.098  50.362  71.905  1.00  0.00     0.004 C 
HETATM   14  C12 UNL     1       9.346  49.562  71.529  1.00  0.00     0.000 C 
HETATM   15  C13 UNL     1       8.977  48.135  71.274  1.00  0.00     0.000 C 
HETATM   16  C14 UNL     1       7.680  47.727  71.911  1.00  0.00     0.000 C 
HETATM   17  C15 UNL     1       7.464  48.362  73.261  1.00  0.00     0.004 C 
ENDBRANCH  11  12
ENDBRANCH  10  11
ENDBRANCH   9  10
BRANCH   1  18
HETATM   18  C2  UNL     1       5.038  56.520  70.732  1.00  0.00     0.237 C 
BRANCH  18  19
HETATM   19  C1  UNL     1       4.619  56.345  69.335  1.00  0.00     0.191 C 
HETATM   20  O1  UNL     1       4.196  57.328  68.682  1.00  0.00    -0.647 OA
HETATM   21  O2  UNL     1       4.695  55.096  68.754  1.00  0.00    -0.647 OA
ENDBRANCH  18  19
ENDBRANCH   1  18
TORSDOF 5
ENDMDL
MODEL 3
REMARK VINA RESULT: -6.345551010      3.509      5.378
REMARK  5 active torsions:
REMARK  status: ('A' for Active; 'I' for Inactive)
REMARK    1  A    between atoms: C1_2  and  C2_4 
REMARK    2  A    between atoms: C2_4  and  N1_5 
REMARK       I    between atoms: N1_5  and  C3_7 
REMARK       I    between atoms: C3_7  and  N2_9 
REMARK    3  A    between atoms: C7_13  and  C8_14 
REMARK    4  A    between atoms: C8_14  and  C9_15 
REMARK    5  A    between atoms: C9_15  and  C10_16 
ROOT
HETATM    1  N1  UNL     1       6.755  51.471  72.550  1.00  0.00    -0.333 N 
ATOM      2  H1  UNL     1       6.547  51.962  71.680  1.00  0.00     0.164 HD
HETATM    3  C3  UNL     1       5.878  51.584  73.662  1.00  0.00     0.319 C 
HETATM    4  O3  UNL     1       6.176  50.964  74.709  1.00  0.00    -0.247 OA
HETATM    5  N2  UNL     1       4.700  52.372  73.601  1.00  0.00    -0.330 N 
HETATM    6  C4  UNL     1       4.257  53.130  72.439  1.00  0.00     0.128 C 
HETATM    7  C5  UNL     1       2.729  53.041  72.490  1.00  0.00     0.022 C 
HETATM    8  C6  UNL     1       2.438  52.291  73.796  1.00  0.00     0.027 C 
HETATM    9  C7  UNL     1       3.701  52.618  74.586  1.00  0.00     0.089 C 
ENDROOT
BRANCH   9  10
HETATM   10  C8  UNL     1       3.822  51.857  75.861  1.00  0.00     0.026 C 
BRANCH  10  11
HETATM   11  C9  UNL     1       3.431  52.808  76.983  1.00  0.00     0.006 C 
BRANCH  11  12
HETATM   12  C10 UNL     1       3.911  52.329  78.324  1.00  0.00    -0.014 C 
HETATM   13  C11 UNL     1       5.174  51.540  78.265  1.00  0.00     0.004 C 
HETATM   14  C12 UNL     1       5.465  51.044  79.682  1.00  0.00     0.000 C 
HETATM   15  C13 UNL     1       4.425  50.051  80.096  1.00  0.00     0.000 C 
HETATM   16  C14 UNL     1       3.147  50.159  79.315  1.00  0.00     0.000 C 
HETATM   17  C15 UNL     1       2.781  51.583  78.982  1.00  0.00     0.004 C 
ENDBRANCH  11  12
ENDBRANCH  10  11
ENDBRANCH   9  10
BRANCH   1  18
HETATM   18  C2  UNL     1       7.937  50.661  72.660  1.00  0.00     0.237 C 
BRANCH  18  19
HETATM   19  C1  UNL     1       8.729  50.776  71.428  1.00  0.00     0.191 C 
HETATM   20  O1  UNL     1       9.737  50.050  71.263  1.00  0.00    -0.647 OA
HETATM   21  O2  UNL     1       8.352  51.685  70.461  1.00  0.00    -0.647 OA
ENDBRANCH  18  19
ENDBRANCH   1  18
TORSDOF 5
ENDMDL
MODEL 4
REMARK VINA RESULT: -6.246558024      3.267      4.877
REMARK  5 active torsions:
REMARK  status: ('A' for Active; 'I' for Inactive)
REMARK    1  A    between atoms: C1_2  and  C2_4 
REMARK    2  A    between atoms: C2_4  and  N1_5 
REMARK       I    between atoms: N1_5  and  C3_7 
REMARK       I    between atoms: C3_7  and  N2_9 
REMARK    3  A    between atoms: C7_13  and  C8_14 
REMARK    4  A    between atoms: C8_14  and  C9_15 
REMARK    5  A    between atoms: C9_15  and  C10_16 
ROOT
HETATM    1  N1  UNL     1       7.233  51.153  72.619  1.00  0.00    -0.333 N 
ATOM      2  H1  UNL     1       7.510  51.858  71.936  1.00  0.00     0.164 HD
HETATM    3  C3  UNL     1       6.074  51.345  73.416  1.00  0.00     0.319 C 
HETATM    4  O3  UNL     1       5.774  50.451  74.241  1.00  0.00    -0.247 OA
HETATM    5  N2  UNL     1       5.272  52.508  73.292  1.00  0.00    -0.330 N 
HETATM    6  C4  UNL     1       5.524  53.606  72.368  1.00  0.00     0.128 C 
HETATM    7  C5  UNL     1       4.127  54.085  71.961  1.00  0.00     0.022 C 
HETATM    8  C6  UNL     1       3.174  53.238  72.813  1.00  0.00     0.027 C 
HETATM    9  C7  UNL     1       4.088  52.894  73.985  1.00  0.00     0.089 C 
ENDROOT
BRANCH   9  10
HETATM   10  C8  UNL     1       3.509  51.889  74.921  1.00  0.00     0.026 C 
BRANCH  10  11
HETATM   11  C9  UNL     1       3.498  52.527  76.303  1.00  0.00     0.006 C 
BRANCH  11  12
HETATM   12  C10 UNL     1       3.724  51.518  77.393  1.00  0.00    -0.014 C 
HETATM   13  C11 UNL     1       2.765  51.633  78.528  1.00  0.00     0.004 C 
HETATM   14  C12 UNL     1       3.194  50.617  79.588  1.00  0.00     0.000 C 
HETATM   15  C13 UNL     1       4.512  51.017  80.171  1.00  0.00     0.000 C 
HETATM   16  C14 UNL     1       5.304  51.940  79.291  1.00  0.00     0.000 C 
HETATM   17  C15 UNL     1       5.163  51.617  77.825  1.00  0.00     0.004 C 
ENDBRANCH  11  12
ENDBRANCH  10  11
ENDBRANCH   9  10
BRANCH   1  18
HETATM   18  C2  UNL     1       8.014  49.957  72.780  1.00  0.00     0.237 C 
BRANCH  18  19
HETATM   19  C1  UNL     1       9.143  49.976  71.841  1.00  0.00     0.191 C 
HETATM   20  O1  UNL     1       9.831  51.016  71.713  1.00  0.00    -0.647 OA
HETATM   21  O2  UNL     1       9.437  48.844  71.109  1.00  0.00    -0.647 OA
ENDBRANCH  18  19
ENDBRANCH   1  18
TORSDOF 5
ENDMDL
MODEL 5
REMARK VINA RESULT: -6.112273104      5.274      7.315
REMARK  5 active torsions:
REMARK  status: ('A' for Active; 'I' for Inactive)
REMARK    1  A    between atoms: C1_2  and  C2_4 
REMARK    2  A    between atoms: C2_4  and  N1_5 
REMARK       I    between atoms: N1_5  and  C3_7 
REMARK       I    between atoms: C3_7  and  N2_9 
REMARK    3  A    between atoms: C7_13  and  C8_14 
REMARK    4  A    between atoms: C8_14  and  C9_15 
REMARK    5  A    between atoms: C9_15  and  C10_16 
ROOT
HETATM    1  N1  UNL     1       4.519  52.898  72.038  1.00  0.00    -0.333 N 
ATOM      2  H1  UNL     1       3.873  52.164  71.744  1.00  0.00     0.164 HD
HETATM    3  C3  UNL     1       4.621  54.101  71.291  1.00  0.00     0.319 C 
HETATM    4  O3  UNL     1       5.428  54.973  71.691  1.00  0.00    -0.247 OA
HETATM    5  N2  UNL     1       3.841  54.322  70.127  1.00  0.00    -0.330 N 
HETATM    6  C4  UNL     1       2.874  53.383  69.576  1.00  0.00     0.128 C 
HETATM    7  C5  UNL     1       1.768  54.273  69.001  1.00  0.00     0.022 C 
HETATM    8  C6  UNL     1       2.290  55.700  69.203  1.00  0.00     0.027 C 
HETATM    9  C7  UNL     1       3.792  55.440  69.245  1.00  0.00     0.089 C 
ENDROOT
BRANCH   9  10
HETATM   10  C8  UNL     1       4.596  56.631  69.637  1.00  0.00     0.026 C 
BRANCH  10  11
HETATM   11  C9  UNL     1       3.775  57.859  69.268  1.00  0.00     0.006 C 
BRANCH  11  12
HETATM   12  C10 UNL     1       3.568  58.775  70.442  1.00  0.00    -0.014 C 
HETATM   13  C11 UNL     1       3.337  58.060  71.729  1.00  0.00     0.004 C 
HETATM   14  C12 UNL     1       3.043  59.123  72.790  1.00  0.00     0.000 C 
HETATM   15  C13 UNL     1       1.737  59.788  72.493  1.00  0.00     0.000 C 
HETATM   16  C14 UNL     1       1.307  59.657  71.061  1.00  0.00     0.000 C 
HETATM   17  C15 UNL     1       2.461  59.733  70.093  1.00  0.00     0.004 C 
ENDBRANCH  11  12
ENDBRANCH  10  11
ENDBRANCH   9  10
BRANCH   1  18
HETATM   18  C2  UNL     1       5.330  52.720  73.211  1.00  0.00     0.237 C 
BRANCH  18  19
HETATM   19  C1  UNL     1       6.514  51.918  72.874  1.00  0.00     0.191 C 
HETATM   20  O1  UNL     1       6.840  50.950  73.600  1.00  0.00    -0.647 OA
HETATM   21  O2  UNL     1       7.256  52.240  71.757  1.00  0.00    -0.647 OA
ENDBRANCH  18  19
ENDBRANCH   1  18
TORSDOF 5
ENDMDL
