MODEL 1
REMARK VINA RESULT: -7.212941907      0.000      0.000
REMARK  13 active torsions:
REMARK  status: ('A' for Active; 'I' for Inactive)
REMARK    1  A    between atoms: S1_2  and  C2_5 
REMARK    2  A    between atoms: C2_5  and  C3_6 
REMARK    3  A    between atoms: C2_5  and  O4_23 
REMARK    4  A    between atoms: C3_6  and  C4_7 
REMARK    5  A    between atoms: C5_8  and  O3_9 
REMARK    6  A    between atoms: C6_13  and  N2_14 
REMARK    7  A    between atoms: C7_19  and  N4_20 
REMARK    8  A    between atoms: O4_23  and  C8_24 
REMARK    9  A    between atoms: C8_24  and  O5_25 
REMARK   10  A    between atoms: O5_25  and  C9_26 
REMARK       I    between atoms: C9_26  and  N5_28 
REMARK   11  A    between atoms: C10_30  and  C11_31 
REMARK   12  A    between atoms: C11_31  and  O7_32 
REMARK   13  A    between atoms: C11_31  and  O8_34 
ROOT
HETATM    1  C2  UNL     1     -45.635  81.236 150.272  1.00  0.00     0.166 C 
ENDROOT
BRANCH   1   2
HETATM    2  S1  UNL     1     -45.150  80.349 151.688  1.00  0.00     0.193 S 
HETATM    3  C1  UNL     1     -45.596  81.123 153.224  1.00  0.00     0.169 C 
HETATM    4  O1  UNL     1     -45.907  79.000 151.719  1.00  0.00    -0.221 OA
HETATM    5  O2  UNL     1     -43.719  79.960 151.765  1.00  0.00    -0.221 OA
ENDBRANCH   1   2
BRANCH   1   6
HETATM    6  C3  UNL     1     -44.824  82.274 149.678  1.00  0.00     0.068 C 
BRANCH   6   7
HETATM    7  C4  UNL     1     -43.747  82.016 148.757  1.00  0.00     0.063 A 
HETATM    8  C5  UNL     1     -42.463  81.737 149.097  1.00  0.00     0.169 A 
HETATM    9  N1  UNL     1     -41.483  81.447 148.184  1.00  0.00    -0.170 N 
HETATM   10  C6  UNL     1     -41.773  81.433 146.884  1.00  0.00     0.679 A 
ATOM     11  H1  UNL     1     -40.534  81.245 148.499  1.00  0.00     0.186 HD
HETATM   12  N3  UNL     1     -43.025  81.703 146.496  1.00  0.00    -0.176 N 
HETATM   13  C7  UNL     1     -43.996  81.987 147.373  1.00  0.00     0.129 A 
ATOM     14  H3  UNL     1     -43.247  81.693 145.500  1.00  0.00     0.186 HD
BRANCH   8  15
HETATM   15  O3  UNL     1     -42.075  81.743 150.450  1.00  0.00    -0.345 OA
ATOM     16  H3  UNL     1     -42.661  81.401 151.114  1.00  0.00     0.219 HD
ENDBRANCH   8  15
BRANCH  10  17
HETATM   17  N2  UNL     1     -40.851  81.159 145.984  1.00  0.00    -0.234 N 
ATOM     18  H22 UNL     1     -40.290  80.311 146.071  1.00  0.00     0.174 HD
ATOM     19  H21 UNL     1     -40.685  81.783 145.194  1.00  0.00     0.174 HD
ENDBRANCH  10  17
BRANCH  13  20
HETATM   20  N4  UNL     1     -45.170  82.249 146.936  1.00  0.00    -0.384 N 
ATOM     21  H42 UNL     1     -45.271  82.855 146.122  1.00  0.00     0.157 HD
ATOM     22  H41 UNL     1     -45.983  81.859 147.412  1.00  0.00     0.157 HD
ENDBRANCH  13  20
ENDBRANCH   6   7
ENDBRANCH   1   6
BRANCH   1  23
HETATM   23  O4  UNL     1     -46.151  80.323 149.284  1.00  0.00    -0.314 OA
BRANCH  23  24
HETATM   24  C8  UNL     1     -47.495  80.517 149.105  1.00  0.00     0.358 C 
BRANCH  24  25
HETATM   25  O5  UNL     1     -47.923  81.378 148.133  1.00  0.00    -0.276 OA
BRANCH  25  26
HETATM   26  C9  UNL     1     -48.805  81.217 147.111  1.00  0.00     0.387 C 
HETATM   27  O6  UNL     1     -49.578  80.226 147.175  1.00  0.00    -0.236 OA
HETATM   28  N5  UNL     1     -48.851  82.131 146.015  1.00  0.00    -0.170 N 
HETATM   29  N6  UNL     1     -47.964  83.196 146.014  1.00  0.00    -0.095 NA
HETATM   30  C12 UNL     1     -49.799  81.911 144.977  1.00  0.00     0.230 C 
HETATM   31  C10 UNL     1     -48.007  83.939 144.757  1.00  0.00     0.267 C 
HETATM   32  N7  UNL     1     -48.386  83.107 143.634  1.00  0.00    -0.307 N 
HETATM   33  N8  UNL     1     -49.592  82.389 143.770  1.00  0.00    -0.275 N 
ATOM     34  H7  UNL     1     -47.813  83.044 142.793  1.00  0.00     0.182 HD
ATOM     35  H8  UNL     1     -50.246  82.253 142.999  1.00  0.00     0.189 HD
HETATM   36  N9  UNL     1     -50.981  81.178 145.208  1.00  0.00    -0.060 NA
BRANCH  31  37
HETATM   37  C11 UNL     1     -46.654  84.571 144.572  1.00  0.00     0.295 C 
BRANCH  37  38
HETATM   38  O7  UNL     1     -46.714  85.539 143.597  1.00  0.00    -0.368 OA
ATOM     39  H7  UNL     1     -47.390  86.173 143.806  1.00  0.00     0.212 HD
ENDBRANCH  37  38
BRANCH  37  40
HETATM   40  O8  UNL     1     -46.115  85.032 145.769  1.00  0.00    -0.368 OA
ATOM     41  H8  UNL     1     -45.859  84.323 146.348  1.00  0.00     0.212 HD
ENDBRANCH  37  40
ENDBRANCH  31  37
ENDBRANCH  25  26
ENDBRANCH  24  25
ENDBRANCH  23  24
ENDBRANCH   1  23
TORSDOF 13
ENDMDL
MODEL 2
REMARK VINA RESULT: -6.814128500      1.472      1.986
REMARK  13 active torsions:
REMARK  status: ('A' for Active; 'I' for Inactive)
REMARK    1  A    between atoms: S1_2  and  C2_5 
REMARK    2  A    between atoms: C2_5  and  C3_6 
REMARK    3  A    between atoms: C2_5  and  O4_23 
REMARK    4  A    between atoms: C3_6  and  C4_7 
REMARK    5  A    between atoms: C5_8  and  O3_9 
REMARK    6  A    between atoms: C6_13  and  N2_14 
REMARK    7  A    between atoms: C7_19  and  N4_20 
REMARK    8  A    between atoms: O4_23  and  C8_24 
REMARK    9  A    between atoms: C8_24  and  O5_25 
REMARK   10  A    between atoms: O5_25  and  C9_26 
REMARK       I    between atoms: C9_26  and  N5_28 
REMARK   11  A    between atoms: C10_30  and  C11_31 
REMARK   12  A    between atoms: C11_31  and  O7_32 
REMARK   13  A    between atoms: C11_31  and  O8_34 
ROOT
HETATM    1  C2  UNL     1     -46.849  80.596 150.905  1.00  0.00     0.166 C 
ENDROOT
BRANCH   1   2
HETATM    2  S1  UNL     1     -47.042  79.387 152.143  1.00  0.00     0.193 S 
HETATM    3  C1  UNL     1     -48.263  79.787 153.369  1.00  0.00     0.169 C 
HETATM    4  O1  UNL     1     -47.577  78.088 151.495  1.00  0.00    -0.221 OA
HETATM    5  O2  UNL     1     -45.806  78.957 152.843  1.00  0.00    -0.221 OA
ENDBRANCH   1   2
BRANCH   1   6
HETATM    6  C3  UNL     1     -45.661  81.409 150.778  1.00  0.00     0.068 C 
BRANCH   6   7
HETATM    7  C4  UNL     1     -44.717  81.277 149.699  1.00  0.00     0.063 A 
HETATM    8  C5  UNL     1     -44.802  81.890 148.491  1.00  0.00     0.169 A 
HETATM    9  N1  UNL     1     -43.850  81.773 147.513  1.00  0.00    -0.170 N 
HETATM   10  C6  UNL     1     -42.769  81.024 147.728  1.00  0.00     0.679 A 
ATOM     11  H1  UNL     1     -43.968  82.258 146.624  1.00  0.00     0.186 HD
HETATM   12  N3  UNL     1     -42.637  80.397 148.902  1.00  0.00    -0.176 N 
HETATM   13  C7  UNL     1     -43.557  80.499 149.870  1.00  0.00     0.129 A 
ATOM     14  H3  UNL     1     -41.811  79.822 149.066  1.00  0.00     0.186 HD
BRANCH   8  15
HETATM   15  O3  UNL     1     -45.919  82.690 148.184  1.00  0.00    -0.345 OA
ATOM     16  H3  UNL     1     -45.834  83.636 148.160  1.00  0.00     0.219 HD
ENDBRANCH   8  15
BRANCH  10  17
HETATM   17  N2  UNL     1     -41.839  80.893 146.804  1.00  0.00    -0.234 N 
ATOM     18  H22 UNL     1     -41.930  81.385 145.916  1.00  0.00     0.174 HD
ATOM     19  H21 UNL     1     -41.020  80.305 146.962  1.00  0.00     0.174 HD
ENDBRANCH  10  17
BRANCH  13  20
HETATM   20  N4  UNL     1     -43.377  79.864 150.966  1.00  0.00    -0.384 N 
ATOM     21  H42 UNL     1     -42.483  79.401 151.129  1.00  0.00     0.157 HD
ATOM     22  H41 UNL     1     -44.130  79.823 151.653  1.00  0.00     0.157 HD
ENDBRANCH  13  20
ENDBRANCH   6   7
ENDBRANCH   1   6
BRANCH   1  23
HETATM   23  O4  UNL     1     -47.274  80.060 149.637  1.00  0.00    -0.314 OA
BRANCH  23  24
HETATM   24  C8  UNL     1     -48.466  80.618 149.255  1.00  0.00     0.358 C 
BRANCH  24  25
HETATM   25  O5  UNL     1     -48.504  81.421 148.149  1.00  0.00    -0.276 OA
BRANCH  25  26
HETATM   26  C9  UNL     1     -49.171  81.301 146.970  1.00  0.00     0.387 C 
HETATM   27  O6  UNL     1     -49.969  80.334 146.862  1.00  0.00    -0.236 OA
HETATM   28  N5  UNL     1     -48.973  82.230 145.904  1.00  0.00    -0.170 N 
HETATM   29  N6  UNL     1     -48.074  83.267 146.099  1.00  0.00    -0.095 NA
HETATM   30  C12 UNL     1     -49.702  82.053 144.695  1.00  0.00     0.230 C 
HETATM   31  C10 UNL     1     -47.845  84.027 144.872  1.00  0.00     0.267 C 
HETATM   32  N7  UNL     1     -48.018  83.222 143.681  1.00  0.00    -0.307 N 
HETATM   33  N8  UNL     1     -49.247  82.540 143.562  1.00  0.00    -0.275 N 
ATOM     34  H7  UNL     1     -47.292  83.151 142.969  1.00  0.00     0.182 HD
ATOM     35  H8  UNL     1     -49.739  82.436 142.675  1.00  0.00     0.189 HD
HETATM   36  N9  UNL     1     -50.927  81.355 144.674  1.00  0.00    -0.060 NA
BRANCH  31  37
HETATM   37  C11 UNL     1     -46.466  84.618 144.970  1.00  0.00     0.295 C 
BRANCH  37  38
HETATM   38  O7  UNL     1     -46.539  85.923 145.399  1.00  0.00    -0.368 OA
ATOM     39  H7  UNL     1     -46.986  86.455 144.752  1.00  0.00     0.212 HD
ENDBRANCH  37  38
BRANCH  37  40
HETATM   40  O8  UNL     1     -45.605  83.838 145.735  1.00  0.00    -0.368 OA
ATOM     41  H8  UNL     1     -44.711  84.159 145.718  1.00  0.00     0.212 HD
ENDBRANCH  37  40
ENDBRANCH  31  37
ENDBRANCH  25  26
ENDBRANCH  24  25
ENDBRANCH  23  24
ENDBRANCH   1  23
TORSDOF 13
ENDMDL
MODEL 3
REMARK VINA RESULT: -6.763617189      4.283      7.380
REMARK  13 active torsions:
REMARK  status: ('A' for Active; 'I' for Inactive)
REMARK    1  A    between atoms: S1_2  and  C2_5 
REMARK    2  A    between atoms: C2_5  and  C3_6 
REMARK    3  A    between atoms: C2_5  and  O4_23 
REMARK    4  A    between atoms: C3_6  and  C4_7 
REMARK    5  A    between atoms: C5_8  and  O3_9 
REMARK    6  A    between atoms: C6_13  and  N2_14 
REMARK    7  A    between atoms: C7_19  and  N4_20 
REMARK    8  A    between atoms: O4_23  and  C8_24 
REMARK    9  A    between atoms: C8_24  and  O5_25 
REMARK   10  A    between atoms: O5_25  and  C9_26 
REMARK       I    between atoms: C9_26  and  N5_28 
REMARK   11  A    between atoms: C10_30  and  C11_31 
REMARK   12  A    between atoms: C11_31  and  O7_32 
REMARK   13  A    between atoms: C11_31  and  O8_34 
ROOT
HETATM    1  C2  UNL     1     -44.996  83.564 145.826  1.00  0.00     0.166 C 
ENDROOT
BRANCH   1   2
HETATM    2  S1  UNL     1     -44.084  82.285 146.575  1.00  0.00     0.193 S 
HETATM    3  C1  UNL     1     -42.636  82.834 147.445  1.00  0.00     0.169 C 
HETATM    4  O1  UNL     1     -44.951  81.627 147.675  1.00  0.00    -0.221 OA
HETATM    5  O2  UNL     1     -43.695  81.151 145.699  1.00  0.00    -0.221 OA
ENDBRANCH   1   2
BRANCH   1   6
HETATM    6  C3  UNL     1     -46.341  83.909 146.227  1.00  0.00     0.068 C 
BRANCH   6   7
HETATM    7  C4  UNL     1     -47.522  83.318 145.653  1.00  0.00     0.063 A 
HETATM    8  C5  UNL     1     -48.047  83.615 144.438  1.00  0.00     0.169 A 
HETATM    9  N1  UNL     1     -49.146  82.986 143.913  1.00  0.00    -0.170 N 
HETATM   10  C6  UNL     1     -49.756  82.028 144.609  1.00  0.00     0.679 A 
ATOM     11  H1  UNL     1     -49.496  83.252 142.993  1.00  0.00     0.186 HD
HETATM   12  N3  UNL     1     -49.278  81.699 145.815  1.00  0.00    -0.176 N 
HETATM   13  C7  UNL     1     -48.206  82.301 146.344  1.00  0.00     0.129 A 
ATOM     14  H3  UNL     1     -49.746  80.966 146.349  1.00  0.00     0.186 HD
BRANCH   8  15
HETATM   15  O3  UNL     1     -47.465  84.623 143.646  1.00  0.00    -0.345 OA
ATOM     16  H3  UNL     1     -47.756  84.752 142.751  1.00  0.00     0.219 HD
ENDBRANCH   8  15
BRANCH  10  17
HETATM   17  N2  UNL     1     -50.815  81.409 144.130  1.00  0.00    -0.234 N 
ATOM     18  H22 UNL     1     -51.732  81.853 144.183  1.00  0.00     0.174 HD
ATOM     19  H21 UNL     1     -50.736  80.487 143.700  1.00  0.00     0.174 HD
ENDBRANCH  10  17
BRANCH  13  20
HETATM   20  N4  UNL     1     -47.807  81.948 147.507  1.00  0.00    -0.384 N 
ATOM     21  H42 UNL     1     -46.995  82.413 147.913  1.00  0.00     0.157 HD
ATOM     22  H41 UNL     1     -48.297  81.205 148.004  1.00  0.00     0.157 HD
ENDBRANCH  13  20
ENDBRANCH   6   7
ENDBRANCH   1   6
BRANCH   1  23
HETATM   23  O4  UNL     1     -44.161  84.729 145.679  1.00  0.00    -0.314 OA
BRANCH  23  24
HETATM   24  C8  UNL     1     -44.923  85.832 145.395  1.00  0.00     0.358 C 
BRANCH  24  25
HETATM   25  O5  UNL     1     -44.862  86.383 144.145  1.00  0.00    -0.276 OA
BRANCH  25  26
HETATM   26  C9  UNL     1     -44.533  87.634 143.726  1.00  0.00     0.387 C 
HETATM   27  O6  UNL     1     -44.362  88.507 144.616  1.00  0.00    -0.236 OA
HETATM   28  N5  UNL     1     -44.390  87.942 142.339  1.00  0.00    -0.170 N 
HETATM   29  N6  UNL     1     -44.599  86.926 141.419  1.00  0.00    -0.095 NA
HETATM   30  C12 UNL     1     -44.043  89.269 141.963  1.00  0.00     0.230 C 
HETATM   31  C10 UNL     1     -44.592  87.425 140.046  1.00  0.00     0.267 C 
HETATM   32  N7  UNL     1     -45.032  88.802 139.955  1.00  0.00    -0.307 N 
HETATM   33  N8  UNL     1     -44.352  89.729 140.771  1.00  0.00    -0.275 N 
ATOM     34  H7  UNL     1     -45.791  89.084 139.335  1.00  0.00     0.182 HD
ATOM     35  H8  UNL     1     -44.121  90.674 140.463  1.00  0.00     0.189 HD
HETATM   36  N9  UNL     1     -43.360  90.127 142.849  1.00  0.00    -0.060 NA
BRANCH  31  37
HETATM   37  C11 UNL     1     -45.448  86.493 139.233  1.00  0.00     0.295 C 
BRANCH  37  38
HETATM   38  O7  UNL     1     -46.683  86.351 139.821  1.00  0.00    -0.368 OA
ATOM     39  H7  UNL     1     -47.302  85.989 139.198  1.00  0.00     0.212 HD
ENDBRANCH  37  38
BRANCH  37  40
HETATM   40  O8  UNL     1     -45.518  86.867 137.895  1.00  0.00    -0.368 OA
ATOM     41  H8  UNL     1     -45.450  86.124 137.306  1.00  0.00     0.212 HD
ENDBRANCH  37  40
ENDBRANCH  31  37
ENDBRANCH  25  26
ENDBRANCH  24  25
ENDBRANCH  23  24
ENDBRANCH   1  23
TORSDOF 13
ENDMDL
MODEL 4
REMARK VINA RESULT: -6.759933915      4.443      7.869
REMARK  13 active torsions:
REMARK  status: ('A' for Active; 'I' for Inactive)
REMARK    1  A    between atoms: S1_2  and  C2_5 
REMARK    2  A    between atoms: C2_5  and  C3_6 
REMARK    3  A    between atoms: C2_5  and  O4_23 
REMARK    4  A    between atoms: C3_6  and  C4_7 
REMARK    5  A    between atoms: C5_8  and  O3_9 
REMARK    6  A    between atoms: C6_13  and  N2_14 
REMARK    7  A    between atoms: C7_19  and  N4_20 
REMARK    8  A    between atoms: O4_23  and  C8_24 
REMARK    9  A    between atoms: C8_24  and  O5_25 
REMARK   10  A    between atoms: O5_25  and  C9_26 
REMARK       I    between atoms: C9_26  and  N5_28 
REMARK   11  A    between atoms: C10_30  and  C11_31 
REMARK   12  A    between atoms: C11_31  and  O7_32 
REMARK   13  A    between atoms: C11_31  and  O8_34 
ROOT
HETATM    1  C2  UNL     1     -45.148  81.626 149.089  1.00  0.00     0.166 C 
ENDROOT
BRANCH   1   2
HETATM    2  S1  UNL     1     -43.867  82.088 148.005  1.00  0.00     0.193 S 
HETATM    3  C1  UNL     1     -42.283  81.394 148.410  1.00  0.00     0.169 C 
HETATM    4  O1  UNL     1     -44.172  81.521 146.598  1.00  0.00    -0.221 OA
HETATM    5  O2  UNL     1     -43.690  83.543 147.775  1.00  0.00    -0.221 OA
ENDBRANCH   1   2
BRANCH   1   6
HETATM    6  C3  UNL     1     -46.434  82.285 149.114  1.00  0.00     0.068 C 
BRANCH   6   7
HETATM    7  C4  UNL     1     -47.454  82.082 148.118  1.00  0.00     0.063 A 
HETATM    8  C5  UNL     1     -47.502  82.675 146.899  1.00  0.00     0.169 A 
HETATM    9  N1  UNL     1     -48.468  82.410 145.964  1.00  0.00    -0.170 N 
HETATM   10  C6  UNL     1     -49.428  81.528 146.237  1.00  0.00     0.679 A 
ATOM     11  H1  UNL     1     -48.453  82.887 145.063  1.00  0.00     0.186 HD
HETATM   12  N3  UNL     1     -49.428  80.915 147.427  1.00  0.00    -0.176 N 
HETATM   13  C7  UNL     1     -48.492  81.161 148.352  1.00  0.00     0.129 A 
ATOM     14  H3  UNL     1     -50.163  80.241 147.636  1.00  0.00     0.186 HD
BRANCH   8  15
HETATM   15  O3  UNL     1     -46.529  83.627 146.540  1.00  0.00    -0.345 OA
ATOM     16  H3  UNL     1     -46.373  83.825 145.624  1.00  0.00     0.219 HD
ENDBRANCH   8  15
BRANCH  10  17
HETATM   17  N2  UNL     1     -50.370  81.255 145.358  1.00  0.00    -0.234 N 
ATOM     18  H22 UNL     1     -50.624  80.285 145.168  1.00  0.00     0.174 HD
ATOM     19  H21 UNL     1     -50.858  82.000 144.860  1.00  0.00     0.174 HD
ENDBRANCH  10  17
BRANCH  13  20
HETATM   20  N4  UNL     1     -48.555  80.551 149.475  1.00  0.00    -0.384 N 
ATOM     21  H42 UNL     1     -47.770  80.626 150.123  1.00  0.00     0.157 HD
ATOM     22  H41 UNL     1     -49.378  79.994 149.701  1.00  0.00     0.157 HD
ENDBRANCH  13  20
ENDBRANCH   6   7
ENDBRANCH   1   6
BRANCH   1  23
HETATM   23  O4  UNL     1     -45.278  80.190 149.098  1.00  0.00    -0.314 OA
BRANCH  23  24
HETATM   24  C8  UNL     1     -45.067  79.697 150.358  1.00  0.00     0.358 C 
BRANCH  24  25
HETATM   25  O5  UNL     1     -46.133  79.253 151.090  1.00  0.00    -0.276 OA
BRANCH  25  26
HETATM   26  C9  UNL     1     -46.616  79.636 152.302  1.00  0.00     0.387 C 
HETATM   27  O6  UNL     1     -46.197  80.728 152.765  1.00  0.00    -0.236 OA
HETATM   28  N5  UNL     1     -47.556  78.832 153.017  1.00  0.00    -0.170 N 
HETATM   29  N6  UNL     1     -47.966  77.639 152.443  1.00  0.00    -0.095 NA
HETATM   30  C12 UNL     1     -48.026  79.287 154.280  1.00  0.00     0.230 C 
HETATM   31  C10 UNL     1     -48.783  76.847 153.358  1.00  0.00     0.267 C 
HETATM   32  N7  UNL     1     -48.452  77.088 154.747  1.00  0.00    -0.307 N 
HETATM   33  N8  UNL     1     -48.483  78.433 155.170  1.00  0.00    -0.275 N 
ATOM     34  H7  UNL     1     -48.210  76.329 155.383  1.00  0.00     0.182 HD
ATOM     35  H8  UNL     1     -48.829  78.719 156.086  1.00  0.00     0.189 HD
HETATM   36  N9  UNL     1     -48.019  80.656 154.615  1.00  0.00    -0.060 NA
BRANCH  31  37
HETATM   37  C11 UNL     1     -48.610  75.404 152.970  1.00  0.00     0.295 C 
BRANCH  37  38
HETATM   38  O7  UNL     1     -48.474  75.295 151.606  1.00  0.00    -0.368 OA
ATOM     39  H7  UNL     1     -47.555  75.322 151.365  1.00  0.00     0.212 HD
ENDBRANCH  37  38
BRANCH  37  40
HETATM   40  O8  UNL     1     -47.583  74.783 153.674  1.00  0.00    -0.368 OA
ATOM     41  H8  UNL     1     -47.902  74.294 154.423  1.00  0.00     0.212 HD
ENDBRANCH  37  40
ENDBRANCH  31  37
ENDBRANCH  25  26
ENDBRANCH  24  25
ENDBRANCH  23  24
ENDBRANCH   1  23
TORSDOF 13
ENDMDL
MODEL 5
REMARK VINA RESULT: -6.661631664      2.674      6.166
REMARK  13 active torsions:
REMARK  status: ('A' for Active; 'I' for Inactive)
REMARK    1  A    between atoms: S1_2  and  C2_5 
REMARK    2  A    between atoms: C2_5  and  C3_6 
REMARK    3  A    between atoms: C2_5  and  O4_23 
REMARK    4  A    between atoms: C3_6  and  C4_7 
REMARK    5  A    between atoms: C5_8  and  O3_9 
REMARK    6  A    between atoms: C6_13  and  N2_14 
REMARK    7  A    between atoms: C7_19  and  N4_20 
REMARK    8  A    between atoms: O4_23  and  C8_24 
REMARK    9  A    between atoms: C8_24  and  O5_25 
REMARK   10  A    between atoms: O5_25  and  C9_26 
REMARK       I    between atoms: C9_26  and  N5_28 
REMARK   11  A    between atoms: C10_30  and  C11_31 
REMARK   12  A    between atoms: C11_31  and  O7_32 
REMARK   13  A    between atoms: C11_31  and  O8_34 
ROOT
HETATM    1  C2  UNL     1     -47.455  82.739 147.722  1.00  0.00     0.166 C 
ENDROOT
BRANCH   1   2
HETATM    2  S1  UNL     1     -48.992  82.145 148.283  1.00  0.00     0.193 S 
HETATM    3  C1  UNL     1     -49.987  81.389 147.021  1.00  0.00     0.169 C 
HETATM    4  O1  UNL     1     -48.749  81.003 149.298  1.00  0.00    -0.221 OA
HETATM    5  O2  UNL     1     -49.841  83.111 149.025  1.00  0.00    -0.221 OA
ENDBRANCH   1   2
BRANCH   1   6
HETATM    6  C3  UNL     1     -47.032  82.648 146.344  1.00  0.00     0.068 C 
BRANCH   6   7
HETATM    7  C4  UNL     1     -46.701  83.791 145.533  1.00  0.00     0.063 A 
HETATM    8  C5  UNL     1     -45.568  84.532 145.632  1.00  0.00     0.169 A 
HETATM    9  N1  UNL     1     -45.275  85.582 144.802  1.00  0.00    -0.170 N 
HETATM   10  C6  UNL     1     -46.128  85.921 143.837  1.00  0.00     0.679 A 
ATOM     11  H1  UNL     1     -44.407  86.103 144.923  1.00  0.00     0.186 HD
HETATM   12  N3  UNL     1     -47.262  85.223 143.698  1.00  0.00    -0.176 N 
HETATM   13  C7  UNL     1     -47.565  84.194 144.498  1.00  0.00     0.129 A 
ATOM     14  H3  UNL     1     -47.915  85.483 142.959  1.00  0.00     0.186 HD
BRANCH   8  15
HETATM   15  O3  UNL     1     -44.622  84.243 146.634  1.00  0.00    -0.345 OA
ATOM     16  H3  UNL     1     -44.021  84.916 146.929  1.00  0.00     0.219 HD
ENDBRANCH   8  15
BRANCH  10  17
HETATM   17  N2  UNL     1     -45.872  86.927 143.025  1.00  0.00    -0.234 N 
ATOM     18  H22 UNL     1     -45.327  86.771 142.177  1.00  0.00     0.174 HD
ATOM     19  H21 UNL     1     -46.213  87.867 143.229  1.00  0.00     0.174 HD
ENDBRANCH  10  17
BRANCH  13  20
HETATM   20  N4  UNL     1     -48.671  83.574 144.321  1.00  0.00    -0.384 N 
ATOM     21  H42 UNL     1     -48.652  82.572 144.135  1.00  0.00     0.157 HD
ATOM     22  H41 UNL     1     -49.549  84.091 144.359  1.00  0.00     0.157 HD
ENDBRANCH  13  20
ENDBRANCH   6   7
ENDBRANCH   1   6
BRANCH   1  23
HETATM   23  O4  UNL     1     -47.213  84.048 148.275  1.00  0.00    -0.314 OA
BRANCH  23  24
HETATM   24  C8  UNL     1     -46.484  83.954 149.431  1.00  0.00     0.358 C 
BRANCH  24  25
HETATM   25  O5  UNL     1     -45.217  83.443 149.382  1.00  0.00    -0.276 OA
BRANCH  25  26
HETATM   26  C9  UNL     1     -44.684  82.304 149.899  1.00  0.00     0.387 C 
HETATM   27  O6  UNL     1     -44.900  82.074 151.117  1.00  0.00    -0.236 OA
HETATM   28  N5  UNL     1     -43.913  81.410 149.095  1.00  0.00    -0.170 N 
HETATM   29  N6  UNL     1     -43.715  81.736 147.762  1.00  0.00    -0.095 NA
HETATM   30  C12 UNL     1     -43.383  80.233 149.693  1.00  0.00     0.230 C 
HETATM   31  C10 UNL     1     -42.769  80.829 147.115  1.00  0.00     0.267 C 
HETATM   32  N7  UNL     1     -41.799  80.286 148.043  1.00  0.00    -0.307 N 
HETATM   33  N8  UNL     1     -42.321  79.646 149.186  1.00  0.00    -0.275 N 
ATOM     34  H7  UNL     1     -40.796  80.362 147.879  1.00  0.00     0.182 HD
ATOM     35  H8  UNL     1     -41.912  78.801 149.584  1.00  0.00     0.189 HD
HETATM   36  N9  UNL     1     -43.975  79.663 150.838  1.00  0.00    -0.060 NA
BRANCH  31  37
HETATM   37  C11 UNL     1     -42.123  81.594 145.992  1.00  0.00     0.295 C 
BRANCH  37  38
HETATM   38  O7  UNL     1     -42.028  82.926 146.320  1.00  0.00    -0.368 OA
ATOM     39  H7  UNL     1     -41.777  83.433 145.556  1.00  0.00     0.212 HD
ENDBRANCH  37  38
BRANCH  37  40
HETATM   40  O8  UNL     1     -40.910  81.038 145.599  1.00  0.00    -0.368 OA
ATOM     41  H8  UNL     1     -40.371  81.650 145.112  1.00  0.00     0.212 HD
ENDBRANCH  37  40
ENDBRANCH  31  37
ENDBRANCH  25  26
ENDBRANCH  24  25
ENDBRANCH  23  24
ENDBRANCH   1  23
TORSDOF 13
ENDMDL
