MODEL 1
REMARK VINA RESULT: -7.379361054      0.000      0.000
REMARK  18 active torsions:
REMARK  status: ('A' for Active; 'I' for Inactive)
REMARK    1  A    between atoms: N5_15  and  C6_16 
REMARK    2  A    between atoms: C6_16  and  O1_17 
REMARK    3  A    between atoms: C7_21  and  N7_22 
REMARK    4  A    between atoms: N7_22  and  C8_24 
REMARK    5  A    between atoms: C8_24  and  C9_25 
REMARK    6  A    between atoms: C8_24  and  C10_30 
REMARK    7  A    between atoms: C9_25  and  O2_26 
REMARK    8  A    between atoms: C9_25  and  O3_28 
REMARK    9  A    between atoms: C10_30  and  O4_31 
REMARK   10  A    between atoms: C10_30  and  C11_33 
REMARK   11  A    between atoms: C11_33  and  C12_34 
REMARK   12  A    between atoms: C12_34  and  O5_35 
REMARK   13  A    between atoms: C13_37  and  O6_38 
REMARK   14  A    between atoms: C14_40  and  O7_41 
REMARK   15  A    between atoms: C15_43  and  N8_44 
REMARK   16  A    between atoms: C17_46  and  C18_47 
REMARK   17  A    between atoms: C20_51  and  S1_52 
REMARK   18  A    between atoms: S1_52  and  C21_53 
ROOT
HETATM    1  C6  UNL     1     -47.737 -34.412 148.200  1.00  0.00     0.249 C 
HETATM    2  N6  UNL     1     -48.670 -35.022 149.014  1.00  0.00    -0.326 N 
ATOM      3  H6  UNL     1     -49.664 -34.935 148.802  1.00  0.00     0.165 HD
HETATM    4  C7  UNL     1     -48.243 -35.785 150.166  1.00  0.00     0.109 C 
HETATM    5  C13 UNL     1     -46.910 -35.531 150.679  1.00  0.00     0.216 C 
HETATM    6  C14 UNL     1     -46.060 -34.522 149.874  1.00  0.00     0.185 C 
HETATM    7  C15 UNL     1     -46.297 -34.893 148.429  1.00  0.00     0.219 C 
ENDROOT
BRANCH   1   8
HETATM    8  N5  UNL     1     -47.984 -34.451 146.758  1.00  0.00    -0.274 N 
HETATM    9  C3  UNL     1     -48.500 -33.454 146.019  1.00  0.00     0.144 A 
HETATM   10  N3  UNL     1     -48.914 -32.213 146.308  1.00  0.00    -0.336 N 
HETATM   11  C4  UNL     1     -48.589 -33.872 144.715  1.00  0.00     0.122 A 
HETATM   12  C2  UNL     1     -49.405 -31.383 145.375  1.00  0.00     0.183 A 
ATOM     13  H3  UNL     1     -48.854 -31.887 147.273  1.00  0.00     0.168 HD
HETATM   14  N2  UNL     1     -49.490 -31.800 144.098  1.00  0.00    -0.337 N 
HETATM   15  C1  UNL     1     -49.097 -33.029 143.718  1.00  0.00     0.131 A 
ATOM     16  H2  UNL     1     -49.865 -31.162 143.394  1.00  0.00     0.168 HD
HETATM   17  N1  UNL     1     -49.179 -33.431 142.499  1.00  0.00    -0.383 N 
ATOM     18  H12 UNL     1     -49.549 -32.818 141.773  1.00  0.00     0.157 HD
ATOM     19  H11 UNL     1     -48.881 -34.364 142.211  1.00  0.00     0.157 HD
HETATM   20  N4  UNL     1     -48.119 -35.119 144.709  1.00  0.00    -0.346 N 
HETATM   21  C5  UNL     1     -47.751 -35.473 145.944  1.00  0.00     0.190 A 
ATOM     22  H4  UNL     1     -48.050 -35.715 143.884  1.00  0.00     0.167 HD
ENDBRANCH   1   8
BRANCH   1  23
HETATM   23  O1  UNL     1     -47.687 -33.040 148.542  1.00  0.00    -0.352 OA
ATOM     24  H1  UNL     1     -48.456 -32.649 148.146  1.00  0.00     0.214 HD
ENDBRANCH   1  23
BRANCH   7  25
HETATM   25  N8  UNL     1     -45.421 -34.212 147.527  1.00  0.00    -0.273 N 
HETATM   26  C16 UNL     1     -44.764 -34.728 146.498  1.00  0.00     0.145 A 
HETATM   27  C17 UNL     1     -44.032 -33.728 145.919  1.00  0.00     0.094 A 
HETATM   28  N11 UNL     1     -44.270 -32.611 146.624  1.00  0.00    -0.283 N 
HETATM   29  N12 UNL     1     -45.111 -32.936 147.587  1.00  0.00    -0.240 N 
ATOM     30  H11 UNL     1     -43.876 -31.687 146.448  1.00  0.00     0.188 HD
ATOM     31  H12 UNL     1     -45.472 -32.284 148.283  1.00  0.00     0.208 HD
BRANCH  27  32
HETATM   32  C18 UNL     1     -43.138 -33.785 144.770  1.00  0.00     0.079 A 
HETATM   33  C19 UNL     1     -42.913 -34.874 143.938  1.00  0.00     0.122 A 
HETATM   34  N9  UNL     1     -42.025 -34.492 143.024  1.00  0.00    -0.344 N 
HETATM   35  C20 UNL     1     -41.659 -33.204 143.218  1.00  0.00     0.151 A 
ATOM     36  H9  UNL     1     -41.669 -35.089 142.277  1.00  0.00     0.167 HD
HETATM   37  N10 UNL     1     -42.370 -32.814 144.301  1.00  0.00    -0.333 N 
ATOM     38  H10 UNL     1     -42.320 -31.881 144.709  1.00  0.00     0.168 HD
BRANCH  35  39
HETATM   39  S1  UNL     1     -40.507 -32.198 142.298  1.00  0.00    -0.025 SA
BRANCH  39  40
HETATM   40  C21 UNL     1     -39.360 -31.445 143.434  1.00  0.00     0.312 C 
HETATM   41  O8  UNL     1     -39.287 -31.880 144.558  1.00  0.00    -0.295 OA
ENDBRANCH  39  40
ENDBRANCH  35  39
ENDBRANCH  27  32
ENDBRANCH   7  25
BRANCH   4  42
HETATM   42  N7  UNL     1     -48.683 -37.100 149.982  1.00  0.00    -0.366 N 
ATOM     43  H7  UNL     1     -49.467 -37.418 150.553  1.00  0.00     0.161 HD
BRANCH  42  44
HETATM   44  C8  UNL     1     -48.125 -38.023 149.068  1.00  0.00     0.166 C 
BRANCH  44  45
HETATM   45  C9  UNL     1     -48.740 -38.110 147.710  1.00  0.00     0.278 C 
BRANCH  45  46
HETATM   46  O2  UNL     1     -50.088 -37.672 147.703  1.00  0.00    -0.369 OA
ATOM     47  H2  UNL     1     -50.393 -37.461 146.828  1.00  0.00     0.212 HD
ENDBRANCH  45  46
BRANCH  45  48
HETATM   48  O3  UNL     1     -48.840 -39.444 147.230  1.00  0.00    -0.369 OA
ATOM     49  H3  UNL     1     -48.931 -39.493 146.286  1.00  0.00     0.212 HD
ENDBRANCH  45  48
ENDBRANCH  44  45
BRANCH  44  50
HETATM   50  C10 UNL     1     -48.082 -39.395 149.754  1.00  0.00     0.147 C 
BRANCH  50  51
HETATM   51  O4  UNL     1     -46.843 -39.971 149.679  1.00  0.00    -0.393 OA
ATOM     52  H4  UNL     1     -46.890 -40.917 149.619  1.00  0.00     0.210 HD
ENDBRANCH  50  51
BRANCH  50  53
HETATM   53  C11 UNL     1     -48.843 -39.524 151.003  1.00  0.00     0.060 C 
BRANCH  53  54
HETATM   54  C12 UNL     1     -50.094 -40.369 150.680  1.00  0.00     0.166 C 
BRANCH  54  55
HETATM   55  O5  UNL     1     -50.840 -39.745 149.692  1.00  0.00    -0.401 OA
ATOM     56  H5  UNL     1     -51.020 -40.357 148.989  1.00  0.00     0.209 HD
ENDBRANCH  54  55
ENDBRANCH  53  54
ENDBRANCH  50  53
ENDBRANCH  44  50
ENDBRANCH  42  44
ENDBRANCH   4  42
BRANCH   6  57
HETATM   57  O7  UNL     1     -44.731 -34.642 150.256  1.00  0.00    -0.390 OA
ATOM     58  H7  UNL     1     -44.223 -34.951 149.515  1.00  0.00     0.210 HD
ENDBRANCH   6  57
BRANCH   5  59
HETATM   59  O6  UNL     1     -46.913 -35.065 152.034  1.00  0.00    -0.385 OA
ATOM     60  H6  UNL     1     -46.403 -35.617 152.616  1.00  0.00     0.210 HD
ENDBRANCH   5  59
TORSDOF 18
ENDMDL
MODEL 2
REMARK VINA RESULT: -6.979740355      3.555      9.060
REMARK  18 active torsions:
REMARK  status: ('A' for Active; 'I' for Inactive)
REMARK    1  A    between atoms: N5_15  and  C6_16 
REMARK    2  A    between atoms: C6_16  and  O1_17 
REMARK    3  A    between atoms: C7_21  and  N7_22 
REMARK    4  A    between atoms: N7_22  and  C8_24 
REMARK    5  A    between atoms: C8_24  and  C9_25 
REMARK    6  A    between atoms: C8_24  and  C10_30 
REMARK    7  A    between atoms: C9_25  and  O2_26 
REMARK    8  A    between atoms: C9_25  and  O3_28 
REMARK    9  A    between atoms: C10_30  and  O4_31 
REMARK   10  A    between atoms: C10_30  and  C11_33 
REMARK   11  A    between atoms: C11_33  and  C12_34 
REMARK   12  A    between atoms: C12_34  and  O5_35 
REMARK   13  A    between atoms: C13_37  and  O6_38 
REMARK   14  A    between atoms: C14_40  and  O7_41 
REMARK   15  A    between atoms: C15_43  and  N8_44 
REMARK   16  A    between atoms: C17_46  and  C18_47 
REMARK   17  A    between atoms: C20_51  and  S1_52 
REMARK   18  A    between atoms: S1_52  and  C21_53 
ROOT
HETATM    1  C6  UNL     1     -46.858 -32.403 144.954  1.00  0.00     0.249 C 
HETATM    2  N6  UNL     1     -46.347 -31.642 143.920  1.00  0.00    -0.326 N 
ATOM      3  H6  UNL     1     -45.675 -30.902 144.119  1.00  0.00     0.165 HD
HETATM    4  C7  UNL     1     -46.761 -31.894 142.558  1.00  0.00     0.109 C 
HETATM    5  C13 UNL     1     -48.001 -32.621 142.359  1.00  0.00     0.216 C 
HETATM    6  C14 UNL     1     -48.701 -33.121 143.643  1.00  0.00     0.185 C 
HETATM    7  C15 UNL     1     -47.582 -33.676 144.494  1.00  0.00     0.219 C 
ENDROOT
BRANCH   1   8
HETATM    8  N5  UNL     1     -45.931 -32.789 146.017  1.00  0.00    -0.274 N 
HETATM    9  C3  UNL     1     -44.889 -33.629 145.889  1.00  0.00     0.144 A 
HETATM   10  N3  UNL     1     -44.386 -34.321 144.858  1.00  0.00    -0.336 N 
HETATM   11  C4  UNL     1     -44.267 -33.749 147.106  1.00  0.00     0.122 A 
HETATM   12  C2  UNL     1     -43.310 -35.114 144.980  1.00  0.00     0.183 A 
ATOM     13  H3  UNL     1     -44.837 -34.242 143.946  1.00  0.00     0.168 HD
HETATM   14  N2  UNL     1     -42.705 -35.227 146.177  1.00  0.00    -0.337 N 
HETATM   15  C1  UNL     1     -43.142 -34.569 147.266  1.00  0.00     0.131 A 
ATOM     16  H2  UNL     1     -41.888 -35.832 146.262  1.00  0.00     0.168 HD
HETATM   17  N1  UNL     1     -42.568 -34.677 148.412  1.00  0.00    -0.383 N 
ATOM     18  H12 UNL     1     -41.749 -35.274 148.528  1.00  0.00     0.157 HD
ATOM     19  H11 UNL     1     -42.899 -34.178 149.237  1.00  0.00     0.157 HD
HETATM   20  N4  UNL     1     -44.960 -32.971 147.937  1.00  0.00    -0.346 N 
HETATM   21  C5  UNL     1     -45.968 -32.388 147.282  1.00  0.00     0.190 A 
ATOM     22  H4  UNL     1     -44.751 -32.840 148.927  1.00  0.00     0.167 HD
ENDBRANCH   1   8
BRANCH   1  23
HETATM   23  O1  UNL     1     -47.876 -31.652 145.588  1.00  0.00    -0.352 OA
ATOM     24  H1  UNL     1     -48.676 -32.149 145.463  1.00  0.00     0.214 HD
ENDBRANCH   1  23
BRANCH   7  25
HETATM   25  N8  UNL     1     -48.054 -34.391 145.639  1.00  0.00    -0.273 N 
HETATM   26  C16 UNL     1     -47.639 -35.571 146.079  1.00  0.00     0.145 A 
HETATM   27  C17 UNL     1     -48.370 -35.887 147.192  1.00  0.00     0.094 A 
HETATM   28  N11 UNL     1     -49.223 -34.873 147.401  1.00  0.00    -0.283 N 
HETATM   29  N12 UNL     1     -49.008 -33.987 146.447  1.00  0.00    -0.240 N 
ATOM     30  H11 UNL     1     -49.908 -34.800 148.153  1.00  0.00     0.188 HD
ATOM     31  H12 UNL     1     -49.514 -33.106 146.351  1.00  0.00     0.208 HD
BRANCH  27  32
HETATM   32  C18 UNL     1     -48.304 -37.076 148.031  1.00  0.00     0.079 A 
HETATM   33  C19 UNL     1     -49.171 -38.161 148.016  1.00  0.00     0.122 A 
HETATM   34  N9  UNL     1     -48.745 -39.016 148.941  1.00  0.00    -0.344 N 
HETATM   35  C20 UNL     1     -47.639 -38.543 149.561  1.00  0.00     0.151 A 
ATOM     36  H9  UNL     1     -49.191 -39.908 149.155  1.00  0.00     0.167 HD
HETATM   37  N10 UNL     1     -47.408 -37.350 148.966  1.00  0.00    -0.333 N 
ATOM     38  H10 UNL     1     -46.633 -36.733 149.210  1.00  0.00     0.168 HD
BRANCH  35  39
HETATM   39  S1  UNL     1     -46.669 -39.272 150.870  1.00  0.00    -0.025 SA
BRANCH  39  40
HETATM   40  C21 UNL     1     -47.006 -41.020 150.936  1.00  0.00     0.312 C 
HETATM   41  O8  UNL     1     -47.820 -41.483 150.174  1.00  0.00    -0.295 OA
ENDBRANCH  39  40
ENDBRANCH  35  39
ENDBRANCH  27  32
ENDBRANCH   7  25
BRANCH   4  42
HETATM   42  N7  UNL     1     -45.618 -32.249 141.833  1.00  0.00    -0.366 N 
ATOM     43  H7  UNL     1     -45.671 -33.085 141.252  1.00  0.00     0.161 HD
BRANCH  42  44
HETATM   44  C8  UNL     1     -44.395 -31.537 141.844  1.00  0.00     0.166 C 
BRANCH  44  45
HETATM   45  C9  UNL     1     -44.256 -30.385 140.905  1.00  0.00     0.278 C 
BRANCH  45  46
HETATM   46  O2  UNL     1     -42.976 -29.783 140.981  1.00  0.00    -0.369 OA
ATOM     47  H2  UNL     1     -42.806 -29.205 140.246  1.00  0.00     0.212 HD
ENDBRANCH  45  46
BRANCH  45  48
HETATM   48  O3  UNL     1     -45.130 -29.308 141.215  1.00  0.00    -0.369 OA
ATOM     49  H3  UNL     1     -44.670 -28.529 141.506  1.00  0.00     0.212 HD
ENDBRANCH  45  48
ENDBRANCH  44  45
BRANCH  44  50
HETATM   50  C10 UNL     1     -43.260 -32.553 141.659  1.00  0.00     0.147 C 
BRANCH  50  51
HETATM   51  O4  UNL     1     -42.864 -32.653 140.353  1.00  0.00    -0.393 OA
ATOM     52  H4  UNL     1     -42.135 -33.251 140.244  1.00  0.00     0.210 HD
ENDBRANCH  50  51
BRANCH  50  53
HETATM   53  C11 UNL     1     -42.234 -32.584 142.709  1.00  0.00     0.060 C 
BRANCH  53  54
HETATM   54  C12 UNL     1     -40.866 -32.472 142.001  1.00  0.00     0.166 C 
BRANCH  54  55
HETATM   55  O5  UNL     1     -40.640 -31.158 141.621  1.00  0.00    -0.401 OA
ATOM     56  H5  UNL     1     -39.861 -30.828 142.052  1.00  0.00     0.209 HD
ENDBRANCH  54  55
ENDBRANCH  53  54
ENDBRANCH  50  53
ENDBRANCH  44  50
ENDBRANCH  42  44
ENDBRANCH   4  42
BRANCH   6  57
HETATM   57  O7  UNL     1     -49.648 -34.075 143.301  1.00  0.00    -0.390 OA
ATOM     58  H7  UNL     1     -50.516 -33.716 143.443  1.00  0.00     0.210 HD
ENDBRANCH   6  57
BRANCH   5  59
HETATM   59  O6  UNL     1     -48.980 -31.868 141.633  1.00  0.00    -0.385 OA
ATOM     60  H6  UNL     1     -49.819 -32.310 141.575  1.00  0.00     0.210 HD
ENDBRANCH   5  59
TORSDOF 18
ENDMDL
MODEL 3
REMARK VINA RESULT: -6.913950637      4.509      7.895
REMARK  18 active torsions:
REMARK  status: ('A' for Active; 'I' for Inactive)
REMARK    1  A    between atoms: N5_15  and  C6_16 
REMARK    2  A    between atoms: C6_16  and  O1_17 
REMARK    3  A    between atoms: C7_21  and  N7_22 
REMARK    4  A    between atoms: N7_22  and  C8_24 
REMARK    5  A    between atoms: C8_24  and  C9_25 
REMARK    6  A    between atoms: C8_24  and  C10_30 
REMARK    7  A    between atoms: C9_25  and  O2_26 
REMARK    8  A    between atoms: C9_25  and  O3_28 
REMARK    9  A    between atoms: C10_30  and  O4_31 
REMARK   10  A    between atoms: C10_30  and  C11_33 
REMARK   11  A    between atoms: C11_33  and  C12_34 
REMARK   12  A    between atoms: C12_34  and  O5_35 
REMARK   13  A    between atoms: C13_37  and  O6_38 
REMARK   14  A    between atoms: C14_40  and  O7_41 
REMARK   15  A    between atoms: C15_43  and  N8_44 
REMARK   16  A    between atoms: C17_46  and  C18_47 
REMARK   17  A    between atoms: C20_51  and  S1_52 
REMARK   18  A    between atoms: S1_52  and  C21_53 
ROOT
HETATM    1  C6  UNL     1     -46.390 -32.177 144.339  1.00  0.00     0.249 C 
HETATM    2  N6  UNL     1     -47.422 -31.699 143.555  1.00  0.00    -0.326 N 
ATOM      3  H6  UNL     1     -47.442 -30.715 143.287  1.00  0.00     0.165 HD
HETATM    4  C7  UNL     1     -48.474 -32.588 143.115  1.00  0.00     0.109 C 
HETATM    5  C13 UNL     1     -48.654 -33.826 143.851  1.00  0.00     0.216 C 
HETATM    6  C14 UNL     1     -47.635 -34.092 144.981  1.00  0.00     0.185 C 
HETATM    7  C15 UNL     1     -46.299 -33.709 144.387  1.00  0.00     0.219 C 
ENDROOT
BRANCH   1   8
HETATM    8  N5  UNL     1     -45.048 -31.671 144.053  1.00  0.00    -0.274 N 
HETATM    9  C3  UNL     1     -44.332 -31.916 142.941  1.00  0.00     0.144 A 
HETATM   10  N3  UNL     1     -44.573 -32.623 141.829  1.00  0.00    -0.336 N 
HETATM   11  C4  UNL     1     -43.122 -31.279 143.046  1.00  0.00     0.122 A 
HETATM   12  C2  UNL     1     -43.680 -32.723 140.832  1.00  0.00     0.183 A 
ATOM     13  H3  UNL     1     -45.469 -33.103 141.736  1.00  0.00     0.168 HD
HETATM   14  N2  UNL     1     -42.494 -32.095 140.942  1.00  0.00    -0.337 N 
HETATM   15  C1  UNL     1     -42.168 -31.364 142.023  1.00  0.00     0.131 A 
ATOM     16  H2  UNL     1     -41.820 -32.177 140.180  1.00  0.00     0.168 HD
HETATM   17  N1  UNL     1     -41.035 -30.765 142.132  1.00  0.00    -0.383 N 
ATOM     18  H12 UNL     1     -40.341 -30.827 141.388  1.00  0.00     0.157 HD
ATOM     19  H11 UNL     1     -40.788 -30.211 142.952  1.00  0.00     0.157 HD
HETATM   20  N4  UNL     1     -43.146 -30.664 144.228  1.00  0.00    -0.346 N 
HETATM   21  C5  UNL     1     -44.310 -30.898 144.841  1.00  0.00     0.190 A 
ATOM     22  H4  UNL     1     -42.387 -30.097 144.609  1.00  0.00     0.167 HD
ENDBRANCH   1   8
BRANCH   1  23
HETATM   23  O1  UNL     1     -46.656 -31.818 145.681  1.00  0.00    -0.352 OA
ATOM     24  H1  UNL     1     -47.560 -32.062 145.837  1.00  0.00     0.214 HD
ENDBRANCH   1  23
BRANCH   7  25
HETATM   25  N8  UNL     1     -45.193 -34.092 145.208  1.00  0.00    -0.273 N 
HETATM   26  C16 UNL     1     -45.048 -33.885 146.510  1.00  0.00     0.145 A 
HETATM   27  C17 UNL     1     -43.837 -34.399 146.886  1.00  0.00     0.094 A 
HETATM   28  N11 UNL     1     -43.270 -34.912 145.783  1.00  0.00    -0.283 N 
HETATM   29  N12 UNL     1     -44.113 -34.711 144.789  1.00  0.00    -0.240 N 
ATOM     30  H11 UNL     1     -42.361 -35.371 145.725  1.00  0.00     0.188 HD
ATOM     31  H12 UNL     1     -43.947 -34.997 143.824  1.00  0.00     0.208 HD
BRANCH  27  32
HETATM   32  C18 UNL     1     -43.209 -34.413 148.201  1.00  0.00     0.079 A 
HETATM   33  C19 UNL     1     -43.568 -33.655 149.308  1.00  0.00     0.122 A 
HETATM   34  N9  UNL     1     -42.733 -33.979 150.292  1.00  0.00    -0.344 N 
HETATM   35  C20 UNL     1     -41.846 -34.914 149.882  1.00  0.00     0.151 A 
ATOM     36  H9  UNL     1     -42.759 -33.577 151.229  1.00  0.00     0.167 HD
HETATM   37  N10 UNL     1     -42.180 -35.148 148.591  1.00  0.00    -0.333 N 
ATOM     38  H10 UNL     1     -41.695 -35.813 147.989  1.00  0.00     0.168 HD
BRANCH  35  39
HETATM   39  S1  UNL     1     -40.516 -35.694 150.782  1.00  0.00    -0.025 SA
BRANCH  39  40
HETATM   40  C21 UNL     1     -40.430 -37.411 150.315  1.00  0.00     0.312 C 
HETATM   41  O8  UNL     1     -40.251 -37.688 149.153  1.00  0.00    -0.295 OA
ENDBRANCH  39  40
ENDBRANCH  35  39
ENDBRANCH  27  32
ENDBRANCH   7  25
BRANCH   4  42
HETATM   42  N7  UNL     1     -48.449 -32.603 141.716  1.00  0.00    -0.366 N 
ATOM     43  H7  UNL     1     -47.572 -32.860 141.264  1.00  0.00     0.161 HD
BRANCH  42  44
HETATM   44  C8  UNL     1     -49.547 -32.289 140.881  1.00  0.00     0.166 C 
BRANCH  44  45
HETATM   45  C9  UNL     1     -50.519 -33.379 140.577  1.00  0.00     0.278 C 
BRANCH  45  46
HETATM   46  O2  UNL     1     -51.426 -33.018 139.549  1.00  0.00    -0.369 OA
ATOM     47  H2  UNL     1     -51.022 -33.039 138.689  1.00  0.00     0.212 HD
ENDBRANCH  45  46
BRANCH  45  48
HETATM   48  O3  UNL     1     -51.381 -33.674 141.667  1.00  0.00    -0.369 OA
ATOM     49  H3  UNL     1     -50.997 -33.466 142.511  1.00  0.00     0.212 HD
ENDBRANCH  45  48
ENDBRANCH  44  45
BRANCH  44  50
HETATM   50  C10 UNL     1     -48.993 -31.655 139.598  1.00  0.00     0.147 C 
BRANCH  50  51
HETATM   51  O4  UNL     1     -49.905 -30.836 138.991  1.00  0.00    -0.393 OA
ATOM     52  H4  UNL     1     -49.883 -29.954 139.340  1.00  0.00     0.210 HD
ENDBRANCH  50  51
BRANCH  50  53
HETATM   53  C11 UNL     1     -47.585 -31.237 139.632  1.00  0.00     0.060 C 
BRANCH  53  54
HETATM   54  C12 UNL     1     -47.569 -29.759 140.080  1.00  0.00     0.166 C 
BRANCH  54  55
HETATM   55  O5  UNL     1     -47.089 -29.667 141.378  1.00  0.00    -0.401 OA
ATOM     56  H5  UNL     1     -46.222 -29.281 141.374  1.00  0.00     0.209 HD
ENDBRANCH  54  55
ENDBRANCH  53  54
ENDBRANCH  50  53
ENDBRANCH  44  50
ENDBRANCH  42  44
ENDBRANCH   4  42
BRANCH   6  57
HETATM   57  O7  UNL     1     -47.703 -35.428 145.349  1.00  0.00    -0.390 OA
ATOM     58  H7  UNL     1     -48.615 -35.679 145.439  1.00  0.00     0.210 HD
ENDBRANCH   6  57
BRANCH   5  59
HETATM   59  O6  UNL     1     -49.953 -33.938 144.444  1.00  0.00    -0.385 OA
ATOM     60  H6  UNL     1     -50.263 -33.120 144.815  1.00  0.00     0.210 HD
ENDBRANCH   5  59
TORSDOF 18
ENDMDL
MODEL 4
REMARK VINA RESULT: -6.898351407      5.091      9.060
REMARK  18 active torsions:
REMARK  status: ('A' for Active; 'I' for Inactive)
REMARK    1  A    between atoms: N5_15  and  C6_16 
REMARK    2  A    between atoms: C6_16  and  O1_17 
REMARK    3  A    between atoms: C7_21  and  N7_22 
REMARK    4  A    between atoms: N7_22  and  C8_24 
REMARK    5  A    between atoms: C8_24  and  C9_25 
REMARK    6  A    between atoms: C8_24  and  C10_30 
REMARK    7  A    between atoms: C9_25  and  O2_26 
REMARK    8  A    between atoms: C9_25  and  O3_28 
REMARK    9  A    between atoms: C10_30  and  O4_31 
REMARK   10  A    between atoms: C10_30  and  C11_33 
REMARK   11  A    between atoms: C11_33  and  C12_34 
REMARK   12  A    between atoms: C12_34  and  O5_35 
REMARK   13  A    between atoms: C13_37  and  O6_38 
REMARK   14  A    between atoms: C14_40  and  O7_41 
REMARK   15  A    between atoms: C15_43  and  N8_44 
REMARK   16  A    between atoms: C17_46  and  C18_47 
REMARK   17  A    between atoms: C20_51  and  S1_52 
REMARK   18  A    between atoms: S1_52  and  C21_53 
ROOT
HETATM    1  C6  UNL     1     -46.405 -32.920 144.663  1.00  0.00     0.249 C 
HETATM    2  N6  UNL     1     -45.189 -33.093 144.030  1.00  0.00    -0.326 N 
ATOM      3  H6  UNL     1     -45.046 -33.895 143.417  1.00  0.00     0.165 HD
HETATM    4  C7  UNL     1     -44.120 -32.142 144.236  1.00  0.00     0.109 C 
HETATM    5  C13 UNL     1     -44.195 -31.295 145.412  1.00  0.00     0.216 C 
HETATM    6  C14 UNL     1     -45.467 -31.453 146.275  1.00  0.00     0.185 C 
HETATM    7  C15 UNL     1     -46.598 -31.525 145.275  1.00  0.00     0.219 C 
ENDROOT
BRANCH   1   8
HETATM    8  N5  UNL     1     -47.607 -33.225 143.889  1.00  0.00    -0.274 N 
HETATM    9  C3  UNL     1     -47.938 -32.690 142.701  1.00  0.00     0.144 A 
HETATM   10  N3  UNL     1     -47.345 -31.797 141.897  1.00  0.00    -0.336 N 
HETATM   11  C4  UNL     1     -49.140 -33.216 142.299  1.00  0.00     0.122 A 
HETATM   12  C2  UNL     1     -47.885 -31.409 140.731  1.00  0.00     0.183 A 
ATOM     13  H3  UNL     1     -46.451 -31.396 142.182  1.00  0.00     0.168 HD
HETATM   14  N2  UNL     1     -49.064 -31.929 140.343  1.00  0.00    -0.337 N 
HETATM   15  C1  UNL     1     -49.728 -32.832 141.087  1.00  0.00     0.131 A 
ATOM     16  H2  UNL     1     -49.468 -31.629 139.455  1.00  0.00     0.168 HD
HETATM   17  N1  UNL     1     -50.857 -33.329 140.720  1.00  0.00    -0.383 N 
ATOM     18  H12 UNL     1     -51.286 -33.049 139.838  1.00  0.00     0.157 HD
ATOM     19  H11 UNL     1     -51.361 -34.013 141.285  1.00  0.00     0.157 HD
HETATM   20  N4  UNL     1     -49.499 -34.060 143.265  1.00  0.00    -0.346 N 
HETATM   21  C5  UNL     1     -48.574 -34.069 144.230  1.00  0.00     0.190 A 
ATOM     22  H4  UNL     1     -50.353 -34.617 143.269  1.00  0.00     0.167 HD
ENDBRANCH   1   8
BRANCH   1  23
HETATM   23  O1  UNL     1     -46.442 -33.783 145.784  1.00  0.00    -0.352 OA
ATOM     24  H1  UNL     1     -47.360 -33.867 146.012  1.00  0.00     0.214 HD
ENDBRANCH   1  23
BRANCH   7  25
HETATM   25  N8  UNL     1     -47.888 -31.452 145.886  1.00  0.00    -0.273 N 
HETATM   26  C16 UNL     1     -48.911 -30.692 145.520  1.00  0.00     0.145 A 
HETATM   27  C17 UNL     1     -49.942 -30.925 146.388  1.00  0.00     0.094 A 
HETATM   28  N11 UNL     1     -49.511 -31.836 147.273  1.00  0.00    -0.283 N 
HETATM   29  N12 UNL     1     -48.269 -32.133 146.944  1.00  0.00    -0.240 N 
ATOM     30  H11 UNL     1     -50.042 -32.225 148.052  1.00  0.00     0.188 HD
ATOM     31  H12 UNL     1     -47.683 -32.803 147.443  1.00  0.00     0.208 HD
BRANCH  27  32
HETATM   32  C18 UNL     1     -51.273 -30.331 146.420  1.00  0.00     0.079 A 
HETATM   33  C19 UNL     1     -51.679 -29.154 145.805  1.00  0.00     0.122 A 
HETATM   34  N9  UNL     1     -52.967 -28.986 146.093  1.00  0.00    -0.344 N 
HETATM   35  C20 UNL     1     -53.423 -29.997 146.868  1.00  0.00     0.151 A 
ATOM     36  H9  UNL     1     -53.534 -28.200 145.774  1.00  0.00     0.167 HD
HETATM   37  N10 UNL     1     -52.345 -30.798 147.040  1.00  0.00    -0.333 N 
ATOM     38  H10 UNL     1     -52.358 -31.661 147.583  1.00  0.00     0.168 HD
BRANCH  35  39
HETATM   39  S1  UNL     1     -55.053 -30.268 147.542  1.00  0.00    -0.025 SA
BRANCH  39  40
HETATM   40  C21 UNL     1     -56.260 -29.544 146.450  1.00  0.00     0.312 C 
HETATM   41  O8  UNL     1     -55.893 -29.122 145.379  1.00  0.00    -0.295 OA
ENDBRANCH  39  40
ENDBRANCH  35  39
ENDBRANCH  27  32
ENDBRANCH   7  25
BRANCH   4  42
HETATM   42  N7  UNL     1     -43.813 -31.583 142.990  1.00  0.00    -0.366 N 
ATOM     43  H7  UNL     1     -44.480 -30.919 142.596  1.00  0.00     0.161 HD
BRANCH  42  44
HETATM   44  C8  UNL     1     -42.652 -31.869 142.235  1.00  0.00     0.166 C 
BRANCH  44  45
HETATM   45  C9  UNL     1     -42.742 -32.949 141.209  1.00  0.00     0.278 C 
BRANCH  45  46
HETATM   46  O2  UNL     1     -43.242 -34.160 141.749  1.00  0.00    -0.369 OA
ATOM     47  H2  UNL     1     -42.778 -34.920 141.416  1.00  0.00     0.212 HD
ENDBRANCH  45  46
BRANCH  45  48
HETATM   48  O3  UNL     1     -41.474 -33.333 140.695  1.00  0.00    -0.369 OA
ATOM     49  H3  UNL     1     -40.754 -33.094 141.267  1.00  0.00     0.212 HD
ENDBRANCH  45  48
ENDBRANCH  44  45
BRANCH  44  50
HETATM   50  C10 UNL     1     -41.503 -32.123 143.220  1.00  0.00     0.147 C 
BRANCH  50  51
HETATM   51  O4  UNL     1     -41.257 -33.457 143.393  1.00  0.00    -0.393 OA
ATOM     52  H4  UNL     1     -41.462 -33.749 144.273  1.00  0.00     0.210 HD
ENDBRANCH  50  51
BRANCH  50  53
HETATM   53  C11 UNL     1     -40.361 -31.202 143.143  1.00  0.00     0.060 C 
BRANCH  53  54
HETATM   54  C12 UNL     1     -40.154 -30.627 144.561  1.00  0.00     0.166 C 
BRANCH  54  55
HETATM   55  O5  UNL     1     -40.361 -31.620 145.506  1.00  0.00    -0.401 OA
ATOM     56  H5  UNL     1     -39.598 -31.696 146.066  1.00  0.00     0.209 HD
ENDBRANCH  54  55
ENDBRANCH  53  54
ENDBRANCH  50  53
ENDBRANCH  44  50
ENDBRANCH  42  44
ENDBRANCH   4  42
BRANCH   6  57
HETATM   57  O7  UNL     1     -45.570 -30.369 147.134  1.00  0.00    -0.390 OA
ATOM     58  H7  UNL     1     -46.033 -29.666 146.693  1.00  0.00     0.210 HD
ENDBRANCH   6  57
BRANCH   5  59
HETATM   59  O6  UNL     1     -43.082 -31.470 146.298  1.00  0.00    -0.385 OA
ATOM     60  H6  UNL     1     -43.204 -32.189 146.908  1.00  0.00     0.210 HD
ENDBRANCH   5  59
TORSDOF 18
ENDMDL
MODEL 5
REMARK VINA RESULT: -6.767994598      4.809      8.781
REMARK  18 active torsions:
REMARK  status: ('A' for Active; 'I' for Inactive)
REMARK    1  A    between atoms: N5_15  and  C6_16 
REMARK    2  A    between atoms: C6_16  and  O1_17 
REMARK    3  A    between atoms: C7_21  and  N7_22 
REMARK    4  A    between atoms: N7_22  and  C8_24 
REMARK    5  A    between atoms: C8_24  and  C9_25 
REMARK    6  A    between atoms: C8_24  and  C10_30 
REMARK    7  A    between atoms: C9_25  and  O2_26 
REMARK    8  A    between atoms: C9_25  and  O3_28 
REMARK    9  A    between atoms: C10_30  and  O4_31 
REMARK   10  A    between atoms: C10_30  and  C11_33 
REMARK   11  A    between atoms: C11_33  and  C12_34 
REMARK   12  A    between atoms: C12_34  and  O5_35 
REMARK   13  A    between atoms: C13_37  and  O6_38 
REMARK   14  A    between atoms: C14_40  and  O7_41 
REMARK   15  A    between atoms: C15_43  and  N8_44 
REMARK   16  A    between atoms: C17_46  and  C18_47 
REMARK   17  A    between atoms: C20_51  and  S1_52 
REMARK   18  A    between atoms: S1_52  and  C21_53 
ROOT
HETATM    1  C6  UNL     1     -46.955 -33.309 145.240  1.00  0.00     0.249 C 
HETATM    2  N6  UNL     1     -45.709 -33.744 144.833  1.00  0.00    -0.326 N 
ATOM      3  H6  UNL     1     -45.620 -34.617 144.313  1.00  0.00     0.165 HD
HETATM    4  C7  UNL     1     -44.530 -32.967 145.143  1.00  0.00     0.109 C 
HETATM    5  C13 UNL     1     -44.629 -32.004 146.224  1.00  0.00     0.216 C 
HETATM    6  C14 UNL     1     -46.024 -31.861 146.873  1.00  0.00     0.185 C 
HETATM    7  C15 UNL     1     -46.985 -31.846 145.706  1.00  0.00     0.219 C 
ENDROOT
BRANCH   1   8
HETATM    8  N5  UNL     1     -48.062 -33.488 144.301  1.00  0.00    -0.274 N 
HETATM    9  C3  UNL     1     -48.157 -32.937 143.079  1.00  0.00     0.144 A 
HETATM   10  N3  UNL     1     -47.358 -32.127 142.369  1.00  0.00    -0.336 N 
HETATM   11  C4  UNL     1     -49.341 -33.330 142.508  1.00  0.00     0.122 A 
HETATM   12  C2  UNL     1     -47.679 -31.699 141.139  1.00  0.00     0.183 A 
ATOM     13  H3  UNL     1     -46.474 -31.826 142.780  1.00  0.00     0.168 HD
HETATM   14  N2  UNL     1     -48.842 -32.089 140.585  1.00  0.00    -0.337 N 
HETATM   15  C1  UNL     1     -49.703 -32.900 141.225  1.00  0.00     0.131 A 
ATOM     16  H2  UNL     1     -49.078 -31.758 139.649  1.00  0.00     0.168 HD
HETATM   17  N1  UNL     1     -50.817 -33.272 140.699  1.00  0.00    -0.383 N 
ATOM     18  H12 UNL     1     -51.082 -32.959 139.765  1.00  0.00     0.157 HD
ATOM     19  H11 UNL     1     -51.471 -33.887 141.185  1.00  0.00     0.157 HD
HETATM   20  N4  UNL     1     -49.927 -34.114 143.412  1.00  0.00    -0.346 N 
HETATM   21  C5  UNL     1     -49.156 -34.213 144.498  1.00  0.00     0.190 A 
ATOM     22  H4  UNL     1     -50.831 -34.572 143.291  1.00  0.00     0.167 HD
ENDBRANCH   1   8
BRANCH   1  23
HETATM   23  O1  UNL     1     -47.316 -34.035 146.400  1.00  0.00    -0.352 OA
ATOM     24  H1  UNL     1     -48.080 -33.593 146.751  1.00  0.00     0.214 HD
ENDBRANCH   1  23
BRANCH   7  25
HETATM   25  N8  UNL     1     -48.319 -31.499 146.087  1.00  0.00    -0.273 N 
HETATM   26  C16 UNL     1     -49.103 -30.585 145.531  1.00  0.00     0.145 A 
HETATM   27  C17 UNL     1     -50.286 -30.571 146.217  1.00  0.00     0.094 A 
HETATM   28  N11 UNL     1     -50.187 -31.492 147.187  1.00  0.00    -0.283 N 
HETATM   29  N12 UNL     1     -48.989 -32.034 147.082  1.00  0.00    -0.240 N 
ATOM     30  H11 UNL     1     -50.903 -31.729 147.875  1.00  0.00     0.188 HD
ATOM     31  H12 UNL     1     -48.632 -32.769 147.692  1.00  0.00     0.208 HD
BRANCH  27  32
HETATM   32  C18 UNL     1     -51.465 -29.740 146.006  1.00  0.00     0.079 A 
HETATM   33  C19 UNL     1     -51.505 -28.356 145.898  1.00  0.00     0.122 A 
HETATM   34  N9  UNL     1     -52.777 -28.014 145.713  1.00  0.00    -0.344 N 
HETATM   35  C20 UNL     1     -53.572 -29.109 145.694  1.00  0.00     0.151 A 
ATOM     36  H9  UNL     1     -53.109 -27.056 145.600  1.00  0.00     0.167 HD
HETATM   37  N10 UNL     1     -52.719 -30.144 145.877  1.00  0.00    -0.333 N 
ATOM     38  H10 UNL     1     -53.008 -31.121 145.911  1.00  0.00     0.168 HD
BRANCH  35  39
HETATM   39  S1  UNL     1     -55.340 -29.227 145.486  1.00  0.00    -0.025 SA
BRANCH  39  40
HETATM   40  C21 UNL     1     -55.929 -30.671 146.348  1.00  0.00     0.312 C 
HETATM   41  O8  UNL     1     -55.216 -31.182 147.178  1.00  0.00    -0.295 OA
ENDBRANCH  39  40
ENDBRANCH  35  39
ENDBRANCH  27  32
ENDBRANCH   7  25
BRANCH   4  42
HETATM   42  N7  UNL     1     -43.943 -32.596 143.928  1.00  0.00    -0.366 N 
ATOM     43  H7  UNL     1     -43.841 -31.599 143.740  1.00  0.00     0.161 HD
BRANCH  42  44
HETATM   44  C8  UNL     1     -43.481 -33.497 142.940  1.00  0.00     0.166 C 
BRANCH  44  45
HETATM   45  C9  UNL     1     -42.453 -34.501 143.346  1.00  0.00     0.278 C 
BRANCH  45  46
HETATM   46  O2  UNL     1     -42.683 -35.771 142.758  1.00  0.00    -0.369 OA
ATOM     47  H2  UNL     1     -41.967 -36.375 142.916  1.00  0.00     0.212 HD
ENDBRANCH  45  46
BRANCH  45  48
HETATM   48  O3  UNL     1     -42.477 -34.789 144.737  1.00  0.00    -0.369 OA
ATOM     49  H3  UNL     1     -42.630 -34.019 145.273  1.00  0.00     0.212 HD
ENDBRANCH  45  48
ENDBRANCH  44  45
BRANCH  44  50
HETATM   50  C10 UNL     1     -43.015 -32.672 141.734  1.00  0.00     0.147 C 
BRANCH  50  51
HETATM   51  O4  UNL     1     -42.177 -33.379 140.917  1.00  0.00    -0.393 OA
ATOM     52  H4  UNL     1     -41.264 -33.248 141.140  1.00  0.00     0.210 HD
ENDBRANCH  50  51
BRANCH  50  53
HETATM   53  C11 UNL     1     -44.018 -31.791 141.120  1.00  0.00     0.060 C 
BRANCH  53  54
HETATM   54  C12 UNL     1     -43.379 -30.390 141.017  1.00  0.00     0.166 C 
BRANCH  54  55
HETATM   55  O5  UNL     1     -42.011 -30.510 140.825  1.00  0.00    -0.401 OA
ATOM     56  H5  UNL     1     -41.838 -31.065 140.074  1.00  0.00     0.209 HD
ENDBRANCH  54  55
ENDBRANCH  53  54
ENDBRANCH  50  53
ENDBRANCH  44  50
ENDBRANCH  42  44
ENDBRANCH   4  42
BRANCH   6  57
HETATM   57  O7  UNL     1     -46.059 -30.692 147.620  1.00  0.00    -0.390 OA
ATOM     58  H7  UNL     1     -46.932 -30.320 147.572  1.00  0.00     0.210 HD
ENDBRANCH   6  57
BRANCH   5  59
HETATM   59  O6  UNL     1     -43.712 -32.270 147.294  1.00  0.00    -0.385 OA
ATOM     60  H6  UNL     1     -43.167 -33.031 147.133  1.00  0.00     0.210 HD
ENDBRANCH   5  59
TORSDOF 18
ENDMDL
