MODEL 1
REMARK VINA RESULT: -7.588725329      0.000      0.000
REMARK  3 active torsions:
REMARK  status: ('A' for Active; 'I' for Inactive)
REMARK    1  A    between atoms: C3_7  and  C4_8 
REMARK       I    between atoms: C4_8  and  N3_10 
REMARK    2  A    between atoms: C11_21  and  C12_22 
REMARK    3  A    between atoms: C15_31  and  N9_32 
ROOT
HETATM    1  C1  UNL     1      17.768   2.189   8.687  1.00  0.00     0.165 C 
HETATM    2  N1  UNL     1      16.834   2.641   9.695  1.00  0.00    -0.230 N 
ATOM      3  H1  UNL     1      15.831   2.509   9.564  1.00  0.00     0.177 HD
HETATM    4  C2  UNL     1      17.290   3.222  10.776  1.00  0.00     0.679 A 
HETATM    5  N2  UNL     1      16.425   3.642  11.713  1.00  0.00    -0.185 N 
ATOM      6  H2  UNL     1      15.421   3.512  11.588  1.00  0.00     0.184 HD
HETATM    7  C3  UNL     1      16.910   4.246  12.837  1.00  0.00     0.135 A 
HETATM    8  C11 UNL     1      18.256   4.432  13.028  1.00  0.00     0.086 A 
HETATM    9  C15 UNL     1      19.110   3.978  12.025  1.00  0.00     0.131 A 
HETATM   10  N10 UNL     1      18.601   3.380  10.918  1.00  0.00    -0.176 N 
ATOM     11  H10 UNL     1      19.231   3.049  10.188  1.00  0.00     0.186 HD
ENDROOT
BRANCH   7  12
HETATM   12  C4  UNL     1      15.953   4.688  13.831  1.00  0.00     0.275 C 
HETATM   13  O1  UNL     1      15.399   3.817  14.557  1.00  0.00    -0.266 OA
HETATM   14  N3  UNL     1      15.636   6.037  14.005  1.00  0.00    -0.306 N 
HETATM   15  C5  UNL     1      14.790   6.772  13.418  1.00  0.00     0.132 A 
ATOM     16  H3  UNL     1      16.179   6.510  14.727  1.00  0.00     0.170 HD
HETATM   17  C6  UNL     1      14.598   8.136  13.724  1.00  0.00     0.007 A 
HETATM   18  N5  UNL     1      13.932   6.469  12.437  1.00  0.00    -0.280 N 
HETATM   19  C7  UNL     1      15.361   8.875  14.768  1.00  0.00     0.054 C 
HETATM   20  C8  UNL     1      13.611   8.610  12.899  1.00  0.00     0.032 A 
HETATM   21  C9  UNL     1      13.078  10.011  12.874  1.00  0.00     0.070 C 
HETATM   22  N4  UNL     1      13.240   7.576  12.143  1.00  0.00    -0.301 N 
ATOM     23  H4  UNL     1      12.516   7.623  11.427  1.00  0.00     0.187 HD
HETATM   24  C10 UNL     1      13.732   5.175  11.760  1.00  0.00     0.179 C 
ENDBRANCH   7  12
BRANCH   8  25
HETATM   25  C12 UNL     1      18.844   5.062  14.193  1.00  0.00     0.140 A 
HETATM   26  N6  UNL     1      19.120   6.381  14.406  1.00  0.00    -0.316 N 
HETATM   27  C13 UNL     1      19.673   6.572  15.601  1.00  0.00     0.195 A 
ATOM     28  H6  UNL     1      18.928   7.125  13.735  1.00  0.00     0.170 HD
HETATM   29 CL1  UNL     1      20.204   8.075  16.334  1.00  0.00    -0.043 Cl
HETATM   30  N7  UNL     1      19.758   5.364  16.173  1.00  0.00    -0.272 N 
HETATM   31  N8  UNL     1      19.267   4.460  15.342  1.00  0.00    -0.278 N 
ATOM     32  H7  UNL     1      20.139   5.173  17.099  1.00  0.00     0.189 HD
HETATM   33  C14 UNL     1      19.206   3.060  15.635  1.00  0.00     0.179 C 
ENDBRANCH   8  25
BRANCH   9  34
HETATM   34  N9  UNL     1      20.379   4.104  12.110  1.00  0.00    -0.384 N 
ATOM     35  H92 UNL     1      20.851   4.676  11.410  1.00  0.00     0.157 HD
ATOM     36  H91 UNL     1      20.919   3.652  12.848  1.00  0.00     0.157 HD
ENDBRANCH   9  34
TORSDOF 3
ENDMDL
MODEL 2
REMARK VINA RESULT: -7.483979392      3.038      7.040
REMARK  3 active torsions:
REMARK  status: ('A' for Active; 'I' for Inactive)
REMARK    1  A    between atoms: C3_7  and  C4_8 
REMARK       I    between atoms: C4_8  and  N3_10 
REMARK    2  A    between atoms: C11_21  and  C12_22 
REMARK    3  A    between atoms: C15_31  and  N9_32 
ROOT
HETATM    1  C1  UNL     1      14.212  10.229  16.647  1.00  0.00     0.165 C 
HETATM    2  N1  UNL     1      15.354   9.450  16.223  1.00  0.00    -0.230 N 
ATOM      3  H1  UNL     1      16.247   9.537  16.708  1.00  0.00     0.177 HD
HETATM    4  C2  UNL     1      15.229   8.632  15.208  1.00  0.00     0.679 A 
HETATM    5  N2  UNL     1      16.288   7.907  14.812  1.00  0.00    -0.185 N 
ATOM      6  H2  UNL     1      17.183   7.990  15.294  1.00  0.00     0.184 HD
HETATM    7  C3  UNL     1      16.147   7.056  13.753  1.00  0.00     0.135 A 
HETATM    8  C11 UNL     1      14.953   6.927  13.090  1.00  0.00     0.086 A 
HETATM    9  C15 UNL     1      13.887   7.701  13.541  1.00  0.00     0.131 A 
HETATM   10  N10 UNL     1      14.054   8.539  14.596  1.00  0.00    -0.176 N 
ATOM     11  H10 UNL     1      13.269   9.103  14.922  1.00  0.00     0.186 HD
ENDROOT
BRANCH   7  12
HETATM   12  C4  UNL     1      17.306   6.286  13.349  1.00  0.00     0.275 C 
HETATM   13  O1  UNL     1      17.414   5.958  12.136  1.00  0.00    -0.266 OA
HETATM   14  N3  UNL     1      18.294   5.904  14.260  1.00  0.00    -0.306 N 
HETATM   15  C5  UNL     1      18.372   4.903  15.028  1.00  0.00     0.132 A 
ATOM     16  H3  UNL     1      19.088   6.542  14.314  1.00  0.00     0.170 HD
HETATM   17  C6  UNL     1      19.459   4.668  15.897  1.00  0.00     0.007 A 
HETATM   18  N5  UNL     1      17.512   3.892  15.201  1.00  0.00    -0.280 N 
HETATM   19  C7  UNL     1      20.643   5.564  16.015  1.00  0.00     0.054 C 
HETATM   20  C8  UNL     1      19.206   3.502  16.571  1.00  0.00     0.032 A 
HETATM   21  C9  UNL     1      20.093   2.866  17.599  1.00  0.00     0.070 C 
HETATM   22  N4  UNL     1      18.027   3.070  16.122  1.00  0.00    -0.301 N 
ATOM     23  H4  UNL     1      17.572   2.216  16.444  1.00  0.00     0.187 HD
HETATM   24  C10 UNL     1      16.217   3.664  14.533  1.00  0.00     0.179 C 
ENDBRANCH   7  12
BRANCH   8  25
HETATM   25  C12 UNL     1      14.728   6.045  11.961  1.00  0.00     0.140 A 
HETATM   26  N6  UNL     1      14.580   4.690  11.950  1.00  0.00    -0.316 N 
HETATM   27  C13 UNL     1      14.401   4.234  10.713  1.00  0.00     0.195 A 
ATOM     28  H6  UNL     1      14.602   4.101  12.783  1.00  0.00     0.170 HD
HETATM   29 CL1  UNL     1      14.166   2.579  10.179  1.00  0.00    -0.043 Cl
HETATM   30  N7  UNL     1      14.434   5.304   9.910  1.00  0.00    -0.272 N 
HETATM   31  N8  UNL     1      14.628   6.387  10.645  1.00  0.00    -0.278 N 
ATOM     32  H7  UNL     1      14.326   5.288   8.896  1.00  0.00     0.189 HD
HETATM   33  C14 UNL     1      14.719   7.709  10.104  1.00  0.00     0.179 C 
ENDBRANCH   8  25
BRANCH   9  34
HETATM   34  N9  UNL     1      12.735   7.653  12.990  1.00  0.00    -0.384 N 
ATOM     35  H92 UNL     1      12.689   7.684  11.971  1.00  0.00     0.157 HD
ATOM     36  H91 UNL     1      11.877   7.585  13.538  1.00  0.00     0.157 HD
ENDBRANCH   9  34
TORSDOF 3
ENDMDL
MODEL 3
REMARK VINA RESULT: -7.201976025      2.990      5.163
REMARK  3 active torsions:
REMARK  status: ('A' for Active; 'I' for Inactive)
REMARK    1  A    between atoms: C3_7  and  C4_8 
REMARK       I    between atoms: C4_8  and  N3_10 
REMARK    2  A    between atoms: C11_21  and  C12_22 
REMARK    3  A    between atoms: C15_31  and  N9_32 
ROOT
HETATM    1  C1  UNL     1      19.084   0.861  16.383  1.00  0.00     0.165 C 
HETATM    2  N1  UNL     1      19.159   2.139  15.709  1.00  0.00    -0.230 N 
ATOM      3  H1  UNL     1      19.716   2.897  16.102  1.00  0.00     0.177 HD
HETATM    4  C2  UNL     1      18.502   2.310  14.589  1.00  0.00     0.679 A 
HETATM    5  N2  UNL     1      18.570   3.495  13.961  1.00  0.00    -0.185 N 
ATOM      6  H2  UNL     1      19.126   4.257  14.350  1.00  0.00     0.184 HD
HETATM    7  C3  UNL     1      17.883   3.665  12.794  1.00  0.00     0.135 A 
HETATM    8  C11 UNL     1      17.129   2.654  12.251  1.00  0.00     0.086 A 
HETATM    9  C15 UNL     1      17.093   1.445  12.942  1.00  0.00     0.131 A 
HETATM   10  N10 UNL     1      17.786   1.304  14.101  1.00  0.00    -0.176 N 
ATOM     11  H10 UNL     1      17.757   0.417  14.602  1.00  0.00     0.186 HD
ENDROOT
BRANCH   7  12
HETATM   12  C4  UNL     1      17.975   4.953  12.138  1.00  0.00     0.275 C 
HETATM   13  O1  UNL     1      19.120   5.393  11.840  1.00  0.00    -0.266 OA
HETATM   14  N3  UNL     1      16.842   5.710  11.830  1.00  0.00    -0.306 N 
HETATM   15  C5  UNL     1      16.184   6.538  12.523  1.00  0.00     0.132 A 
ATOM     16  H3  UNL     1      16.485   5.571  10.885  1.00  0.00     0.170 HD
HETATM   17  C6  UNL     1      15.046   7.223  12.047  1.00  0.00     0.007 A 
HETATM   18  N5  UNL     1      16.381   6.942  13.784  1.00  0.00    -0.280 N 
HETATM   19  C7  UNL     1      14.483   7.059  10.678  1.00  0.00     0.054 C 
HETATM   20  C8  UNL     1      14.595   8.029  13.059  1.00  0.00     0.032 A 
HETATM   21  C9  UNL     1      13.406   8.941  13.000  1.00  0.00     0.070 C 
HETATM   22  N4  UNL     1      15.426   7.828  14.083  1.00  0.00    -0.301 N 
ATOM     23  H4  UNL     1      15.342   8.295  14.986  1.00  0.00     0.187 HD
HETATM   24  C10 UNL     1      17.437   6.527  14.726  1.00  0.00     0.179 C 
ENDBRANCH   7  12
BRANCH   8  25
HETATM   25  C12 UNL     1      16.376   2.759  11.017  1.00  0.00     0.140 A 
HETATM   26  N6  UNL     1      15.083   3.154  10.834  1.00  0.00    -0.316 N 
HETATM   27  C13 UNL     1      14.741   3.108   9.549  1.00  0.00     0.195 A 
ATOM     28  H6  UNL     1      14.459   3.447  11.586  1.00  0.00     0.170 HD
HETATM   29 CL1  UNL     1      13.202   3.515   8.811  1.00  0.00    -0.043 Cl
HETATM   30  N7  UNL     1      15.823   2.678   8.889  1.00  0.00    -0.272 N 
HETATM   31  N8  UNL     1      16.800   2.468   9.755  1.00  0.00    -0.278 N 
ATOM     32  H7  UNL     1      15.883   2.536   7.880  1.00  0.00     0.189 HD
HETATM   33  C14 UNL     1      18.102   2.000   9.387  1.00  0.00     0.179 C 
ENDBRANCH   8  25
BRANCH   9  34
HETATM   34  N9  UNL     1      16.420   0.445  12.519  1.00  0.00    -0.384 N 
ATOM     35  H92 UNL     1      15.555   0.209  13.006  1.00  0.00     0.157 HD
ATOM     36  H91 UNL     1      16.726  -0.113  11.721  1.00  0.00     0.157 HD
ENDBRANCH   9  34
TORSDOF 3
ENDMDL
MODEL 4
REMARK VINA RESULT: -7.182368518      2.946      4.850
REMARK  3 active torsions:
REMARK  status: ('A' for Active; 'I' for Inactive)
REMARK    1  A    between atoms: C3_7  and  C4_8 
REMARK       I    between atoms: C4_8  and  N3_10 
REMARK    2  A    between atoms: C11_21  and  C12_22 
REMARK    3  A    between atoms: C15_31  and  N9_32 
ROOT
HETATM    1  C1  UNL     1      19.879   4.688  15.368  1.00  0.00     0.165 C 
HETATM    2  N1  UNL     1      18.525   5.183  15.252  1.00  0.00    -0.230 N 
ATOM      3  H1  UNL     1      18.161   5.853  15.929  1.00  0.00     0.177 HD
HETATM    4  C2  UNL     1      17.772   4.761  14.267  1.00  0.00     0.679 A 
HETATM    5  N2  UNL     1      16.514   5.219  14.156  1.00  0.00    -0.185 N 
ATOM      6  H2  UNL     1      16.145   5.890  14.830  1.00  0.00     0.184 HD
HETATM    7  C3  UNL     1      15.737   4.774  13.126  1.00  0.00     0.135 A 
HETATM    8  C11 UNL     1      16.211   3.873  12.206  1.00  0.00     0.086 A 
HETATM    9  C15 UNL     1      17.522   3.430  12.366  1.00  0.00     0.131 A 
HETATM   10  N10 UNL     1      18.273   3.889  13.399  1.00  0.00    -0.176 N 
ATOM     11  H10 UNL     1      19.233   3.562  13.511  1.00  0.00     0.186 HD
ENDROOT
BRANCH   7  12
HETATM   12  C4  UNL     1      14.385   5.287  13.031  1.00  0.00     0.275 C 
HETATM   13  O1  UNL     1      13.515   4.580  12.452  1.00  0.00    -0.266 OA
HETATM   14  N3  UNL     1      14.027   6.529  13.560  1.00  0.00    -0.306 N 
HETATM   15  C5  UNL     1      14.095   7.691  13.066  1.00  0.00     0.132 A 
ATOM     16  H3  UNL     1      13.645   6.492  14.505  1.00  0.00     0.170 HD
HETATM   17  C6  UNL     1      13.681   8.854  13.751  1.00  0.00     0.007 A 
HETATM   18  N5  UNL     1      14.541   8.084  11.867  1.00  0.00    -0.280 N 
HETATM   19  C7  UNL     1      13.117   8.858  15.129  1.00  0.00     0.054 C 
HETATM   20  C8  UNL     1      13.899   9.922  12.920  1.00  0.00     0.032 A 
HETATM   21  C9  UNL     1      13.606  11.359  13.233  1.00  0.00     0.070 C 
HETATM   22  N4  UNL     1      14.416   9.414  11.800  1.00  0.00    -0.301 N 
ATOM     23  H4  UNL     1      14.684   9.973  10.991  1.00  0.00     0.187 HD
HETATM   24  C10 UNL     1      15.084   7.257  10.774  1.00  0.00     0.179 C 
ENDBRANCH   7  12
BRANCH   8  25
HETATM   25  C12 UNL     1      15.448   3.357  11.087  1.00  0.00     0.140 A 
HETATM   26  N6  UNL     1      15.175   3.951   9.890  1.00  0.00    -0.316 N 
HETATM   27  C13 UNL     1      14.428   3.163   9.120  1.00  0.00     0.195 A 
ATOM     28  H6  UNL     1      15.501   4.879   9.620  1.00  0.00     0.170 HD
HETATM   29 CL1  UNL     1      13.819   3.473   7.503  1.00  0.00    -0.043 Cl
HETATM   30  N7  UNL     1      14.213   2.045   9.823  1.00  0.00    -0.272 N 
HETATM   31  N8  UNL     1      14.816   2.152  10.995  1.00  0.00    -0.278 N 
ATOM     32  H7  UNL     1      13.672   1.241   9.506  1.00  0.00     0.189 HD
HETATM   33  C14 UNL     1      14.787   1.133  12.001  1.00  0.00     0.179 C 
ENDBRANCH   8  25
BRANCH   9  34
HETATM   34  N9  UNL     1      18.056   2.592  11.563  1.00  0.00    -0.384 N 
ATOM     35  H92 UNL     1      18.231   2.892  10.604  1.00  0.00     0.157 HD
ATOM     36  H91 UNL     1      18.304   1.646  11.855  1.00  0.00     0.157 HD
ENDBRANCH   9  34
TORSDOF 3
ENDMDL
MODEL 5
REMARK VINA RESULT: -7.084663735      2.503      3.387
REMARK  3 active torsions:
REMARK  status: ('A' for Active; 'I' for Inactive)
REMARK    1  A    between atoms: C3_7  and  C4_8 
REMARK       I    between atoms: C4_8  and  N3_10 
REMARK    2  A    between atoms: C11_21  and  C12_22 
REMARK    3  A    between atoms: C15_31  and  N9_32 
ROOT
HETATM    1  C1  UNL     1      16.158   1.347   6.583  1.00  0.00     0.165 C 
HETATM    2  N1  UNL     1      15.317   2.168   7.426  1.00  0.00    -0.230 N 
ATOM      3  H1  UNL     1      14.425   2.519   7.078  1.00  0.00     0.177 HD
HETATM    4  C2  UNL     1      15.715   2.456   8.640  1.00  0.00     0.679 A 
HETATM    5  N2  UNL     1      14.936   3.219   9.425  1.00  0.00    -0.185 N 
ATOM      6  H2  UNL     1      14.043   3.572   9.082  1.00  0.00     0.184 HD
HETATM    7  C3  UNL     1      15.360   3.514  10.689  1.00  0.00     0.135 A 
HETATM    8  C11 UNL     1      16.557   3.049  11.172  1.00  0.00     0.086 A 
HETATM    9  C15 UNL     1      17.326   2.263  10.317  1.00  0.00     0.131 A 
HETATM   10  N10 UNL     1      16.882   1.985   9.065  1.00  0.00    -0.176 N 
ATOM     11  H10 UNL     1      17.449   1.408   8.444  1.00  0.00     0.186 HD
ENDROOT
BRANCH   7  12
HETATM   12  C4  UNL     1      14.498   4.337  11.513  1.00  0.00     0.275 C 
HETATM   13  O1  UNL     1      13.881   3.789  12.468  1.00  0.00    -0.266 OA
HETATM   14  N3  UNL     1      14.337   5.704  11.279  1.00  0.00    -0.306 N 
HETATM   15  C5  UNL     1      13.554   6.327  10.507  1.00  0.00     0.132 A 
ATOM     16  H3  UNL     1      14.958   6.302  11.825  1.00  0.00     0.170 HD
HETATM   17  C6  UNL     1      13.524   7.734  10.394  1.00  0.00     0.007 A 
HETATM   18  N5  UNL     1      12.628   5.851   9.665  1.00  0.00    -0.280 N 
HETATM   19  C7  UNL     1      14.406   8.653  11.166  1.00  0.00     0.054 C 
HETATM   20  C8  UNL     1      12.563   8.055   9.472  1.00  0.00     0.032 A 
HETATM   21  C9  UNL     1      12.185   9.438   9.034  1.00  0.00     0.070 C 
HETATM   22  N4  UNL     1      12.050   6.894   9.060  1.00  0.00    -0.301 N 
ATOM     23  H4  UNL     1      11.307   6.813   8.366  1.00  0.00     0.187 HD
HETATM   24  C10 UNL     1      12.261   4.447   9.404  1.00  0.00     0.179 C 
ENDBRANCH   7  12
BRANCH   8  25
HETATM   25  C12 UNL     1      17.071   3.319  12.500  1.00  0.00     0.140 A 
HETATM   26  N6  UNL     1      16.832   2.647  13.663  1.00  0.00    -0.316 N 
HETATM   27  C13 UNL     1      17.478   3.205  14.684  1.00  0.00     0.195 A 
ATOM     28  H6  UNL     1      16.236   1.823  13.740  1.00  0.00     0.170 HD
HETATM   29 CL1  UNL     1      17.492   2.716  16.369  1.00  0.00    -0.043 Cl
HETATM   30  N7  UNL     1      18.143   4.252  14.180  1.00  0.00    -0.272 N 
HETATM   31  N8  UNL     1      17.907   4.326  12.881  1.00  0.00    -0.278 N 
ATOM     32  H7  UNL     1      18.737   4.888  14.712  1.00  0.00     0.189 HD
HETATM   33  C14 UNL     1      18.461   5.334  12.028  1.00  0.00     0.179 C 
ENDBRANCH   8  25
BRANCH   9  34
HETATM   34  N9  UNL     1      18.456   1.783  10.673  1.00  0.00    -0.384 N 
ATOM     35  H92 UNL     1      19.107   1.496   9.941  1.00  0.00     0.157 HD
ATOM     36  H91 UNL     1      18.715   1.684  11.655  1.00  0.00     0.157 HD
ENDBRANCH   9  34
TORSDOF 3
ENDMDL
