MODEL 1
REMARK VINA RESULT: -9.329421217      0.000      0.000
REMARK  5 active torsions:
REMARK  status: ('A' for Active; 'I' for Inactive)
REMARK    1  A    between atoms: C2_2  and  N1_3 
REMARK    2  A    between atoms: C2_2  and  C9_27 
REMARK    3  A    between atoms: N1_3  and  C3_5 
REMARK    4  A    between atoms: C5_12  and  N4_13 
REMARK       I    between atoms: N4_13  and  C6_15 
REMARK    5  A    between atoms: C6_15  and  C7_17 
ROOT
HETATM    1  C3  UNL     1      13.622  10.825  14.068  1.00  0.00     0.695 A 
HETATM    2  N2  UNL     1      14.313  10.841  15.221  1.00  0.00    -0.165 N 
ATOM      3  H2  UNL     1      14.572  11.728  15.652  1.00  0.00     0.186 HD
HETATM    4  C4  UNL     1      14.658   9.684  15.800  1.00  0.00     0.208 A 
HETATM    5 CL1  UNL     1      15.558   9.675  17.303  1.00  0.00    -0.044 Cl
HETATM    6  N3  UNL     1      14.327   8.525  15.252  1.00  0.00    -0.164 N 
ATOM      7  H3  UNL     1      14.596   7.652  15.706  1.00  0.00     0.186 HD
HETATM    8  C5  UNL     1      13.645   8.496  14.114  1.00  0.00     0.702 A 
HETATM    9  N7  UNL     1      13.283   9.655  13.506  1.00  0.00    -0.022 N 
ATOM     10  H7  UNL     1      12.759   9.635  12.632  1.00  0.00     0.203 HD
ENDROOT
BRANCH   8  11
HETATM   11  N4  UNL     1      13.323   7.363  13.582  1.00  0.00    -0.153 N 
HETATM   12  C6  UNL     1      13.877   6.968  12.348  1.00  0.00     0.295 C 
HETATM   13  O1  UNL     1      15.035   6.495  12.235  1.00  0.00    -0.265 OA
ATOM     14  H4  UNL     1      12.662   6.749  14.059  1.00  0.00     0.187 HD
BRANCH  12  15
HETATM   15  C7  UNL     1      13.094   7.098  11.097  1.00  0.00     0.163 A 
HETATM   16  N5  UNL     1      12.249   6.238  10.557  1.00  0.00    -0.286 N 
HETATM   17  N6  UNL     1      11.659   6.518   9.465  1.00  0.00    -0.259 N 
ATOM     18  H5  UNL     1      12.069   5.347  11.018  1.00  0.00     0.188 HD
HETATM   19  C8  UNL     1      11.913   7.694   8.883  1.00  0.00     0.304 A 
ATOM     20  H6  UNL     1      11.005   5.858   9.044  1.00  0.00     0.191 HD
HETATM   21  O2  UNL     1      11.407   8.129   7.788  1.00  0.00    -0.258 OA
HETATM   22  S1  UNL     1      13.037   8.382   9.971  1.00  0.00    -0.003 SA
ENDBRANCH  12  15
ENDBRANCH   8  11
BRANCH   1  23
HETATM   23  N1  UNL     1      13.296  11.949  13.519  1.00  0.00    -0.220 N 
ATOM     24  H1  UNL     1      14.031  12.485  13.057  1.00  0.00     0.178 HD
BRANCH  23  25
HETATM   25  C2  UNL     1      11.974  12.486  13.517  1.00  0.00     0.115 C 
HETATM   26  C1  UNL     1      11.865  13.707  14.377  1.00  0.00     0.034 C 
BRANCH  25  27
HETATM   27  C9  UNL     1      11.617  12.788  12.054  1.00  0.00     0.119 C 
HETATM   28  C10 UNL     1      10.171  13.078  11.988  1.00  0.00     0.116 C 
HETATM   29  C11 UNL     1       9.671  12.815  10.623  1.00  0.00     0.203 C 
HETATM   30  O3  UNL     1       8.707  13.267  10.108  1.00  0.00    -0.284 OA
HETATM   31  S2  UNL     1      10.836  11.667   9.911  1.00  0.00     0.013 SA
HETATM   32  N8  UNL     1      11.940  11.591  11.321  1.00  0.00    -0.164 NA
ENDBRANCH  25  27
ENDBRANCH  23  25
ENDBRANCH   1  23
TORSDOF 5
ENDMDL
MODEL 2
REMARK VINA RESULT: -9.170415658      3.474      5.701
REMARK  5 active torsions:
REMARK  status: ('A' for Active; 'I' for Inactive)
REMARK    1  A    between atoms: C2_2  and  N1_3 
REMARK    2  A    between atoms: C2_2  and  C9_27 
REMARK    3  A    between atoms: N1_3  and  C3_5 
REMARK    4  A    between atoms: C5_12  and  N4_13 
REMARK       I    between atoms: N4_13  and  C6_15 
REMARK    5  A    between atoms: C6_15  and  C7_17 
ROOT
HETATM    1  C3  UNL     1      11.773   9.691   9.245  1.00  0.00     0.695 A 
HETATM    2  N2  UNL     1      11.736   8.408   8.846  1.00  0.00    -0.165 N 
ATOM      3  H2  UNL     1      11.134   8.129   8.072  1.00  0.00     0.186 HD
HETATM    4  C4  UNL     1      12.495   7.499   9.471  1.00  0.00     0.208 A 
HETATM    5 CL1  UNL     1      12.467   5.821   8.971  1.00  0.00    -0.044 Cl
HETATM    6  N3  UNL     1      13.283   7.848  10.477  1.00  0.00    -0.164 N 
ATOM      7  H3  UNL     1      13.856   7.144  10.942  1.00  0.00     0.186 HD
HETATM    8  C5  UNL     1      13.329   9.111  10.881  1.00  0.00     0.702 A 
HETATM    9  N7  UNL     1      12.569  10.052  10.265  1.00  0.00    -0.022 N 
ATOM     10  H7  UNL     1      12.602  11.023  10.573  1.00  0.00     0.203 HD
ENDROOT
BRANCH   8  11
HETATM   11  N4  UNL     1      14.098   9.448  11.863  1.00  0.00    -0.153 N 
HETATM   12  C6  UNL     1      13.623   9.416  13.189  1.00  0.00     0.295 C 
HETATM   13  O1  UNL     1      13.523   8.357  13.858  1.00  0.00    -0.265 OA
ATOM     14  H4  UNL     1      15.058   9.739  11.677  1.00  0.00     0.187 HD
BRANCH  12  15
HETATM   15  C7  UNL     1      13.209  10.666  13.870  1.00  0.00     0.163 A 
HETATM   16  N5  UNL     1      13.290  10.975  15.151  1.00  0.00    -0.286 N 
HETATM   17  N6  UNL     1      12.882  12.107  15.565  1.00  0.00    -0.259 N 
ATOM     18  H5  UNL     1      13.682  10.304  15.811  1.00  0.00     0.188 HD
HETATM   19  C8  UNL     1      12.372  12.967  14.677  1.00  0.00     0.304 A 
ATOM     20  H6  UNL     1      12.942  12.352  16.553  1.00  0.00     0.191 HD
HETATM   21  O2  UNL     1      11.919  14.141  14.925  1.00  0.00    -0.258 OA
HETATM   22  S1  UNL     1      12.505  12.081  13.222  1.00  0.00    -0.003 SA
ENDBRANCH  12  15
ENDBRANCH   8  11
BRANCH   1  23
HETATM   23  N1  UNL     1      11.035  10.558   8.635  1.00  0.00    -0.220 N 
ATOM     24  H1  UNL     1      11.349  10.896   7.725  1.00  0.00     0.178 HD
BRANCH  23  25
HETATM   25  C2  UNL     1       9.809  11.073   9.153  1.00  0.00     0.115 C 
HETATM   26  C1  UNL     1      10.039  12.075  10.241  1.00  0.00     0.034 C 
BRANCH  25  27
HETATM   27  C9  UNL     1       9.046  11.685   7.969  1.00  0.00     0.119 C 
HETATM   28  C10 UNL     1       7.919  12.471   8.510  1.00  0.00     0.116 C 
HETATM   29  C11 UNL     1       6.862  12.596   7.486  1.00  0.00     0.203 C 
HETATM   30  O3  UNL     1       6.022  13.425   7.413  1.00  0.00    -0.284 OA
HETATM   31  S2  UNL     1       7.121  11.224   6.375  1.00  0.00     0.013 SA
HETATM   32  N8  UNL     1       8.574  10.567   7.192  1.00  0.00    -0.164 NA
ENDBRANCH  25  27
ENDBRANCH  23  25
ENDBRANCH   1  23
TORSDOF 5
ENDMDL
MODEL 3
REMARK VINA RESULT: -9.159571093      3.168      5.426
REMARK  5 active torsions:
REMARK  status: ('A' for Active; 'I' for Inactive)
REMARK    1  A    between atoms: C2_2  and  N1_3 
REMARK    2  A    between atoms: C2_2  and  C9_27 
REMARK    3  A    between atoms: N1_3  and  C3_5 
REMARK    4  A    between atoms: C5_12  and  N4_13 
REMARK       I    between atoms: N4_13  and  C6_15 
REMARK    5  A    between atoms: C6_15  and  C7_17 
ROOT
HETATM    1  C3  UNL     1      10.914  12.085  11.468  1.00  0.00     0.695 A 
HETATM    2  N2  UNL     1       9.830  12.598  10.862  1.00  0.00    -0.165 N 
ATOM      3  H2  UNL     1       9.216  13.239  11.366  1.00  0.00     0.186 HD
HETATM    4  C4  UNL     1       9.561  12.264   9.594  1.00  0.00     0.208 A 
HETATM    5 CL1  UNL     1       8.155  12.919   8.780  1.00  0.00    -0.044 Cl
HETATM    6  N3  UNL     1      10.350  11.436   8.928  1.00  0.00    -0.164 N 
ATOM      7  H3  UNL     1      10.133  11.192   7.962  1.00  0.00     0.186 HD
HETATM    8  C5  UNL     1      11.424  10.921   9.514  1.00  0.00     0.702 A 
HETATM    9  N7  UNL     1      11.719  11.243  10.800  1.00  0.00    -0.022 N 
ATOM     10  H7  UNL     1      12.543  10.850  11.253  1.00  0.00     0.203 HD
ENDROOT
BRANCH   8  11
HETATM   11  N4  UNL     1      12.192  10.112   8.862  1.00  0.00    -0.153 N 
HETATM   12  C6  UNL     1      11.749   8.817   8.528  1.00  0.00     0.295 C 
HETATM   13  O1  UNL     1      10.976   8.583   7.566  1.00  0.00    -0.265 OA
ATOM     14  H4  UNL     1      13.127  10.414   8.587  1.00  0.00     0.187 HD
BRANCH  12  15
HETATM   15  C7  UNL     1      12.190   7.644   9.319  1.00  0.00     0.163 A 
HETATM   16  N5  UNL     1      11.793   6.388   9.226  1.00  0.00    -0.286 N 
HETATM   17  N6  UNL     1      12.284   5.501   9.995  1.00  0.00    -0.259 N 
ATOM     18  H5  UNL     1      11.091   6.128   8.535  1.00  0.00     0.188 HD
HETATM   19  C8  UNL     1      13.205   5.871  10.892  1.00  0.00     0.304 A 
ATOM     20  H6  UNL     1      11.983   4.530   9.929  1.00  0.00     0.191 HD
HETATM   21  O2  UNL     1      13.796   5.109  11.737  1.00  0.00    -0.258 OA
HETATM   22  S1  UNL     1      13.334   7.547  10.583  1.00  0.00    -0.003 SA
ENDBRANCH  12  15
ENDBRANCH   8  11
BRANCH   1  23
HETATM   23  N1  UNL     1      11.161  12.414  12.693  1.00  0.00    -0.220 N 
ATOM     24  H1  UNL     1      10.372  12.657  13.291  1.00  0.00     0.178 HD
BRANCH  23  25
HETATM   25  C2  UNL     1      12.470  12.458  13.262  1.00  0.00     0.115 C 
HETATM   26  C1  UNL     1      12.532  13.366  14.450  1.00  0.00     0.034 C 
BRANCH  25  27
HETATM   27  C9  UNL     1      12.846  11.015  13.630  1.00  0.00     0.119 C 
HETATM   28  C10 UNL     1      13.113  10.969  15.081  1.00  0.00     0.116 C 
HETATM   29  C11 UNL     1      13.995   9.825  15.389  1.00  0.00     0.203 C 
HETATM   30  O3  UNL     1      14.116   9.265  16.423  1.00  0.00    -0.284 OA
HETATM   31  S2  UNL     1      14.847   9.466  13.863  1.00  0.00     0.013 SA
HETATM   32  N8  UNL     1      14.036  10.720  12.873  1.00  0.00    -0.164 NA
ENDBRANCH  25  27
ENDBRANCH  23  25
ENDBRANCH   1  23
TORSDOF 5
ENDMDL
MODEL 4
REMARK VINA RESULT: -9.099461901      2.774      3.991
REMARK  5 active torsions:
REMARK  status: ('A' for Active; 'I' for Inactive)
REMARK    1  A    between atoms: C2_2  and  N1_3 
REMARK    2  A    between atoms: C2_2  and  C9_27 
REMARK    3  A    between atoms: N1_3  and  C3_5 
REMARK    4  A    between atoms: C5_12  and  N4_13 
REMARK       I    between atoms: N4_13  and  C6_15 
REMARK    5  A    between atoms: C6_15  and  C7_17 
ROOT
HETATM    1  C3  UNL     1      11.939  11.287  11.542  1.00  0.00     0.695 A 
HETATM    2  N2  UNL     1      11.864  11.901  12.735  1.00  0.00    -0.165 N 
ATOM      3  H2  UNL     1      11.080  12.518  12.946  1.00  0.00     0.186 HD
HETATM    4  C4  UNL     1      12.827  11.699  13.644  1.00  0.00     0.208 A 
HETATM    5 CL1  UNL     1      12.754  12.486  15.207  1.00  0.00    -0.044 Cl
HETATM    6  N3  UNL     1      13.850  10.900  13.383  1.00  0.00    -0.164 N 
ATOM      7  H3  UNL     1      14.574  10.755  14.086  1.00  0.00     0.186 HD
HETATM    8  C5  UNL     1      13.936  10.288  12.209  1.00  0.00     0.702 A 
HETATM    9  N7  UNL     1      12.974  10.477  11.269  1.00  0.00    -0.022 N 
ATOM     10  H7  UNL     1      13.037  10.008  10.366  1.00  0.00     0.203 HD
ENDROOT
BRANCH   8  11
HETATM   11  N4  UNL     1      14.936   9.509  11.957  1.00  0.00    -0.153 N 
HETATM   12  C6  UNL     1      14.744   8.299  11.262  1.00  0.00     0.295 C 
HETATM   13  O1  UNL     1      14.605   8.237  10.015  1.00  0.00    -0.265 OA
ATOM     14  H4  UNL     1      15.873   9.773  12.264  1.00  0.00     0.187 HD
BRANCH  12  15
HETATM   15  C7  UNL     1      14.696   7.011  11.994  1.00  0.00     0.163 A 
HETATM   16  N5  UNL     1      13.841   6.617  12.920  1.00  0.00    -0.286 N 
HETATM   17  N6  UNL     1      13.951   5.465  13.448  1.00  0.00    -0.259 N 
ATOM     18  H5  UNL     1      13.089   7.240  13.213  1.00  0.00     0.188 HD
HETATM   19  C8  UNL     1      14.947   4.669  13.044  1.00  0.00     0.304 A 
ATOM     20  H6  UNL     1      13.294   5.155  14.163  1.00  0.00     0.191 HD
HETATM   21  O2  UNL     1      15.200   3.486  13.469  1.00  0.00    -0.258 OA
HETATM   22  S1  UNL     1      15.718   5.648  11.874  1.00  0.00    -0.003 SA
ENDBRANCH  12  15
ENDBRANCH   8  11
BRANCH   1  23
HETATM   23  N1  UNL     1      11.005  11.492  10.673  1.00  0.00    -0.220 N 
ATOM     24  H1  UNL     1      10.600  10.680  10.207  1.00  0.00     0.178 HD
BRANCH  23  25
HETATM   25  C2  UNL     1      10.504  12.782  10.324  1.00  0.00     0.115 C 
HETATM   26  C1  UNL     1      11.520  13.595   9.584  1.00  0.00     0.034 C 
BRANCH  25  27
HETATM   27  C9  UNL     1       9.237  12.558   9.486  1.00  0.00     0.119 C 
HETATM   28  C10 UNL     1       9.421  11.320   8.702  1.00  0.00     0.116 C 
HETATM   29  C11 UNL     1       8.552  11.351   7.509  1.00  0.00     0.203 C 
HETATM   30  O3  UNL     1       8.157  10.431   6.880  1.00  0.00    -0.284 OA
HETATM   31  S2  UNL     1       8.220  13.080   7.215  1.00  0.00     0.013 SA
HETATM   32  N8  UNL     1       9.134  13.707   8.623  1.00  0.00    -0.164 NA
ENDBRANCH  25  27
ENDBRANCH  23  25
ENDBRANCH   1  23
TORSDOF 5
ENDMDL
MODEL 5
REMARK VINA RESULT: -9.049656664      2.505      3.071
REMARK  5 active torsions:
REMARK  status: ('A' for Active; 'I' for Inactive)
REMARK    1  A    between atoms: C2_2  and  N1_3 
REMARK    2  A    between atoms: C2_2  and  C9_27 
REMARK    3  A    between atoms: N1_3  and  C3_5 
REMARK    4  A    between atoms: C5_12  and  N4_13 
REMARK       I    between atoms: N4_13  and  C6_15 
REMARK    5  A    between atoms: C6_15  and  C7_17 
ROOT
HETATM    1  C3  UNL     1      12.541  10.732  11.361  1.00  0.00     0.695 A 
HETATM    2  N2  UNL     1      12.551  11.356  12.550  1.00  0.00    -0.165 N 
ATOM      3  H2  UNL     1      12.210  12.314  12.630  1.00  0.00     0.186 HD
HETATM    4  C4  UNL     1      13.013  10.713  13.631  1.00  0.00     0.208 A 
HETATM    5 CL1  UNL     1      13.038  11.503  15.193  1.00  0.00    -0.044 Cl
HETATM    6  N3  UNL     1      13.458   9.469  13.542  1.00  0.00    -0.164 N 
ATOM      7  H3  UNL     1      13.805   8.992  14.373  1.00  0.00     0.186 HD
HETATM    8  C5  UNL     1      13.453   8.841  12.373  1.00  0.00     0.702 A 
HETATM    9  N7  UNL     1      12.991   9.470  11.262  1.00  0.00    -0.022 N 
ATOM     10  H7  UNL     1      12.986   8.991  10.363  1.00  0.00     0.203 HD
ENDROOT
BRANCH   8  11
HETATM   11  N4  UNL     1      13.888   7.627  12.290  1.00  0.00    -0.153 N 
HETATM   12  C6  UNL     1      14.378   7.124  11.068  1.00  0.00     0.295 C 
HETATM   13  O1  UNL     1      15.526   7.382  10.630  1.00  0.00    -0.265 OA
ATOM     14  H4  UNL     1      13.877   7.028  13.115  1.00  0.00     0.187 HD
BRANCH  12  15
HETATM   15  C7  UNL     1      13.534   6.245  10.225  1.00  0.00     0.163 A 
HETATM   16  N5  UNL     1      12.335   6.481   9.725  1.00  0.00    -0.286 N 
HETATM   17  N6  UNL     1      11.751   5.602   9.014  1.00  0.00    -0.259 N 
ATOM     18  H5  UNL     1      11.875   7.372   9.909  1.00  0.00     0.188 HD
HETATM   19  C8  UNL     1      12.377   4.442   8.789  1.00  0.00     0.304 A 
ATOM     20  H6  UNL     1      10.825   5.778   8.625  1.00  0.00     0.191 HD
HETATM   21  O2  UNL     1      11.933   3.456   8.099  1.00  0.00    -0.258 OA
HETATM   22  S1  UNL     1      13.841   4.669   9.641  1.00  0.00    -0.003 SA
ENDBRANCH  12  15
ENDBRANCH   8  11
BRANCH   1  23
HETATM   23  N1  UNL     1      12.094  11.363  10.326  1.00  0.00    -0.220 N 
ATOM     24  H1  UNL     1      12.409  11.055   9.406  1.00  0.00     0.178 HD
BRANCH  23  25
HETATM   25  C2  UNL     1      11.188  12.465  10.389  1.00  0.00     0.115 C 
HETATM   26  C1  UNL     1      11.655  13.620   9.558  1.00  0.00     0.034 C 
BRANCH  25  27
HETATM   27  C9  UNL     1       9.821  11.945   9.922  1.00  0.00     0.119 C 
HETATM   28  C10 UNL     1      10.018  11.217   8.653  1.00  0.00     0.116 C 
HETATM   29  C11 UNL     1       8.754  11.197   7.888  1.00  0.00     0.203 C 
HETATM   30  O3  UNL     1       8.430  10.428   7.051  1.00  0.00    -0.284 OA
HETATM   31  S2  UNL     1       7.816  12.587   8.498  1.00  0.00     0.013 SA
HETATM   32  N8  UNL     1       9.007  13.118   9.726  1.00  0.00    -0.164 NA
ENDBRANCH  25  27
ENDBRANCH  23  25
ENDBRANCH   1  23
TORSDOF 5
ENDMDL
