MODEL 1
REMARK VINA RESULT: -7.662484650      0.000      0.000
REMARK  8 active torsions:
REMARK  status: ('A' for Active; 'I' for Inactive)
REMARK    1  A    between atoms: C2_2  and  C3_3 
REMARK    2  A    between atoms: C3_3  and  C5_5 
REMARK    3  A    between atoms: C5_5  and  O1_6 
REMARK    4  A    between atoms: C5_5  and  C6_8 
REMARK    5  A    between atoms: N1_9  and  O2_11 
REMARK    6  A    between atoms: O2_11  and  C7_12 
REMARK    7  A    between atoms: C10_16  and  O4_17 
REMARK    8  A    between atoms: C11_19  and  O5_20 
ROOT
HETATM    1  C7  UNL     1      -3.961   0.302  13.161  1.00  0.00     0.295 C 
HETATM    2  O3  UNL     1      -4.532   1.518  13.377  1.00  0.00    -0.351 OA
HETATM    3  C8  UNL     1      -4.490   2.411  12.354  1.00  0.00     0.152 C 
HETATM    4  C9  UNL     1      -3.138   3.058  12.146  1.00  0.00     0.042 C 
HETATM    5  C10 UNL     1      -4.981   1.876  11.033  1.00  0.00     0.176 C 
HETATM    6  C11 UNL     1      -4.244   0.605  10.683  1.00  0.00     0.158 C 
HETATM    7  C12 UNL     1      -4.383  -0.335  11.858  1.00  0.00     0.070 C 
HETATM    8  C13 UNL     1      -3.571  -1.560  11.569  1.00  0.00     0.017 C 
ENDROOT
BRANCH   1   9
HETATM    9  O2  UNL     1      -4.432  -0.572  14.198  1.00  0.00    -0.248 OA
BRANCH   9  10
HETATM   10  N1  UNL     1      -4.859  -0.139  15.405  1.00  0.00    -0.276 N 
HETATM   11  C6  UNL     1      -4.567   0.991  15.946  1.00  0.00     0.119 C 
ATOM     12  H1  UNL     1      -5.468  -0.764  15.934  1.00  0.00     0.193 HD
BRANCH  11  13
HETATM   13  C5  UNL     1      -5.156   1.257  17.292  1.00  0.00     0.162 C 
BRANCH  13  14
HETATM   14  C3  UNL     1      -6.354   2.135  17.091  1.00  0.00     0.015 C 
HETATM   15  C4  UNL     1      -7.577   1.212  17.054  1.00  0.00     0.012 C 
BRANCH  14  16
HETATM   16  C2  UNL     1      -6.332   2.870  15.777  1.00  0.00     0.002 C 
HETATM   17  C1  UNL     1      -6.287   4.358  15.925  1.00  0.00     0.005 C 
ENDBRANCH  14  16
ENDBRANCH  13  14
BRANCH  13  18
HETATM   18  O1  UNL     1      -5.453   0.034  17.863  1.00  0.00    -0.390 OA
ATOM     19  H1  UNL     1      -4.687  -0.459  18.130  1.00  0.00     0.210 HD
ENDBRANCH  13  18
ENDBRANCH  11  13
ENDBRANCH   9  10
ENDBRANCH   1   9
BRANCH   6  20
HETATM   20  O5  UNL     1      -4.847  -0.018   9.586  1.00  0.00    -0.392 OA
ATOM     21  H5  UNL     1      -4.372   0.188   8.790  1.00  0.00     0.210 HD
ENDBRANCH   6  20
BRANCH   5  22
HETATM   22  O4  UNL     1      -4.681   2.830  10.061  1.00  0.00    -0.390 OA
ATOM     23  H4  UNL     1      -5.387   3.466  10.062  1.00  0.00     0.210 HD
ENDBRANCH   5  22
TORSDOF 8
ENDMDL
MODEL 2
REMARK VINA RESULT: -7.213875041      3.041      5.838
REMARK  8 active torsions:
REMARK  status: ('A' for Active; 'I' for Inactive)
REMARK    1  A    between atoms: C2_2  and  C3_3 
REMARK    2  A    between atoms: C3_3  and  C5_5 
REMARK    3  A    between atoms: C5_5  and  O1_6 
REMARK    4  A    between atoms: C5_5  and  C6_8 
REMARK    5  A    between atoms: N1_9  and  O2_11 
REMARK    6  A    between atoms: O2_11  and  C7_12 
REMARK    7  A    between atoms: C10_16  and  O4_17 
REMARK    8  A    between atoms: C11_19  and  O5_20 
ROOT
HETATM    1  C7  UNL     1      -5.801   2.551  14.592  1.00  0.00     0.295 C 
HETATM    2  O3  UNL     1      -6.188   3.079  15.784  1.00  0.00    -0.351 OA
HETATM    3  C8  UNL     1      -6.304   2.221  16.832  1.00  0.00     0.152 C 
HETATM    4  C9  UNL     1      -7.541   1.350  16.791  1.00  0.00     0.042 C 
HETATM    5  C10 UNL     1      -5.099   1.344  17.062  1.00  0.00     0.176 C 
HETATM    6  C11 UNL     1      -4.742   0.612  15.790  1.00  0.00     0.158 C 
HETATM    7  C12 UNL     1      -4.594   1.649  14.700  1.00  0.00     0.070 C 
HETATM    8  C13 UNL     1      -4.340   0.930  13.410  1.00  0.00     0.017 C 
ENDROOT
BRANCH   1   9
HETATM    9  O2  UNL     1      -5.400   3.648  13.758  1.00  0.00    -0.248 OA
BRANCH   9  10
HETATM   10  N1  UNL     1      -4.225   4.301  13.895  1.00  0.00    -0.276 N 
HETATM   11  C6  UNL     1      -3.376   4.529  12.955  1.00  0.00     0.119 C 
ATOM     12  H1  UNL     1      -3.989   4.643  14.827  1.00  0.00     0.193 HD
BRANCH  11  13
HETATM   13  C5  UNL     1      -2.139   5.273  13.341  1.00  0.00     0.162 C 
BRANCH  13  14
HETATM   14  C3  UNL     1      -2.559   6.642  13.780  1.00  0.00     0.015 C 
HETATM   15  C4  UNL     1      -3.103   7.357  12.538  1.00  0.00     0.012 C 
BRANCH  14  16
HETATM   16  C2  UNL     1      -1.414   7.477  14.288  1.00  0.00     0.002 C 
HETATM   17  C1  UNL     1      -1.795   8.402  15.399  1.00  0.00     0.005 C 
ENDBRANCH  14  16
ENDBRANCH  13  14
BRANCH  13  18
HETATM   18  O1  UNL     1      -1.508   4.542  14.328  1.00  0.00    -0.390 OA
ATOM     19  H1  UNL     1      -0.560   4.554  14.265  1.00  0.00     0.210 HD
ENDBRANCH  13  18
ENDBRANCH  11  13
ENDBRANCH   9  10
ENDBRANCH   1   9
BRANCH   6  20
HETATM   20  O5  UNL     1      -3.501  -0.018  15.928  1.00  0.00    -0.392 OA
ATOM     21  H5  UNL     1      -3.531  -0.887  15.546  1.00  0.00     0.210 HD
ENDBRANCH   6  20
BRANCH   5  22
HETATM   22  O4  UNL     1      -5.454   0.396  18.020  1.00  0.00    -0.390 OA
ATOM     23  H4  UNL     1      -4.652   0.109  18.443  1.00  0.00     0.210 HD
ENDBRANCH   5  22
TORSDOF 8
ENDMDL
MODEL 3
REMARK VINA RESULT: -7.102318146      2.730      3.869
REMARK  8 active torsions:
REMARK  status: ('A' for Active; 'I' for Inactive)
REMARK    1  A    between atoms: C2_2  and  C3_3 
REMARK    2  A    between atoms: C3_3  and  C5_5 
REMARK    3  A    between atoms: C5_5  and  O1_6 
REMARK    4  A    between atoms: C5_5  and  C6_8 
REMARK    5  A    between atoms: N1_9  and  O2_11 
REMARK    6  A    between atoms: O2_11  and  C7_12 
REMARK    7  A    between atoms: C10_16  and  O4_17 
REMARK    8  A    between atoms: C11_19  and  O5_20 
ROOT
HETATM    1  C7  UNL     1      -2.634   3.441  12.412  1.00  0.00     0.295 C 
HETATM    2  O3  UNL     1      -1.394   2.885  12.340  1.00  0.00    -0.351 OA
HETATM    3  C8  UNL     1      -0.938   2.549  11.104  1.00  0.00     0.152 C 
HETATM    4  C9  UNL     1      -1.560   1.295  10.529  1.00  0.00     0.042 C 
HETATM    5  C10 UNL     1      -1.032   3.651  10.080  1.00  0.00     0.176 C 
HETATM    6  C11 UNL     1      -2.444   4.182  10.018  1.00  0.00     0.158 C 
HETATM    7  C12 UNL     1      -2.843   4.565  11.425  1.00  0.00     0.070 C 
HETATM    8  C13 UNL     1      -4.278   4.998  11.397  1.00  0.00     0.017 C 
ENDROOT
BRANCH   1   9
HETATM    9  O2  UNL     1      -2.751   4.033  13.715  1.00  0.00    -0.248 OA
BRANCH   9  10
HETATM   10  N1  UNL     1      -3.136   3.350  14.815  1.00  0.00    -0.276 N 
HETATM   11  C6  UNL     1      -4.100   2.500  14.874  1.00  0.00     0.119 C 
ATOM     12  H1  UNL     1      -2.615   3.523  15.675  1.00  0.00     0.193 HD
BRANCH  11  13
HETATM   13  C5  UNL     1      -4.346   1.863  16.203  1.00  0.00     0.162 C 
BRANCH  13  14
HETATM   14  C3  UNL     1      -5.814   1.578  16.298  1.00  0.00     0.015 C 
HETATM   15  C4  UNL     1      -6.533   2.930  16.215  1.00  0.00     0.012 C 
BRANCH  14  16
HETATM   16  C2  UNL     1      -6.212   0.961  17.613  1.00  0.00     0.002 C 
HETATM   17  C1  UNL     1      -6.216   1.931  18.751  1.00  0.00     0.005 C 
ENDBRANCH  14  16
ENDBRANCH  13  14
BRANCH  13  18
HETATM   18  O1  UNL     1      -3.555   0.733  16.273  1.00  0.00    -0.390 OA
ATOM     19  H1  UNL     1      -3.624   0.170  15.511  1.00  0.00     0.210 HD
ENDBRANCH  13  18
ENDBRANCH  11  13
ENDBRANCH   9  10
ENDBRANCH   1   9
BRANCH   6  20
HETATM   20  O5  UNL     1      -2.490   5.348   9.248  1.00  0.00    -0.392 OA
ATOM     21  H5  UNL     1      -2.951   5.185   8.433  1.00  0.00     0.210 HD
ENDBRANCH   6  20
BRANCH   5  22
HETATM   22  O4  UNL     1      -0.727   3.092   8.839  1.00  0.00    -0.390 OA
ATOM     23  H4  UNL     1      -0.052   3.632   8.444  1.00  0.00     0.210 HD
ENDBRANCH   5  22
TORSDOF 8
ENDMDL
MODEL 4
REMARK VINA RESULT: -7.083097501      2.131      6.162
REMARK  8 active torsions:
REMARK  status: ('A' for Active; 'I' for Inactive)
REMARK    1  A    between atoms: C2_2  and  C3_3 
REMARK    2  A    between atoms: C3_3  and  C5_5 
REMARK    3  A    between atoms: C5_5  and  O1_6 
REMARK    4  A    between atoms: C5_5  and  C6_8 
REMARK    5  A    between atoms: N1_9  and  O2_11 
REMARK    6  A    between atoms: O2_11  and  C7_12 
REMARK    7  A    between atoms: C10_16  and  O4_17 
REMARK    8  A    between atoms: C11_19  and  O5_20 
ROOT
HETATM    1  C7  UNL     1      -5.851   2.531  14.563  1.00  0.00     0.295 C 
HETATM    2  O3  UNL     1      -6.246   3.088  15.740  1.00  0.00    -0.351 OA
HETATM    3  C8  UNL     1      -6.329   2.263  16.817  1.00  0.00     0.152 C 
HETATM    4  C9  UNL     1      -7.539   1.354  16.815  1.00  0.00     0.042 C 
HETATM    5  C10 UNL     1      -5.096   1.431  17.067  1.00  0.00     0.176 C 
HETATM    6  C11 UNL     1      -4.726   0.668  15.818  1.00  0.00     0.158 C 
HETATM    7  C12 UNL     1      -4.617   1.670  14.692  1.00  0.00     0.070 C 
HETATM    8  C13 UNL     1      -4.350   0.916  13.425  1.00  0.00     0.017 C 
ENDROOT
BRANCH   1   9
HETATM    9  O2  UNL     1      -5.489   3.611  13.689  1.00  0.00    -0.248 OA
BRANCH   9  10
HETATM   10  N1  UNL     1      -4.582   3.497  12.695  1.00  0.00    -0.276 N 
HETATM   11  C6  UNL     1      -4.138   4.461  11.967  1.00  0.00     0.119 C 
ATOM     12  H1  UNL     1      -4.216   2.564  12.505  1.00  0.00     0.193 HD
BRANCH  11  13
HETATM   13  C5  UNL     1      -3.133   4.097  10.922  1.00  0.00     0.162 C 
BRANCH  13  14
HETATM   14  C3  UNL     1      -2.095   3.240  11.580  1.00  0.00     0.015 C 
HETATM   15  C4  UNL     1      -1.025   4.188  12.134  1.00  0.00     0.012 C 
BRANCH  14  16
HETATM   16  C2  UNL     1      -1.394   2.319  10.617  1.00  0.00     0.002 C 
HETATM   17  C1  UNL     1      -1.568   0.870  10.941  1.00  0.00     0.005 C 
ENDBRANCH  14  16
ENDBRANCH  13  14
BRANCH  13  18
HETATM   18  O1  UNL     1      -3.811   3.464   9.899  1.00  0.00    -0.390 OA
ATOM     19  H1  UNL     1      -4.710   3.246  10.114  1.00  0.00     0.210 HD
ENDBRANCH  13  18
ENDBRANCH  11  13
ENDBRANCH   9  10
ENDBRANCH   1   9
BRANCH   6  20
HETATM   20  O5  UNL     1      -3.466   0.080  15.966  1.00  0.00    -0.392 OA
ATOM     21  H5  UNL     1      -3.548  -0.866  16.009  1.00  0.00     0.210 HD
ENDBRANCH   6  20
BRANCH   5  22
HETATM   22  O4  UNL     1      -5.415   0.505  18.060  1.00  0.00    -0.390 OA
ATOM     23  H4  UNL     1      -6.105  -0.051  17.716  1.00  0.00     0.210 HD
ENDBRANCH   5  22
TORSDOF 8
ENDMDL
MODEL 5
REMARK VINA RESULT: -6.969345990      1.786      2.919
REMARK  8 active torsions:
REMARK  status: ('A' for Active; 'I' for Inactive)
REMARK    1  A    between atoms: C2_2  and  C3_3 
REMARK    2  A    between atoms: C3_3  and  C5_5 
REMARK    3  A    between atoms: C5_5  and  O1_6 
REMARK    4  A    between atoms: C5_5  and  C6_8 
REMARK    5  A    between atoms: N1_9  and  O2_11 
REMARK    6  A    between atoms: O2_11  and  C7_12 
REMARK    7  A    between atoms: C10_16  and  O4_17 
REMARK    8  A    between atoms: C11_19  and  O5_20 
ROOT
HETATM    1  C7  UNL     1      -4.685   2.104  11.890  1.00  0.00     0.295 C 
HETATM    2  O3  UNL     1      -5.157   0.839  12.058  1.00  0.00    -0.351 OA
HETATM    3  C8  UNL     1      -4.561  -0.145  11.333  1.00  0.00     0.152 C 
HETATM    4  C9  UNL     1      -4.954  -0.168   9.872  1.00  0.00     0.042 C 
HETATM    5  C10 UNL     1      -3.057  -0.175  11.433  1.00  0.00     0.176 C 
HETATM    6  C11 UNL     1      -2.489   1.182  11.090  1.00  0.00     0.158 C 
HETATM    7  C12 UNL     1      -3.180   2.196  11.971  1.00  0.00     0.070 C 
HETATM    8  C13 UNL     1      -2.700   3.559  11.571  1.00  0.00     0.017 C 
ENDROOT
BRANCH   1   9
HETATM    9  O2  UNL     1      -5.188   2.887  12.983  1.00  0.00    -0.248 OA
BRANCH   9  10
HETATM   10  N1  UNL     1      -4.768   2.746  14.260  1.00  0.00    -0.276 N 
HETATM   11  C6  UNL     1      -5.101   1.795  15.060  1.00  0.00     0.119 C 
ATOM     12  H1  UNL     1      -4.132   3.457  14.621  1.00  0.00     0.193 HD
BRANCH  11  13
HETATM   13  C5  UNL     1      -4.512   1.844  16.432  1.00  0.00     0.162 C 
BRANCH  13  14
HETATM   14  C3  UNL     1      -5.631   1.641  17.407  1.00  0.00     0.015 C 
HETATM   15  C4  UNL     1      -5.912   0.134  17.450  1.00  0.00     0.012 C 
BRANCH  14  16
HETATM   16  C2  UNL     1      -6.914   2.303  16.979  1.00  0.00     0.002 C 
HETATM   17  C1  UNL     1      -6.905   3.789  17.149  1.00  0.00     0.005 C 
ENDBRANCH  14  16
ENDBRANCH  13  14
BRANCH  13  18
HETATM   18  O1  UNL     1      -3.534   0.871  16.498  1.00  0.00    -0.390 OA
ATOM     19  H1  UNL     1      -3.816   0.023  16.174  1.00  0.00     0.210 HD
ENDBRANCH  13  18
ENDBRANCH  11  13
ENDBRANCH   9  10
ENDBRANCH   1   9
BRANCH   6  20
HETATM   20  O5  UNL     1      -1.127   1.228  11.401  1.00  0.00    -0.392 OA
ATOM     21  H5  UNL     1      -0.948   1.953  11.988  1.00  0.00     0.210 HD
ENDBRANCH   6  20
BRANCH   5  22
HETATM   22  O4  UNL     1      -2.597  -1.088  10.486  1.00  0.00    -0.390 OA
ATOM     23  H4  UNL     1      -1.688  -1.276  10.693  1.00  0.00     0.210 HD
ENDBRANCH   5  22
TORSDOF 8
ENDMDL
