MODEL 1
REMARK VINA RESULT: -8.109350474      0.000      0.000
REMARK  12 active torsions:
REMARK  status: ('A' for Active; 'I' for Inactive)
REMARK    1  A    between atoms: C2_2  and  C3_3 
REMARK       I    between atoms: C3_3  and  N1_5 
REMARK    2  A    between atoms: N1_5  and  C4_7 
REMARK    3  A    between atoms: C6_9  and  O2_10 
REMARK    4  A    between atoms: O2_10  and  C7_11 
REMARK    5  A    between atoms: C7_11  and  C8_12 
REMARK    6  A    between atoms: C14_20  and  N2_21 
REMARK    7  A    between atoms: N2_21  and  C15_23 
REMARK    8  A    between atoms: C17_27  and  N4_28 
REMARK    9  A    between atoms: N4_28  and  C19_30 
REMARK   10  A    between atoms: C19_30  and  C20_31 
REMARK   11  A    between atoms: C25_36  and  C26_37 
REMARK   12  A    between atoms: C26_37  and  O3_38 
ROOT
HETATM    1  C4  UNL     1      18.347 -27.582 -54.036  1.00  0.00     0.059 A 
HETATM    2  C5  UNL     1      17.364 -26.660 -54.168  1.00  0.00     0.070 A 
HETATM    3  C6  UNL     1      17.530 -25.320 -53.745  1.00  0.00     0.098 A 
HETATM    4  C14 UNL     1      18.726 -24.917 -53.184  1.00  0.00     0.069 A 
HETATM    5  C27 UNL     1      19.725 -25.839 -53.012  1.00  0.00     0.058 A 
HETATM    6  C28 UNL     1      19.561 -27.097 -53.417  1.00  0.00     0.063 A 
HETATM    7 CL3  UNL     1      20.831 -28.249 -53.170  1.00  0.00    -0.082 Cl
ENDROOT
BRANCH   4   8
HETATM    8  N2  UNL     1      18.933 -23.512 -53.082  1.00  0.00    -0.340 N 
ATOM      9  H2  UNL     1      18.080 -22.960 -53.169  1.00  0.00     0.167 HD
BRANCH   8  10
HETATM   10  C15 UNL     1      19.976 -22.823 -52.903  1.00  0.00     0.114 A 
HETATM   11  N3  UNL     1      20.774 -22.873 -51.836  1.00  0.00    -0.350 N 
HETATM   12  C16 UNL     1      21.982 -22.273 -51.778  1.00  0.00     0.119 A 
ATOM     13  H3  UNL     1      20.454 -23.392 -51.019  1.00  0.00     0.166 HD
HETATM   14  C17 UNL     1      22.489 -21.536 -52.885  1.00  0.00     0.049 A 
HETATM   15  C24 UNL     1      21.673 -21.473 -53.973  1.00  0.00     0.044 A 
HETATM   16  C25 UNL     1      20.422 -22.079 -54.053  1.00  0.00     0.011 A 
BRANCH  14  17
HETATM   17  N4  UNL     1      23.875 -21.170 -52.830  1.00  0.00    -0.363 N 
HETATM   18  C18 UNL     1      24.562 -20.622 -53.972  1.00  0.00     0.155 C 
BRANCH  17  19
HETATM   19  C19 UNL     1      24.547 -21.175 -51.580  1.00  0.00     0.072 C 
BRANCH  19  20
HETATM   20  C20 UNL     1      25.734 -21.980 -51.318  1.00  0.00    -0.019 C 
HETATM   21  C21 UNL     1      27.071 -21.370 -51.658  1.00  0.00     0.020 C 
HETATM   22  C22 UNL     1      25.799 -22.051 -49.743  1.00  0.00     0.020 C 
HETATM   23  C23 UNL     1      25.711 -23.409 -51.721  1.00  0.00     0.020 C 
ENDBRANCH  19  20
ENDBRANCH  17  19
ENDBRANCH  14  17
BRANCH  16  24
HETATM   24  C26 UNL     1      19.621 -22.250 -55.260  1.00  0.00     0.206 C 
BRANCH  24  25
HETATM   25  O3  UNL     1      19.454 -21.084 -56.057  1.00  0.00    -0.396 OA
ATOM     26  H3  UNL     1      20.244 -20.751 -56.467  1.00  0.00     0.209 HD
ENDBRANCH  24  25
ENDBRANCH  16  24
ENDBRANCH   8  10
ENDBRANCH   4   8
BRANCH   3  27
HETATM   27  O2  UNL     1      16.379 -24.492 -53.931  1.00  0.00    -0.344 OA
BRANCH  27  28
HETATM   28  C7  UNL     1      16.385 -23.661 -55.114  1.00  0.00     0.216 C 
BRANCH  28  29
HETATM   29  C8  UNL     1      15.617 -24.346 -56.158  1.00  0.00    -0.012 A 
HETATM   30  C9  UNL     1      14.288 -24.592 -56.019  1.00  0.00     0.013 A 
HETATM   31  C10 UNL     1      13.565 -25.287 -56.938  1.00  0.00     0.024 A 
HETATM   32  C11 UNL     1      14.215 -25.773 -58.102  1.00  0.00     0.035 A 
HETATM   33 CL1  UNL     1      13.316 -26.709 -59.290  1.00  0.00    -0.084 Cl
HETATM   34  C12 UNL     1      15.569 -25.508 -58.248  1.00  0.00     0.048 A 
HETATM   35  C13 UNL     1      16.232 -24.815 -57.289  1.00  0.00     0.044 A 
HETATM   36 CL2  UNL     1      17.944 -24.512 -57.585  1.00  0.00    -0.084 Cl
ENDBRANCH  28  29
ENDBRANCH  27  28
ENDBRANCH   3  27
BRANCH   1  37
HETATM   37  N1  UNL     1      18.395 -28.868 -54.669  1.00  0.00    -0.322 N 
HETATM   38  C3  UNL     1      18.681 -29.113 -56.050  1.00  0.00     0.244 C 
HETATM   39  O1  UNL     1      18.882 -28.194 -56.837  1.00  0.00    -0.268 OA
ATOM     40  H1  UNL     1      18.210 -29.681 -54.083  1.00  0.00     0.169 HD
BRANCH  38  41
HETATM   41  C2  UNL     1      18.770 -30.477 -56.494  1.00  0.00     0.064 C 
HETATM   42  C1  UNL     1      19.759 -31.298 -56.331  1.00  0.00     0.017 C 
ENDBRANCH  38  41
ENDBRANCH   1  37
TORSDOF 12
ENDMDL
MODEL 2
REMARK VINA RESULT: -8.078047973      2.462      5.187
REMARK  12 active torsions:
REMARK  status: ('A' for Active; 'I' for Inactive)
REMARK    1  A    between atoms: C2_2  and  C3_3 
REMARK       I    between atoms: C3_3  and  N1_5 
REMARK    2  A    between atoms: N1_5  and  C4_7 
REMARK    3  A    between atoms: C6_9  and  O2_10 
REMARK    4  A    between atoms: O2_10  and  C7_11 
REMARK    5  A    between atoms: C7_11  and  C8_12 
REMARK    6  A    between atoms: C14_20  and  N2_21 
REMARK    7  A    between atoms: N2_21  and  C15_23 
REMARK    8  A    between atoms: C17_27  and  N4_28 
REMARK    9  A    between atoms: N4_28  and  C19_30 
REMARK   10  A    between atoms: C19_30  and  C20_31 
REMARK   11  A    between atoms: C25_36  and  C26_37 
REMARK   12  A    between atoms: C26_37  and  O3_38 
ROOT
HETATM    1  C4  UNL     1      16.236 -24.785 -55.943  1.00  0.00     0.059 A 
HETATM    2  C5  UNL     1      16.652 -25.304 -54.763  1.00  0.00     0.070 A 
HETATM    3  C6  UNL     1      17.695 -24.715 -54.010  1.00  0.00     0.098 A 
HETATM    4  C14 UNL     1      18.317 -23.571 -54.470  1.00  0.00     0.069 A 
HETATM    5  C27 UNL     1      17.935 -23.044 -55.676  1.00  0.00     0.058 A 
HETATM    6  C28 UNL     1      16.949 -23.603 -56.376  1.00  0.00     0.063 A 
HETATM    7 CL3  UNL     1      16.498 -22.931 -57.908  1.00  0.00    -0.082 Cl
ENDROOT
BRANCH   4   8
HETATM    8  N2  UNL     1      19.117 -22.865 -53.528  1.00  0.00    -0.340 N 
ATOM      9  H2  UNL     1      18.591 -22.476 -52.746  1.00  0.00     0.167 HD
BRANCH   8  10
HETATM   10  C15 UNL     1      20.357 -22.633 -53.479  1.00  0.00     0.114 A 
HETATM   11  N3  UNL     1      21.079 -22.033 -54.427  1.00  0.00    -0.350 N 
HETATM   12  C16 UNL     1      22.352 -21.621 -54.248  1.00  0.00     0.119 A 
ATOM     13  H3  UNL     1      20.645 -21.876 -55.337  1.00  0.00     0.166 HD
HETATM   14  C17 UNL     1      23.014 -21.805 -53.002  1.00  0.00     0.049 A 
HETATM   15  C24 UNL     1      22.286 -22.428 -52.035  1.00  0.00     0.044 A 
HETATM   16  C25 UNL     1      20.974 -22.864 -52.198  1.00  0.00     0.011 A 
BRANCH  14  17
HETATM   17  N4  UNL     1      24.252 -21.103 -52.825  1.00  0.00    -0.363 N 
HETATM   18  C18 UNL     1      24.800 -20.257 -53.856  1.00  0.00     0.155 C 
BRANCH  17  19
HETATM   19  C19 UNL     1      24.871 -21.090 -51.548  1.00  0.00     0.072 C 
BRANCH  19  20
HETATM   20  C20 UNL     1      26.029 -21.912 -51.217  1.00  0.00    -0.019 C 
HETATM   21  C21 UNL     1      27.392 -21.322 -51.479  1.00  0.00     0.020 C 
HETATM   22  C22 UNL     1      26.002 -21.980 -49.640  1.00  0.00     0.020 C 
HETATM   23  C23 UNL     1      26.008 -23.342 -51.617  1.00  0.00     0.020 C 
ENDBRANCH  19  20
ENDBRANCH  17  19
ENDBRANCH  14  17
BRANCH  16  24
HETATM   24  C26 UNL     1      20.073 -23.309 -51.141  1.00  0.00     0.206 C 
BRANCH  24  25
HETATM   25  O3  UNL     1      20.111 -24.700 -50.846  1.00  0.00    -0.396 OA
ATOM     26  H3  UNL     1      19.351 -25.199 -51.122  1.00  0.00     0.209 HD
ENDBRANCH  24  25
ENDBRANCH  16  24
ENDBRANCH   8  10
ENDBRANCH   4   8
BRANCH   3  27
HETATM   27  O2  UNL     1      18.026 -25.413 -52.807  1.00  0.00    -0.344 OA
BRANCH  27  28
HETATM   28  C7  UNL     1      18.589 -26.734 -52.979  1.00  0.00     0.216 C 
BRANCH  28  29
HETATM   29  C8  UNL     1      18.182 -27.558 -51.837  1.00  0.00    -0.012 A 
HETATM   30  C9  UNL     1      16.874 -27.738 -51.520  1.00  0.00     0.013 A 
HETATM   31  C10 UNL     1      16.468 -28.439 -50.427  1.00  0.00     0.024 A 
HETATM   32  C11 UNL     1      17.446 -29.019 -49.579  1.00  0.00     0.035 A 
HETATM   33 CL1  UNL     1      16.954 -29.898 -48.135  1.00  0.00    -0.084 Cl
HETATM   34  C12 UNL     1      18.781 -28.846 -49.914  1.00  0.00     0.048 A 
HETATM   35  C13 UNL     1      19.117 -28.128 -51.014  1.00  0.00     0.044 A 
HETATM   36 CL2  UNL     1      20.840 -27.990 -51.363  1.00  0.00    -0.084 Cl
ENDBRANCH  28  29
ENDBRANCH  27  28
ENDBRANCH   3  27
BRANCH   1  37
HETATM   37  N1  UNL     1      15.029 -25.122 -56.641  1.00  0.00    -0.322 N 
HETATM   38  C3  UNL     1      14.909 -26.095 -57.685  1.00  0.00     0.244 C 
HETATM   39  O1  UNL     1      15.882 -26.715 -58.100  1.00  0.00    -0.268 OA
ATOM     40  H1  UNL     1      14.182 -24.625 -56.370  1.00  0.00     0.169 HD
BRANCH  38  41
HETATM   41  C2  UNL     1      13.601 -26.362 -58.216  1.00  0.00     0.064 C 
HETATM   42  C1  UNL     1      13.220 -26.286 -59.453  1.00  0.00     0.017 C 
ENDBRANCH  38  41
ENDBRANCH   1  37
TORSDOF 12
ENDMDL
MODEL 3
REMARK VINA RESULT: -8.059360995      2.431      5.318
REMARK  12 active torsions:
REMARK  status: ('A' for Active; 'I' for Inactive)
REMARK    1  A    between atoms: C2_2  and  C3_3 
REMARK       I    between atoms: C3_3  and  N1_5 
REMARK    2  A    between atoms: N1_5  and  C4_7 
REMARK    3  A    between atoms: C6_9  and  O2_10 
REMARK    4  A    between atoms: O2_10  and  C7_11 
REMARK    5  A    between atoms: C7_11  and  C8_12 
REMARK    6  A    between atoms: C14_20  and  N2_21 
REMARK    7  A    between atoms: N2_21  and  C15_23 
REMARK    8  A    between atoms: C17_27  and  N4_28 
REMARK    9  A    between atoms: N4_28  and  C19_30 
REMARK   10  A    between atoms: C19_30  and  C20_31 
REMARK   11  A    between atoms: C25_36  and  C26_37 
REMARK   12  A    between atoms: C26_37  and  O3_38 
ROOT
HETATM    1  C4  UNL     1      15.924 -24.738 -55.743  1.00  0.00     0.059 A 
HETATM    2  C5  UNL     1      16.248 -25.177 -54.503  1.00  0.00     0.070 A 
HETATM    3  C6  UNL     1      17.323 -24.624 -53.768  1.00  0.00     0.098 A 
HETATM    4  C14 UNL     1      18.073 -23.598 -54.310  1.00  0.00     0.069 A 
HETATM    5  C27 UNL     1      17.784 -23.158 -55.575  1.00  0.00     0.058 A 
HETATM    6  C28 UNL     1      16.768 -23.682 -56.258  1.00  0.00     0.063 A 
HETATM    7 CL3  UNL     1      16.435 -23.123 -57.863  1.00  0.00    -0.082 Cl
ENDROOT
BRANCH   4   8
HETATM    8  N2  UNL     1      18.913 -22.886 -53.407  1.00  0.00    -0.340 N 
ATOM      9  H2  UNL     1      18.424 -22.510 -52.595  1.00  0.00     0.167 HD
BRANCH   8  10
HETATM   10  C15 UNL     1      20.150 -22.634 -53.425  1.00  0.00     0.114 A 
HETATM   11  N3  UNL     1      20.820 -22.070 -54.432  1.00  0.00    -0.350 N 
HETATM   12  C16 UNL     1      22.093 -21.633 -54.330  1.00  0.00     0.119 A 
ATOM     13  H3  UNL     1      20.344 -21.965 -55.328  1.00  0.00     0.166 HD
HETATM   14  C17 UNL     1      22.812 -21.747 -53.107  1.00  0.00     0.049 A 
HETATM   15  C24 UNL     1      22.136 -22.332 -52.079  1.00  0.00     0.044 A 
HETATM   16  C25 UNL     1      20.825 -22.794 -52.164  1.00  0.00     0.011 A 
BRANCH  14  17
HETATM   17  N4  UNL     1      24.045 -21.019 -53.019  1.00  0.00    -0.363 N 
HETATM   18  C18 UNL     1      24.527 -20.208 -54.109  1.00  0.00     0.155 C 
BRANCH  17  19
HETATM   19  C19 UNL     1      24.724 -20.946 -51.775  1.00  0.00     0.072 C 
BRANCH  19  20
HETATM   20  C20 UNL     1      26.024 -21.562 -51.541  1.00  0.00    -0.019 C 
HETATM   21  C21 UNL     1      27.238 -20.670 -51.633  1.00  0.00     0.020 C 
HETATM   22  C22 UNL     1      25.998 -21.919 -50.004  1.00  0.00     0.020 C 
HETATM   23  C23 UNL     1      26.304 -22.869 -52.187  1.00  0.00     0.020 C 
ENDBRANCH  19  20
ENDBRANCH  17  19
ENDBRANCH  14  17
BRANCH  16  24
HETATM   24  C26 UNL     1      19.979 -23.200 -51.047  1.00  0.00     0.206 C 
BRANCH  24  25
HETATM   25  O3  UNL     1      19.998 -24.587 -50.734  1.00  0.00    -0.396 OA
ATOM     26  H3  UNL     1      19.180 -24.946 -50.407  1.00  0.00     0.209 HD
ENDBRANCH  24  25
ENDBRANCH  16  24
ENDBRANCH   8  10
ENDBRANCH   4   8
BRANCH   3  27
HETATM   27  O2  UNL     1      17.544 -25.229 -52.492  1.00  0.00    -0.344 OA
BRANCH  27  28
HETATM   28  C7  UNL     1      17.396 -26.667 -52.442  1.00  0.00     0.216 C 
BRANCH  28  29
HETATM   29  C8  UNL     1      18.713 -27.253 -52.177  1.00  0.00    -0.012 A 
HETATM   30  C9  UNL     1      19.774 -27.018 -52.992  1.00  0.00     0.013 A 
HETATM   31  C10 UNL     1      20.989 -27.604 -52.811  1.00  0.00     0.024 A 
HETATM   32  C11 UNL     1      21.169 -28.494 -51.722  1.00  0.00     0.035 A 
HETATM   33 CL1  UNL     1      22.716 -29.298 -51.484  1.00  0.00    -0.084 Cl
HETATM   34  C12 UNL     1      20.087 -28.720 -50.882  1.00  0.00     0.048 A 
HETATM   35  C13 UNL     1      18.901 -28.109 -51.125  1.00  0.00     0.044 A 
HETATM   36 CL2  UNL     1      17.600 -28.447 -49.983  1.00  0.00    -0.084 Cl
ENDBRANCH  28  29
ENDBRANCH  27  28
ENDBRANCH   3  27
BRANCH   1  37
HETATM   37  N1  UNL     1      14.711 -25.021 -56.454  1.00  0.00    -0.322 N 
HETATM   38  C3  UNL     1      14.557 -25.987 -57.499  1.00  0.00     0.244 C 
HETATM   39  O1  UNL     1      15.506 -26.651 -57.905  1.00  0.00    -0.268 OA
ATOM     40  H1  UNL     1      13.883 -24.487 -56.191  1.00  0.00     0.169 HD
BRANCH  38  41
HETATM   41  C2  UNL     1      13.244 -26.196 -58.044  1.00  0.00     0.064 C 
HETATM   42  C1  UNL     1      12.918 -26.318 -59.292  1.00  0.00     0.017 C 
ENDBRANCH  38  41
ENDBRANCH   1  37
TORSDOF 12
ENDMDL
MODEL 4
REMARK VINA RESULT: -7.981293140      2.482      8.445
REMARK  12 active torsions:
REMARK  status: ('A' for Active; 'I' for Inactive)
REMARK    1  A    between atoms: C2_2  and  C3_3 
REMARK       I    between atoms: C3_3  and  N1_5 
REMARK    2  A    between atoms: N1_5  and  C4_7 
REMARK    3  A    between atoms: C6_9  and  O2_10 
REMARK    4  A    between atoms: O2_10  and  C7_11 
REMARK    5  A    between atoms: C7_11  and  C8_12 
REMARK    6  A    between atoms: C14_20  and  N2_21 
REMARK    7  A    between atoms: N2_21  and  C15_23 
REMARK    8  A    between atoms: C17_27  and  N4_28 
REMARK    9  A    between atoms: N4_28  and  C19_30 
REMARK   10  A    between atoms: C19_30  and  C20_31 
REMARK   11  A    between atoms: C25_36  and  C26_37 
REMARK   12  A    between atoms: C26_37  and  O3_38 
ROOT
HETATM    1  C4  UNL     1      19.690 -23.665 -52.593  1.00  0.00     0.059 A 
HETATM    2  C5  UNL     1      18.517 -23.263 -53.139  1.00  0.00     0.070 A 
HETATM    3  C6  UNL     1      17.502 -24.182 -53.497  1.00  0.00     0.098 A 
HETATM    4  C14 UNL     1      17.689 -25.534 -53.285  1.00  0.00     0.069 A 
HETATM    5  C27 UNL     1      18.880 -25.968 -52.763  1.00  0.00     0.058 A 
HETATM    6  C28 UNL     1      19.828 -25.095 -52.425  1.00  0.00     0.063 A 
HETATM    7 CL3  UNL     1      21.332 -25.670 -51.786  1.00  0.00    -0.082 Cl
ENDROOT
BRANCH   4   8
HETATM    8  N2  UNL     1      16.527 -26.352 -53.366  1.00  0.00    -0.340 N 
ATOM      9  H2  UNL     1      15.913 -26.283 -52.554  1.00  0.00     0.167 HD
BRANCH   8  10
HETATM   10  C15 UNL     1      16.113 -27.146 -54.256  1.00  0.00     0.114 A 
HETATM   11  N3  UNL     1      16.873 -27.795 -55.140  1.00  0.00    -0.350 N 
HETATM   12  C16 UNL     1      16.414 -28.786 -55.934  1.00  0.00     0.119 A 
ATOM     13  H3  UNL     1      17.854 -27.529 -55.220  1.00  0.00     0.166 HD
HETATM   14  C17 UNL     1      15.056 -29.209 -55.868  1.00  0.00     0.049 A 
HETATM   15  C24 UNL     1      14.274 -28.542 -54.975  1.00  0.00     0.044 A 
HETATM   16  C25 UNL     1      14.725 -27.514 -54.151  1.00  0.00     0.011 A 
BRANCH  14  17
HETATM   17  N4  UNL     1      14.733 -30.432 -56.545  1.00  0.00    -0.363 N 
HETATM   18  C18 UNL     1      13.373 -30.789 -56.862  1.00  0.00     0.155 C 
BRANCH  17  19
HETATM   19  C19 UNL     1      15.779 -31.230 -57.079  1.00  0.00     0.072 C 
BRANCH  19  20
HETATM   20  C20 UNL     1      16.099 -31.273 -58.501  1.00  0.00    -0.019 C 
HETATM   21  C21 UNL     1      16.147 -29.958 -59.238  1.00  0.00     0.020 C 
HETATM   22  C22 UNL     1      17.613 -31.717 -58.530  1.00  0.00     0.020 C 
HETATM   23  C23 UNL     1      15.428 -32.301 -59.337  1.00  0.00     0.020 C 
ENDBRANCH  19  20
ENDBRANCH  17  19
ENDBRANCH  14  17
BRANCH  16  24
HETATM   24  C26 UNL     1      14.007 -26.937 -53.020  1.00  0.00     0.206 C 
BRANCH  24  25
HETATM   25  O3  UNL     1      14.120 -27.646 -51.793  1.00  0.00    -0.396 OA
ATOM     26  H3  UNL     1      13.822 -28.549 -51.811  1.00  0.00     0.209 HD
ENDBRANCH  24  25
ENDBRANCH  16  24
ENDBRANCH   8  10
ENDBRANCH   4   8
BRANCH   3  27
HETATM   27  O2  UNL     1      16.345 -23.586 -54.089  1.00  0.00    -0.344 OA
BRANCH  27  28
HETATM   28  C7  UNL     1      16.475 -23.201 -55.477  1.00  0.00     0.216 C 
BRANCH  28  29
HETATM   29  C8  UNL     1      15.694 -24.140 -56.288  1.00  0.00    -0.012 A 
HETATM   30  C9  UNL     1      14.365 -24.326 -56.078  1.00  0.00     0.013 A 
HETATM   31  C10 UNL     1      13.630 -25.241 -56.767  1.00  0.00     0.024 A 
HETATM   32  C11 UNL     1      14.267 -26.033 -57.757  1.00  0.00     0.035 A 
HETATM   33 CL1  UNL     1      13.351 -27.251 -58.637  1.00  0.00    -0.084 Cl
HETATM   34  C12 UNL     1      15.621 -25.829 -57.979  1.00  0.00     0.048 A 
HETATM   35  C13 UNL     1      16.296 -24.906 -57.250  1.00  0.00     0.044 A 
HETATM   36 CL2  UNL     1      18.007 -24.710 -57.629  1.00  0.00    -0.084 Cl
ENDBRANCH  28  29
ENDBRANCH  27  28
ENDBRANCH   3  27
BRANCH   1  37
HETATM   37  N1  UNL     1      20.657 -22.827 -51.945  1.00  0.00    -0.322 N 
HETATM   38  C3  UNL     1      21.668 -22.054 -52.599  1.00  0.00     0.244 C 
HETATM   39  O1  UNL     1      21.809 -22.079 -53.818  1.00  0.00    -0.268 OA
ATOM     40  H1  UNL     1      20.621 -22.778 -50.928  1.00  0.00     0.169 HD
BRANCH  38  41
HETATM   41  C2  UNL     1      22.501 -21.204 -51.793  1.00  0.00     0.064 C 
HETATM   42  C1  UNL     1      23.793 -21.112 -51.818  1.00  0.00     0.017 C 
ENDBRANCH  38  41
ENDBRANCH   1  37
TORSDOF 12
ENDMDL
MODEL 5
REMARK VINA RESULT: -7.785190292      3.007      8.964
REMARK  12 active torsions:
REMARK  status: ('A' for Active; 'I' for Inactive)
REMARK    1  A    between atoms: C2_2  and  C3_3 
REMARK       I    between atoms: C3_3  and  N1_5 
REMARK    2  A    between atoms: N1_5  and  C4_7 
REMARK    3  A    between atoms: C6_9  and  O2_10 
REMARK    4  A    between atoms: O2_10  and  C7_11 
REMARK    5  A    between atoms: C7_11  and  C8_12 
REMARK    6  A    between atoms: C14_20  and  N2_21 
REMARK    7  A    between atoms: N2_21  and  C15_23 
REMARK    8  A    between atoms: C17_27  and  N4_28 
REMARK    9  A    between atoms: N4_28  and  C19_30 
REMARK   10  A    between atoms: C19_30  and  C20_31 
REMARK   11  A    between atoms: C25_36  and  C26_37 
REMARK   12  A    between atoms: C26_37  and  O3_38 
ROOT
HETATM    1  C4  UNL     1      19.691 -24.127 -52.625  1.00  0.00     0.059 A 
HETATM    2  C5  UNL     1      18.444 -23.841 -53.071  1.00  0.00     0.070 A 
HETATM    3  C6  UNL     1      17.529 -24.853 -53.443  1.00  0.00     0.098 A 
HETATM    4  C14 UNL     1      17.895 -26.182 -53.350  1.00  0.00     0.069 A 
HETATM    5  C27 UNL     1      19.161 -26.497 -52.932  1.00  0.00     0.058 A 
HETATM    6  C28 UNL     1      20.015 -25.536 -52.580  1.00  0.00     0.063 A 
HETATM    7 CL3  UNL     1      21.617 -25.958 -52.073  1.00  0.00    -0.082 Cl
ENDROOT
BRANCH   4   8
HETATM    8  N2  UNL     1      16.839 -27.134 -53.431  1.00  0.00    -0.340 N 
ATOM      9  H2  UNL     1      16.482 -27.435 -52.524  1.00  0.00     0.167 HD
BRANCH   8  10
HETATM   10  C15 UNL     1      16.262 -27.674 -54.416  1.00  0.00     0.114 A 
HETATM   11  N3  UNL     1      16.861 -28.153 -55.508  1.00  0.00    -0.350 N 
HETATM   12  C16 UNL     1      16.231 -28.903 -56.436  1.00  0.00     0.119 A 
ATOM     13  H3  UNL     1      17.849 -27.942 -55.647  1.00  0.00     0.166 HD
HETATM   14  C17 UNL     1      14.854 -29.238 -56.298  1.00  0.00     0.049 A 
HETATM   15  C24 UNL     1      14.236 -28.741 -55.191  1.00  0.00     0.044 A 
HETATM   16  C25 UNL     1      14.865 -27.962 -54.224  1.00  0.00     0.011 A 
BRANCH  14  17
HETATM   17  N4  UNL     1      14.350 -30.249 -57.182  1.00  0.00    -0.363 N 
HETATM   18  C18 UNL     1      15.229 -31.122 -57.918  1.00  0.00     0.155 C 
BRANCH  17  19
HETATM   19  C19 UNL     1      12.958 -30.523 -57.205  1.00  0.00     0.072 C 
BRANCH  19  20
HETATM   20  C20 UNL     1      12.380 -31.750 -56.669  1.00  0.00    -0.019 C 
HETATM   21  C21 UNL     1      12.972 -32.291 -55.391  1.00  0.00     0.020 C 
HETATM   22  C22 UNL     1      10.938 -31.313 -56.201  1.00  0.00     0.020 C 
HETATM   23  C23 UNL     1      12.106 -32.863 -57.613  1.00  0.00     0.020 C 
ENDBRANCH  19  20
ENDBRANCH  17  19
ENDBRANCH  14  17
BRANCH  16  24
HETATM   24  C26 UNL     1      14.327 -27.612 -52.914  1.00  0.00     0.206 C 
BRANCH  24  25
HETATM   25  O3  UNL     1      14.027 -26.236 -52.720  1.00  0.00    -0.396 OA
ATOM     26  H3  UNL     1      14.774 -25.648 -52.722  1.00  0.00     0.209 HD
ENDBRANCH  24  25
ENDBRANCH  16  24
ENDBRANCH   8  10
ENDBRANCH   4   8
BRANCH   3  27
HETATM   27  O2  UNL     1      16.271 -24.370 -53.920  1.00  0.00    -0.344 OA
BRANCH  27  28
HETATM   28  C7  UNL     1      16.309 -23.634 -55.164  1.00  0.00     0.216 C 
BRANCH  28  29
HETATM   29  C8  UNL     1      15.568 -24.397 -56.172  1.00  0.00    -0.012 A 
HETATM   30  C9  UNL     1      14.237 -24.642 -56.042  1.00  0.00     0.013 A 
HETATM   31  C10 UNL     1      13.537 -25.406 -56.924  1.00  0.00     0.024 A 
HETATM   32  C11 UNL     1      14.214 -25.969 -58.036  1.00  0.00     0.035 A 
HETATM   33 CL1  UNL     1      13.345 -26.994 -59.173  1.00  0.00    -0.084 Cl
HETATM   34  C12 UNL     1      15.569 -25.705 -58.174  1.00  0.00     0.048 A 
HETATM   35  C13 UNL     1      16.208 -24.941 -57.253  1.00  0.00     0.044 A 
HETATM   36 CL2  UNL     1      17.924 -24.647 -57.536  1.00  0.00    -0.084 Cl
ENDBRANCH  28  29
ENDBRANCH  27  28
ENDBRANCH   3  27
BRANCH   1  37
HETATM   37  N1  UNL     1      20.587 -23.221 -51.968  1.00  0.00    -0.322 N 
HETATM   38  C3  UNL     1      21.413 -22.244 -52.611  1.00  0.00     0.244 C 
HETATM   39  O1  UNL     1      21.439 -22.129 -53.832  1.00  0.00    -0.268 OA
ATOM     40  H1  UNL     1      20.641 -23.277 -50.951  1.00  0.00     0.169 HD
BRANCH  38  41
HETATM   41  C2  UNL     1      22.190 -21.362 -51.785  1.00  0.00     0.064 C 
HETATM   42  C1  UNL     1      23.471 -21.167 -51.825  1.00  0.00     0.017 C 
ENDBRANCH  38  41
ENDBRANCH   1  37
TORSDOF 12
ENDMDL
