MODEL 1
REMARK VINA RESULT: -8.041729080      0.000      0.000
REMARK  9 active torsions:
REMARK  status: ('A' for Active; 'I' for Inactive)
REMARK    1  A    between atoms: C2_2  and  C3_3 
REMARK    2  A    between atoms: C3_3  and  N1_7 
REMARK    3  A    between atoms: C4_4  and  O1_5 
REMARK    4  A    between atoms: N1_7  and  C6_9 
REMARK    5  A    between atoms: C8_11  and  C9_12 
REMARK    6  A    between atoms: N2_20  and  C15_21 
REMARK    7  A    between atoms: C18_24  and  C19_25 
REMARK    8  A    between atoms: C23_34  and  C24_35 
REMARK    9  A    between atoms: C24_35  and  O2_36 
ROOT
HETATM    1  C6  UNL     1      12.109 -26.401 -56.522  1.00  0.00     0.122 A 
HETATM    2  C7  UNL     1      12.917 -27.453 -55.980  1.00  0.00     0.082 A 
HETATM    3  C8  UNL     1      14.252 -27.080 -56.185  1.00  0.00     0.072 A 
HETATM    4  N2  UNL     1      14.298 -25.928 -56.796  1.00  0.00    -0.254 N 
HETATM    5  N5  UNL     1      12.962 -25.537 -56.989  1.00  0.00    -0.278 N 
ATOM      6  H5  UNL     1      12.691 -24.667 -57.447  1.00  0.00     0.189 HD
ENDROOT
BRANCH   4   7
HETATM    7  C15 UNL     1      15.297 -25.052 -57.207  1.00  0.00     0.065 A 
HETATM    8  C16 UNL     1      15.566 -23.883 -56.518  1.00  0.00     0.033 A 
HETATM    9  C17 UNL     1      16.581 -23.046 -56.880  1.00  0.00     0.015 A 
HETATM   10  C18 UNL     1      17.395 -23.328 -57.951  1.00  0.00    -0.021 A 
HETATM   11  C22 UNL     1      17.154 -24.494 -58.657  1.00  0.00     0.024 A 
HETATM   12  C23 UNL     1      16.103 -25.337 -58.276  1.00  0.00    -0.005 A 
BRANCH  10  13
HETATM   13  C19 UNL     1      18.453 -22.378 -58.346  1.00  0.00     0.031 A 
HETATM   14  C20 UNL     1      18.514 -21.605 -59.506  1.00  0.00     0.122 A 
HETATM   15  N3  UNL     1      19.687 -20.915 -59.485  1.00  0.00    -0.310 N 
HETATM   16  N4  UNL     1      20.379 -21.190 -58.399  1.00  0.00    -0.289 N 
ATOM     17  H3  UNL     1      19.990 -20.270 -60.215  1.00  0.00     0.186 HD
HETATM   18  C21 UNL     1      19.622 -22.105 -57.665  1.00  0.00     0.130 A 
ATOM     19  H4  UNL     1      21.290 -20.809 -58.143  1.00  0.00     0.188 HD
HETATM   20 CL3  UNL     1      20.063 -22.771 -56.100  1.00  0.00    -0.062 Cl
ENDBRANCH  10  13
BRANCH  12  21
HETATM   21  C24 UNL     1      15.802 -26.470 -59.186  1.00  0.00     0.205 C 
BRANCH  21  22
HETATM   22  O2  UNL     1      15.397 -26.164 -60.496  1.00  0.00    -0.396 OA
ATOM     23  H2  UNL     1      15.127 -26.884 -61.054  1.00  0.00     0.209 HD
ENDBRANCH  21  22
ENDBRANCH  12  21
ENDBRANCH   4   7
BRANCH   3  24
HETATM   24  C9  UNL     1      15.276 -27.876 -55.462  1.00  0.00     0.016 A 
HETATM   25  C10 UNL     1      15.574 -29.112 -56.122  1.00  0.00     0.039 A 
HETATM   26  C11 UNL     1      16.537 -29.967 -55.643  1.00  0.00     0.035 A 
HETATM   27 CL1  UNL     1      16.797 -31.574 -56.350  1.00  0.00    -0.084 Cl
HETATM   28  C12 UNL     1      17.212 -29.569 -54.481  1.00  0.00     0.025 A 
HETATM   29  C13 UNL     1      16.900 -28.385 -53.881  1.00  0.00     0.026 A 
HETATM   30  C14 UNL     1      15.920 -27.530 -54.368  1.00  0.00     0.046 A 
HETATM   31 CL2  UNL     1      15.675 -26.014 -53.440  1.00  0.00    -0.083 Cl
ENDBRANCH   3  24
BRANCH   1  32
HETATM   32  N1  UNL     1      10.855 -26.447 -56.447  1.00  0.00    -0.343 N 
ATOM     33  H1  UNL     1      10.445 -25.523 -56.308  1.00  0.00     0.167 HD
BRANCH  32  34
HETATM   34  C3  UNL     1       9.895 -27.440 -56.504  1.00  0.00     0.032 C 
HETATM   35  C4  UNL     1       9.088 -27.863 -57.617  1.00  0.00     0.159 C 
BRANCH  34  36
HETATM   36  C2  UNL     1       9.353 -27.812 -55.102  1.00  0.00     0.054 C 
HETATM   37  C1  UNL     1       8.997 -26.530 -54.323  1.00  0.00     0.011 C 
ENDBRANCH  34  36
BRANCH  35  38
HETATM   38  O1  UNL     1       9.656 -28.454 -58.652  1.00  0.00    -0.366 OA
HETATM   39  C5  UNL     1      10.139 -27.831 -59.711  1.00  0.00     0.209 C 
ENDBRANCH  35  38
ENDBRANCH  32  34
ENDBRANCH   1  32
TORSDOF 9
ENDMDL
MODEL 2
REMARK VINA RESULT: -7.857777781      9.157     14.264
REMARK  9 active torsions:
REMARK  status: ('A' for Active; 'I' for Inactive)
REMARK    1  A    between atoms: C2_2  and  C3_3 
REMARK    2  A    between atoms: C3_3  and  N1_7 
REMARK    3  A    between atoms: C4_4  and  O1_5 
REMARK    4  A    between atoms: N1_7  and  C6_9 
REMARK    5  A    between atoms: C8_11  and  C9_12 
REMARK    6  A    between atoms: N2_20  and  C15_21 
REMARK    7  A    between atoms: C18_24  and  C19_25 
REMARK    8  A    between atoms: C23_34  and  C24_35 
REMARK    9  A    between atoms: C24_35  and  O2_36 
ROOT
HETATM    1  C6  UNL     1       7.372 -30.825 -60.958  1.00  0.00     0.122 A 
HETATM    2  C7  UNL     1       7.580 -31.891 -60.026  1.00  0.00     0.082 A 
HETATM    3  C8  UNL     1       7.039 -33.045 -60.607  1.00  0.00     0.072 A 
HETATM    4  N2  UNL     1       6.533 -32.753 -61.774  1.00  0.00    -0.254 N 
HETATM    5  N5  UNL     1       6.755 -31.379 -61.961  1.00  0.00    -0.278 N 
ATOM      6  H5  UNL     1       6.462 -30.869 -62.794  1.00  0.00     0.189 HD
ENDROOT
BRANCH   4   7
HETATM    7  C15 UNL     1       5.930 -33.460 -62.809  1.00  0.00     0.065 A 
HETATM    8  C16 UNL     1       6.505 -33.541 -64.065  1.00  0.00     0.033 A 
HETATM    9  C17 UNL     1       5.950 -34.279 -65.070  1.00  0.00     0.015 A 
HETATM   10  C18 UNL     1       4.787 -34.987 -64.881  1.00  0.00    -0.021 A 
HETATM   11  C22 UNL     1       4.191 -34.929 -63.633  1.00  0.00     0.024 A 
HETATM   12  C23 UNL     1       4.771 -34.161 -62.616  1.00  0.00    -0.005 A 
BRANCH  10  13
HETATM   13  C19 UNL     1       4.187 -35.735 -66.002  1.00  0.00     0.031 A 
HETATM   14  C20 UNL     1       2.841 -35.786 -66.368  1.00  0.00     0.122 A 
HETATM   15  N3  UNL     1       2.730 -36.637 -67.424  1.00  0.00    -0.310 N 
HETATM   16  N4  UNL     1       3.903 -37.133 -67.760  1.00  0.00    -0.289 N 
ATOM     17  H3  UNL     1       1.853 -36.862 -67.895  1.00  0.00     0.186 HD
HETATM   18  C21 UNL     1       4.835 -36.578 -66.882  1.00  0.00     0.130 A 
ATOM     19  H4  UNL     1       4.093 -37.793 -68.514  1.00  0.00     0.188 HD
HETATM   20 CL3  UNL     1       6.568 -36.868 -66.917  1.00  0.00    -0.062 Cl
ENDBRANCH  10  13
BRANCH  12  21
HETATM   21  C24 UNL     1       3.980 -34.011 -61.369  1.00  0.00     0.205 C 
BRANCH  21  22
HETATM   22  O2  UNL     1       2.586 -34.155 -61.459  1.00  0.00    -0.396 OA
ATOM     23  H2  UNL     1       2.046 -33.465 -61.093  1.00  0.00     0.209 HD
ENDBRANCH  21  22
ENDBRANCH  12  21
ENDBRANCH   4   7
BRANCH   3  24
HETATM   24  C9  UNL     1       7.380 -34.334 -59.953  1.00  0.00     0.016 A 
HETATM   25  C10 UNL     1       8.536 -34.951 -60.531  1.00  0.00     0.039 A 
HETATM   26  C11 UNL     1       9.049 -36.123 -60.031  1.00  0.00     0.035 A 
HETATM   27 CL1  UNL     1      10.374 -36.986 -60.840  1.00  0.00    -0.084 Cl
HETATM   28  C12 UNL     1       8.389 -36.681 -58.928  1.00  0.00     0.025 A 
HETATM   29  C13 UNL     1       7.290 -36.064 -58.406  1.00  0.00     0.026 A 
HETATM   30  C14 UNL     1       6.774 -34.883 -58.922  1.00  0.00     0.046 A 
HETATM   31 CL2  UNL     1       5.332 -34.227 -58.079  1.00  0.00    -0.083 Cl
ENDBRANCH   3  24
BRANCH   1  32
HETATM   32  N1  UNL     1       7.792 -29.665 -60.717  1.00  0.00    -0.343 N 
ATOM     33  H1  UNL     1       7.095 -28.951 -60.929  1.00  0.00     0.167 HD
BRANCH  32  34
HETATM   34  C3  UNL     1       8.967 -29.118 -60.234  1.00  0.00     0.032 C 
HETATM   35  C4  UNL     1       9.157 -28.138 -59.199  1.00  0.00     0.159 C 
BRANCH  34  36
HETATM   36  C2  UNL     1      10.140 -29.276 -61.233  1.00  0.00     0.054 C 
HETATM   37  C1  UNL     1      11.296 -30.044 -60.562  1.00  0.00     0.011 C 
ENDBRANCH  34  36
BRANCH  35  38
HETATM   38  O1  UNL     1       8.870 -28.442 -57.946  1.00  0.00    -0.366 OA
HETATM   39  C5  UNL     1       9.298 -27.779 -56.887  1.00  0.00     0.209 C 
ENDBRANCH  35  38
ENDBRANCH  32  34
ENDBRANCH   1  32
TORSDOF 9
ENDMDL
MODEL 3
REMARK VINA RESULT: -7.839765362      1.040      1.741
REMARK  9 active torsions:
REMARK  status: ('A' for Active; 'I' for Inactive)
REMARK    1  A    between atoms: C2_2  and  C3_3 
REMARK    2  A    between atoms: C3_3  and  N1_7 
REMARK    3  A    between atoms: C4_4  and  O1_5 
REMARK    4  A    between atoms: N1_7  and  C6_9 
REMARK    5  A    between atoms: C8_11  and  C9_12 
REMARK    6  A    between atoms: N2_20  and  C15_21 
REMARK    7  A    between atoms: C18_24  and  C19_25 
REMARK    8  A    between atoms: C23_34  and  C24_35 
REMARK    9  A    between atoms: C24_35  and  O2_36 
ROOT
HETATM    1  C6  UNL     1      12.406 -27.058 -57.436  1.00  0.00     0.122 A 
HETATM    2  C7  UNL     1      13.196 -27.925 -56.614  1.00  0.00     0.082 A 
HETATM    3  C8  UNL     1      14.485 -27.378 -56.576  1.00  0.00     0.072 A 
HETATM    4  N2  UNL     1      14.523 -26.291 -57.297  1.00  0.00    -0.254 N 
HETATM    5  N5  UNL     1      13.227 -26.122 -57.812  1.00  0.00    -0.278 N 
ATOM      6  H5  UNL     1      12.959 -25.346 -58.418  1.00  0.00     0.189 HD
ENDROOT
BRANCH   4   7
HETATM    7  C15 UNL     1      15.471 -25.316 -57.589  1.00  0.00     0.065 A 
HETATM    8  C16 UNL     1      15.647 -24.208 -56.780  1.00  0.00     0.033 A 
HETATM    9  C17 UNL     1      16.612 -23.276 -57.027  1.00  0.00     0.015 A 
HETATM   10  C18 UNL     1      17.467 -23.396 -58.097  1.00  0.00    -0.021 A 
HETATM   11  C22 UNL     1      17.319 -24.497 -58.922  1.00  0.00     0.024 A 
HETATM   12  C23 UNL     1      16.317 -25.440 -58.658  1.00  0.00    -0.005 A 
BRANCH  10  13
HETATM   13  C19 UNL     1      18.468 -22.346 -58.365  1.00  0.00     0.031 A 
HETATM   14  C20 UNL     1      18.517 -21.473 -59.452  1.00  0.00     0.122 A 
HETATM   15  N3  UNL     1      19.636 -20.710 -59.323  1.00  0.00    -0.310 N 
HETATM   16  N4  UNL     1      20.305 -21.030 -58.234  1.00  0.00    -0.289 N 
ATOM     17  H3  UNL     1      19.920 -19.985 -59.982  1.00  0.00     0.186 HD
HETATM   18  C21 UNL     1      19.588 -22.054 -57.613  1.00  0.00     0.130 A 
ATOM     19  H4  UNL     1      21.177 -20.611 -57.909  1.00  0.00     0.188 HD
HETATM   20 CL3  UNL     1      20.017 -22.821 -56.092  1.00  0.00    -0.062 Cl
ENDBRANCH  10  13
BRANCH  12  21
HETATM   21  C24 UNL     1      16.112 -26.492 -59.684  1.00  0.00     0.205 C 
BRANCH  21  22
HETATM   22  O2  UNL     1      14.985 -26.380 -60.516  1.00  0.00    -0.396 OA
ATOM     23  H2  UNL     1      14.162 -26.729 -60.193  1.00  0.00     0.209 HD
ENDBRANCH  21  22
ENDBRANCH  12  21
ENDBRANCH   4   7
BRANCH   3  24
HETATM   24  C9  UNL     1      15.411 -27.946 -55.563  1.00  0.00     0.016 A 
HETATM   25  C10 UNL     1      16.040 -29.151 -56.012  1.00  0.00     0.039 A 
HETATM   26  C11 UNL     1      16.975 -29.802 -55.243  1.00  0.00     0.035 A 
HETATM   27 CL1  UNL     1      17.635 -31.382 -55.710  1.00  0.00    -0.084 Cl
HETATM   28  C12 UNL     1      17.283 -29.226 -54.004  1.00  0.00     0.025 A 
HETATM   29  C13 UNL     1      16.662 -28.077 -53.611  1.00  0.00     0.026 A 
HETATM   30  C14 UNL     1      15.713 -27.430 -54.390  1.00  0.00     0.046 A 
HETATM   31 CL2  UNL     1      15.028 -25.923 -53.697  1.00  0.00    -0.083 Cl
ENDBRANCH   3  24
BRANCH   1  32
HETATM   32  N1  UNL     1      11.183 -27.282 -57.622  1.00  0.00    -0.343 N 
ATOM     33  H1  UNL     1      10.973 -27.486 -58.599  1.00  0.00     0.167 HD
BRANCH  32  34
HETATM   34  C3  UNL     1      10.051 -27.320 -56.828  1.00  0.00     0.032 C 
HETATM   35  C4  UNL     1       9.923 -27.095 -55.414  1.00  0.00     0.159 C 
BRANCH  34  36
HETATM   36  C2  UNL     1       8.901 -28.120 -57.488  1.00  0.00     0.054 C 
HETATM   37  C1  UNL     1       9.274 -28.468 -58.943  1.00  0.00     0.011 C 
ENDBRANCH  34  36
BRANCH  35  38
HETATM   38  O1  UNL     1      10.140 -25.890 -54.919  1.00  0.00    -0.366 OA
HETATM   39  C5  UNL     1       9.205 -24.989 -54.677  1.00  0.00     0.209 C 
ENDBRANCH  35  38
ENDBRANCH  32  34
ENDBRANCH   1  32
TORSDOF 9
ENDMDL
MODEL 4
REMARK VINA RESULT: -7.822063199      1.122      1.480
REMARK  9 active torsions:
REMARK  status: ('A' for Active; 'I' for Inactive)
REMARK    1  A    between atoms: C2_2  and  C3_3 
REMARK    2  A    between atoms: C3_3  and  N1_7 
REMARK    3  A    between atoms: C4_4  and  O1_5 
REMARK    4  A    between atoms: N1_7  and  C6_9 
REMARK    5  A    between atoms: C8_11  and  C9_12 
REMARK    6  A    between atoms: N2_20  and  C15_21 
REMARK    7  A    between atoms: C18_24  and  C19_25 
REMARK    8  A    between atoms: C23_34  and  C24_35 
REMARK    9  A    between atoms: C24_35  and  O2_36 
ROOT
HETATM    1  C6  UNL     1      12.506 -26.989 -57.679  1.00  0.00     0.122 A 
HETATM    2  C7  UNL     1      13.250 -27.828 -56.788  1.00  0.00     0.082 A 
HETATM    3  C8  UNL     1      14.532 -27.271 -56.687  1.00  0.00     0.072 A 
HETATM    4  N2  UNL     1      14.606 -26.203 -57.432  1.00  0.00    -0.254 N 
HETATM    5  N5  UNL     1      13.343 -26.056 -58.029  1.00  0.00    -0.278 N 
ATOM      6  H5  UNL     1      13.107 -25.299 -58.670  1.00  0.00     0.189 HD
ENDROOT
BRANCH   4   7
HETATM    7  C15 UNL     1      15.564 -25.228 -57.692  1.00  0.00     0.065 A 
HETATM    8  C16 UNL     1      15.726 -24.130 -56.867  1.00  0.00     0.033 A 
HETATM    9  C17 UNL     1      16.700 -23.199 -57.082  1.00  0.00     0.015 A 
HETATM   10  C18 UNL     1      17.578 -23.311 -58.133  1.00  0.00    -0.021 A 
HETATM   11  C22 UNL     1      17.445 -24.402 -58.974  1.00  0.00     0.024 A 
HETATM   12  C23 UNL     1      16.434 -25.343 -58.743  1.00  0.00    -0.005 A 
BRANCH  10  13
HETATM   13  C19 UNL     1      18.589 -22.261 -58.367  1.00  0.00     0.031 A 
HETATM   14  C20 UNL     1      18.665 -21.376 -59.442  1.00  0.00     0.122 A 
HETATM   15  N3  UNL     1      19.784 -20.619 -59.280  1.00  0.00    -0.310 N 
HETATM   16  N4  UNL     1      20.428 -20.955 -58.181  1.00  0.00    -0.289 N 
ATOM     17  H3  UNL     1      20.085 -19.887 -59.924  1.00  0.00     0.186 HD
HETATM   18  C21 UNL     1      19.694 -21.983 -57.588  1.00  0.00     0.130 A 
ATOM     19  H4  UNL     1      21.294 -20.544 -57.831  1.00  0.00     0.188 HD
HETATM   20 CL3  UNL     1      20.087 -22.771 -56.067  1.00  0.00    -0.062 Cl
ENDBRANCH  10  13
BRANCH  12  21
HETATM   21  C24 UNL     1      16.248 -26.382 -59.786  1.00  0.00     0.205 C 
BRANCH  21  22
HETATM   22  O2  UNL     1      15.091 -26.308 -60.581  1.00  0.00    -0.396 OA
ATOM     23  H2  UNL     1      15.200 -26.087 -61.498  1.00  0.00     0.209 HD
ENDBRANCH  21  22
ENDBRANCH  12  21
ENDBRANCH   4   7
BRANCH   3  24
HETATM   24  C9  UNL     1      15.398 -27.806 -55.606  1.00  0.00     0.016 A 
HETATM   25  C10 UNL     1      16.085 -29.000 -55.996  1.00  0.00     0.039 A 
HETATM   26  C11 UNL     1      16.980 -29.619 -55.157  1.00  0.00     0.035 A 
HETATM   27 CL1  UNL     1      17.708 -31.187 -55.559  1.00  0.00    -0.084 Cl
HETATM   28  C12 UNL     1      17.188 -29.024 -53.906  1.00  0.00     0.025 A 
HETATM   29  C13 UNL     1      16.514 -27.887 -53.570  1.00  0.00     0.026 A 
HETATM   30  C14 UNL     1      15.606 -27.271 -54.421  1.00  0.00     0.046 A 
HETATM   31 CL2  UNL     1      14.838 -25.775 -53.795  1.00  0.00    -0.083 Cl
ENDBRANCH   3  24
BRANCH   1  32
HETATM   32  N1  UNL     1      11.298 -27.227 -57.932  1.00  0.00    -0.343 N 
ATOM     33  H1  UNL     1      10.693 -27.036 -57.133  1.00  0.00     0.167 HD
BRANCH  32  34
HETATM   34  C3  UNL     1      10.587 -27.684 -59.026  1.00  0.00     0.032 C 
HETATM   35  C4  UNL     1      10.780 -27.397 -60.422  1.00  0.00     0.159 C 
BRANCH  34  36
HETATM   36  C2  UNL     1       9.181 -28.201 -58.636  1.00  0.00     0.054 C 
HETATM   37  C1  UNL     1       8.945 -27.986 -57.127  1.00  0.00     0.011 C 
ENDBRANCH  34  36
BRANCH  35  38
HETATM   38  O1  UNL     1      11.865 -27.833 -61.037  1.00  0.00    -0.366 OA
HETATM   39  C5  UNL     1      12.403 -29.027 -60.873  1.00  0.00     0.209 C 
ENDBRANCH  35  38
ENDBRANCH  32  34
ENDBRANCH   1  32
TORSDOF 9
ENDMDL
MODEL 5
REMARK VINA RESULT: -7.582855436      1.180      1.956
REMARK  9 active torsions:
REMARK  status: ('A' for Active; 'I' for Inactive)
REMARK    1  A    between atoms: C2_2  and  C3_3 
REMARK    2  A    between atoms: C3_3  and  N1_7 
REMARK    3  A    between atoms: C4_4  and  O1_5 
REMARK    4  A    between atoms: N1_7  and  C6_9 
REMARK    5  A    between atoms: C8_11  and  C9_12 
REMARK    6  A    between atoms: N2_20  and  C15_21 
REMARK    7  A    between atoms: C18_24  and  C19_25 
REMARK    8  A    between atoms: C23_34  and  C24_35 
REMARK    9  A    between atoms: C24_35  and  O2_36 
ROOT
HETATM    1  C6  UNL     1      12.505 -26.449 -56.675  1.00  0.00     0.122 A 
HETATM    2  C7  UNL     1      13.223 -27.577 -56.163  1.00  0.00     0.082 A 
HETATM    3  C8  UNL     1      14.584 -27.248 -56.220  1.00  0.00     0.072 A 
HETATM    4  N2  UNL     1      14.725 -26.050 -56.719  1.00  0.00    -0.254 N 
HETATM    5  N5  UNL     1      13.427 -25.586 -56.988  1.00  0.00    -0.278 N 
ATOM      6  H5  UNL     1      13.228 -24.669 -57.388  1.00  0.00     0.189 HD
ENDROOT
BRANCH   4   7
HETATM    7  C15 UNL     1      15.788 -25.187 -56.963  1.00  0.00     0.065 A 
HETATM    8  C16 UNL     1      16.155 -24.211 -56.053  1.00  0.00     0.033 A 
HETATM    9  C17 UNL     1      17.230 -23.397 -56.258  1.00  0.00     0.015 A 
HETATM   10  C18 UNL     1      18.010 -23.510 -57.383  1.00  0.00    -0.021 A 
HETATM   11  C22 UNL     1      17.671 -24.481 -58.310  1.00  0.00     0.024 A 
HETATM   12  C23 UNL     1      16.559 -25.303 -58.087  1.00  0.00    -0.005 A 
BRANCH  10  13
HETATM   13  C19 UNL     1      19.137 -22.582 -57.599  1.00  0.00     0.031 A 
HETATM   14  C20 UNL     1      20.205 -22.325 -56.738  1.00  0.00     0.122 A 
HETATM   15  N3  UNL     1      20.980 -21.364 -57.312  1.00  0.00    -0.310 N 
HETATM   16  N4  UNL     1      20.486 -20.989 -58.474  1.00  0.00    -0.289 N 
ATOM     17  H3  UNL     1      21.831 -20.984 -56.897  1.00  0.00     0.186 HD
HETATM   18  C21 UNL     1      19.329 -21.743 -58.678  1.00  0.00     0.130 A 
ATOM     19  H4  UNL     1      20.873 -20.285 -59.103  1.00  0.00     0.188 HD
HETATM   20 CL3  UNL     1      18.302 -21.672 -60.102  1.00  0.00    -0.062 Cl
ENDBRANCH  10  13
BRANCH  12  21
HETATM   21  C24 UNL     1      16.161 -26.194 -59.205  1.00  0.00     0.205 C 
BRANCH  21  22
HETATM   22  O2  UNL     1      15.727 -25.590 -60.397  1.00  0.00    -0.396 OA
ATOM     23  H2  UNL     1      16.373 -25.125 -60.916  1.00  0.00     0.209 HD
ENDBRANCH  21  22
ENDBRANCH  12  21
ENDBRANCH   4   7
BRANCH   3  24
HETATM   24  C9  UNL     1      15.510 -28.147 -55.487  1.00  0.00     0.016 A 
HETATM   25  C10 UNL     1      15.824 -29.331 -56.229  1.00  0.00     0.039 A 
HETATM   26  C11 UNL     1      16.710 -30.265 -55.749  1.00  0.00     0.035 A 
HETATM   27 CL1  UNL     1      16.979 -31.812 -56.576  1.00  0.00    -0.084 Cl
HETATM   28  C12 UNL     1      17.291 -30.000 -54.501  1.00  0.00     0.025 A 
HETATM   29  C13 UNL     1      16.966 -28.862 -53.824  1.00  0.00     0.026 A 
HETATM   30  C14 UNL     1      16.064 -27.926 -54.313  1.00  0.00     0.046 A 
HETATM   31 CL2  UNL     1      15.787 -26.490 -53.274  1.00  0.00    -0.083 Cl
ENDBRANCH   3  24
BRANCH   1  32
HETATM   32  N1  UNL     1      11.248 -26.446 -56.710  1.00  0.00    -0.343 N 
ATOM     33  H1  UNL     1      10.851 -25.665 -56.187  1.00  0.00     0.167 HD
BRANCH  32  34
HETATM   34  C3  UNL     1      10.272 -27.239 -57.284  1.00  0.00     0.032 C 
HETATM   35  C4  UNL     1       9.180 -27.935 -56.658  1.00  0.00     0.159 C 
BRANCH  34  36
HETATM   36  C2  UNL     1      10.689 -27.761 -58.681  1.00  0.00     0.054 C 
HETATM   37  C1  UNL     1       9.449 -28.281 -59.436  1.00  0.00     0.011 C 
ENDBRANCH  34  36
BRANCH  35  38
HETATM   38  O1  UNL     1       8.195 -27.250 -56.106  1.00  0.00    -0.366 OA
HETATM   39  C5  UNL     1       8.276 -26.592 -54.964  1.00  0.00     0.209 C 
ENDBRANCH  35  38
ENDBRANCH  32  34
ENDBRANCH   1  32
TORSDOF 9
ENDMDL
