MODEL 1
REMARK VINA RESULT: -7.490629016      0.000      0.000
REMARK  11 active torsions:
REMARK  status: ('A' for Active; 'I' for Inactive)
REMARK    1  A    between atoms: C2_2  and  C3_3 
REMARK    2  A    between atoms: C3_3  and  C4_4 
REMARK    3  A    between atoms: C4_4  and  C5_5 
REMARK    4  A    between atoms: C6_6  and  C7_7 
REMARK    5  A    between atoms: C9_9  and  O1_10 
REMARK    6  A    between atoms: O1_10  and  C10_11 
REMARK    7  A    between atoms: C11_13  and  C12_14 
REMARK    8  A    between atoms: C13_16  and  O3_17 
REMARK    9  A    between atoms: C14_19  and  O4_20 
REMARK   10  A    between atoms: C15_22  and  O5_23 
REMARK   11  A    between atoms: C17_26  and  N1_27 
ROOT
HETATM    1  C7  UNL     1      14.303  52.693  84.398  1.00  0.00     0.022 A 
HETATM    2  C8  UNL     1      14.737  53.420  85.513  1.00  0.00     0.057 A 
HETATM    3  C9  UNL     1      13.851  53.672  86.537  1.00  0.00     0.075 A 
HETATM    4  C16 UNL     1      12.547  53.195  86.436  1.00  0.00     0.066 A 
HETATM    5  C17 UNL     1      12.088  52.478  85.352  1.00  0.00     0.034 A 
HETATM    6  C26 UNL     1      12.994  52.239  84.340  1.00  0.00     0.050 A 
ENDROOT
BRANCH   3   7
HETATM    7  O1  UNL     1      14.185  54.378  87.673  1.00  0.00    -0.318 OA
BRANCH   7   8
HETATM    8  C10 UNL     1      14.533  53.870  88.912  1.00  0.00     0.298 C 
HETATM    9  O2  UNL     1      13.381  53.358  89.505  1.00  0.00    -0.349 OA
HETATM   10  C11 UNL     1      12.574  54.370  90.023  1.00  0.00     0.169 C 
HETATM   11  C13 UNL     1      13.204  54.996  91.258  1.00  0.00     0.179 C 
HETATM   12  C14 UNL     1      14.721  54.789  91.182  1.00  0.00     0.183 C 
HETATM   13  C15 UNL     1      15.113  55.009  89.735  1.00  0.00     0.205 C 
BRANCH  10  14
HETATM   14  C12 UNL     1      11.262  53.765  90.437  1.00  0.00     0.149 C 
HETATM   15 CL1  UNL     1       9.974  54.395  89.385  1.00  0.00    -0.128 Cl
ENDBRANCH  10  14
BRANCH  11  16
HETATM   16  O3  UNL     1      12.762  54.275  92.366  1.00  0.00    -0.390 OA
ATOM     17  H3  UNL     1      13.229  54.603  93.126  1.00  0.00     0.210 HD
ENDBRANCH  11  16
BRANCH  12  18
HETATM   18  O4  UNL     1      15.090  53.526  91.582  1.00  0.00    -0.390 OA
ATOM     19  H4  UNL     1      15.754  53.546  92.261  1.00  0.00     0.210 HD
ENDBRANCH  12  18
BRANCH  13  20
HETATM   20  O5  UNL     1      14.611  56.200  89.254  1.00  0.00    -0.388 OA
ATOM     21  H5  UNL     1      15.225  56.555  88.623  1.00  0.00     0.210 HD
ENDBRANCH  13  20
ENDBRANCH   7   8
ENDBRANCH   3   7
BRANCH   1  22
HETATM   22  C6  UNL     1      15.222  52.428  83.327  1.00  0.00    -0.067 C 
HETATM   23  C5  UNL     1      15.990  52.186  82.415  1.00  0.00    -0.101 C 
BRANCH  23  24
HETATM   24  C4  UNL     1      16.919  51.895  81.313  1.00  0.00     0.094 C 
BRANCH  24  25
HETATM   25  C3  UNL     1      16.090  51.870  80.046  1.00  0.00     0.012 C 
BRANCH  25  26
HETATM   26  C2  UNL     1      15.726  50.472  79.636  1.00  0.00    -0.004 C 
HETATM   27  C1  UNL     1      14.255  50.276  79.994  1.00  0.00     0.005 C 
ENDBRANCH  25  26
ENDBRANCH  24  25
ENDBRANCH  23  24
ENDBRANCH   1  22
BRANCH   5  28
HETATM   28  N1  UNL     1      10.748  51.996  85.234  1.00  0.00    -0.379 N 
HETATM   29  C18 UNL     1      10.477  51.113  84.132  1.00  0.00     0.151 C 
HETATM   30  C19 UNL     1       9.383  50.116  84.376  1.00  0.00     0.256 C 
HETATM   31  N2  UNL     1       8.072  50.657  84.483  1.00  0.00    -0.069 N 
HETATM   32  C20 UNL     1       7.273  50.231  83.360  1.00  0.00     0.272 C 
HETATM   33  C21 UNL     1       7.388  50.260  85.700  1.00  0.00     0.237 C 
HETATM   34  C25 UNL     1       8.052  52.108  84.517  1.00  0.00     0.243 C 
HETATM   35  C22 UNL     1       7.716  51.322  86.725  1.00  0.00     0.036 C 
HETATM   36  C23 UNL     1       8.404  52.405  85.949  1.00  0.00     0.031 C 
HETATM   37  C24 UNL     1       9.857  52.482  86.246  1.00  0.00     0.129 C 
ENDBRANCH   5  28
TORSDOF 11
ENDMDL
MODEL 2
REMARK VINA RESULT: -7.169415437      1.758      2.280
REMARK  11 active torsions:
REMARK  status: ('A' for Active; 'I' for Inactive)
REMARK    1  A    between atoms: C2_2  and  C3_3 
REMARK    2  A    between atoms: C3_3  and  C4_4 
REMARK    3  A    between atoms: C4_4  and  C5_5 
REMARK    4  A    between atoms: C6_6  and  C7_7 
REMARK    5  A    between atoms: C9_9  and  O1_10 
REMARK    6  A    between atoms: O1_10  and  C10_11 
REMARK    7  A    between atoms: C11_13  and  C12_14 
REMARK    8  A    between atoms: C13_16  and  O3_17 
REMARK    9  A    between atoms: C14_19  and  O4_20 
REMARK   10  A    between atoms: C15_22  and  O5_23 
REMARK   11  A    between atoms: C17_26  and  N1_27 
ROOT
HETATM    1  C7  UNL     1      13.336  52.441  84.538  1.00  0.00     0.022 A 
HETATM    2  C8  UNL     1      13.454  52.802  85.886  1.00  0.00     0.057 A 
HETATM    3  C9  UNL     1      12.313  52.990  86.633  1.00  0.00     0.075 A 
HETATM    4  C16 UNL     1      11.071  52.815  86.029  1.00  0.00     0.066 A 
HETATM    5  C17 UNL     1      10.920  52.461  84.706  1.00  0.00     0.034 A 
HETATM    6  C26 UNL     1      12.077  52.279  83.978  1.00  0.00     0.050 A 
ENDROOT
BRANCH   3   7
HETATM    7  O1  UNL     1      12.330  53.345  87.966  1.00  0.00    -0.318 OA
BRANCH   7   8
HETATM    8  C10 UNL     1      13.424  53.422  88.807  1.00  0.00     0.298 C 
HETATM    9  O2  UNL     1      13.277  52.446  89.792  1.00  0.00    -0.349 OA
HETATM   10  C11 UNL     1      12.360  52.835  90.768  1.00  0.00     0.169 C 
HETATM   11  C13 UNL     1      12.922  53.950  91.637  1.00  0.00     0.179 C 
HETATM   12  C14 UNL     1      13.984  54.702  90.827  1.00  0.00     0.183 C 
HETATM   13  C15 UNL     1      13.448  54.814  89.415  1.00  0.00     0.205 C 
BRANCH  10  14
HETATM   14  C12 UNL     1      12.088  51.655  91.659  1.00  0.00     0.149 C 
HETATM   15 CL1  UNL     1      12.534  50.164  90.800  1.00  0.00    -0.128 Cl
ENDBRANCH  10  14
BRANCH  11  16
HETATM   16  O3  UNL     1      13.589  53.354  92.706  1.00  0.00    -0.390 OA
ATOM     17  H3  UNL     1      13.952  54.050  93.240  1.00  0.00     0.210 HD
ENDBRANCH  11  16
BRANCH  12  18
HETATM   18  O4  UNL     1      15.191  54.041  90.820  1.00  0.00    -0.390 OA
ATOM     19  H4  UNL     1      15.796  54.398  91.460  1.00  0.00     0.210 HD
ENDBRANCH  12  18
BRANCH  13  20
HETATM   20  O5  UNL     1      12.166  55.322  89.403  1.00  0.00    -0.388 OA
ATOM     21  H5  UNL     1      12.149  56.116  89.924  1.00  0.00     0.210 HD
ENDBRANCH  13  20
ENDBRANCH   7   8
ENDBRANCH   3   7
BRANCH   1  22
HETATM   22  C6  UNL     1      14.522  52.243  83.753  1.00  0.00    -0.067 C 
HETATM   23  C5  UNL     1      15.515  52.065  83.075  1.00  0.00    -0.101 C 
BRANCH  23  24
HETATM   24  C4  UNL     1      16.718  51.851  82.255  1.00  0.00     0.094 C 
BRANCH  24  25
HETATM   25  C3  UNL     1      16.312  52.109  80.819  1.00  0.00     0.012 C 
BRANCH  25  26
HETATM   26  C2  UNL     1      15.288  51.122  80.335  1.00  0.00    -0.004 C 
HETATM   27  C1  UNL     1      15.961  50.281  79.253  1.00  0.00     0.005 C 
ENDBRANCH  25  26
ENDBRANCH  24  25
ENDBRANCH  23  24
ENDBRANCH   1  22
BRANCH   5  28
HETATM   28  N1  UNL     1       9.650  52.292  84.074  1.00  0.00    -0.379 N 
HETATM   29  C18 UNL     1       8.691  51.474  84.765  1.00  0.00     0.151 C 
HETATM   30  C19 UNL     1       7.256  51.836  84.516  1.00  0.00     0.256 C 
HETATM   31  N2  UNL     1       6.777  51.580  83.202  1.00  0.00    -0.069 N 
HETATM   32  C20 UNL     1       5.791  50.528  83.236  1.00  0.00     0.272 C 
HETATM   33  C21 UNL     1       6.175  52.744  82.578  1.00  0.00     0.237 C 
HETATM   34  C25 UNL     1       7.823  51.179  82.278  1.00  0.00     0.243 C 
HETATM   35  C22 UNL     1       7.293  53.445  81.840  1.00  0.00     0.036 C 
HETATM   36  C23 UNL     1       8.450  52.495  81.907  1.00  0.00     0.031 C 
HETATM   37  C24 UNL     1       9.524  52.969  82.816  1.00  0.00     0.129 C 
ENDBRANCH   5  28
TORSDOF 11
ENDMDL
MODEL 3
REMARK VINA RESULT: -7.167107078      1.483      2.097
REMARK  11 active torsions:
REMARK  status: ('A' for Active; 'I' for Inactive)
REMARK    1  A    between atoms: C2_2  and  C3_3 
REMARK    2  A    between atoms: C3_3  and  C4_4 
REMARK    3  A    between atoms: C4_4  and  C5_5 
REMARK    4  A    between atoms: C6_6  and  C7_7 
REMARK    5  A    between atoms: C9_9  and  O1_10 
REMARK    6  A    between atoms: O1_10  and  C10_11 
REMARK    7  A    between atoms: C11_13  and  C12_14 
REMARK    8  A    between atoms: C13_16  and  O3_17 
REMARK    9  A    between atoms: C14_19  and  O4_20 
REMARK   10  A    between atoms: C15_22  and  O5_23 
REMARK   11  A    between atoms: C17_26  and  N1_27 
ROOT
HETATM    1  C7  UNL     1      13.325  52.660  84.924  1.00  0.00     0.022 A 
HETATM    2  C8  UNL     1      13.437  52.983  86.282  1.00  0.00     0.057 A 
HETATM    3  C9  UNL     1      12.295  53.078  87.046  1.00  0.00     0.075 A 
HETATM    4  C16 UNL     1      11.059  52.851  86.446  1.00  0.00     0.066 A 
HETATM    5  C17 UNL     1      10.915  52.533  85.114  1.00  0.00     0.034 A 
HETATM    6  C26 UNL     1      12.072  52.443  84.370  1.00  0.00     0.050 A 
ENDROOT
BRANCH   3   7
HETATM    7  O1  UNL     1      12.305  53.390  88.389  1.00  0.00    -0.318 OA
BRANCH   7   8
HETATM    8  C10 UNL     1      13.367  53.301  89.270  1.00  0.00     0.298 C 
HETATM    9  O2  UNL     1      12.916  52.660  90.423  1.00  0.00    -0.349 OA
HETATM   10  C11 UNL     1      12.173  53.520  91.232  1.00  0.00     0.169 C 
HETATM   11  C13 UNL     1      13.063  54.563  91.888  1.00  0.00     0.179 C 
HETATM   12  C14 UNL     1      14.310  54.750  91.015  1.00  0.00     0.183 C 
HETATM   13  C15 UNL     1      13.837  54.713  89.577  1.00  0.00     0.205 C 
BRANCH  10  14
HETATM   14  C12 UNL     1      11.538  52.708  92.327  1.00  0.00     0.149 C 
HETATM   15 CL1  UNL     1      10.051  53.520  92.866  1.00  0.00    -0.128 Cl
ENDBRANCH  10  14
BRANCH  11  16
HETATM   16  O3  UNL     1      13.505  54.037  93.100  1.00  0.00    -0.390 OA
ATOM     17  H3  UNL     1      14.453  54.097  93.110  1.00  0.00     0.210 HD
ENDBRANCH  11  16
BRANCH  12  18
HETATM   18  O4  UNL     1      15.241  53.760  91.228  1.00  0.00    -0.390 OA
ATOM     19  H4  UNL     1      15.417  53.260  90.440  1.00  0.00     0.210 HD
ENDBRANCH  12  18
BRANCH  13  20
HETATM   20  O5  UNL     1      12.785  55.582  89.372  1.00  0.00    -0.388 OA
ATOM     21  H5  UNL     1      12.616  55.639  88.440  1.00  0.00     0.210 HD
ENDBRANCH  13  20
ENDBRANCH   7   8
ENDBRANCH   3   7
BRANCH   1  22
HETATM   22  C6  UNL     1      14.513  52.559  84.122  1.00  0.00    -0.067 C 
HETATM   23  C5  UNL     1      15.519  52.453  83.448  1.00  0.00    -0.101 C 
BRANCH  23  24
HETATM   24  C4  UNL     1      16.735  52.326  82.631  1.00  0.00     0.094 C 
BRANCH  24  25
HETATM   25  C3  UNL     1      16.436  51.287  81.570  1.00  0.00     0.012 C 
BRANCH  25  26
HETATM   26  C2  UNL     1      16.367  51.888  80.195  1.00  0.00    -0.004 C 
HETATM   27  C1  UNL     1      16.367  50.726  79.205  1.00  0.00     0.005 C 
ENDBRANCH  25  26
ENDBRANCH  24  25
ENDBRANCH  23  24
ENDBRANCH   1  22
BRANCH   5  28
HETATM   28  N1  UNL     1       9.650  52.311  84.487  1.00  0.00    -0.379 N 
HETATM   29  C18 UNL     1       8.685  51.553  85.236  1.00  0.00     0.151 C 
HETATM   30  C19 UNL     1       7.253  51.892  84.946  1.00  0.00     0.256 C 
HETATM   31  N2  UNL     1       6.785  51.527  83.653  1.00  0.00    -0.069 N 
HETATM   32  C20 UNL     1       5.798  50.481  83.767  1.00  0.00     0.272 C 
HETATM   33  C21 UNL     1       6.187  52.635  82.930  1.00  0.00     0.237 C 
HETATM   34  C25 UNL     1       7.838  51.051  82.775  1.00  0.00     0.243 C 
HETATM   35  C22 UNL     1       7.312  53.272  82.146  1.00  0.00     0.036 C 
HETATM   36  C23 UNL     1       8.469  52.332  82.301  1.00  0.00     0.031 C 
HETATM   37  C24 UNL     1       9.535  52.881  83.177  1.00  0.00     0.129 C 
ENDBRANCH   5  28
TORSDOF 11
ENDMDL
MODEL 4
REMARK VINA RESULT: -7.105216070      3.982      7.439
REMARK  11 active torsions:
REMARK  status: ('A' for Active; 'I' for Inactive)
REMARK    1  A    between atoms: C2_2  and  C3_3 
REMARK    2  A    between atoms: C3_3  and  C4_4 
REMARK    3  A    between atoms: C4_4  and  C5_5 
REMARK    4  A    between atoms: C6_6  and  C7_7 
REMARK    5  A    between atoms: C9_9  and  O1_10 
REMARK    6  A    between atoms: O1_10  and  C10_11 
REMARK    7  A    between atoms: C11_13  and  C12_14 
REMARK    8  A    between atoms: C13_16  and  O3_17 
REMARK    9  A    between atoms: C14_19  and  O4_20 
REMARK   10  A    between atoms: C15_22  and  O5_23 
REMARK   11  A    between atoms: C17_26  and  N1_27 
ROOT
HETATM    1  C7  UNL     1      13.628  52.367  84.474  1.00  0.00     0.022 A 
HETATM    2  C8  UNL     1      12.324  52.083  84.051  1.00  0.00     0.057 A 
HETATM    3  C9  UNL     1      11.281  52.244  84.935  1.00  0.00     0.075 A 
HETATM    4  C16 UNL     1      11.551  52.688  86.227  1.00  0.00     0.066 A 
HETATM    5  C17 UNL     1      12.822  52.975  86.675  1.00  0.00     0.034 A 
HETATM    6  C26 UNL     1      13.850  52.806  85.771  1.00  0.00     0.050 A 
ENDROOT
BRANCH   3   7
HETATM    7  O1  UNL     1       9.965  51.989  84.611  1.00  0.00    -0.318 OA
BRANCH   7   8
HETATM    8  C10 UNL     1       9.423  50.807  84.142  1.00  0.00     0.298 C 
HETATM    9  O2  UNL     1       9.675  50.732  82.773  1.00  0.00    -0.349 OA
HETATM   10  C11 UNL     1       8.809  51.547  82.046  1.00  0.00     0.169 C 
HETATM   11  C13 UNL     1       7.396  50.983  82.046  1.00  0.00     0.179 C 
HETATM   12  C14 UNL     1       7.225  50.111  83.295  1.00  0.00     0.183 C 
HETATM   13  C15 UNL     1       7.930  50.835  84.424  1.00  0.00     0.205 C 
BRANCH  10  14
HETATM   14  C12 UNL     1       9.283  51.587  80.620  1.00  0.00     0.149 C 
HETATM   15 CL1  UNL     1      11.059  51.674  80.600  1.00  0.00    -0.128 Cl
ENDBRANCH  10  14
BRANCH  11  16
HETATM   16  O3  UNL     1       7.283  50.130  80.950  1.00  0.00    -0.390 OA
ATOM     17  H3  UNL     1       7.650  49.291  81.201  1.00  0.00     0.210 HD
ENDBRANCH  11  16
BRANCH  12  18
HETATM   18  O4  UNL     1       7.770  48.859  83.127  1.00  0.00    -0.390 OA
ATOM     19  H4  UNL     1       8.143  48.522  83.933  1.00  0.00     0.210 HD
ENDBRANCH  12  18
BRANCH  13  20
HETATM   20  O5  UNL     1       7.523  52.150  84.509  1.00  0.00    -0.388 OA
ATOM     21  H5  UNL     1       7.395  52.485  83.630  1.00  0.00     0.210 HD
ENDBRANCH  13  20
ENDBRANCH   7   8
ENDBRANCH   3   7
BRANCH   1  22
HETATM   22  C6  UNL     1      14.720  52.201  83.556  1.00  0.00    -0.067 C 
HETATM   23  C5  UNL     1      15.634  52.047  82.769  1.00  0.00    -0.101 C 
BRANCH  23  24
HETATM   24  C4  UNL     1      16.739  51.862  81.816  1.00  0.00     0.094 C 
BRANCH  24  25
HETATM   25  C3  UNL     1      16.150  52.036  80.432  1.00  0.00     0.012 C 
BRANCH  25  26
HETATM   26  C2  UNL     1      15.965  50.723  79.727  1.00  0.00    -0.004 C 
HETATM   27  C1  UNL     1      14.511  50.308  79.938  1.00  0.00     0.005 C 
ENDBRANCH  25  26
ENDBRANCH  24  25
ENDBRANCH  23  24
ENDBRANCH   1  22
BRANCH   5  28
HETATM   28  N1  UNL     1      13.111  53.418  88.002  1.00  0.00    -0.379 N 
HETATM   29  C18 UNL     1      12.258  52.920  89.047  1.00  0.00     0.151 C 
HETATM   30  C19 UNL     1      12.913  52.795  90.391  1.00  0.00     0.256 C 
HETATM   31  N2  UNL     1      13.252  54.022  91.025  1.00  0.00    -0.069 N 
HETATM   32  C20 UNL     1      12.439  54.207  92.201  1.00  0.00     0.272 C 
HETATM   33  C21 UNL     1      14.646  54.091  91.424  1.00  0.00     0.237 C 
HETATM   34  C25 UNL     1      13.067  55.180  90.169  1.00  0.00     0.243 C 
HETATM   35  C22 UNL     1      15.383  54.699  90.253  1.00  0.00     0.036 C 
HETATM   36  C23 UNL     1      14.306  55.156  89.317  1.00  0.00     0.031 C 
HETATM   37  C24 UNL     1      14.222  54.319  88.093  1.00  0.00     0.129 C 
ENDBRANCH   5  28
TORSDOF 11
ENDMDL
MODEL 5
REMARK VINA RESULT: -7.070247160      1.764      2.278
REMARK  11 active torsions:
REMARK  status: ('A' for Active; 'I' for Inactive)
REMARK    1  A    between atoms: C2_2  and  C3_3 
REMARK    2  A    between atoms: C3_3  and  C4_4 
REMARK    3  A    between atoms: C4_4  and  C5_5 
REMARK    4  A    between atoms: C6_6  and  C7_7 
REMARK    5  A    between atoms: C9_9  and  O1_10 
REMARK    6  A    between atoms: O1_10  and  C10_11 
REMARK    7  A    between atoms: C11_13  and  C12_14 
REMARK    8  A    between atoms: C13_16  and  O3_17 
REMARK    9  A    between atoms: C14_19  and  O4_20 
REMARK   10  A    between atoms: C15_22  and  O5_23 
REMARK   11  A    between atoms: C17_26  and  N1_27 
ROOT
HETATM    1  C7  UNL     1      13.296  52.364  84.520  1.00  0.00     0.022 A 
HETATM    2  C8  UNL     1      13.398  52.725  85.869  1.00  0.00     0.057 A 
HETATM    3  C9  UNL     1      12.248  52.889  86.609  1.00  0.00     0.075 A 
HETATM    4  C16 UNL     1      11.014  52.689  85.995  1.00  0.00     0.066 A 
HETATM    5  C17 UNL     1      10.880  52.334  84.671  1.00  0.00     0.034 A 
HETATM    6  C26 UNL     1      12.045  52.177  83.951  1.00  0.00     0.050 A 
ENDROOT
BRANCH   3   7
HETATM    7  O1  UNL     1      12.247  53.243  87.942  1.00  0.00    -0.318 OA
BRANCH   7   8
HETATM    8  C10 UNL     1      13.336  53.363  88.785  1.00  0.00     0.298 C 
HETATM    9  O2  UNL     1      13.249  52.357  89.746  1.00  0.00    -0.349 OA
HETATM   10  C11 UNL     1      12.312  52.666  90.731  1.00  0.00     0.169 C 
HETATM   11  C13 UNL     1      12.807  53.791  91.627  1.00  0.00     0.179 C 
HETATM   12  C14 UNL     1      13.822  54.625  90.836  1.00  0.00     0.183 C 
HETATM   13  C15 UNL     1      13.278  54.740  89.427  1.00  0.00     0.205 C 
BRANCH  10  14
HETATM   14  C12 UNL     1      12.112  51.450  91.593  1.00  0.00     0.149 C 
HETATM   15 CL1  UNL     1      12.568  50.002  90.668  1.00  0.00    -0.128 Cl
ENDBRANCH  10  14
BRANCH  11  16
HETATM   16  O3  UNL     1      13.510  53.210  92.681  1.00  0.00    -0.390 OA
ATOM     17  H3  UNL     1      13.339  53.728  93.459  1.00  0.00     0.210 HD
ENDBRANCH  11  16
BRANCH  12  18
HETATM   18  O4  UNL     1      15.066  54.037  90.813  1.00  0.00    -0.390 OA
ATOM     19  H4  UNL     1      15.030  53.119  91.051  1.00  0.00     0.210 HD
ENDBRANCH  12  18
BRANCH  13  20
HETATM   20  O5  UNL     1      11.968  55.170  89.428  1.00  0.00    -0.388 OA
ATOM     21  H5  UNL     1      11.839  55.751  88.688  1.00  0.00     0.210 HD
ENDBRANCH  13  20
ENDBRANCH   7   8
ENDBRANCH   3   7
BRANCH   1  22
HETATM   22  C6  UNL     1      14.492  52.192  83.743  1.00  0.00    -0.067 C 
HETATM   23  C5  UNL     1      15.494  52.037  83.071  1.00  0.00    -0.101 C 
BRANCH  23  24
HETATM   24  C4  UNL     1      16.705  51.851  82.259  1.00  0.00     0.094 C 
BRANCH  24  25
HETATM   25  C3  UNL     1      16.311  52.135  80.824  1.00  0.00     0.012 C 
BRANCH  25  26
HETATM   26  C2  UNL     1      15.332  51.126  80.296  1.00  0.00    -0.004 C 
HETATM   27  C1  UNL     1      16.059  50.330  79.215  1.00  0.00     0.005 C 
ENDBRANCH  25  26
ENDBRANCH  24  25
ENDBRANCH  23  24
ENDBRANCH   1  22
BRANCH   5  28
HETATM   28  N1  UNL     1       9.618  52.140  84.029  1.00  0.00    -0.379 N 
HETATM   29  C18 UNL     1       9.149  53.211  83.194  1.00  0.00     0.151 C 
HETATM   30  C19 UNL     1       8.276  52.785  82.051  1.00  0.00     0.256 C 
HETATM   31  N2  UNL     1       6.995  52.281  82.410  1.00  0.00    -0.069 N 
HETATM   32  C20 UNL     1       5.969  53.188  81.960  1.00  0.00     0.272 C 
HETATM   33  C21 UNL     1       6.720  50.971  81.848  1.00  0.00     0.237 C 
HETATM   34  C25 UNL     1       6.832  52.100  83.841  1.00  0.00     0.243 C 
HETATM   35  C22 UNL     1       7.203  49.971  82.874  1.00  0.00     0.036 C 
HETATM   36  C23 UNL     1       7.531  50.791  84.085  1.00  0.00     0.031 C 
HETATM   37  C24 UNL     1       8.994  50.885  84.329  1.00  0.00     0.129 C 
ENDBRANCH   5  28
TORSDOF 11
ENDMDL
