MODEL 1
REMARK VINA RESULT: -6.067620046      0.000      0.000
REMARK  7 active torsions:
REMARK  status: ('A' for Active; 'I' for Inactive)
REMARK    1  A    between atoms: N2_3  and  C2_4 
REMARK    2  A    between atoms: C2_4  and  C3_5 
REMARK    3  A    between atoms: C9_11  and  C10_12 
REMARK    4  A    between atoms: C10_12  and  N3_13 
REMARK    5  A    between atoms: N3_13  and  C11_15 
REMARK    6  A    between atoms: C11_15  and  C12_16 
REMARK    7  A    between atoms: C12_16  and  O1_17 
ROOT
HETATM    1  C1  UNL     1      -5.291  24.218  -6.656  1.00  0.00     0.137 C 
HETATM    2  N1  UNL     1      -5.704  23.462  -7.847  1.00  0.00    -0.224 NA
HETATM    3  N2  UNL     1      -5.541  22.126  -7.594  1.00  0.00    -0.318 N 
HETATM    4  C9  UNL     1      -6.801  21.491  -7.432  1.00  0.00     0.121 C 
HETATM    5  C13 UNL     1      -7.711  22.657  -7.095  1.00  0.00     0.055 C 
HETATM    6  C14 UNL     1      -7.119  23.726  -7.980  1.00  0.00     0.034 A 
HETATM    7  C15 UNL     1      -7.763  24.199  -9.195  1.00  0.00     0.029 A 
HETATM    8  C16 UNL     1      -7.630  25.115  -7.980  1.00  0.00     0.029 A 
ENDROOT
BRANCH   3   9
HETATM    9  C2  UNL     1      -4.449  21.445  -8.110  1.00  0.00     0.083 C 
BRANCH   9  10
HETATM   10  C3  UNL     1      -3.729  20.502  -7.138  1.00  0.00     0.025 C 
HETATM   11  C4  UNL     1      -3.484  19.165  -7.818  1.00  0.00     0.010 C 
HETATM   12  C5  UNL     1      -2.799  18.275  -6.796  1.00  0.00     0.001 C 
HETATM   13  C6  UNL     1      -1.379  18.779  -6.727  1.00  0.00     0.000 C 
HETATM   14  C7  UNL     1      -1.313  20.214  -6.377  1.00  0.00     0.001 C 
HETATM   15  C8  UNL     1      -2.393  21.110  -6.795  1.00  0.00     0.010 C 
ENDBRANCH   9  10
ENDBRANCH   3   9
BRANCH   4  16
HETATM   16  C10 UNL     1      -7.357  20.850  -8.667  1.00  0.00     0.140 C 
BRANCH  16  17
HETATM   17  N3  UNL     1      -7.212  19.438  -8.598  1.00  0.00    -0.417 N 
ATOM     18  H3  UNL     1      -7.413  18.910  -7.750  1.00  0.00     0.153 HD
BRANCH  17  19
HETATM   19  C11 UNL     1      -6.770  18.818  -9.790  1.00  0.00     0.139 C 
BRANCH  19  20
HETATM   20  C12 UNL     1      -6.879  19.810 -10.954  1.00  0.00     0.183 C 
BRANCH  20  21
HETATM   21  O1  UNL     1      -6.669  19.178 -12.163  1.00  0.00    -0.399 OA
ATOM     22  H1  UNL     1      -7.349  19.404 -12.788  1.00  0.00     0.209 HD
ENDBRANCH  20  21
ENDBRANCH  19  20
ENDBRANCH  17  19
ENDBRANCH  16  17
ENDBRANCH   4  16
TORSDOF 7
ENDMDL
MODEL 2
REMARK VINA RESULT: -5.997019629      0.864      1.001
REMARK  7 active torsions:
REMARK  status: ('A' for Active; 'I' for Inactive)
REMARK    1  A    between atoms: N2_3  and  C2_4 
REMARK    2  A    between atoms: C2_4  and  C3_5 
REMARK    3  A    between atoms: C9_11  and  C10_12 
REMARK    4  A    between atoms: C10_12  and  N3_13 
REMARK    5  A    between atoms: N3_13  and  C11_15 
REMARK    6  A    between atoms: C11_15  and  C12_16 
REMARK    7  A    between atoms: C12_16  and  O1_17 
ROOT
HETATM    1  C1  UNL     1      -5.298  24.299  -6.331  1.00  0.00     0.137 C 
HETATM    2  N1  UNL     1      -5.688  23.716  -7.623  1.00  0.00    -0.224 NA
HETATM    3  N2  UNL     1      -5.616  22.352  -7.525  1.00  0.00    -0.318 N 
HETATM    4  C9  UNL     1      -6.918  21.784  -7.502  1.00  0.00     0.121 C 
HETATM    5  C13 UNL     1      -7.776  22.958  -7.071  1.00  0.00     0.055 C 
HETATM    6  C14 UNL     1      -7.075  24.084  -7.792  1.00  0.00     0.034 A 
HETATM    7  C15 UNL     1      -7.622  24.736  -8.970  1.00  0.00     0.029 A 
HETATM    8  C16 UNL     1      -7.505  25.493  -7.649  1.00  0.00     0.029 A 
ENDROOT
BRANCH   3   9
HETATM    9  C2  UNL     1      -4.537  21.668  -8.066  1.00  0.00     0.083 C 
BRANCH   9  10
HETATM   10  C3  UNL     1      -3.857  20.653  -7.139  1.00  0.00     0.025 C 
HETATM   11  C4  UNL     1      -3.603  19.363  -7.901  1.00  0.00     0.010 C 
HETATM   12  C5  UNL     1      -2.960  18.397  -6.922  1.00  0.00     0.001 C 
HETATM   13  C6  UNL     1      -1.538  18.879  -6.776  1.00  0.00     0.000 C 
HETATM   14  C7  UNL     1      -1.469  20.286  -6.326  1.00  0.00     0.001 C 
HETATM   15  C8  UNL     1      -2.527  21.221  -6.715  1.00  0.00     0.010 C 
ENDBRANCH   9  10
ENDBRANCH   3   9
BRANCH   4  16
HETATM   16  C10 UNL     1      -7.439  21.329  -8.830  1.00  0.00     0.140 C 
BRANCH  16  17
HETATM   17  N3  UNL     1      -7.589  19.916  -8.845  1.00  0.00    -0.417 N 
ATOM     18  H3  UNL     1      -8.214  19.427  -8.205  1.00  0.00     0.153 HD
BRANCH  17  19
HETATM   19  C11 UNL     1      -6.808  19.236  -9.808  1.00  0.00     0.139 C 
BRANCH  19  20
HETATM   20  C12 UNL     1      -6.560  17.796  -9.341  1.00  0.00     0.183 C 
BRANCH  20  21
HETATM   21  O1  UNL     1      -7.477  16.930  -9.901  1.00  0.00    -0.399 OA
ATOM     22  H1  UNL     1      -7.041  16.243 -10.390  1.00  0.00     0.209 HD
ENDBRANCH  20  21
ENDBRANCH  19  20
ENDBRANCH  17  19
ENDBRANCH  16  17
ENDBRANCH   4  16
TORSDOF 7
ENDMDL
MODEL 3
REMARK VINA RESULT: -5.811710534      1.278      1.538
REMARK  7 active torsions:
REMARK  status: ('A' for Active; 'I' for Inactive)
REMARK    1  A    between atoms: N2_3  and  C2_4 
REMARK    2  A    between atoms: C2_4  and  C3_5 
REMARK    3  A    between atoms: C9_11  and  C10_12 
REMARK    4  A    between atoms: C10_12  and  N3_13 
REMARK    5  A    between atoms: N3_13  and  C11_15 
REMARK    6  A    between atoms: C11_15  and  C12_16 
REMARK    7  A    between atoms: C12_16  and  O1_17 
ROOT
HETATM    1  C1  UNL     1      -5.590  24.485  -6.303  1.00  0.00     0.137 C 
HETATM    2  N1  UNL     1      -5.436  24.365  -7.759  1.00  0.00    -0.224 NA
HETATM    3  N2  UNL     1      -5.587  23.049  -8.106  1.00  0.00    -0.318 N 
HETATM    4  C9  UNL     1      -6.824  22.846  -8.775  1.00  0.00     0.121 C 
HETATM    5  C13 UNL     1      -7.629  24.055  -8.337  1.00  0.00     0.055 C 
HETATM    6  C14 UNL     1      -6.547  25.107  -8.311  1.00  0.00     0.034 A 
HETATM    7  C15 UNL     1      -6.429  26.151  -9.316  1.00  0.00     0.029 A 
HETATM    8  C16 UNL     1      -6.815  26.497  -7.880  1.00  0.00     0.029 A 
ENDROOT
BRANCH   3   9
HETATM    9  C2  UNL     1      -4.476  22.268  -8.389  1.00  0.00     0.083 C 
BRANCH   9  10
HETATM   10  C3  UNL     1      -4.222  21.096  -7.434  1.00  0.00     0.025 C 
HETATM   11  C4  UNL     1      -3.941  19.838  -8.241  1.00  0.00     0.010 C 
HETATM   12  C5  UNL     1      -3.729  18.716  -7.240  1.00  0.00     0.001 C 
HETATM   13  C6  UNL     1      -2.353  18.955  -6.671  1.00  0.00     0.000 C 
HETATM   14  C7  UNL     1      -2.225  20.298  -6.065  1.00  0.00     0.001 C 
HETATM   15  C8  UNL     1      -2.999  21.414  -6.614  1.00  0.00     0.010 C 
ENDBRANCH   9  10
ENDBRANCH   3   9
BRANCH   4  16
HETATM   16  C10 UNL     1      -6.756  22.889 -10.270  1.00  0.00     0.140 C 
BRANCH  16  17
HETATM   17  N3  UNL     1      -7.298  21.697 -10.823  1.00  0.00    -0.417 N 
ATOM     18  H3  UNL     1      -7.564  21.622 -11.804  1.00  0.00     0.153 HD
BRANCH  17  19
HETATM   19  C11 UNL     1      -7.441  20.621  -9.915  1.00  0.00     0.139 C 
BRANCH  19  20
HETATM   20  C12 UNL     1      -6.751  19.375 -10.486  1.00  0.00     0.183 C 
BRANCH  20  21
HETATM   21  O1  UNL     1      -6.813  19.365 -11.865  1.00  0.00    -0.399 OA
ATOM     22  H1  UNL     1      -6.331  18.628 -12.221  1.00  0.00     0.209 HD
ENDBRANCH  20  21
ENDBRANCH  19  20
ENDBRANCH  17  19
ENDBRANCH  16  17
ENDBRANCH   4  16
TORSDOF 7
ENDMDL
MODEL 4
REMARK VINA RESULT: -5.738272872      1.797      5.108
REMARK  7 active torsions:
REMARK  status: ('A' for Active; 'I' for Inactive)
REMARK    1  A    between atoms: N2_3  and  C2_4 
REMARK    2  A    between atoms: C2_4  and  C3_5 
REMARK    3  A    between atoms: C9_11  and  C10_12 
REMARK    4  A    between atoms: C10_12  and  N3_13 
REMARK    5  A    between atoms: N3_13  and  C11_15 
REMARK    6  A    between atoms: C11_15  and  C12_16 
REMARK    7  A    between atoms: C12_16  and  O1_17 
ROOT
HETATM    1  C1  UNL     1      -2.349  23.516  -7.140  1.00  0.00     0.137 C 
HETATM    2  N1  UNL     1      -3.225  22.512  -6.521  1.00  0.00    -0.224 NA
HETATM    3  N2  UNL     1      -4.149  22.108  -7.448  1.00  0.00    -0.318 N 
HETATM    4  C9  UNL     1      -3.868  20.787  -7.889  1.00  0.00     0.121 C 
HETATM    5  C13 UNL     1      -2.402  20.631  -7.533  1.00  0.00     0.055 C 
HETATM    6  C14 UNL     1      -2.358  21.392  -6.231  1.00  0.00     0.034 A 
HETATM    7  C15 UNL     1      -2.247  20.744  -4.934  1.00  0.00     0.029 A 
HETATM    8  C16 UNL     1      -1.098  21.589  -5.480  1.00  0.00     0.029 A 
ENDROOT
BRANCH   3   9
HETATM    9  C2  UNL     1      -5.446  22.594  -7.401  1.00  0.00     0.083 C 
BRANCH   9  10
HETATM   10  C3  UNL     1      -6.313  22.308  -8.633  1.00  0.00     0.025 C 
HETATM   11  C4  UNL     1      -7.756  22.107  -8.202  1.00  0.00     0.010 C 
HETATM   12  C5  UNL     1      -8.549  21.799  -9.460  1.00  0.00     0.001 C 
HETATM   13  C6  UNL     1      -8.688  23.124 -10.168  1.00  0.00     0.000 C 
HETATM   14  C7  UNL     1      -7.376  23.744 -10.452  1.00  0.00     0.001 C 
HETATM   15  C8  UNL     1      -6.254  23.511  -9.539  1.00  0.00     0.010 C 
ENDBRANCH   9  10
ENDBRANCH   3   9
BRANCH   4  16
HETATM   16  C10 UNL     1      -4.608  19.702  -7.169  1.00  0.00     0.140 C 
BRANCH  16  17
HETATM   17  N3  UNL     1      -5.071  18.724  -8.090  1.00  0.00    -0.417 N 
ATOM     18  H3  UNL     1      -4.436  18.109  -8.598  1.00  0.00     0.153 HD
BRANCH  17  19
HETATM   19  C11 UNL     1      -6.475  18.664  -8.253  1.00  0.00     0.139 C 
BRANCH  19  20
HETATM   20  C12 UNL     1      -6.805  18.258  -9.695  1.00  0.00     0.183 C 
BRANCH  20  21
HETATM   21  O1  UNL     1      -7.302  16.971  -9.744  1.00  0.00    -0.399 OA
ATOM     22  H1  UNL     1      -6.921  16.487 -10.467  1.00  0.00     0.209 HD
ENDBRANCH  20  21
ENDBRANCH  19  20
ENDBRANCH  17  19
ENDBRANCH  16  17
ENDBRANCH   4  16
TORSDOF 7
ENDMDL
MODEL 5
REMARK VINA RESULT: -5.658123696      1.247      1.358
REMARK  7 active torsions:
REMARK  status: ('A' for Active; 'I' for Inactive)
REMARK    1  A    between atoms: N2_3  and  C2_4 
REMARK    2  A    between atoms: C2_4  and  C3_5 
REMARK    3  A    between atoms: C9_11  and  C10_12 
REMARK    4  A    between atoms: C10_12  and  N3_13 
REMARK    5  A    between atoms: N3_13  and  C11_15 
REMARK    6  A    between atoms: C11_15  and  C12_16 
REMARK    7  A    between atoms: C12_16  and  O1_17 
ROOT
HETATM    1  C1  UNL     1      -5.753  24.821  -7.504  1.00  0.00     0.137 C 
HETATM    2  N1  UNL     1      -5.908  23.670  -8.405  1.00  0.00    -0.224 NA
HETATM    3  N2  UNL     1      -5.389  22.562  -7.790  1.00  0.00    -0.318 N 
HETATM    4  C9  UNL     1      -6.429  21.682  -7.385  1.00  0.00     0.121 C 
HETATM    5  C13 UNL     1      -7.634  22.603  -7.347  1.00  0.00     0.055 C 
HETATM    6  C14 UNL     1      -7.336  23.489  -8.531  1.00  0.00     0.034 A 
HETATM    7  C15 UNL     1      -8.051  23.395  -9.793  1.00  0.00     0.029 A 
HETATM    8  C16 UNL     1      -8.211  24.623  -8.901  1.00  0.00     0.029 A 
ENDROOT
BRANCH   3   9
HETATM    9  C2  UNL     1      -4.137  22.085  -8.148  1.00  0.00     0.083 C 
BRANCH   9  10
HETATM   10  C3  UNL     1      -3.335  21.408  -7.030  1.00  0.00     0.025 C 
HETATM   11  C4  UNL     1      -2.866  20.041  -7.500  1.00  0.00     0.010 C 
HETATM   12  C5  UNL     1      -2.108  19.417  -6.341  1.00  0.00     0.001 C 
HETATM   13  C6  UNL     1      -0.781  20.134  -6.310  1.00  0.00     0.000 C 
HETATM   14  C7  UNL     1      -0.941  21.598  -6.172  1.00  0.00     0.001 C 
HETATM   15  C8  UNL     1      -2.120  22.253  -6.745  1.00  0.00     0.010 C 
ENDBRANCH   9  10
ENDBRANCH   3   9
BRANCH   4  16
HETATM   16  C10 UNL     1      -6.751  20.586  -8.353  1.00  0.00     0.140 C 
BRANCH  16  17
HETATM   17  N3  UNL     1      -6.541  19.317  -7.749  1.00  0.00    -0.417 N 
ATOM     18  H3  UNL     1      -6.803  19.122  -6.783  1.00  0.00     0.153 HD
BRANCH  17  19
HETATM   19  C11 UNL     1      -5.942  18.343  -8.582  1.00  0.00     0.139 C 
BRANCH  19  20
HETATM   20  C12 UNL     1      -6.872  18.038  -9.762  1.00  0.00     0.183 C 
BRANCH  20  21
HETATM   21  O1  UNL     1      -7.369  16.753  -9.680  1.00  0.00    -0.399 OA
ATOM     22  H1  UNL     1      -6.958  16.275  -8.968  1.00  0.00     0.209 HD
ENDBRANCH  20  21
ENDBRANCH  19  20
ENDBRANCH  17  19
ENDBRANCH  16  17
ENDBRANCH   4  16
TORSDOF 7
ENDMDL
