MODEL 1
REMARK VINA RESULT: -6.385088884      0.000      0.000
REMARK  11 active torsions:
REMARK  status: ('A' for Active; 'I' for Inactive)
REMARK    1  A    between atoms: C2_2  and  C3_3 
REMARK    2  A    between atoms: C3_3  and  O1_5 
REMARK    3  A    between atoms: C3_3  and  C5_7 
REMARK    4  A    between atoms: C5_7  and  C6_8 
REMARK    5  A    between atoms: C6_8  and  C7_10 
REMARK    6  A    between atoms: C8_11  and  C9_12 
REMARK    7  A    between atoms: C10_13  and  C11_14 
REMARK    8  A    between atoms: C12_16  and  O4_17 
REMARK    9  A    between atoms: C13_19  and  O5_20 
REMARK   10  A    between atoms: C14_22  and  O6_23 
REMARK   11  A    between atoms: C15_25  and  O7_26 
ROOT
HETATM    1  C11 UNL     1      -5.671  21.263  -8.853  1.00  0.00     0.179 C 
HETATM    2  O3  UNL     1      -5.319  20.505  -7.777  1.00  0.00    -0.347 OA
HETATM    3  C12 UNL     1      -5.639  19.185  -7.807  1.00  0.00     0.289 C 
HETATM    4  C13 UNL     1      -6.429  18.639  -8.909  1.00  0.00     0.204 C 
HETATM    5  C14 UNL     1      -6.962  19.564  -9.941  1.00  0.00     0.183 C 
HETATM    6  C15 UNL     1      -7.079  20.950  -9.291  1.00  0.00     0.185 C 
ENDROOT
BRANCH   1   7
HETATM    7  C10 UNL     1      -5.447  22.693  -8.551  1.00  0.00     0.008 C 
HETATM    8  C9  UNL     1      -4.338  23.170  -8.048  1.00  0.00    -0.001 C 
BRANCH   8   9
HETATM    9  C8  UNL     1      -3.151  22.412  -7.700  1.00  0.00     0.003 C 
HETATM   10  C7  UNL     1      -2.882  22.155  -6.435  1.00  0.00     0.050 C 
BRANCH  10  11
HETATM   11  C6  UNL     1      -1.691  21.392  -6.063  1.00  0.00     0.152 C 
HETATM   12  O2  UNL     1      -0.576  21.945  -6.226  1.00  0.00    -0.293 OA
BRANCH  11  13
HETATM   13  C5  UNL     1      -1.791  20.016  -5.513  1.00  0.00     0.120 C 
BRANCH  13  14
HETATM   14  C3  UNL     1      -1.132  19.074  -6.463  1.00  0.00     0.060 C 
HETATM   15  C4  UNL     1      -1.577  17.658  -6.156  1.00  0.00     0.046 C 
BRANCH  14  16
HETATM   16  C2  UNL     1       0.370  19.135  -6.418  1.00  0.00     0.033 C 
HETATM   17  C1  UNL     1       0.885  19.067  -7.839  1.00  0.00     0.008 C 
ENDBRANCH  14  16
BRANCH  14  18
HETATM   18  O1  UNL     1      -1.523  19.430  -7.760  1.00  0.00    -0.390 OA
ATOM     19  H1  UNL     1      -1.923  18.665  -8.155  1.00  0.00     0.210 HD
ENDBRANCH  14  18
ENDBRANCH  13  14
ENDBRANCH  11  13
ENDBRANCH  10  11
ENDBRANCH   8   9
ENDBRANCH   1   7
BRANCH   6  20
HETATM   20  O7  UNL     1      -7.532  21.828 -10.272  1.00  0.00    -0.385 OA
HETATM   21  C16 UNL     1      -8.795  22.266  -9.902  1.00  0.00     0.202 C 
ENDBRANCH   6  20
BRANCH   3  22
HETATM   22  O4  UNL     1      -4.430  18.459  -7.691  1.00  0.00    -0.368 OA
ATOM     23  H4  UNL     1      -4.300  18.279  -6.767  1.00  0.00     0.212 HD
ENDBRANCH   3  22
BRANCH   5  24
HETATM   24  O6  UNL     1      -6.011  19.716 -10.971  1.00  0.00    -0.390 OA
ATOM     25  H6  UNL     1      -5.506  20.506 -10.822  1.00  0.00     0.210 HD
ENDBRANCH   5  24
BRANCH   4  26
HETATM   26  O5  UNL     1      -7.538  17.896  -8.429  1.00  0.00    -0.388 OA
ATOM     27  H5  UNL     1      -7.640  17.081  -8.906  1.00  0.00     0.210 HD
ENDBRANCH   4  26
TORSDOF 11
ENDMDL
MODEL 2
REMARK VINA RESULT: -6.274484588      1.819      2.286
REMARK  11 active torsions:
REMARK  status: ('A' for Active; 'I' for Inactive)
REMARK    1  A    between atoms: C2_2  and  C3_3 
REMARK    2  A    between atoms: C3_3  and  O1_5 
REMARK    3  A    between atoms: C3_3  and  C5_7 
REMARK    4  A    between atoms: C5_7  and  C6_8 
REMARK    5  A    between atoms: C6_8  and  C7_10 
REMARK    6  A    between atoms: C8_11  and  C9_12 
REMARK    7  A    between atoms: C10_13  and  C11_14 
REMARK    8  A    between atoms: C12_16  and  O4_17 
REMARK    9  A    between atoms: C13_19  and  O5_20 
REMARK   10  A    between atoms: C14_22  and  O6_23 
REMARK   11  A    between atoms: C15_25  and  O7_26 
ROOT
HETATM    1  C11 UNL     1      -5.723  23.034  -8.072  1.00  0.00     0.179 C 
HETATM    2  O3  UNL     1      -6.441  22.579  -7.008  1.00  0.00    -0.347 OA
HETATM    3  C12 UNL     1      -7.346  21.591  -7.236  1.00  0.00     0.289 C 
HETATM    4  C13 UNL     1      -7.604  21.122  -8.596  1.00  0.00     0.204 C 
HETATM    5  C14 UNL     1      -6.940  21.809  -9.733  1.00  0.00     0.183 C 
HETATM    6  C15 UNL     1      -6.613  23.236  -9.271  1.00  0.00     0.185 C 
ENDROOT
BRANCH   1   7
HETATM    7  C10 UNL     1      -4.965  24.242  -7.684  1.00  0.00     0.008 C 
HETATM    8  C9  UNL     1      -3.707  24.233  -7.325  1.00  0.00    -0.001 C 
BRANCH   8   9
HETATM    9  C8  UNL     1      -2.840  23.072  -7.241  1.00  0.00     0.003 C 
HETATM   10  C7  UNL     1      -2.544  22.556  -6.065  1.00  0.00     0.050 C 
BRANCH  10  11
HETATM   11  C6  UNL     1      -1.673  21.386  -5.958  1.00  0.00     0.152 C 
HETATM   12  O2  UNL     1      -0.456  21.546  -6.220  1.00  0.00    -0.293 OA
BRANCH  11  13
HETATM   13  C5  UNL     1      -2.203  20.058  -5.556  1.00  0.00     0.120 C 
BRANCH  13  14
HETATM   14  C3  UNL     1      -2.470  19.259  -6.787  1.00  0.00     0.060 C 
HETATM   15  C4  UNL     1      -3.892  19.509  -7.249  1.00  0.00     0.046 C 
BRANCH  14  16
HETATM   16  C2  UNL     1      -2.272  17.781  -6.593  1.00  0.00     0.033 C 
HETATM   17  C1  UNL     1      -0.997  17.579  -5.805  1.00  0.00     0.008 C 
ENDBRANCH  14  16
BRANCH  14  18
HETATM   18  O1  UNL     1      -1.565  19.674  -7.772  1.00  0.00    -0.390 OA
ATOM     19  H1  UNL     1      -0.718  19.304  -7.550  1.00  0.00     0.210 HD
ENDBRANCH  14  18
ENDBRANCH  13  14
ENDBRANCH  11  13
ENDBRANCH  10  11
ENDBRANCH   8   9
ENDBRANCH   1   7
BRANCH   6  20
HETATM   20  O7  UNL     1      -5.947  23.866 -10.320  1.00  0.00    -0.385 OA
HETATM   21  C16 UNL     1      -6.877  24.611 -11.030  1.00  0.00     0.202 C 
ENDBRANCH   6  20
BRANCH   3  22
HETATM   22  O4  UNL     1      -6.979  20.493  -6.422  1.00  0.00    -0.368 OA
ATOM     23  H4  UNL     1      -7.767  19.989  -6.259  1.00  0.00     0.212 HD
ENDBRANCH   3  22
BRANCH   5  24
HETATM   24  O6  UNL     1      -5.691  21.204  -9.983  1.00  0.00    -0.390 OA
ATOM     25  H6  UNL     1      -5.568  20.475  -9.386  1.00  0.00     0.210 HD
ENDBRANCH   5  24
BRANCH   4  26
HETATM   26  O5  UNL     1      -8.992  21.122  -8.887  1.00  0.00    -0.388 OA
ATOM     27  H5  UNL     1      -9.175  20.664  -9.698  1.00  0.00     0.210 HD
ENDBRANCH   4  26
TORSDOF 11
ENDMDL
MODEL 3
REMARK VINA RESULT: -6.203789400      5.788      8.677
REMARK  11 active torsions:
REMARK  status: ('A' for Active; 'I' for Inactive)
REMARK    1  A    between atoms: C2_2  and  C3_3 
REMARK    2  A    between atoms: C3_3  and  O1_5 
REMARK    3  A    between atoms: C3_3  and  C5_7 
REMARK    4  A    between atoms: C5_7  and  C6_8 
REMARK    5  A    between atoms: C6_8  and  C7_10 
REMARK    6  A    between atoms: C8_11  and  C9_12 
REMARK    7  A    between atoms: C10_13  and  C11_14 
REMARK    8  A    between atoms: C12_16  and  O4_17 
REMARK    9  A    between atoms: C13_19  and  O5_20 
REMARK   10  A    between atoms: C14_22  and  O6_23 
REMARK   11  A    between atoms: C15_25  and  O7_26 
ROOT
HETATM    1  C11 UNL     1       1.113  18.639  -5.249  1.00  0.00     0.179 C 
HETATM    2  O3  UNL     1       0.466  19.434  -6.146  1.00  0.00    -0.347 OA
HETATM    3  C12 UNL     1       0.778  19.282  -7.460  1.00  0.00     0.289 C 
HETATM    4  C13 UNL     1       1.848  18.373  -7.867  1.00  0.00     0.204 C 
HETATM    5  C14 UNL     1       2.656  17.697  -6.820  1.00  0.00     0.183 C 
HETATM    6  C15 UNL     1       2.586  18.570  -5.559  1.00  0.00     0.185 C 
ENDROOT
BRANCH   1   7
HETATM    7  C10 UNL     1       0.816  19.094  -3.873  1.00  0.00     0.008 C 
HETATM    8  C9  UNL     1       0.377  18.310  -2.922  1.00  0.00    -0.001 C 
BRANCH   8   9
HETATM    9  C8  UNL     1       0.104  16.889  -3.030  1.00  0.00     0.003 C 
HETATM   10  C7  UNL     1       0.966  16.016  -2.547  1.00  0.00     0.050 C 
BRANCH  10  11
HETATM   11  C6  UNL     1       0.710  14.579  -2.646  1.00  0.00     0.152 C 
HETATM   12  O2  UNL     1       1.675  13.804  -2.433  1.00  0.00    -0.293 OA
BRANCH  11  13
HETATM   13  C5  UNL     1      -0.636  14.052  -2.985  1.00  0.00     0.120 C 
BRANCH  13  14
HETATM   14  C3  UNL     1      -0.566  13.390  -4.321  1.00  0.00     0.060 C 
HETATM   15  C4  UNL     1      -1.688  13.910  -5.198  1.00  0.00     0.046 C 
BRANCH  14  16
HETATM   16  C2  UNL     1      -0.657  11.891  -4.249  1.00  0.00     0.033 C 
HETATM   17  C1  UNL     1       0.501  11.313  -5.032  1.00  0.00     0.008 C 
ENDBRANCH  14  16
BRANCH  14  18
HETATM   18  O1  UNL     1       0.675  13.704  -4.890  1.00  0.00    -0.390 OA
ATOM     19  H1  UNL     1       0.812  14.636  -4.771  1.00  0.00     0.210 HD
ENDBRANCH  14  18
ENDBRANCH  13  14
ENDBRANCH  11  13
ENDBRANCH  10  11
ENDBRANCH   8   9
ENDBRANCH   1   7
BRANCH   6  20
HETATM   20  O7  UNL     1       3.303  17.912  -4.563  1.00  0.00    -0.385 OA
HETATM   21  C16 UNL     1       4.437  18.662  -4.287  1.00  0.00     0.202 C 
ENDBRANCH   6  20
BRANCH   3  22
HETATM   22  O4  UNL     1      -0.416  18.933  -8.135  1.00  0.00    -0.368 OA
ATOM     23  H4  UNL     1      -0.886  18.326  -7.577  1.00  0.00     0.212 HD
ENDBRANCH   3  22
BRANCH   5  24
HETATM   24  O6  UNL     1       2.039  16.480  -6.465  1.00  0.00    -0.390 OA
ATOM     25  H6  UNL     1       2.007  16.406  -5.518  1.00  0.00     0.210 HD
ENDBRANCH   5  24
BRANCH   4  26
HETATM   26  O5  UNL     1       2.772  19.018  -8.728  1.00  0.00    -0.388 OA
ATOM     27  H5  UNL     1       3.654  18.694  -8.593  1.00  0.00     0.210 HD
ENDBRANCH   4  26
TORSDOF 11
ENDMDL
MODEL 4
REMARK VINA RESULT: -6.165537440      0.952      1.091
REMARK  11 active torsions:
REMARK  status: ('A' for Active; 'I' for Inactive)
REMARK    1  A    between atoms: C2_2  and  C3_3 
REMARK    2  A    between atoms: C3_3  and  O1_5 
REMARK    3  A    between atoms: C3_3  and  C5_7 
REMARK    4  A    between atoms: C5_7  and  C6_8 
REMARK    5  A    between atoms: C6_8  and  C7_10 
REMARK    6  A    between atoms: C8_11  and  C9_12 
REMARK    7  A    between atoms: C10_13  and  C11_14 
REMARK    8  A    between atoms: C12_16  and  O4_17 
REMARK    9  A    between atoms: C13_19  and  O5_20 
REMARK   10  A    between atoms: C14_22  and  O6_23 
REMARK   11  A    between atoms: C15_25  and  O7_26 
ROOT
HETATM    1  C11 UNL     1      -5.444  21.266  -8.973  1.00  0.00     0.179 C 
HETATM    2  O3  UNL     1      -5.090  20.572  -7.856  1.00  0.00    -0.347 OA
HETATM    3  C12 UNL     1      -5.495  19.278  -7.765  1.00  0.00     0.289 C 
HETATM    4  C13 UNL     1      -6.368  18.701  -8.786  1.00  0.00     0.204 C 
HETATM    5  C14 UNL     1      -6.889  19.577  -9.867  1.00  0.00     0.183 C 
HETATM    6  C15 UNL     1      -6.887  21.014  -9.326  1.00  0.00     0.185 C 
ENDROOT
BRANCH   1   7
HETATM    7  C10 UNL     1      -5.116  22.697  -8.797  1.00  0.00     0.008 C 
HETATM    8  C9  UNL     1      -4.140  23.137  -8.045  1.00  0.00    -0.001 C 
BRANCH   8   9
HETATM    9  C8  UNL     1      -3.221  22.332  -7.263  1.00  0.00     0.003 C 
HETATM   10  C7  UNL     1      -2.688  22.825  -6.162  1.00  0.00     0.050 C 
BRANCH  10  11
HETATM   11  C6  UNL     1      -1.759  22.030  -5.359  1.00  0.00     0.152 C 
HETATM   12  O2  UNL     1      -1.867  22.102  -4.111  1.00  0.00    -0.293 OA
BRANCH  11  13
HETATM   13  C5  UNL     1      -0.727  21.170  -5.992  1.00  0.00     0.120 C 
BRANCH  13  14
HETATM   14  C3  UNL     1      -1.078  19.742  -5.742  1.00  0.00     0.060 C 
HETATM   15  C4  UNL     1      -0.244  19.213  -4.592  1.00  0.00     0.046 C 
BRANCH  14  16
HETATM   16  C2  UNL     1      -0.871  18.858  -6.941  1.00  0.00     0.033 C 
HETATM   17  C1  UNL     1       0.519  19.117  -7.479  1.00  0.00     0.008 C 
ENDBRANCH  14  16
BRANCH  14  18
HETATM   18  O1  UNL     1      -2.439  19.686  -5.415  1.00  0.00    -0.390 OA
ATOM     19  H1  UNL     1      -2.566  18.922  -4.864  1.00  0.00     0.210 HD
ENDBRANCH  14  18
ENDBRANCH  13  14
ENDBRANCH  11  13
ENDBRANCH  10  11
ENDBRANCH   8   9
ENDBRANCH   1   7
BRANCH   6  20
HETATM   20  O7  UNL     1      -7.328  21.842 -10.355  1.00  0.00    -0.385 OA
HETATM   21  C16 UNL     1      -8.622  22.243 -10.055  1.00  0.00     0.202 C 
ENDBRANCH   6  20
BRANCH   3  22
HETATM   22  O4  UNL     1      -4.330  18.484  -7.641  1.00  0.00    -0.368 OA
ATOM     23  H4  UNL     1      -4.601  17.576  -7.714  1.00  0.00     0.212 HD
ENDBRANCH   3  22
BRANCH   5  24
HETATM   24  O6  UNL     1      -5.978  19.584 -10.944  1.00  0.00    -0.390 OA
ATOM     25  H6  UNL     1      -5.116  19.825 -10.628  1.00  0.00     0.210 HD
ENDBRANCH   5  24
BRANCH   4  26
HETATM   26  O5  UNL     1      -7.499  18.074  -8.203  1.00  0.00    -0.388 OA
ATOM     27  H5  UNL     1      -8.119  18.716  -7.878  1.00  0.00     0.210 HD
ENDBRANCH   4  26
TORSDOF 11
ENDMDL
MODEL 5
REMARK VINA RESULT: -6.153768690      2.254      7.683
REMARK  11 active torsions:
REMARK  status: ('A' for Active; 'I' for Inactive)
REMARK    1  A    between atoms: C2_2  and  C3_3 
REMARK    2  A    between atoms: C3_3  and  O1_5 
REMARK    3  A    between atoms: C3_3  and  C5_7 
REMARK    4  A    between atoms: C5_7  and  C6_8 
REMARK    5  A    between atoms: C6_8  and  C7_10 
REMARK    6  A    between atoms: C8_11  and  C9_12 
REMARK    7  A    between atoms: C10_13  and  C11_14 
REMARK    8  A    between atoms: C12_16  and  O4_17 
REMARK    9  A    between atoms: C13_19  and  O5_20 
REMARK   10  A    between atoms: C14_22  and  O6_23 
REMARK   11  A    between atoms: C15_25  and  O7_26 
ROOT
HETATM    1  C11 UNL     1       0.784  19.857  -6.560  1.00  0.00     0.179 C 
HETATM    2  O3  UNL     1       1.623  20.925  -6.663  1.00  0.00    -0.347 OA
HETATM    3  C12 UNL     1       2.599  20.868  -7.607  1.00  0.00     0.289 C 
HETATM    4  C13 UNL     1       2.796  19.654  -8.398  1.00  0.00     0.204 C 
HETATM    5  C14 UNL     1       1.982  18.452  -8.086  1.00  0.00     0.183 C 
HETATM    6  C15 UNL     1       1.555  18.563  -6.616  1.00  0.00     0.185 C 
ENDROOT
BRANCH   1   7
HETATM    7  C10 UNL     1      -0.056  19.997  -5.351  1.00  0.00     0.008 C 
HETATM    8  C9  UNL     1      -1.363  19.944  -5.358  1.00  0.00    -0.001 C 
BRANCH   8   9
HETATM    9  C8  UNL     1      -2.214  19.745  -6.516  1.00  0.00     0.003 C 
HETATM   10  C7  UNL     1      -3.420  20.275  -6.544  1.00  0.00     0.050 C 
BRANCH  10  11
HETATM   11  C6  UNL     1      -4.294  20.086  -7.703  1.00  0.00     0.152 C 
HETATM   12  O2  UNL     1      -4.357  18.934  -8.197  1.00  0.00    -0.293 OA
BRANCH  11  13
HETATM   13  C5  UNL     1      -5.078  21.211  -8.275  1.00  0.00     0.120 C 
BRANCH  13  14
HETATM   14  C3  UNL     1      -6.514  21.020  -7.921  1.00  0.00     0.060 C 
HETATM   15  C4  UNL     1      -7.274  20.548  -9.144  1.00  0.00     0.046 C 
BRANCH  14  16
HETATM   16  C2  UNL     1      -7.168  22.266  -7.390  1.00  0.00     0.033 C 
HETATM   17  C1  UNL     1      -8.229  22.696  -8.379  1.00  0.00     0.008 C 
ENDBRANCH  14  16
BRANCH  14  18
HETATM   18  O1  UNL     1      -6.581  20.052  -6.910  1.00  0.00    -0.390 OA
ATOM     19  H1  UNL     1      -5.729  19.636  -6.860  1.00  0.00     0.210 HD
ENDBRANCH  14  18
ENDBRANCH  13  14
ENDBRANCH  11  13
ENDBRANCH  10  11
ENDBRANCH   8   9
ENDBRANCH   1   7
BRANCH   6  20
HETATM   20  O7  UNL     1       0.751  17.460  -6.336  1.00  0.00    -0.385 OA
HETATM   21  C16 UNL     1       1.443  16.641  -5.456  1.00  0.00     0.202 C 
ENDBRANCH   6  20
BRANCH   3  22
HETATM   22  O4  UNL     1       2.405  21.968  -8.475  1.00  0.00    -0.368 OA
ATOM     23  H4  UNL     1       1.562  21.848  -8.896  1.00  0.00     0.212 HD
ENDBRANCH   3  22
BRANCH   5  24
HETATM   24  O6  UNL     1       0.783  18.492  -8.826  1.00  0.00    -0.390 OA
ATOM     25  H6  UNL     1       0.066  18.185  -8.284  1.00  0.00     0.210 HD
ENDBRANCH   5  24
BRANCH   4  26
HETATM   26  O5  UNL     1       4.151  19.236  -8.372  1.00  0.00    -0.388 OA
ATOM     27  H5  UNL     1       4.696  19.799  -8.909  1.00  0.00     0.210 HD
ENDBRANCH   4  26
TORSDOF 11
ENDMDL
