MODEL 1
REMARK VINA RESULT: -8.852940895      0.000      0.000
REMARK  10 active torsions:
REMARK  status: ('A' for Active; 'I' for Inactive)
REMARK    1  A    between atoms: C5_6  and  C6_7 
REMARK    2  A    between atoms: C6_7  and  C7_8 
REMARK    3  A    between atoms: C6_7  and  C13_14 
REMARK    4  A    between atoms: C7_8  and  C8_9 
REMARK       I    between atoms: C13_14  and  N1_16 
REMARK    5  A    between atoms: C17_22  and  C18_23 
REMARK    6  A    between atoms: C18_23  and  O2_24 
REMARK    7  A    between atoms: C18_23  and  N2_26 
REMARK    8  A    between atoms: N2_26  and  C19_28 
REMARK    9  A    between atoms: N3_31  and  C22_32 
REMARK   10  A    between atoms: N5_39  and  O3_40 
ROOT
HETATM    1  C22 UNL     1      -6.579  21.193  -9.163  1.00  0.00     0.191 C 
HETATM    2  C23 UNL     1      -6.530  22.703  -9.353  1.00  0.00     0.048 C 
HETATM    3  C24 UNL     1      -6.209  20.614 -10.469  1.00  0.00     0.084 C 
HETATM    4  N4  UNL     1      -5.915  20.173 -11.494  1.00  0.00    -0.195 NA
ENDROOT
BRANCH   1   5
HETATM    5  N3  UNL     1      -5.687  20.838  -8.128  1.00  0.00    -0.357 N 
HETATM    6  C21 UNL     1      -4.981  21.849  -7.461  1.00  0.00     0.066 C 
HETATM    7  C20 UNL     1      -3.498  21.597  -7.573  1.00  0.00     0.069 C 
HETATM    8  C19 UNL     1      -3.239  20.249  -6.862  1.00  0.00     0.088 C 
HETATM    9  C26 UNL     1      -3.861  19.222  -7.770  1.00  0.00     0.069 C 
HETATM   10  C25 UNL     1      -5.330  19.499  -7.954  1.00  0.00     0.066 C 
BRANCH   8  11
HETATM   11  N2  UNL     1      -1.902  20.173  -6.611  1.00  0.00    -0.391 N 
ATOM     12  H2  UNL     1      -1.405  19.454  -7.136  1.00  0.00     0.156 HD
BRANCH  11  13
HETATM   13  C18 UNL     1      -1.122  20.914  -5.760  1.00  0.00     0.224 C 
BRANCH  13  14
HETATM   14  C17 UNL     1       0.165  20.341  -5.209  1.00  0.00     0.090 C 
HETATM   15  C14 UNL     1       0.768  19.256  -5.957  1.00  0.00     0.008 C 
HETATM   16  N1  UNL     1       0.481  18.013  -5.934  1.00  0.00    -0.333 N 
HETATM   17  C15 UNL     1       1.890  19.705  -6.863  1.00  0.00     0.127 C 
HETATM   18  C13 UNL     1      -0.451  17.260  -5.252  1.00  0.00     0.230 C 
ATOM     19  H1  UNL     1       1.067  17.457  -6.555  1.00  0.00     0.168 HD
HETATM   20  O1  UNL     1      -1.674  17.357  -5.502  1.00  0.00    -0.272 OA
HETATM   21  S1  UNL     1       2.650  20.942  -5.739  1.00  0.00    -0.163 SA
HETATM   22  C16 UNL     1       1.152  21.387  -4.822  1.00  0.00     0.089 C 
BRANCH  18  23
HETATM   23  C6  UNL     1      -0.014  16.297  -4.189  1.00  0.00     0.113 C 
BRANCH  23  24
HETATM   24  C5  UNL     1      -0.362  16.806  -2.841  1.00  0.00    -0.024 A 
HETATM   25  C4  UNL     1       0.071  18.046  -2.408  1.00  0.00     0.054 A 
HETATM   26  C3  UNL     1      -0.272  18.482  -1.151  1.00  0.00     0.141 A 
HETATM   27  C2  UNL     1      -1.039  17.722  -0.299  1.00  0.00     0.074 A 
HETATM   28  F1  UNL     1       0.153  19.713  -0.715  1.00  0.00    -0.204 F 
HETATM   29  C1  UNL     1      -1.398  18.205   1.046  1.00  0.00     0.074 C 
HETATM   30  N5  UNL     1      -1.444  16.522  -0.750  1.00  0.00    -0.237 N 
HETATM   31  C27 UNL     1      -1.124  16.060  -1.983  1.00  0.00     0.131 A 
BRANCH  30  32
HETATM   32  O3  UNL     1      -2.213  15.739   0.082  1.00  0.00    -0.283 OA
ATOM     33  H3  UNL     1      -1.770  15.181   0.711  1.00  0.00     0.245 HD
ENDBRANCH  30  32
ENDBRANCH  23  24
BRANCH  23  34
HETATM   34  C7  UNL     1      -0.455  14.899  -4.406  1.00  0.00     0.023 C 
BRANCH  34  35
HETATM   35  C8  UNL     1       0.469  13.825  -3.957  1.00  0.00    -0.013 C 
HETATM   36  C9  UNL     1      -0.302  12.577  -3.556  1.00  0.00     0.005 C 
HETATM   37  C10 UNL     1       0.185  11.465  -4.482  1.00  0.00     0.000 C 
HETATM   38  C11 UNL     1       0.471  12.273  -5.748  1.00  0.00     0.000 C 
HETATM   39  C12 UNL     1       1.295  13.397  -5.182  1.00  0.00     0.005 C 
ENDBRANCH  34  35
ENDBRANCH  23  34
ENDBRANCH  18  23
ENDBRANCH  13  14
BRANCH  13  40
HETATM   40  O2  UNL     1      -0.713  22.168  -6.309  1.00  0.00    -0.376 OA
ATOM     41  H2  UNL     1      -1.492  22.706  -6.224  1.00  0.00     0.212 HD
ENDBRANCH  13  40
ENDBRANCH  11  13
ENDBRANCH   8  11
ENDBRANCH   1   5
TORSDOF 10
ENDMDL
MODEL 2
REMARK VINA RESULT: -8.845351283      0.937      1.162
REMARK  10 active torsions:
REMARK  status: ('A' for Active; 'I' for Inactive)
REMARK    1  A    between atoms: C5_6  and  C6_7 
REMARK    2  A    between atoms: C6_7  and  C7_8 
REMARK    3  A    between atoms: C6_7  and  C13_14 
REMARK    4  A    between atoms: C7_8  and  C8_9 
REMARK       I    between atoms: C13_14  and  N1_16 
REMARK    5  A    between atoms: C17_22  and  C18_23 
REMARK    6  A    between atoms: C18_23  and  O2_24 
REMARK    7  A    between atoms: C18_23  and  N2_26 
REMARK    8  A    between atoms: N2_26  and  C19_28 
REMARK    9  A    between atoms: N3_31  and  C22_32 
REMARK   10  A    between atoms: N5_39  and  O3_40 
ROOT
HETATM    1  C22 UNL     1      -6.398  21.467  -8.887  1.00  0.00     0.191 C 
HETATM    2  C23 UNL     1      -6.140  22.924  -9.244  1.00  0.00     0.048 C 
HETATM    3  C24 UNL     1      -6.155  20.703 -10.126  1.00  0.00     0.084 C 
HETATM    4  N4  UNL     1      -5.958  20.116 -11.100  1.00  0.00    -0.195 NA
ENDROOT
BRANCH   1   5
HETATM    5  N3  UNL     1      -5.535  21.100  -7.832  1.00  0.00    -0.357 N 
HETATM    6  C21 UNL     1      -4.889  22.105  -7.099  1.00  0.00     0.066 C 
HETATM    7  C20 UNL     1      -3.396  21.906  -7.161  1.00  0.00     0.069 C 
HETATM    8  C19 UNL     1      -3.118  20.539  -6.493  1.00  0.00     0.088 C 
HETATM    9  C26 UNL     1      -3.670  19.531  -7.465  1.00  0.00     0.069 C 
HETATM   10  C25 UNL     1      -5.140  19.767  -7.696  1.00  0.00     0.066 C 
BRANCH   8  11
HETATM   11  N2  UNL     1      -1.791  20.497  -6.193  1.00  0.00    -0.391 N 
ATOM     12  H2  UNL     1      -1.186  20.183  -6.952  1.00  0.00     0.156 HD
BRANCH  11  13
HETATM   13  C18 UNL     1      -1.141  20.810  -5.026  1.00  0.00     0.224 C 
BRANCH  13  14
HETATM   14  C17 UNL     1       0.148  20.109  -4.657  1.00  0.00     0.090 C 
HETATM   15  C14 UNL     1       0.723  19.233  -5.659  1.00  0.00     0.008 C 
HETATM   16  N1  UNL     1       0.418  18.024  -5.931  1.00  0.00    -0.333 N 
HETATM   17  C15 UNL     1       1.834  19.878  -6.452  1.00  0.00     0.127 C 
HETATM   18  C13 UNL     1      -0.511  17.136  -5.433  1.00  0.00     0.230 C 
ATOM     19  H1  UNL     1       0.985  17.629  -6.681  1.00  0.00     0.168 HD
HETATM   20  O1  UNL     1      -1.737  17.302  -5.626  1.00  0.00    -0.272 OA
HETATM   21  S1  UNL     1       2.631  20.798  -5.078  1.00  0.00    -0.163 SA
HETATM   22  C16 UNL     1       1.156  21.021  -4.049  1.00  0.00     0.089 C 
BRANCH  18  23
HETATM   23  C6  UNL     1      -0.068  15.940  -4.645  1.00  0.00     0.113 C 
BRANCH  23  24
HETATM   24  C5  UNL     1       0.019  16.263  -3.201  1.00  0.00    -0.024 A 
HETATM   25  C4  UNL     1       1.011  17.093  -2.710  1.00  0.00     0.054 A 
HETATM   26  C3  UNL     1       1.060  17.368  -1.365  1.00  0.00     0.141 A 
HETATM   27  C2  UNL     1       0.148  16.842  -0.479  1.00  0.00     0.074 A 
HETATM   28  F1  UNL     1       2.041  18.191  -0.870  1.00  0.00    -0.204 F 
HETATM   29  C1  UNL     1       0.214  17.147   0.961  1.00  0.00     0.074 C 
HETATM   30  N5  UNL     1      -0.804  16.039  -0.988  1.00  0.00    -0.237 N 
HETATM   31  C27 UNL     1      -0.881  15.747  -2.309  1.00  0.00     0.131 A 
BRANCH  30  32
HETATM   32  O3  UNL     1      -1.731  15.499  -0.124  1.00  0.00    -0.283 OA
ATOM     33  H3  UNL     1      -2.647  15.712  -0.257  1.00  0.00     0.245 HD
ENDBRANCH  30  32
ENDBRANCH  23  24
BRANCH  23  34
HETATM   34  C7  UNL     1      -0.845  14.705  -4.910  1.00  0.00     0.023 C 
BRANCH  34  35
HETATM   35  C8  UNL     1      -0.084  13.523  -5.394  1.00  0.00    -0.013 C 
HETATM   36  C9  UNL     1       1.412  13.731  -5.218  1.00  0.00     0.005 C 
HETATM   37  C10 UNL     1       1.886  12.615  -4.289  1.00  0.00     0.000 C 
HETATM   38  C11 UNL     1       0.644  12.449  -3.412  1.00  0.00     0.000 C 
HETATM   39  C12 UNL     1      -0.429  12.350  -4.461  1.00  0.00     0.005 C 
ENDBRANCH  34  35
ENDBRANCH  23  34
ENDBRANCH  18  23
ENDBRANCH  13  14
BRANCH  13  40
HETATM   40  O2  UNL     1      -0.804  22.193  -4.915  1.00  0.00    -0.376 OA
ATOM     41  H2  UNL     1      -1.260  22.465  -4.127  1.00  0.00     0.212 HD
ENDBRANCH  13  40
ENDBRANCH  11  13
ENDBRANCH   8  11
ENDBRANCH   1   5
TORSDOF 10
ENDMDL
MODEL 3
REMARK VINA RESULT: -8.828234917      2.185      4.071
REMARK  10 active torsions:
REMARK  status: ('A' for Active; 'I' for Inactive)
REMARK    1  A    between atoms: C5_6  and  C6_7 
REMARK    2  A    between atoms: C6_7  and  C7_8 
REMARK    3  A    between atoms: C6_7  and  C13_14 
REMARK    4  A    between atoms: C7_8  and  C8_9 
REMARK       I    between atoms: C13_14  and  N1_16 
REMARK    5  A    between atoms: C17_22  and  C18_23 
REMARK    6  A    between atoms: C18_23  and  O2_24 
REMARK    7  A    between atoms: C18_23  and  N2_26 
REMARK    8  A    between atoms: N2_26  and  C19_28 
REMARK    9  A    between atoms: N3_31  and  C22_32 
REMARK   10  A    between atoms: N5_39  and  O3_40 
ROOT
HETATM    1  C22 UNL     1      -6.574  22.364  -9.580  1.00  0.00     0.191 C 
HETATM    2  C23 UNL     1      -8.027  22.695  -9.271  1.00  0.00     0.048 C 
HETATM    3  C24 UNL     1      -5.905  23.662  -9.794  1.00  0.00     0.084 C 
HETATM    4  N4  UNL     1      -5.393  24.683  -9.956  1.00  0.00    -0.195 NA
ENDROOT
BRANCH   1   5
HETATM    5  N3  UNL     1      -6.035  21.636  -8.497  1.00  0.00    -0.357 N 
HETATM    6  C21 UNL     1      -5.459  22.334  -7.427  1.00  0.00     0.066 C 
HETATM    7  C20 UNL     1      -4.029  21.894  -7.238  1.00  0.00     0.069 C 
HETATM    8  C19 UNL     1      -4.088  20.390  -6.884  1.00  0.00     0.088 C 
HETATM    9  C26 UNL     1      -4.518  19.723  -8.163  1.00  0.00     0.069 C 
HETATM   10  C25 UNL     1      -5.851  20.256  -8.617  1.00  0.00     0.066 C 
BRANCH   8  11
HETATM   11  N2  UNL     1      -2.884  20.053  -6.345  1.00  0.00    -0.391 N 
ATOM     12  H2  UNL     1      -2.912  19.288  -5.672  1.00  0.00     0.156 HD
BRANCH  11  13
HETATM   13  C18 UNL     1      -1.639  20.584  -6.568  1.00  0.00     0.224 C 
BRANCH  13  14
HETATM   14  C17 UNL     1      -0.559  20.470  -5.515  1.00  0.00     0.090 C 
HETATM   15  C14 UNL     1       0.512  19.530  -5.779  1.00  0.00     0.008 C 
HETATM   16  N1  UNL     1       0.529  18.267  -5.597  1.00  0.00    -0.333 N 
HETATM   17  C15 UNL     1       1.757  20.181  -6.332  1.00  0.00     0.127 C 
HETATM   18  C13 UNL     1      -0.391  17.356  -5.124  1.00  0.00     0.230 C 
ATOM     19  H1  UNL     1       1.416  17.838  -5.859  1.00  0.00     0.168 HD
HETATM   20  O1  UNL     1      -1.418  17.069  -5.781  1.00  0.00    -0.272 OA
HETATM   21  S1  UNL     1       1.735  21.699  -5.300  1.00  0.00    -0.163 SA
HETATM   22  C16 UNL     1      -0.057  21.791  -5.046  1.00  0.00     0.089 C 
BRANCH  18  23
HETATM   23  C6  UNL     1      -0.178  16.682  -3.803  1.00  0.00     0.113 C 
BRANCH  23  24
HETATM   24  C5  UNL     1      -0.031  15.217  -3.976  1.00  0.00    -0.024 A 
HETATM   25  C4  UNL     1      -0.023  14.362  -2.888  1.00  0.00     0.054 A 
HETATM   26  C3  UNL     1       0.117  13.011  -3.090  1.00  0.00     0.141 A 
HETATM   27  C2  UNL     1       0.248  12.471  -4.348  1.00  0.00     0.074 A 
HETATM   28  F1  UNL     1       0.126  12.157  -2.015  1.00  0.00    -0.204 F 
HETATM   29  C1  UNL     1       0.396  11.017  -4.547  1.00  0.00     0.074 C 
HETATM   30  N5  UNL     1       0.236  13.327  -5.384  1.00  0.00    -0.237 N 
HETATM   31  C27 UNL     1       0.101  14.666  -5.222  1.00  0.00     0.131 A 
BRANCH  30  32
HETATM   32  O3  UNL     1       0.366  12.814  -6.656  1.00  0.00    -0.283 OA
ATOM     33  H3  UNL     1       0.896  13.293  -7.282  1.00  0.00     0.245 HD
ENDBRANCH  30  32
ENDBRANCH  23  24
BRANCH  23  34
HETATM   34  C7  UNL     1       0.902  17.272  -2.977  1.00  0.00     0.023 C 
BRANCH  34  35
HETATM   35  C8  UNL     1       0.485  18.048  -1.779  1.00  0.00    -0.013 C 
HETATM   36  C9  UNL     1      -0.889  17.610  -1.300  1.00  0.00     0.005 C 
HETATM   37  C10 UNL     1      -0.695  17.099   0.126  1.00  0.00     0.000 C 
HETATM   38  C11 UNL     1       0.715  16.518   0.015  1.00  0.00     0.000 C 
HETATM   39  C12 UNL     1       1.440  17.664  -0.636  1.00  0.00     0.005 C 
ENDBRANCH  34  35
ENDBRANCH  23  34
ENDBRANCH  18  23
ENDBRANCH  13  14
BRANCH  13  40
HETATM   40  O2  UNL     1      -1.005  20.076  -7.743  1.00  0.00    -0.376 OA
ATOM     41  H2  UNL     1      -1.646  19.466  -8.089  1.00  0.00     0.212 HD
ENDBRANCH  13  40
ENDBRANCH  11  13
ENDBRANCH   8  11
ENDBRANCH   1   5
TORSDOF 10
ENDMDL
MODEL 4
REMARK VINA RESULT: -8.670552955      1.453      1.691
REMARK  10 active torsions:
REMARK  status: ('A' for Active; 'I' for Inactive)
REMARK    1  A    between atoms: C5_6  and  C6_7 
REMARK    2  A    between atoms: C6_7  and  C7_8 
REMARK    3  A    between atoms: C6_7  and  C13_14 
REMARK    4  A    between atoms: C7_8  and  C8_9 
REMARK       I    between atoms: C13_14  and  N1_16 
REMARK    5  A    between atoms: C17_22  and  C18_23 
REMARK    6  A    between atoms: C18_23  and  O2_24 
REMARK    7  A    between atoms: C18_23  and  N2_26 
REMARK    8  A    between atoms: N2_26  and  C19_28 
REMARK    9  A    between atoms: N3_31  and  C22_32 
REMARK   10  A    between atoms: N5_39  and  O3_40 
ROOT
HETATM    1  C22 UNL     1      -6.486  21.340  -8.977  1.00  0.00     0.191 C 
HETATM    2  C23 UNL     1      -6.302  22.823  -9.265  1.00  0.00     0.048 C 
HETATM    3  C24 UNL     1      -6.184  20.646 -10.243  1.00  0.00     0.084 C 
HETATM    4  N4  UNL     1      -5.942  20.115 -11.239  1.00  0.00    -0.195 NA
ENDROOT
BRANCH   1   5
HETATM    5  N3  UNL     1      -5.619  20.972  -7.924  1.00  0.00    -0.357 N 
HETATM    6  C21 UNL     1      -5.009  21.978  -7.162  1.00  0.00     0.066 C 
HETATM    7  C20 UNL     1      -3.509  21.825  -7.219  1.00  0.00     0.069 C 
HETATM    8  C19 UNL     1      -3.196  20.451  -6.582  1.00  0.00     0.088 C 
HETATM    9  C26 UNL     1      -3.711  19.451  -7.582  1.00  0.00     0.069 C 
HETATM   10  C25 UNL     1      -5.185  19.649  -7.818  1.00  0.00     0.066 C 
BRANCH   8  11
HETATM   11  N2  UNL     1      -1.869  20.440  -6.273  1.00  0.00    -0.391 N 
ATOM     12  H2  UNL     1      -1.258  20.092  -7.011  1.00  0.00     0.156 HD
BRANCH  11  13
HETATM   13  C18 UNL     1      -1.230  20.825  -5.122  1.00  0.00     0.224 C 
BRANCH  13  14
HETATM   14  C17 UNL     1       0.053  20.146  -4.697  1.00  0.00     0.090 C 
HETATM   15  C14 UNL     1       0.684  19.277  -5.671  1.00  0.00     0.008 C 
HETATM   16  N1  UNL     1       0.411  18.063  -5.952  1.00  0.00    -0.333 N 
HETATM   17  C15 UNL     1       1.817  19.938  -6.418  1.00  0.00     0.127 C 
HETATM   18  C13 UNL     1      -0.524  17.161  -5.491  1.00  0.00     0.230 C 
ATOM     19  H1  UNL     1       1.015  17.676  -6.676  1.00  0.00     0.168 HD
HETATM   20  O1  UNL     1      -1.744  17.307  -5.736  1.00  0.00    -0.272 OA
HETATM   21  S1  UNL     1       2.541  20.875  -5.015  1.00  0.00    -0.163 SA
HETATM   22  C16 UNL     1       1.020  21.076  -4.050  1.00  0.00     0.089 C 
BRANCH  18  23
HETATM   23  C6  UNL     1      -0.096  15.975  -4.681  1.00  0.00     0.113 C 
BRANCH  23  24
HETATM   24  C5  UNL     1       0.048  16.336  -3.251  1.00  0.00    -0.024 A 
HETATM   25  C4  UNL     1      -0.982  16.131  -2.351  1.00  0.00     0.054 A 
HETATM   26  C3  UNL     1      -0.811  16.480  -1.034  1.00  0.00     0.141 A 
HETATM   27  C2  UNL     1       0.361  17.032  -0.572  1.00  0.00     0.074 A 
HETATM   28  F1  UNL     1      -1.829  16.279  -0.135  1.00  0.00    -0.204 F 
HETATM   29  C1  UNL     1       0.529  17.401   0.846  1.00  0.00     0.074 C 
HETATM   30  N5  UNL     1       1.344  17.218  -1.471  1.00  0.00    -0.237 N 
HETATM   31  C27 UNL     1       1.209  16.886  -2.778  1.00  0.00     0.131 A 
BRANCH  30  32
HETATM   32  O3  UNL     1       2.529  17.769  -1.037  1.00  0.00    -0.283 OA
ATOM     33  H3  UNL     1       3.216  17.918  -1.675  1.00  0.00     0.245 HD
ENDBRANCH  30  32
ENDBRANCH  23  24
BRANCH  23  34
HETATM   34  C7  UNL     1      -0.921  14.760  -4.885  1.00  0.00     0.023 C 
BRANCH  34  35
HETATM   35  C8  UNL     1      -0.213  13.534  -5.337  1.00  0.00    -0.013 C 
HETATM   36  C9  UNL     1       1.293  13.700  -5.214  1.00  0.00     0.005 C 
HETATM   37  C10 UNL     1       1.760  12.611  -4.250  1.00  0.00     0.000 C 
HETATM   38  C11 UNL     1       0.541  12.524  -3.331  1.00  0.00     0.000 C 
HETATM   39  C12 UNL     1      -0.566  12.414  -4.343  1.00  0.00     0.005 C 
ENDBRANCH  34  35
ENDBRANCH  23  34
ENDBRANCH  18  23
ENDBRANCH  13  14
BRANCH  13  40
HETATM   40  O2  UNL     1      -0.890  22.212  -5.097  1.00  0.00    -0.376 OA
ATOM     41  H2  UNL     1      -1.236  22.505  -4.262  1.00  0.00     0.212 HD
ENDBRANCH  13  40
ENDBRANCH  11  13
ENDBRANCH   8  11
ENDBRANCH   1   5
TORSDOF 10
ENDMDL
MODEL 5
REMARK VINA RESULT: -8.624442023      1.231      1.422
REMARK  10 active torsions:
REMARK  status: ('A' for Active; 'I' for Inactive)
REMARK    1  A    between atoms: C5_6  and  C6_7 
REMARK    2  A    between atoms: C6_7  and  C7_8 
REMARK    3  A    between atoms: C6_7  and  C13_14 
REMARK    4  A    between atoms: C7_8  and  C8_9 
REMARK       I    between atoms: C13_14  and  N1_16 
REMARK    5  A    between atoms: C17_22  and  C18_23 
REMARK    6  A    between atoms: C18_23  and  O2_24 
REMARK    7  A    between atoms: C18_23  and  N2_26 
REMARK    8  A    between atoms: N2_26  and  C19_28 
REMARK    9  A    between atoms: N3_31  and  C22_32 
REMARK   10  A    between atoms: N5_39  and  O3_40 
ROOT
HETATM    1  C22 UNL     1      -6.267  22.289  -9.600  1.00  0.00     0.191 C 
HETATM    2  C23 UNL     1      -7.748  22.567  -9.387  1.00  0.00     0.048 C 
HETATM    3  C24 UNL     1      -5.620  23.613  -9.686  1.00  0.00     0.084 C 
HETATM    4  N4  UNL     1      -5.126  24.654  -9.747  1.00  0.00    -0.195 NA
ENDROOT
BRANCH   1   5
HETATM    5  N3  UNL     1      -5.792  21.510  -8.523  1.00  0.00    -0.357 N 
HETATM    6  C21 UNL     1      -5.040  22.129  -7.514  1.00  0.00     0.066 C 
HETATM    7  C20 UNL     1      -3.696  21.457  -7.390  1.00  0.00     0.069 C 
HETATM    8  C19 UNL     1      -3.986  19.995  -6.976  1.00  0.00     0.088 C 
HETATM    9  C26 UNL     1      -4.602  19.376  -8.202  1.00  0.00     0.069 C 
HETATM   10  C25 UNL     1      -5.852  20.116  -8.599  1.00  0.00     0.066 C 
BRANCH   8  11
HETATM   11  N2  UNL     1      -2.825  19.472  -6.494  1.00  0.00    -0.391 N 
ATOM     12  H2  UNL     1      -2.903  18.531  -6.109  1.00  0.00     0.156 HD
BRANCH  11  13
HETATM   13  C18 UNL     1      -1.566  20.016  -6.447  1.00  0.00     0.224 C 
BRANCH  13  14
HETATM   14  C17 UNL     1      -0.772  19.993  -5.160  1.00  0.00     0.090 C 
HETATM   15  C14 UNL     1       0.538  19.375  -5.214  1.00  0.00     0.008 C 
HETATM   16  N1  UNL     1       0.841  18.137  -5.147  1.00  0.00    -0.333 N 
HETATM   17  C15 UNL     1       1.664  20.371  -5.357  1.00  0.00     0.127 C 
HETATM   18  C13 UNL     1       0.105  16.979  -5.018  1.00  0.00     0.230 C 
ATOM     19  H1  UNL     1       1.845  17.969  -5.202  1.00  0.00     0.168 HD
HETATM   20  O1  UNL     1      -0.628  16.568  -5.946  1.00  0.00    -0.272 OA
HETATM   21  S1  UNL     1       1.006  21.668  -4.236  1.00  0.00    -0.163 SA
HETATM   22  C16 UNL     1      -0.756  21.307  -4.459  1.00  0.00     0.089 C 
BRANCH  18  23
HETATM   23  C6  UNL     1       0.172  16.177  -3.753  1.00  0.00     0.113 C 
BRANCH  23  24
HETATM   24  C5  UNL     1      -0.456  16.913  -2.630  1.00  0.00    -0.024 A 
HETATM   25  C4  UNL     1       0.049  18.124  -2.193  1.00  0.00     0.054 A 
HETATM   26  C3  UNL     1      -0.560  18.775  -1.148  1.00  0.00     0.141 A 
HETATM   27  C2  UNL     1      -1.666  18.260  -0.513  1.00  0.00     0.074 A 
HETATM   28  F1  UNL     1      -0.064  19.978  -0.710  1.00  0.00    -0.204 F 
HETATM   29  C1  UNL     1      -2.308  18.972   0.607  1.00  0.00     0.074 C 
HETATM   30  N5  UNL     1      -2.133  17.081  -0.961  1.00  0.00    -0.237 N 
HETATM   31  C27 UNL     1      -1.557  16.412  -1.989  1.00  0.00     0.131 A 
BRANCH  30  32
HETATM   32  O3  UNL     1      -3.240  16.542  -0.344  1.00  0.00    -0.283 OA
ATOM     33  H3  UNL     1      -3.870  17.135   0.047  1.00  0.00     0.245 HD
ENDBRANCH  30  32
ENDBRANCH  23  24
BRANCH  23  34
HETATM   34  C7  UNL     1      -0.327  14.787  -3.878  1.00  0.00     0.023 C 
BRANCH  34  35
HETATM   35  C8  UNL     1       0.669  13.697  -3.702  1.00  0.00    -0.013 C 
HETATM   36  C9  UNL     1      -0.020  12.375  -3.403  1.00  0.00     0.005 C 
HETATM   37  C10 UNL     1       0.379  11.428  -4.533  1.00  0.00     0.000 C 
HETATM   38  C11 UNL     1       0.493  12.421  -5.690  1.00  0.00     0.000 C 
HETATM   39  C12 UNL     1       1.353  13.484  -5.063  1.00  0.00     0.005 C 
ENDBRANCH  34  35
ENDBRANCH  23  34
ENDBRANCH  18  23
ENDBRANCH  13  14
BRANCH  13  40
HETATM   40  O2  UNL     1      -0.665  19.448  -7.398  1.00  0.00    -0.376 OA
ATOM     41  H2  UNL     1       0.188  19.612  -7.013  1.00  0.00     0.212 HD
ENDBRANCH  13  40
ENDBRANCH  11  13
ENDBRANCH   8  11
ENDBRANCH   1   5
TORSDOF 10
ENDMDL
