MODEL 1
REMARK VINA RESULT: -8.997962109      0.000      0.000
REMARK  9 active torsions:
REMARK  status: ('A' for Active; 'I' for Inactive)
REMARK    1  A    between atoms: O1_2  and  C2_3 
REMARK    2  A    between atoms: C4_7  and  N2_8 
REMARK    3  A    between atoms: N2_8  and  C5_10 
REMARK    4  A    between atoms: C7_14  and  C8_15 
REMARK    5  A    between atoms: C8_15  and  C9_17 
REMARK    6  A    between atoms: C9_17  and  C10_18 
REMARK    7  A    between atoms: N4_24  and  C16_26 
REMARK    8  A    between atoms: N5_29  and  S1_30 
REMARK    9  A    between atoms: S1_30  and  C19_33 
ROOT
HETATM    1  C5  UNL     1      -2.645  19.949  -6.893  1.00  0.00     0.684 A 
HETATM    2  N3  UNL     1      -2.275  21.213  -7.147  1.00  0.00    -0.201 N 
ATOM      3  H3  UNL     1      -2.832  21.764  -7.800  1.00  0.00     0.183 HD
HETATM    4  C6  UNL     1      -1.200  21.783  -6.578  1.00  0.00     0.125 A 
HETATM    5  C7  UNL     1      -0.429  21.019  -5.674  1.00  0.00     0.070 A 
HETATM    6  C15 UNL     1      -0.793  19.736  -5.407  1.00  0.00     0.132 A 
HETATM    7  N4  UNL     1      -0.160  19.002  -4.628  1.00  0.00    -0.370 N 
ATOM      8  H4  UNL     1       0.649  19.471  -4.222  1.00  0.00     0.161 HD
HETATM    9  N6  UNL     1      -1.906  19.236  -6.034  1.00  0.00    -0.176 N 
ATOM     10  H6  UNL     1      -2.184  18.274  -5.836  1.00  0.00     0.186 HD
ENDROOT
BRANCH   5  11
HETATM   11  C8  UNL     1       0.734  21.614  -5.039  1.00  0.00     0.165 C 
HETATM   12  O2  UNL     1       0.582  21.857  -3.785  1.00  0.00    -0.292 OA
BRANCH  11  13
HETATM   13  C9  UNL     1       2.005  21.958  -5.624  1.00  0.00     0.093 C 
BRANCH  13  14
HETATM   14  C10 UNL     1       2.866  20.882  -6.175  1.00  0.00    -0.034 A 
HETATM   15  C11 UNL     1       3.922  20.353  -5.158  1.00  0.00     0.016 C 
HETATM   16  C12 UNL     1       2.562  19.975  -7.273  1.00  0.00     0.015 A 
HETATM   17  C13 UNL     1       3.445  21.156  -7.570  1.00  0.00    -0.009 A 
HETATM   18  C14 UNL     1       4.951  20.898  -7.714  1.00  0.00     0.011 C 
ENDBRANCH  13  14
ENDBRANCH  11  13
ENDBRANCH   5  11
BRANCH   7  19
HETATM   19  C16 UNL     1      -0.295  17.686  -4.176  1.00  0.00     0.092 C 
HETATM   20  C17 UNL     1      -0.475  16.629  -5.241  1.00  0.00     0.071 C 
HETATM   21  C18 UNL     1      -0.773  15.295  -4.643  1.00  0.00     0.083 C 
HETATM   22  N5  UNL     1      -0.378  15.069  -3.325  1.00  0.00    -0.269 N 
HETATM   23  C22 UNL     1       0.419  15.970  -2.633  1.00  0.00     0.083 C 
HETATM   24  C23 UNL     1       0.875  17.198  -3.330  1.00  0.00     0.071 C 
BRANCH  22  25
HETATM   25  S1  UNL     1       0.100  13.440  -3.003  1.00  0.00     0.239 S 
HETATM   26  O3  UNL     1      -0.474  12.998  -1.682  1.00  0.00    -0.205 OA
HETATM   27  O4  UNL     1       1.597  13.330  -2.878  1.00  0.00    -0.205 OA
BRANCH  25  28
HETATM   28  C19 UNL     1      -0.391  12.338  -4.306  1.00  0.00     0.130 A 
HETATM   29  C20 UNL     1       0.448  12.203  -5.529  1.00  0.00     0.023 A 
HETATM   30  C21 UNL     1       0.412  11.108  -4.507  1.00  0.00     0.023 A 
ENDBRANCH  25  28
ENDBRANCH  22  25
ENDBRANCH   7  19
BRANCH   1  31
HETATM   31  N2  UNL     1      -3.692  19.469  -7.482  1.00  0.00    -0.190 N 
ATOM     32  H2  UNL     1      -3.764  18.460  -7.607  1.00  0.00     0.184 HD
BRANCH  31  33
HETATM   33  C4  UNL     1      -4.745  20.290  -7.962  1.00  0.00     0.067 A 
HETATM   34  C3  UNL     1      -5.357  21.104  -7.012  1.00  0.00     0.120 A 
HETATM   35  N1  UNL     1      -6.375  21.912  -7.426  1.00  0.00    -0.342 N 
HETATM   36  C2  UNL     1      -6.768  21.916  -8.704  1.00  0.00     0.181 A 
ATOM     37  H1  UNL     1      -6.842  22.519  -6.753  1.00  0.00     0.167 HD
HETATM   38  C25 UNL     1      -6.169  21.114  -9.646  1.00  0.00     0.169 A 
HETATM   39  C24 UNL     1      -5.128  20.276  -9.271  1.00  0.00     0.078 A 
HETATM   40  F1  UNL     1      -6.572  21.125 -10.936  1.00  0.00    -0.201 F 
BRANCH  36  41
HETATM   41  O1  UNL     1      -7.800  22.742  -9.095  1.00  0.00    -0.338 OA
HETATM   42  C1  UNL     1      -7.546  24.085  -9.458  1.00  0.00     0.211 C 
ENDBRANCH  36  41
ENDBRANCH  31  33
ENDBRANCH   1  31
TORSDOF 9
ENDMDL
MODEL 2
REMARK VINA RESULT: -8.827196623      2.918      8.224
REMARK  9 active torsions:
REMARK  status: ('A' for Active; 'I' for Inactive)
REMARK    1  A    between atoms: O1_2  and  C2_3 
REMARK    2  A    between atoms: C4_7  and  N2_8 
REMARK    3  A    between atoms: N2_8  and  C5_10 
REMARK    4  A    between atoms: C7_14  and  C8_15 
REMARK    5  A    between atoms: C8_15  and  C9_17 
REMARK    6  A    between atoms: C9_17  and  C10_18 
REMARK    7  A    between atoms: N4_24  and  C16_26 
REMARK    8  A    between atoms: N5_29  and  S1_30 
REMARK    9  A    between atoms: S1_30  and  C19_33 
ROOT
HETATM    1  C5  UNL     1       0.006  17.948  -3.191  1.00  0.00     0.684 A 
HETATM    2  N3  UNL     1       1.296  18.146  -2.882  1.00  0.00    -0.201 N 
ATOM      3  H3  UNL     1       1.735  17.531  -2.197  1.00  0.00     0.183 HD
HETATM    4  C6  UNL     1       2.034  19.121  -3.438  1.00  0.00     0.125 A 
HETATM    5  C7  UNL     1       1.425  19.972  -4.387  1.00  0.00     0.070 A 
HETATM    6  C15 UNL     1       0.117  19.783  -4.709  1.00  0.00     0.132 A 
HETATM    7  N4  UNL     1      -0.487  20.495  -5.531  1.00  0.00    -0.370 N 
ATOM      8  H4  UNL     1       0.108  21.225  -5.924  1.00  0.00     0.161 HD
HETATM    9  N6  UNL     1      -0.560  18.762  -4.092  1.00  0.00    -0.176 N 
ATOM     10  H6  UNL     1      -1.540  18.615  -4.331  1.00  0.00     0.186 HD
ENDROOT
BRANCH   5  11
HETATM   11  C8  UNL     1       2.203  21.030  -5.009  1.00  0.00     0.165 C 
HETATM   12  O2  UNL     1       1.639  22.185  -4.981  1.00  0.00    -0.292 OA
BRANCH  11  13
HETATM   13  C9  UNL     1       3.497  20.947  -5.637  1.00  0.00     0.093 C 
BRANCH  13  14
HETATM   14  C10 UNL     1       3.581  20.757  -7.107  1.00  0.00    -0.034 A 
HETATM   15  C11 UNL     1       2.588  19.685  -7.650  1.00  0.00     0.016 C 
HETATM   16  C12 UNL     1       4.063  21.706  -8.100  1.00  0.00     0.015 A 
HETATM   17  C13 UNL     1       5.002  20.613  -7.669  1.00  0.00    -0.009 A 
HETATM   18  C14 UNL     1       5.207  19.434  -8.630  1.00  0.00     0.011 C 
ENDBRANCH  13  14
ENDBRANCH  11  13
ENDBRANCH   5  11
BRANCH   7  19
HETATM   19  C16 UNL     1      -1.787  20.534  -6.042  1.00  0.00     0.092 C 
HETATM   20  C17 UNL     1      -2.252  21.865  -6.587  1.00  0.00     0.071 C 
HETATM   21  C18 UNL     1      -3.699  21.831  -6.950  1.00  0.00     0.083 C 
HETATM   22  N5  UNL     1      -4.274  20.590  -7.221  1.00  0.00    -0.269 N 
HETATM   23  C22 UNL     1      -3.511  19.436  -7.329  1.00  0.00     0.083 C 
HETATM   24  C23 UNL     1      -2.040  19.538  -7.167  1.00  0.00     0.071 C 
BRANCH  22  25
HETATM   25  S1  UNL     1      -5.508  20.636  -8.431  1.00  0.00     0.239 S 
HETATM   26  O3  UNL     1      -6.430  19.458  -8.254  1.00  0.00    -0.205 OA
HETATM   27  O4  UNL     1      -4.918  20.516  -9.811  1.00  0.00    -0.205 OA
BRANCH  25  28
HETATM   28  C19 UNL     1      -6.417  22.161  -8.390  1.00  0.00     0.130 A 
HETATM   29  C20 UNL     1      -6.213  23.183  -9.453  1.00  0.00     0.023 A 
HETATM   30  C21 UNL     1      -7.467  22.365  -9.415  1.00  0.00     0.023 A 
ENDBRANCH  25  28
ENDBRANCH  22  25
ENDBRANCH   7  19
BRANCH   1  31
HETATM   31  N2  UNL     1      -0.640  16.989  -2.611  1.00  0.00    -0.190 N 
ATOM     32  H2  UNL     1      -1.198  17.204  -1.785  1.00  0.00     0.184 HD
BRANCH  31  33
HETATM   33  C4  UNL     1      -0.605  15.650  -3.077  1.00  0.00     0.067 A 
HETATM   34  C3  UNL     1      -0.209  14.696  -2.143  1.00  0.00     0.120 A 
HETATM   35  N1  UNL     1      -0.160  13.393  -2.543  1.00  0.00    -0.342 N 
HETATM   36  C2  UNL     1      -0.482  13.051  -3.796  1.00  0.00     0.181 A 
ATOM     37  H1  UNL     1       0.126  12.672  -1.881  1.00  0.00     0.167 HD
HETATM   38  C25 UNL     1      -0.872  13.987  -4.723  1.00  0.00     0.169 A 
HETATM   39  C24 UNL     1      -0.938  15.326  -4.359  1.00  0.00     0.078 A 
HETATM   40  F1  UNL     1      -1.196  13.633  -5.985  1.00  0.00    -0.201 F 
BRANCH  36  41
HETATM   41  O1  UNL     1      -0.423  11.727  -4.174  1.00  0.00    -0.338 OA
HETATM   42  C1  UNL     1       0.713  11.223  -4.848  1.00  0.00     0.211 C 
ENDBRANCH  36  41
ENDBRANCH  31  33
ENDBRANCH   1  31
TORSDOF 9
ENDMDL
MODEL 3
REMARK VINA RESULT: -8.672180590      0.871      1.331
REMARK  9 active torsions:
REMARK  status: ('A' for Active; 'I' for Inactive)
REMARK    1  A    between atoms: O1_2  and  C2_3 
REMARK    2  A    between atoms: C4_7  and  N2_8 
REMARK    3  A    between atoms: N2_8  and  C5_10 
REMARK    4  A    between atoms: C7_14  and  C8_15 
REMARK    5  A    between atoms: C8_15  and  C9_17 
REMARK    6  A    between atoms: C9_17  and  C10_18 
REMARK    7  A    between atoms: N4_24  and  C16_26 
REMARK    8  A    between atoms: N5_29  and  S1_30 
REMARK    9  A    between atoms: S1_30  and  C19_33 
ROOT
HETATM    1  C5  UNL     1      -2.560  19.962  -6.882  1.00  0.00     0.684 A 
HETATM    2  N3  UNL     1      -2.198  21.237  -7.091  1.00  0.00    -0.201 N 
ATOM      3  H3  UNL     1      -2.735  21.795  -7.754  1.00  0.00     0.183 HD
HETATM    4  C6  UNL     1      -1.158  21.808  -6.463  1.00  0.00     0.125 A 
HETATM    5  C7  UNL     1      -0.415  21.033  -5.545  1.00  0.00     0.070 A 
HETATM    6  C15 UNL     1      -0.771  19.739  -5.324  1.00  0.00     0.132 A 
HETATM    7  N4  UNL     1      -0.161  18.996  -4.534  1.00  0.00    -0.370 N 
ATOM      8  H4  UNL     1       0.624  19.467  -4.083  1.00  0.00     0.161 HD
HETATM    9  N6  UNL     1      -1.848  19.239  -6.009  1.00  0.00    -0.176 N 
ATOM     10  H6  UNL     1      -2.120  18.269  -5.846  1.00  0.00     0.186 HD
ENDROOT
BRANCH   5  11
HETATM   11  C8  UNL     1       0.711  21.630  -4.846  1.00  0.00     0.165 C 
HETATM   12  O2  UNL     1       0.429  22.069  -3.671  1.00  0.00    -0.292 OA
BRANCH  11  13
HETATM   13  C9  UNL     1       2.071  21.786  -5.296  1.00  0.00     0.093 C 
BRANCH  13  14
HETATM   14  C10 UNL     1       2.411  22.909  -6.205  1.00  0.00    -0.034 A 
HETATM   15  C11 UNL     1       3.241  22.469  -7.449  1.00  0.00     0.016 C 
HETATM   16  C12 UNL     1       1.711  24.177  -6.351  1.00  0.00     0.015 A 
HETATM   17  C13 UNL     1       2.962  24.166  -5.517  1.00  0.00    -0.009 A 
HETATM   18  C14 UNL     1       4.238  24.746  -6.142  1.00  0.00     0.011 C 
ENDBRANCH  13  14
ENDBRANCH  11  13
ENDBRANCH   5  11
BRANCH   7  19
HETATM   19  C16 UNL     1      -0.295  17.668  -4.120  1.00  0.00     0.092 C 
HETATM   20  C17 UNL     1      -0.361  16.629  -5.215  1.00  0.00     0.071 C 
HETATM   21  C18 UNL     1      -0.669  15.276  -4.667  1.00  0.00     0.083 C 
HETATM   22  N5  UNL     1      -0.374  15.033  -3.327  1.00  0.00    -0.269 N 
HETATM   23  C22 UNL     1       0.341  15.940  -2.556  1.00  0.00     0.083 C 
HETATM   24  C23 UNL     1       0.817  17.193  -3.192  1.00  0.00     0.071 C 
BRANCH  22  25
HETATM   25  S1  UNL     1       0.121  13.410  -2.998  1.00  0.00     0.239 S 
HETATM   26  O3  UNL     1      -0.427  12.976  -1.663  1.00  0.00    -0.205 OA
HETATM   27  O4  UNL     1       1.621  13.312  -2.898  1.00  0.00    -0.205 OA
BRANCH  25  28
HETATM   28  C19 UNL     1      -0.384  12.292  -4.282  1.00  0.00     0.130 A 
HETATM   29  C20 UNL     1       0.444  12.138  -5.509  1.00  0.00     0.023 A 
HETATM   30  C21 UNL     1       0.412  11.057  -4.473  1.00  0.00     0.023 A 
ENDBRANCH  25  28
ENDBRANCH  22  25
ENDBRANCH   7  19
BRANCH   1  31
HETATM   31  N2  UNL     1      -3.574  19.482  -7.527  1.00  0.00    -0.190 N 
ATOM     32  H2  UNL     1      -3.595  18.483  -7.731  1.00  0.00     0.184 HD
BRANCH  31  33
HETATM   33  C4  UNL     1      -4.657  20.287  -7.963  1.00  0.00     0.067 A 
HETATM   34  C3  UNL     1      -5.276  21.051  -6.976  1.00  0.00     0.120 A 
HETATM   35  N1  UNL     1      -6.323  21.843  -7.346  1.00  0.00    -0.342 N 
HETATM   36  C2  UNL     1      -6.736  21.879  -8.618  1.00  0.00     0.181 A 
ATOM     37  H1  UNL     1      -6.796  22.413  -6.646  1.00  0.00     0.167 HD
HETATM   38  C25 UNL     1      -6.130  21.128  -9.596  1.00  0.00     0.169 A 
HETATM   39  C24 UNL     1      -5.060  20.307  -9.265  1.00  0.00     0.078 A 
HETATM   40  F1  UNL     1      -6.553  21.171 -10.878  1.00  0.00    -0.201 F 
BRANCH  36  41
HETATM   41  O1  UNL     1      -7.797  22.689  -8.964  1.00  0.00    -0.338 OA
HETATM   42  C1  UNL     1      -7.577  24.022  -9.380  1.00  0.00     0.211 C 
ENDBRANCH  36  41
ENDBRANCH  31  33
ENDBRANCH   1  31
TORSDOF 9
ENDMDL
MODEL 4
REMARK VINA RESULT: -8.644224979      1.469      2.467
REMARK  9 active torsions:
REMARK  status: ('A' for Active; 'I' for Inactive)
REMARK    1  A    between atoms: O1_2  and  C2_3 
REMARK    2  A    between atoms: C4_7  and  N2_8 
REMARK    3  A    between atoms: N2_8  and  C5_10 
REMARK    4  A    between atoms: C7_14  and  C8_15 
REMARK    5  A    between atoms: C8_15  and  C9_17 
REMARK    6  A    between atoms: C9_17  and  C10_18 
REMARK    7  A    between atoms: N4_24  and  C16_26 
REMARK    8  A    between atoms: N5_29  and  S1_30 
REMARK    9  A    between atoms: S1_30  and  C19_33 
ROOT
HETATM    1  C5  UNL     1      -2.569  19.961  -6.862  1.00  0.00     0.684 A 
HETATM    2  N3  UNL     1      -2.202  21.235  -7.066  1.00  0.00    -0.201 N 
ATOM      3  H3  UNL     1      -2.739  21.800  -7.723  1.00  0.00     0.183 HD
HETATM    4  C6  UNL     1      -1.155  21.797  -6.439  1.00  0.00     0.125 A 
HETATM    5  C7  UNL     1      -0.412  21.013  -5.529  1.00  0.00     0.070 A 
HETATM    6  C15 UNL     1      -0.773  19.720  -5.313  1.00  0.00     0.132 A 
HETATM    7  N4  UNL     1      -0.164  18.969  -4.532  1.00  0.00    -0.370 N 
ATOM      8  H4  UNL     1       0.625  19.433  -4.082  1.00  0.00     0.161 HD
HETATM    9  N6  UNL     1      -1.857  19.229  -5.997  1.00  0.00    -0.176 N 
ATOM     10  H6  UNL     1      -2.133  18.260  -5.837  1.00  0.00     0.186 HD
ENDROOT
BRANCH   5  11
HETATM   11  C8  UNL     1       0.721  21.599  -4.832  1.00  0.00     0.165 C 
HETATM   12  O2  UNL     1       1.865  21.273  -5.320  1.00  0.00    -0.292 OA
BRANCH  11  13
HETATM   13  C9  UNL     1       0.721  22.479  -3.691  1.00  0.00     0.093 C 
BRANCH  13  14
HETATM   14  C10 UNL     1       0.598  21.903  -2.329  1.00  0.00    -0.034 A 
HETATM   15  C11 UNL     1       1.627  20.768  -2.041  1.00  0.00     0.016 C 
HETATM   16  C12 UNL     1       0.032  22.534  -1.145  1.00  0.00     0.015 A 
HETATM   17  C13 UNL     1      -0.833  21.556  -1.892  1.00  0.00    -0.009 A 
HETATM   18  C14 UNL     1      -1.008  20.157  -1.286  1.00  0.00     0.011 C 
ENDBRANCH  13  14
ENDBRANCH  11  13
ENDBRANCH   5  11
BRANCH   7  19
HETATM   19  C16 UNL     1      -0.303  17.639  -4.124  1.00  0.00     0.092 C 
HETATM   20  C17 UNL     1      -0.298  16.600  -5.221  1.00  0.00     0.071 C 
HETATM   21  C18 UNL     1      -0.618  15.243  -4.689  1.00  0.00     0.083 C 
HETATM   22  N5  UNL     1      -0.391  15.003  -3.334  1.00  0.00    -0.269 N 
HETATM   23  C22 UNL     1       0.270  15.919  -2.528  1.00  0.00     0.083 C 
HETATM   24  C23 UNL     1       0.764  17.178  -3.138  1.00  0.00     0.071 C 
BRANCH  22  25
HETATM   25  S1  UNL     1       0.106  13.386  -2.979  1.00  0.00     0.239 S 
HETATM   26  O3  UNL     1      -0.458  12.967  -1.647  1.00  0.00    -0.205 OA
HETATM   27  O4  UNL     1       1.605  13.296  -2.857  1.00  0.00    -0.205 OA
BRANCH  25  28
HETATM   28  C19 UNL     1      -0.377  12.251  -4.256  1.00  0.00     0.130 A 
HETATM   29  C20 UNL     1       0.459  12.099  -5.478  1.00  0.00     0.023 A 
HETATM   30  C21 UNL     1       0.439  11.026  -4.433  1.00  0.00     0.023 A 
ENDBRANCH  25  28
ENDBRANCH  22  25
ENDBRANCH   7  19
BRANCH   1  31
HETATM   31  N2  UNL     1      -3.589  19.490  -7.505  1.00  0.00    -0.190 N 
ATOM     32  H2  UNL     1      -3.621  18.491  -7.706  1.00  0.00     0.184 HD
BRANCH  31  33
HETATM   33  C4  UNL     1      -4.663  20.306  -7.941  1.00  0.00     0.067 A 
HETATM   34  C3  UNL     1      -5.267  21.086  -6.958  1.00  0.00     0.120 A 
HETATM   35  N1  UNL     1      -6.306  21.888  -7.329  1.00  0.00    -0.342 N 
HETATM   36  C2  UNL     1      -6.725  21.919  -8.599  1.00  0.00     0.181 A 
ATOM     37  H1  UNL     1      -6.767  22.471  -6.631  1.00  0.00     0.167 HD
HETATM   38  C25 UNL     1      -6.135  21.152  -9.574  1.00  0.00     0.169 A 
HETATM   39  C24 UNL     1      -5.074  20.320  -9.242  1.00  0.00     0.078 A 
HETATM   40  F1  UNL     1      -6.565  21.189 -10.853  1.00  0.00    -0.201 F 
BRANCH  36  41
HETATM   41  O1  UNL     1      -7.778  22.739  -8.946  1.00  0.00    -0.338 OA
HETATM   42  C1  UNL     1      -7.541  24.056  -9.403  1.00  0.00     0.211 C 
ENDBRANCH  36  41
ENDBRANCH  31  33
ENDBRANCH   1  31
TORSDOF 9
ENDMDL
MODEL 5
REMARK VINA RESULT: -8.635344213      3.357      8.411
REMARK  9 active torsions:
REMARK  status: ('A' for Active; 'I' for Inactive)
REMARK    1  A    between atoms: O1_2  and  C2_3 
REMARK    2  A    between atoms: C4_7  and  N2_8 
REMARK    3  A    between atoms: N2_8  and  C5_10 
REMARK    4  A    between atoms: C7_14  and  C8_15 
REMARK    5  A    between atoms: C8_15  and  C9_17 
REMARK    6  A    between atoms: C9_17  and  C10_18 
REMARK    7  A    between atoms: N4_24  and  C16_26 
REMARK    8  A    between atoms: N5_29  and  S1_30 
REMARK    9  A    between atoms: S1_30  and  C19_33 
ROOT
HETATM    1  C5  UNL     1      -0.067  17.879  -3.187  1.00  0.00     0.684 A 
HETATM    2  N3  UNL     1       1.224  18.058  -2.870  1.00  0.00    -0.201 N 
ATOM      3  H3  UNL     1       1.650  17.434  -2.185  1.00  0.00     0.183 HD
HETATM    4  C6  UNL     1       1.978  19.024  -3.418  1.00  0.00     0.125 A 
HETATM    5  C7  UNL     1       1.387  19.886  -4.368  1.00  0.00     0.070 A 
HETATM    6  C15 UNL     1       0.078  19.716  -4.698  1.00  0.00     0.132 A 
HETATM    7  N4  UNL     1      -0.510  20.440  -5.521  1.00  0.00    -0.370 N 
ATOM      8  H4  UNL     1       0.097  21.162  -5.909  1.00  0.00     0.161 HD
HETATM    9  N6  UNL     1      -0.616  18.703  -4.088  1.00  0.00    -0.176 N 
ATOM     10  H6  UNL     1      -1.597  18.571  -4.334  1.00  0.00     0.186 HD
ENDROOT
BRANCH   5  11
HETATM   11  C8  UNL     1       2.184  20.935  -4.982  1.00  0.00     0.165 C 
HETATM   12  O2  UNL     1       1.649  22.103  -4.927  1.00  0.00    -0.292 OA
BRANCH  11  13
HETATM   13  C9  UNL     1       3.467  20.831  -5.630  1.00  0.00     0.093 C 
BRANCH  13  14
HETATM   14  C10 UNL     1       3.527  20.700  -7.107  1.00  0.00    -0.034 A 
HETATM   15  C11 UNL     1       2.576  19.602  -7.670  1.00  0.00     0.016 C 
HETATM   16  C12 UNL     1       3.941  21.708  -8.072  1.00  0.00     0.015 A 
HETATM   17  C13 UNL     1       4.941  20.647  -7.703  1.00  0.00    -0.009 A 
HETATM   18  C14 UNL     1       5.182  19.517  -8.712  1.00  0.00     0.011 C 
ENDBRANCH  13  14
ENDBRANCH  11  13
ENDBRANCH   5  11
BRANCH   7  19
HETATM   19  C16 UNL     1      -1.807  20.498  -6.039  1.00  0.00     0.092 C 
HETATM   20  C17 UNL     1      -2.247  21.835  -6.591  1.00  0.00     0.071 C 
HETATM   21  C18 UNL     1      -3.692  21.823  -6.962  1.00  0.00     0.083 C 
HETATM   22  N5  UNL     1      -4.286  20.592  -7.233  1.00  0.00    -0.269 N 
HETATM   23  C22 UNL     1      -3.542  19.425  -7.333  1.00  0.00     0.083 C 
HETATM   24  C23 UNL     1      -2.070  19.503  -7.163  1.00  0.00     0.071 C 
BRANCH  22  25
HETATM   25  S1  UNL     1      -5.513  20.654  -8.449  1.00  0.00     0.239 S 
HETATM   26  O3  UNL     1      -6.441  19.479  -8.289  1.00  0.00    -0.205 OA
HETATM   27  O4  UNL     1      -4.915  20.544  -9.827  1.00  0.00    -0.205 OA
BRANCH  25  28
HETATM   28  C19 UNL     1      -6.415  22.183  -8.400  1.00  0.00     0.130 A 
HETATM   29  C20 UNL     1      -6.221  23.202  -9.468  1.00  0.00     0.023 A 
HETATM   30  C21 UNL     1      -7.478  22.389  -9.412  1.00  0.00     0.023 A 
ENDBRANCH  25  28
ENDBRANCH  22  25
ENDBRANCH   7  19
BRANCH   1  31
HETATM   31  N2  UNL     1      -0.730  16.927  -2.614  1.00  0.00    -0.190 N 
ATOM     32  H2  UNL     1      -1.353  17.161  -1.841  1.00  0.00     0.184 HD
BRANCH  31  33
HETATM   33  C4  UNL     1      -0.626  15.571  -3.016  1.00  0.00     0.067 A 
HETATM   34  C3  UNL     1      -1.093  15.283  -4.296  1.00  0.00     0.120 A 
HETATM   35  N1  UNL     1      -1.014  13.992  -4.729  1.00  0.00    -0.342 N 
HETATM   36  C2  UNL     1      -0.503  13.038  -3.943  1.00  0.00     0.181 A 
ATOM     37  H1  UNL     1      -1.348  13.751  -5.661  1.00  0.00     0.167 HD
HETATM   38  C25 UNL     1      -0.040  13.315  -2.678  1.00  0.00     0.169 A 
HETATM   39  C24 UNL     1      -0.101  14.616  -2.196  1.00  0.00     0.078 A 
HETATM   40  F1  UNL     1       0.475  12.346  -1.891  1.00  0.00    -0.201 F 
BRANCH  36  41
HETATM   41  O1  UNL     1      -0.435  11.741  -4.405  1.00  0.00    -0.338 OA
HETATM   42  C1  UNL     1       0.758  11.247  -4.981  1.00  0.00     0.211 C 
ENDBRANCH  36  41
ENDBRANCH  31  33
ENDBRANCH   1  31
TORSDOF 9
ENDMDL
