MODEL 1
REMARK VINA RESULT: -5.990822514      0.000      0.000
REMARK  3 active torsions:
REMARK  status: ('A' for Active; 'I' for Inactive)
REMARK    1  A    between atoms: N1_1  and  C1_4 
REMARK    2  A    between atoms: C4_12  and  O1_13 
REMARK    3  A    between atoms: O1_13  and  C5_14 
ROOT
HETATM    1  C1  UNL     1     -18.492  -3.212 -38.887  1.00  0.00     0.701 A 
HETATM    2  N2  UNL     1     -19.011  -2.055 -38.491  1.00  0.00    -0.165 N 
ATOM      3  H2  UNL     1     -20.025  -1.956 -38.499  1.00  0.00     0.186 HD
HETATM    4  C2  UNL     1     -18.279  -1.013 -38.082  1.00  0.00     0.192 A 
HETATM    5  S1  UNL     1     -18.900   0.407 -37.595  1.00  0.00    -0.040 SA
HETATM    6  N3  UNL     1     -16.939  -1.173 -38.081  1.00  0.00    -0.314 N 
ATOM      7  H3  UNL     1     -16.340  -0.406 -37.776  1.00  0.00     0.170 HD
HETATM    8  C3  UNL     1     -16.382  -2.338 -38.478  1.00  0.00     0.182 A 
HETATM    9  C4  UNL     1     -15.051  -2.725 -38.559  1.00  0.00     0.132 A 
HETATM   10  C10 UNL     1     -15.076  -4.020 -39.028  1.00  0.00     0.149 A 
HETATM   11  N4  UNL     1     -16.357  -4.388 -39.218  1.00  0.00    -0.286 N 
ATOM     12  H4  UNL     1     -16.670  -5.296 -39.560  1.00  0.00     0.187 HD
HETATM   13  N5  UNL     1     -17.152  -3.361 -38.881  1.00  0.00    -0.067 N 
ENDROOT
BRANCH   9  14
HETATM   14  O1  UNL     1     -13.975  -1.919 -38.219  1.00  0.00    -0.341 OA
BRANCH  14  15
HETATM   15  C5  UNL     1     -12.679  -2.373 -38.417  1.00  0.00     0.129 C 
HETATM   16  C6  UNL     1     -11.778  -1.313 -39.064  1.00  0.00     0.032 C 
HETATM   17  C7  UNL     1     -10.435  -1.977 -38.903  1.00  0.00     0.002 C 
HETATM   18  C8  UNL     1     -10.464  -2.384 -37.446  1.00  0.00     0.002 C 
HETATM   19  C9  UNL     1     -11.926  -2.616 -37.119  1.00  0.00     0.032 C 
ENDBRANCH  14  15
ENDBRANCH   9  14
BRANCH   1  20
HETATM   20  N1  UNL     1     -19.238  -4.188 -39.274  1.00  0.00    -0.233 N 
ATOM     21  H12 UNL     1     -20.036  -4.001 -39.880  1.00  0.00     0.174 HD
ATOM     22  H11 UNL     1     -19.050  -5.149 -38.987  1.00  0.00     0.174 HD
ENDBRANCH   1  20
TORSDOF 3
ENDMDL
MODEL 2
REMARK VINA RESULT: -5.974539407      3.845      6.484
REMARK  3 active torsions:
REMARK  status: ('A' for Active; 'I' for Inactive)
REMARK    1  A    between atoms: N1_1  and  C1_4 
REMARK    2  A    between atoms: C4_12  and  O1_13 
REMARK    3  A    between atoms: O1_13  and  C5_14 
ROOT
HETATM    1  C1  UNL     1     -11.790  -2.887 -37.287  1.00  0.00     0.701 A 
HETATM    2  N2  UNL     1     -11.003  -2.894 -38.357  1.00  0.00    -0.165 N 
ATOM      3  H2  UNL     1     -10.013  -2.688 -38.226  1.00  0.00     0.186 HD
HETATM    4  C2  UNL     1     -11.434  -3.156 -39.595  1.00  0.00     0.192 A 
HETATM    5  S1  UNL     1     -10.483  -3.168 -40.913  1.00  0.00    -0.040 SA
HETATM    6  N3  UNL     1     -12.749  -3.426 -39.738  1.00  0.00    -0.314 N 
ATOM      7  H3  UNL     1     -13.123  -3.632 -40.663  1.00  0.00     0.170 HD
HETATM    8  C3  UNL     1     -13.574  -3.426 -38.668  1.00  0.00     0.182 A 
HETATM    9  C4  UNL     1     -14.937  -3.672 -38.575  1.00  0.00     0.132 A 
HETATM   10  C10 UNL     1     -15.242  -3.535 -37.239  1.00  0.00     0.149 A 
HETATM   11  N4  UNL     1     -14.118  -3.224 -36.567  1.00  0.00    -0.286 N 
ATOM     12  H4  UNL     1     -14.051  -3.065 -35.562  1.00  0.00     0.187 HD
HETATM   13  N5  UNL     1     -13.101  -3.159 -37.440  1.00  0.00    -0.067 N 
ENDROOT
BRANCH   9  14
HETATM   14  O1  UNL     1     -15.756  -3.984 -39.650  1.00  0.00    -0.341 OA
BRANCH  14  15
HETATM   15  C5  UNL     1     -16.905  -4.735 -39.452  1.00  0.00     0.129 C 
HETATM   16  C6  UNL     1     -18.153  -3.862 -39.264  1.00  0.00     0.032 C 
HETATM   17  C7  UNL     1     -19.225  -4.918 -39.344  1.00  0.00     0.002 C 
HETATM   18  C8  UNL     1     -18.821  -5.676 -40.589  1.00  0.00     0.002 C 
HETATM   19  C9  UNL     1     -17.314  -5.536 -40.678  1.00  0.00     0.032 C 
ENDBRANCH  14  15
ENDBRANCH   9  14
BRANCH   1  20
HETATM   20  N1  UNL     1     -11.328  -2.628 -36.112  1.00  0.00    -0.233 N 
ATOM     21  H12 UNL     1     -11.944  -2.696 -35.303  1.00  0.00     0.174 HD
ATOM     22  H11 UNL     1     -10.355  -2.354 -35.970  1.00  0.00     0.174 HD
ENDBRANCH   1  20
TORSDOF 3
ENDMDL
MODEL 3
REMARK VINA RESULT: -5.955754530      3.450      6.088
REMARK  3 active torsions:
REMARK  status: ('A' for Active; 'I' for Inactive)
REMARK    1  A    between atoms: N1_1  and  C1_4 
REMARK    2  A    between atoms: C4_12  and  O1_13 
REMARK    3  A    between atoms: O1_13  and  C5_14 
ROOT
HETATM    1  C1  UNL     1     -11.782  -2.487 -39.935  1.00  0.00     0.701 A 
HETATM    2  N2  UNL     1     -11.068  -2.350 -38.823  1.00  0.00    -0.165 N 
ATOM      3  H2  UNL     1     -10.052  -2.325 -38.906  1.00  0.00     0.186 HD
HETATM    4  C2  UNL     1     -11.605  -2.242 -37.603  1.00  0.00     0.192 A 
HETATM    5  S1  UNL     1     -10.744  -2.074 -36.236  1.00  0.00    -0.040 SA
HETATM    6  N3  UNL     1     -12.951  -2.277 -37.525  1.00  0.00    -0.314 N 
ATOM      7  H3  UNL     1     -13.406  -2.198 -36.616  1.00  0.00     0.170 HD
HETATM    8  C3  UNL     1     -13.704  -2.415 -38.638  1.00  0.00     0.182 A 
HETATM    9  C4  UNL     1     -15.082  -2.475 -38.799  1.00  0.00     0.132 A 
HETATM   10  C10 UNL     1     -15.285  -2.620 -40.153  1.00  0.00     0.149 A 
HETATM   11  N4  UNL     1     -14.090  -2.645 -40.771  1.00  0.00    -0.286 N 
ATOM     12  H4  UNL     1     -13.941  -2.744 -41.775  1.00  0.00     0.187 HD
HETATM   13  N5  UNL     1     -13.126  -2.520 -39.846  1.00  0.00    -0.067 N 
ENDROOT
BRANCH   9  14
HETATM   14  O1  UNL     1     -16.000  -2.397 -37.762  1.00  0.00    -0.341 OA
BRANCH  14  15
HETATM   15  C5  UNL     1     -17.245  -1.826 -37.978  1.00  0.00     0.129 C 
HETATM   16  C6  UNL     1     -18.350  -2.876 -38.154  1.00  0.00     0.032 C 
HETATM   17  C7  UNL     1     -19.566  -1.987 -38.098  1.00  0.00     0.002 C 
HETATM   18  C8  UNL     1     -19.285  -1.155 -36.866  1.00  0.00     0.002 C 
HETATM   19  C9  UNL     1     -17.774  -1.071 -36.770  1.00  0.00     0.032 C 
ENDBRANCH  14  15
ENDBRANCH   9  14
BRANCH   1  20
HETATM   20  N1  UNL     1     -11.219  -2.588 -41.089  1.00  0.00    -0.233 N 
ATOM     21  H12 UNL     1     -11.774  -2.450 -41.933  1.00  0.00     0.174 HD
ATOM     22  H11 UNL     1     -10.226  -2.803 -41.181  1.00  0.00     0.174 HD
ENDBRANCH   1  20
TORSDOF 3
ENDMDL
MODEL 4
REMARK VINA RESULT: -5.906462509      2.243      3.063
REMARK  3 active torsions:
REMARK  status: ('A' for Active; 'I' for Inactive)
REMARK    1  A    between atoms: N1_1  and  C1_4 
REMARK    2  A    between atoms: C4_12  and  O1_13 
REMARK    3  A    between atoms: O1_13  and  C5_14 
ROOT
HETATM    1  C1  UNL     1     -18.891  -3.597 -38.946  1.00  0.00     0.701 A 
HETATM    2  N2  UNL     1     -18.952  -4.875 -39.304  1.00  0.00    -0.165 N 
ATOM      3  H2  UNL     1     -19.862  -5.261 -39.551  1.00  0.00     0.186 HD
HETATM    4  C2  UNL     1     -17.888  -5.682 -39.359  1.00  0.00     0.192 A 
HETATM    5  S1  UNL     1     -17.947  -7.247 -39.795  1.00  0.00    -0.040 SA
HETATM    6  N3  UNL     1     -16.696  -5.143 -39.028  1.00  0.00    -0.314 N 
ATOM      7  H3  UNL     1     -15.856  -5.721 -39.056  1.00  0.00     0.170 HD
HETATM    8  C3  UNL     1     -16.602  -3.847 -38.660  1.00  0.00     0.182 A 
HETATM    9  C4  UNL     1     -15.502  -3.088 -38.284  1.00  0.00     0.132 A 
HETATM   10  C10 UNL     1     -16.000  -1.831 -38.019  1.00  0.00     0.149 A 
HETATM   11  N4  UNL     1     -17.329  -1.838 -38.226  1.00  0.00    -0.286 N 
ATOM     12  H4  UNL     1     -17.954  -1.041 -38.106  1.00  0.00     0.187 HD
HETATM   13  N5  UNL     1     -17.696  -3.068 -38.618  1.00  0.00    -0.067 N 
ENDROOT
BRANCH   9  14
HETATM   14  O1  UNL     1     -14.203  -3.566 -38.214  1.00  0.00    -0.341 OA
BRANCH  14  15
HETATM   15  C5  UNL     1     -13.202  -2.780 -37.662  1.00  0.00     0.129 C 
HETATM   16  C6  UNL     1     -12.395  -3.524 -36.590  1.00  0.00     0.032 C 
HETATM   17  C7  UNL     1     -11.265  -2.546 -36.388  1.00  0.00     0.002 C 
HETATM   18  C8  UNL     1     -10.845  -2.261 -37.813  1.00  0.00     0.002 C 
HETATM   19  C9  UNL     1     -12.097  -2.439 -38.649  1.00  0.00     0.032 C 
ENDBRANCH  14  15
ENDBRANCH   9  14
BRANCH   1  20
HETATM   20  N1  UNL     1     -19.945  -2.857 -38.907  1.00  0.00    -0.233 N 
ATOM     21  H12 UNL     1     -19.877  -1.870 -39.153  1.00  0.00     0.174 HD
ATOM     22  H11 UNL     1     -20.853  -3.236 -38.635  1.00  0.00     0.174 HD
ENDBRANCH   1  20
TORSDOF 3
ENDMDL
MODEL 5
REMARK VINA RESULT: -5.888751319      2.345      3.104
REMARK  3 active torsions:
REMARK  status: ('A' for Active; 'I' for Inactive)
REMARK    1  A    between atoms: N1_1  and  C1_4 
REMARK    2  A    between atoms: C4_12  and  O1_13 
REMARK    3  A    between atoms: O1_13  and  C5_14 
ROOT
HETATM    1  C1  UNL     1     -18.201  -3.432 -38.416  1.00  0.00     0.701 A 
HETATM    2  N2  UNL     1     -18.543  -4.633 -38.868  1.00  0.00    -0.165 N 
ATOM      3  H2  UNL     1     -19.531  -4.887 -38.857  1.00  0.00     0.186 HD
HETATM    4  C2  UNL     1     -17.667  -5.527 -39.338  1.00  0.00     0.192 A 
HETATM    5  S1  UNL     1     -18.071  -7.000 -39.894  1.00  0.00    -0.040 SA
HETATM    6  N3  UNL     1     -16.368  -5.163 -39.342  1.00  0.00    -0.314 N 
ATOM      7  H3  UNL     1     -15.664  -5.812 -39.691  1.00  0.00     0.170 HD
HETATM    8  C3  UNL     1     -15.990  -3.948 -38.888  1.00  0.00     0.182 A 
HETATM    9  C4  UNL     1     -14.733  -3.365 -38.798  1.00  0.00     0.132 A 
HETATM   10  C10 UNL     1     -14.949  -2.115 -38.260  1.00  0.00     0.149 A 
HETATM   11  N4  UNL     1     -16.267  -1.959 -38.041  1.00  0.00    -0.286 N 
ATOM     12  H4  UNL     1     -16.710  -1.129 -37.648  1.00  0.00     0.187 HD
HETATM   13  N5  UNL     1     -16.901  -3.078 -38.425  1.00  0.00    -0.067 N 
ENDROOT
BRANCH   9  14
HETATM   14  O1  UNL     1     -13.552  -3.977 -39.188  1.00  0.00    -0.341 OA
BRANCH  14  15
HETATM   15  C5  UNL     1     -12.342  -3.318 -39.026  1.00  0.00     0.129 C 
HETATM   16  C6  UNL     1     -11.204  -4.268 -38.628  1.00  0.00     0.032 C 
HETATM   17  C7  UNL     1     -10.024  -3.344 -38.789  1.00  0.00     0.002 C 
HETATM   18  C8  UNL     1     -10.281  -2.750 -40.157  1.00  0.00     0.002 C 
HETATM   19  C9  UNL     1     -11.787  -2.756 -40.325  1.00  0.00     0.032 C 
ENDBRANCH  14  15
ENDBRANCH   9  14
BRANCH   1  20
HETATM   20  N1  UNL     1     -19.083  -2.603 -37.971  1.00  0.00    -0.233 N 
ATOM     21  H12 UNL     1     -19.533  -2.782 -37.074  1.00  0.00     0.174 HD
ATOM     22  H11 UNL     1     -19.343  -1.768 -38.497  1.00  0.00     0.174 HD
ENDBRANCH   1  20
TORSDOF 3
ENDMDL
