MODEL 1
REMARK VINA RESULT: -7.517826592      0.000      0.000
REMARK  5 active torsions:
REMARK  status: ('A' for Active; 'I' for Inactive)
REMARK    1  A    between atoms: N1_1  and  C1_5 
REMARK    2  A    between atoms: C3_7  and  C4_8 
REMARK    3  A    between atoms: N2_12  and  C5_13 
REMARK    4  A    between atoms: C5_13  and  C6_14 
REMARK    5  A    between atoms: C6_14  and  C7_15 
ROOT
HETATM    1  C1  UNL     1     -11.231  -3.352 -40.441  1.00  0.00     0.214 C 
HETATM    2  C2  UNL     1     -10.534  -2.571 -39.376  1.00  0.00     0.079 C 
HETATM    3  C3  UNL     1     -11.560  -2.495 -38.242  1.00  0.00     0.331 C 
HETATM    4  N2  UNL     1     -12.180  -3.791 -38.289  1.00  0.00     0.104 N 
HETATM    5  C13 UNL     1     -12.144  -4.253 -39.658  1.00  0.00     0.305 C 
ENDROOT
BRANCH   4   6
HETATM    6  C5  UNL     1     -13.541  -3.777 -37.790  1.00  0.00     0.273 C 
BRANCH   6   7
HETATM    7  C6  UNL     1     -14.223  -2.566 -38.390  1.00  0.00     0.034 C 
BRANCH   7   8
HETATM    8  C7  UNL     1     -15.502  -2.938 -39.140  1.00  0.00    -0.013 C 
HETATM    9  C8  UNL     1     -16.641  -2.072 -38.790  1.00  0.00     0.005 C 
HETATM   10  C9  UNL     1     -17.922  -2.665 -38.409  1.00  0.00     0.000 C 
HETATM   11  C10 UNL     1     -18.009  -4.134 -38.275  1.00  0.00     0.000 C 
HETATM   12  C11 UNL     1     -17.098  -4.857 -39.223  1.00  0.00     0.000 C 
HETATM   13  C12 UNL     1     -15.702  -4.407 -38.882  1.00  0.00     0.005 C 
ENDBRANCH   7   8
ENDBRANCH   6   7
ENDBRANCH   4   6
BRANCH   3  14
HETATM   14  C4  UNL     1     -10.746  -2.308 -36.970  1.00  0.00     0.418 C 
HETATM   15  F1  UNL     1     -11.321  -2.925 -35.901  1.00  0.00    -0.169 F 
HETATM   16  F2  UNL     1      -9.494  -2.892 -37.151  1.00  0.00    -0.169 F 
HETATM   17  F3  UNL     1     -10.534  -0.963 -36.770  1.00  0.00    -0.169 F 
ENDBRANCH   3  14
BRANCH   1  18
HETATM   18  N1  UNL     1     -10.355  -4.142 -41.277  1.00  0.00    -0.073 N 
ATOM     19  H13 UNL     1      -9.492  -3.633 -41.467  1.00  0.00     0.274 HD
ATOM     20  H12 UNL     1      -9.982  -4.933 -40.752  1.00  0.00     0.274 HD
ATOM     21  H11 UNL     1     -10.777  -4.463 -42.148  1.00  0.00     0.274 HD
ENDBRANCH   1  18
TORSDOF 5
ENDMDL
MODEL 2
REMARK VINA RESULT: -7.508452653      1.352      2.078
REMARK  5 active torsions:
REMARK  status: ('A' for Active; 'I' for Inactive)
REMARK    1  A    between atoms: N1_1  and  C1_5 
REMARK    2  A    between atoms: C3_7  and  C4_8 
REMARK    3  A    between atoms: N2_12  and  C5_13 
REMARK    4  A    between atoms: C5_13  and  C6_14 
REMARK    5  A    between atoms: C6_14  and  C7_15 
ROOT
HETATM    1  C1  UNL     1     -10.858  -3.203 -40.343  1.00  0.00     0.214 C 
HETATM    2  C2  UNL     1     -10.764  -3.704 -38.940  1.00  0.00     0.079 C 
HETATM    3  C3  UNL     1     -11.979  -3.085 -38.244  1.00  0.00     0.331 C 
HETATM    4  N2  UNL     1     -12.991  -3.146 -39.262  1.00  0.00     0.104 N 
HETATM    5  C13 UNL     1     -12.338  -3.043 -40.547  1.00  0.00     0.305 C 
ENDROOT
BRANCH   4   6
HETATM    6  C5  UNL     1     -13.995  -2.110 -39.115  1.00  0.00     0.273 C 
BRANCH   6   7
HETATM    7  C6  UNL     1     -15.295  -2.671 -39.651  1.00  0.00     0.034 C 
BRANCH   7   8
HETATM    8  C7  UNL     1     -16.265  -3.048 -38.531  1.00  0.00    -0.013 C 
HETATM    9  C8  UNL     1     -16.691  -4.455 -38.595  1.00  0.00     0.005 C 
HETATM   10  C9  UNL     1     -18.112  -4.795 -38.534  1.00  0.00     0.000 C 
HETATM   11  C10 UNL     1     -19.101  -3.697 -38.524  1.00  0.00     0.000 C 
HETATM   12  C11 UNL     1     -18.591  -2.465 -37.834  1.00  0.00     0.000 C 
HETATM   13  C12 UNL     1     -17.373  -2.031 -38.606  1.00  0.00     0.005 C 
ENDBRANCH   7   8
ENDBRANCH   6   7
ENDBRANCH   4   6
BRANCH   3  14
HETATM   14  C4  UNL     1     -12.297  -4.013 -37.080  1.00  0.00     0.418 C 
HETATM   15  F1  UNL     1     -13.635  -4.224 -36.946  1.00  0.00    -0.169 F 
HETATM   16  F2  UNL     1     -11.712  -5.253 -37.326  1.00  0.00    -0.169 F 
HETATM   17  F3  UNL     1     -11.709  -3.514 -35.940  1.00  0.00    -0.169 F 
ENDBRANCH   3  14
BRANCH   1  18
HETATM   18  N1  UNL     1     -10.317  -4.101 -41.340  1.00  0.00    -0.073 N 
ATOM     19  H13 UNL     1      -9.591  -4.688 -40.930  1.00  0.00     0.274 HD
ATOM     20  H12 UNL     1     -11.003  -4.814 -41.585  1.00  0.00     0.274 HD
ATOM     21  H11 UNL     1      -9.968  -3.640 -42.180  1.00  0.00     0.274 HD
ENDBRANCH   1  18
TORSDOF 5
ENDMDL
MODEL 3
REMARK VINA RESULT: -7.492829359      0.789      1.429
REMARK  5 active torsions:
REMARK  status: ('A' for Active; 'I' for Inactive)
REMARK    1  A    between atoms: N1_1  and  C1_5 
REMARK    2  A    between atoms: C3_7  and  C4_8 
REMARK    3  A    between atoms: N2_12  and  C5_13 
REMARK    4  A    between atoms: C5_13  and  C6_14 
REMARK    5  A    between atoms: C6_14  and  C7_15 
ROOT
HETATM    1  C1  UNL     1     -11.431  -3.378 -40.192  1.00  0.00     0.214 C 
HETATM    2  C2  UNL     1     -10.722  -2.471 -39.241  1.00  0.00     0.079 C 
HETATM    3  C3  UNL     1     -11.566  -2.540 -37.965  1.00  0.00     0.331 C 
HETATM    4  N2  UNL     1     -11.963  -3.921 -37.924  1.00  0.00     0.104 N 
HETATM    5  C13 UNL     1     -12.055  -4.399 -39.285  1.00  0.00     0.305 C 
ENDROOT
BRANCH   4   6
HETATM    6  C5  UNL     1     -13.218  -4.121 -37.226  1.00  0.00     0.273 C 
BRANCH   6   7
HETATM    7  C6  UNL     1     -14.186  -3.077 -37.744  1.00  0.00     0.034 C 
BRANCH   7   8
HETATM    8  C7  UNL     1     -15.610  -3.312 -37.238  1.00  0.00    -0.013 C 
HETATM    9  C8  UNL     1     -16.247  -4.488 -37.855  1.00  0.00     0.005 C 
HETATM   10  C9  UNL     1     -17.580  -4.375 -38.444  1.00  0.00     0.000 C 
HETATM   11  C10 UNL     1     -18.213  -3.042 -38.508  1.00  0.00     0.000 C 
HETATM   12  C11 UNL     1     -17.822  -2.159 -37.359  1.00  0.00     0.000 C 
HETATM   13  C12 UNL     1     -16.326  -2.005 -37.446  1.00  0.00     0.005 C 
ENDBRANCH   7   8
ENDBRANCH   6   7
ENDBRANCH   4   6
BRANCH   3  14
HETATM   14  C4  UNL     1     -10.614  -2.196 -36.829  1.00  0.00     0.418 C 
HETATM   15  F1  UNL     1     -11.094  -2.601 -35.621  1.00  0.00    -0.169 F 
HETATM   16  F2  UNL     1      -9.412  -2.869 -37.035  1.00  0.00    -0.169 F 
HETATM   17  F3  UNL     1     -10.332  -0.850 -36.877  1.00  0.00    -0.169 F 
ENDBRANCH   3  14
BRANCH   1  18
HETATM   18  N1  UNL     1     -10.571  -4.031 -41.154  1.00  0.00    -0.073 N 
ATOM     19  H13 UNL     1     -10.800  -3.725 -42.099  1.00  0.00     0.274 HD
ATOM     20  H12 UNL     1      -9.619  -3.673 -41.079  1.00  0.00     0.274 HD
ATOM     21  H11 UNL     1     -10.572  -5.049 -41.100  1.00  0.00     0.274 HD
ENDBRANCH   1  18
TORSDOF 5
ENDMDL
MODEL 4
REMARK VINA RESULT: -7.436807566      0.715      1.079
REMARK  5 active torsions:
REMARK  status: ('A' for Active; 'I' for Inactive)
REMARK    1  A    between atoms: N1_1  and  C1_5 
REMARK    2  A    between atoms: C3_7  and  C4_8 
REMARK    3  A    between atoms: N2_12  and  C5_13 
REMARK    4  A    between atoms: C5_13  and  C6_14 
REMARK    5  A    between atoms: C6_14  and  C7_15 
ROOT
HETATM    1  C1  UNL     1     -10.962  -3.041 -40.478  1.00  0.00     0.214 C 
HETATM    2  C2  UNL     1     -10.237  -2.757 -39.204  1.00  0.00     0.079 C 
HETATM    3  C3  UNL     1     -11.315  -2.173 -38.288  1.00  0.00     0.331 C 
HETATM    4  N2  UNL     1     -12.474  -2.953 -38.627  1.00  0.00     0.104 N 
HETATM    5  C13 UNL     1     -12.358  -3.344 -40.014  1.00  0.00     0.305 C 
ENDROOT
BRANCH   4   6
HETATM    6  C5  UNL     1     -13.715  -2.237 -38.401  1.00  0.00     0.273 C 
BRANCH   6   7
HETATM    7  C6  UNL     1     -14.733  -3.252 -37.927  1.00  0.00     0.034 C 
BRANCH   7   8
HETATM    8  C7  UNL     1     -15.968  -3.291 -38.828  1.00  0.00    -0.013 C 
HETATM    9  C8  UNL     1     -16.925  -2.212 -38.533  1.00  0.00     0.005 C 
HETATM   10  C9  UNL     1     -18.339  -2.521 -38.329  1.00  0.00     0.000 C 
HETATM   11  C10 UNL     1     -18.757  -3.938 -38.311  1.00  0.00     0.000 C 
HETATM   12  C11 UNL     1     -17.922  -4.799 -39.212  1.00  0.00     0.000 C 
HETATM   13  C12 UNL     1     -16.510  -4.690 -38.699  1.00  0.00     0.005 C 
ENDBRANCH   7   8
ENDBRANCH   6   7
ENDBRANCH   4   6
BRANCH   3  14
HETATM   14  C4  UNL     1     -10.843  -2.459 -36.870  1.00  0.00     0.418 C 
HETATM   15  F1  UNL     1     -11.110  -1.426 -36.024  1.00  0.00    -0.169 F 
HETATM   16  F2  UNL     1     -11.531  -3.569 -36.386  1.00  0.00    -0.169 F 
HETATM   17  F3  UNL     1      -9.510  -2.800 -36.905  1.00  0.00    -0.169 F 
ENDBRANCH   3  14
BRANCH   1  18
HETATM   18  N1  UNL     1     -10.438  -4.161 -41.230  1.00  0.00    -0.073 N 
ATOM     19  H13 UNL     1     -10.929  -4.251 -42.120  1.00  0.00     0.274 HD
ATOM     20  H12 UNL     1      -9.499  -3.953 -41.568  1.00  0.00     0.274 HD
ATOM     21  H11 UNL     1     -10.447  -5.048 -40.729  1.00  0.00     0.274 HD
ENDBRANCH   1  18
TORSDOF 5
ENDMDL
MODEL 5
REMARK VINA RESULT: -7.433913970      2.265      2.989
REMARK  5 active torsions:
REMARK  status: ('A' for Active; 'I' for Inactive)
REMARK    1  A    between atoms: N1_1  and  C1_5 
REMARK    2  A    between atoms: C3_7  and  C4_8 
REMARK    3  A    between atoms: N2_12  and  C5_13 
REMARK    4  A    between atoms: C5_13  and  C6_14 
REMARK    5  A    between atoms: C6_14  and  C7_15 
ROOT
HETATM    1  C1  UNL     1     -10.908  -2.457 -36.477  1.00  0.00     0.214 C 
HETATM    2  C2  UNL     1     -10.941  -1.966 -37.887  1.00  0.00     0.079 C 
HETATM    3  C3  UNL     1     -12.025  -2.818 -38.550  1.00  0.00     0.331 C 
HETATM    4  N2  UNL     1     -13.010  -2.941 -37.510  1.00  0.00     0.104 N 
HETATM    5  C13 UNL     1     -12.324  -2.898 -36.239  1.00  0.00     0.305 C 
ENDROOT
BRANCH   4   6
HETATM    6  C5  UNL     1     -13.796  -4.154 -37.625  1.00  0.00     0.273 C 
BRANCH   6   7
HETATM    7  C6  UNL     1     -15.180  -3.839 -37.099  1.00  0.00     0.034 C 
BRANCH   7   8
HETATM    8  C7  UNL     1     -16.203  -3.689 -38.226  1.00  0.00    -0.013 C 
HETATM    9  C8  UNL     1     -16.962  -2.430 -38.144  1.00  0.00     0.005 C 
HETATM   10  C9  UNL     1     -18.422  -2.447 -38.218  1.00  0.00     0.000 C 
HETATM   11  C10 UNL     1     -19.112  -3.753 -38.258  1.00  0.00     0.000 C 
HETATM   12  C11 UNL     1     -18.311  -4.810 -38.961  1.00  0.00     0.000 C 
HETATM   13  C12 UNL     1     -17.030  -4.947 -38.182  1.00  0.00     0.005 C 
ENDBRANCH   7   8
ENDBRANCH   6   7
ENDBRANCH   4   6
BRANCH   3  14
HETATM   14  C4  UNL     1     -12.541  -1.986 -39.715  1.00  0.00     0.418 C 
HETATM   15  F1  UNL     1     -13.894  -2.068 -39.842  1.00  0.00    -0.169 F 
HETATM   16  F2  UNL     1     -12.235  -0.648 -39.477  1.00  0.00    -0.169 F 
HETATM   17  F3  UNL     1     -11.866  -2.353 -40.856  1.00  0.00    -0.169 F 
ENDBRANCH   3  14
BRANCH   1  18
HETATM   18  N1  UNL     1     -10.531  -1.458 -35.501  1.00  0.00    -0.073 N 
ATOM     19  H13 UNL     1     -11.321  -0.844 -35.300  1.00  0.00     0.274 HD
ATOM     20  H12 UNL     1     -10.404  -1.887 -34.585  1.00  0.00     0.274 HD
ATOM     21  H11 UNL     1      -9.710  -0.908 -35.753  1.00  0.00     0.274 HD
ENDBRANCH   1  18
TORSDOF 5
ENDMDL
