MODEL 1
REMARK VINA RESULT: -9.000205040      0.000      0.000
REMARK  6 active torsions:
REMARK  status: ('A' for Active; 'I' for Inactive)
REMARK    1  A    between atoms: C2_2  and  C4_4 
REMARK    2  A    between atoms: C5_5  and  O1_6 
REMARK    3  A    between atoms: C7_8  and  O2_9 
REMARK    4  A    between atoms: C12_16  and  O4_17 
REMARK    5  A    between atoms: C15_20  and  O5_21 
REMARK    6  A    between atoms: C17_23  and  O6_24 
ROOT
HETATM    1  C4  UNL     1      -7.920 -20.559  21.896  1.00  0.00     0.040 A 
HETATM    2  C5  UNL     1      -8.596 -21.142  22.960  1.00  0.00     0.114 A 
HETATM    3  C7  UNL     1      -8.079 -22.138  23.741  1.00  0.00     0.101 A 
HETATM    4  C8  UNL     1      -6.817 -22.591  23.454  1.00  0.00     0.057 A 
HETATM    5  C9  UNL     1      -6.094 -22.069  22.429  1.00  0.00     0.053 A 
HETATM    6  C10 UNL     1      -4.826 -22.526  22.148  1.00  0.00     0.201 A 
HETATM    7  O3  UNL     1      -4.297 -23.443  22.831  1.00  0.00    -0.286 OA
HETATM    8  C11 UNL     1      -4.168 -21.939  21.094  1.00  0.00     0.085 A 
HETATM    9  C12 UNL     1      -2.898 -22.382  20.798  1.00  0.00     0.088 A 
HETATM   10  C14 UNL     1      -2.236 -21.794  19.741  1.00  0.00     0.077 A 
HETATM   11  C15 UNL     1      -2.838 -20.786  19.003  1.00  0.00     0.107 A 
HETATM   12  C17 UNL     1      -4.089 -20.346  19.290  1.00  0.00     0.136 A 
HETATM   13  C19 UNL     1      -4.778 -20.936  20.365  1.00  0.00     0.129 A 
HETATM   14  O7  UNL     1      -5.980 -20.526  20.657  1.00  0.00    -0.305 OA
HETATM   15  C20 UNL     1      -6.635 -21.057  21.648  1.00  0.00     0.104 A 
ENDROOT
BRANCH   1  16
HETATM   16  C2  UNL     1      -8.517 -19.482  21.143  1.00  0.00    -0.055 C 
HETATM   17  C1  UNL     1      -8.222 -18.225  21.398  1.00  0.00     0.019 C 
HETATM   18  C3  UNL     1      -9.528 -19.709  20.068  1.00  0.00     0.048 C 
ENDBRANCH   1  16
BRANCH   2  19
HETATM   19  O1  UNL     1      -9.891 -20.671  23.242  1.00  0.00    -0.352 OA
HETATM   20  C6  UNL     1     -10.942 -21.558  22.827  1.00  0.00     0.210 C 
ENDBRANCH   2  19
BRANCH   3  21
HETATM   21  O2  UNL     1      -8.782 -22.700  24.800  1.00  0.00    -0.358 OA
ATOM     22  H2  UNL     1      -8.514 -22.594  25.705  1.00  0.00     0.217 HD
ENDBRANCH   3  21
BRANCH  12  23
HETATM   23  O6  UNL     1      -4.739 -19.333  18.576  1.00  0.00    -0.351 OA
HETATM   24  C18 UNL     1      -5.091 -18.109  19.207  1.00  0.00     0.210 C 
ENDBRANCH  12  23
BRANCH   9  25
HETATM   25  O4  UNL     1      -2.367 -23.389  21.578  1.00  0.00    -0.355 OA
HETATM   26  C13 UNL     1      -1.023 -23.510  21.939  1.00  0.00     0.210 C 
ENDBRANCH   9  25
BRANCH  11  27
HETATM   27  O5  UNL     1      -2.129 -20.232  17.955  1.00  0.00    -0.353 OA
HETATM   28  C16 UNL     1      -1.360 -20.992  17.046  1.00  0.00     0.210 C 
ENDBRANCH  11  27
TORSDOF 6
ENDMDL
MODEL 2
REMARK VINA RESULT: -8.886545778      1.086      1.166
REMARK  6 active torsions:
REMARK  status: ('A' for Active; 'I' for Inactive)
REMARK    1  A    between atoms: C2_2  and  C4_4 
REMARK    2  A    between atoms: C5_5  and  O1_6 
REMARK    3  A    between atoms: C7_8  and  O2_9 
REMARK    4  A    between atoms: C12_16  and  O4_17 
REMARK    5  A    between atoms: C15_20  and  O5_21 
REMARK    6  A    between atoms: C17_23  and  O6_24 
ROOT
HETATM    1  C4  UNL     1      -7.805 -20.581  22.153  1.00  0.00     0.040 A 
HETATM    2  C5  UNL     1      -8.761 -21.121  23.003  1.00  0.00     0.114 A 
HETATM    3  C7  UNL     1      -8.539 -22.190  23.826  1.00  0.00     0.101 A 
HETATM    4  C8  UNL     1      -7.294 -22.765  23.810  1.00  0.00     0.057 A 
HETATM    5  C9  UNL     1      -6.307 -22.293  23.005  1.00  0.00     0.053 A 
HETATM    6  C10 UNL     1      -5.058 -22.874  22.995  1.00  0.00     0.201 A 
HETATM    7  O3  UNL     1      -4.793 -23.862  23.730  1.00  0.00    -0.286 OA
HETATM    8  C11 UNL     1      -4.121 -22.329  22.151  1.00  0.00     0.085 A 
HETATM    9  C12 UNL     1      -2.865 -22.896  22.128  1.00  0.00     0.088 A 
HETATM   10  C14 UNL     1      -1.923 -22.350  21.282  1.00  0.00     0.077 A 
HETATM   11  C15 UNL     1      -2.237 -21.263  20.482  1.00  0.00     0.107 A 
HETATM   12  C17 UNL     1      -3.472 -20.701  20.501  1.00  0.00     0.136 A 
HETATM   13  C19 UNL     1      -4.445 -21.245  21.358  1.00  0.00     0.129 A 
HETATM   14  O7  UNL     1      -5.637 -20.718  21.391  1.00  0.00    -0.305 OA
HETATM   15  C20 UNL     1      -6.551 -21.207  22.177  1.00  0.00     0.104 A 
ENDROOT
BRANCH   1  16
HETATM   16  C2  UNL     1      -8.103 -19.425  21.343  1.00  0.00    -0.055 C 
HETATM   17  C1  UNL     1      -8.007 -18.206  21.831  1.00  0.00     0.019 C 
HETATM   18  C3  UNL     1      -8.577 -19.526  19.931  1.00  0.00     0.048 C 
ENDBRANCH   1  16
BRANCH   2  19
HETATM   19  O1  UNL     1     -10.035 -20.523  23.008  1.00  0.00    -0.352 OA
HETATM   20  C6  UNL     1     -11.000 -21.189  22.178  1.00  0.00     0.210 C 
ENDBRANCH   2  19
BRANCH   3  21
HETATM   21  O2  UNL     1      -9.518 -22.705  24.666  1.00  0.00    -0.358 OA
ATOM     22  H2  UNL     1     -10.446 -22.625  24.479  1.00  0.00     0.217 HD
ENDBRANCH   3  21
BRANCH  12  23
HETATM   23  O6  UNL     1      -3.838 -19.603  19.713  1.00  0.00    -0.351 OA
HETATM   24  C18 UNL     1      -4.264 -19.781  18.369  1.00  0.00     0.210 C 
ENDBRANCH  12  23
BRANCH   9  25
HETATM   25  O4  UNL     1      -2.630 -23.976  22.953  1.00  0.00    -0.355 OA
HETATM   26  C13 UNL     1      -1.397 -24.613  23.122  1.00  0.00     0.210 C 
ENDBRANCH   9  25
BRANCH  11  27
HETATM   27  O5  UNL     1      -1.255 -20.757  19.654  1.00  0.00    -0.353 OA
HETATM   28  C16 UNL     1      -0.831 -21.394  18.467  1.00  0.00     0.210 C 
ENDBRANCH  11  27
TORSDOF 6
ENDMDL
MODEL 3
REMARK VINA RESULT: -8.341425178      1.884      4.064
REMARK  6 active torsions:
REMARK  status: ('A' for Active; 'I' for Inactive)
REMARK    1  A    between atoms: C2_2  and  C4_4 
REMARK    2  A    between atoms: C5_5  and  O1_6 
REMARK    3  A    between atoms: C7_8  and  O2_9 
REMARK    4  A    between atoms: C12_16  and  O4_17 
REMARK    5  A    between atoms: C15_20  and  O5_21 
REMARK    6  A    between atoms: C17_23  and  O6_24 
ROOT
HETATM    1  C4  UNL     1      -6.681 -20.279  20.816  1.00  0.00     0.040 A 
HETATM    2  C5  UNL     1      -7.941 -19.774  21.107  1.00  0.00     0.114 A 
HETATM    3  C7  UNL     1      -8.706 -20.183  22.163  1.00  0.00     0.101 A 
HETATM    4  C8  UNL     1      -8.198 -21.155  22.986  1.00  0.00     0.057 A 
HETATM    5  C9  UNL     1      -6.972 -21.698  22.767  1.00  0.00     0.053 A 
HETATM    6  C10 UNL     1      -6.466 -22.672  23.598  1.00  0.00     0.201 A 
HETATM    7  O3  UNL     1      -7.124 -23.091  24.587  1.00  0.00    -0.286 OA
HETATM    8  C11 UNL     1      -5.217 -23.162  23.301  1.00  0.00     0.085 A 
HETATM    9  C12 UNL     1      -4.693 -24.137  24.122  1.00  0.00     0.088 A 
HETATM   10  C14 UNL     1      -3.440 -24.629  23.826  1.00  0.00     0.077 A 
HETATM   11  C15 UNL     1      -2.734 -24.153  22.732  1.00  0.00     0.107 A 
HETATM   12  C17 UNL     1      -3.245 -23.193  21.920  1.00  0.00     0.136 A 
HETATM   13  C19 UNL     1      -4.522 -22.680  22.208  1.00  0.00     0.129 A 
HETATM   14  O7  UNL     1      -5.030 -21.757  21.440  1.00  0.00    -0.305 OA
HETATM   15  C20 UNL     1      -6.209 -21.268  21.689  1.00  0.00     0.104 A 
ENDROOT
BRANCH   1  16
HETATM   16  C2  UNL     1      -5.916 -19.766  19.706  1.00  0.00    -0.055 C 
HETATM   17  C1  UNL     1      -5.884 -20.394  18.550  1.00  0.00     0.019 C 
HETATM   18  C3  UNL     1      -5.084 -18.529  19.799  1.00  0.00     0.048 C 
ENDBRANCH   1  16
BRANCH   2  19
HETATM   19  O1  UNL     1      -8.453 -18.779  20.253  1.00  0.00    -0.352 OA
HETATM   20  C6  UNL     1      -9.521 -19.227  19.403  1.00  0.00     0.210 C 
ENDBRANCH   2  19
BRANCH   3  21
HETATM   21  O2  UNL     1      -9.964 -19.655  22.426  1.00  0.00    -0.358 OA
ATOM     22  H2  UNL     1     -10.537 -20.007  23.098  1.00  0.00     0.217 HD
ENDBRANCH   3  21
BRANCH  12  23
HETATM   23  O6  UNL     1      -2.572 -22.680  20.805  1.00  0.00    -0.351 OA
HETATM   24  C18 UNL     1      -1.707 -21.559  20.930  1.00  0.00     0.210 C 
ENDBRANCH  12  23
BRANCH   9  25
HETATM   25  O4  UNL     1      -5.457 -24.559  25.191  1.00  0.00    -0.355 OA
HETATM   26  C13 UNL     1      -4.958 -25.089  26.383  1.00  0.00     0.210 C 
ENDBRANCH   9  25
BRANCH  11  27
HETATM   27  O5  UNL     1      -1.483 -24.682  22.482  1.00  0.00    -0.353 OA
HETATM   28  C16 UNL     1      -0.644 -25.210  23.489  1.00  0.00     0.210 C 
ENDBRANCH  11  27
TORSDOF 6
ENDMDL
MODEL 4
REMARK VINA RESULT: -8.149171758      1.894      4.940
REMARK  6 active torsions:
REMARK  status: ('A' for Active; 'I' for Inactive)
REMARK    1  A    between atoms: C2_2  and  C4_4 
REMARK    2  A    between atoms: C5_5  and  O1_6 
REMARK    3  A    between atoms: C7_8  and  O2_9 
REMARK    4  A    between atoms: C12_16  and  O4_17 
REMARK    5  A    between atoms: C15_20  and  O5_21 
REMARK    6  A    between atoms: C17_23  and  O6_24 
ROOT
HETATM    1  C4  UNL     1      -7.524 -19.580  21.154  1.00  0.00     0.040 A 
HETATM    2  C5  UNL     1      -7.239 -18.711  20.109  1.00  0.00     0.114 A 
HETATM    3  C7  UNL     1      -6.064 -18.711  19.411  1.00  0.00     0.101 A 
HETATM    4  C8  UNL     1      -5.106 -19.625  19.766  1.00  0.00     0.057 A 
HETATM    5  C9  UNL     1      -5.310 -20.507  20.778  1.00  0.00     0.053 A 
HETATM    6  C10 UNL     1      -4.345 -21.424  21.128  1.00  0.00     0.201 A 
HETATM    7  O3  UNL     1      -3.241 -21.472  20.523  1.00  0.00    -0.286 OA
HETATM    8  C11 UNL     1      -4.639 -22.280  22.163  1.00  0.00     0.085 A 
HETATM    9  C12 UNL     1      -3.686 -23.205  22.527  1.00  0.00     0.088 A 
HETATM   10  C14 UNL     1      -3.980 -24.064  23.565  1.00  0.00     0.077 A 
HETATM   11  C15 UNL     1      -5.201 -23.993  24.217  1.00  0.00     0.107 A 
HETATM   12  C17 UNL     1      -6.143 -23.083  23.862  1.00  0.00     0.136 A 
HETATM   13  C19 UNL     1      -5.860 -22.200  22.806  1.00  0.00     0.129 A 
HETATM   14  O7  UNL     1      -6.753 -21.320  22.450  1.00  0.00    -0.305 OA
HETATM   15  C20 UNL     1      -6.511 -20.493  21.475  1.00  0.00     0.104 A 
ENDROOT
BRANCH   1  16
HETATM   16  C2  UNL     1      -8.805 -19.545  21.817  1.00  0.00    -0.055 C 
HETATM   17  C1  UNL     1      -9.022 -18.751  22.843  1.00  0.00     0.019 C 
HETATM   18  C3  UNL     1      -9.944 -20.425  21.421  1.00  0.00     0.048 C 
ENDBRANCH   1  16
BRANCH   2  19
HETATM   19  O1  UNL     1      -8.231 -17.776  19.756  1.00  0.00    -0.352 OA
HETATM   20  C6  UNL     1      -9.115 -18.223  18.715  1.00  0.00     0.210 C 
ENDBRANCH   2  19
BRANCH   3  21
HETATM   21  O2  UNL     1      -5.813 -17.828  18.368  1.00  0.00    -0.358 OA
ATOM     22  H2  UNL     1      -6.447 -17.651  17.683  1.00  0.00     0.217 HD
ENDBRANCH   3  21
BRANCH  12  23
HETATM   23  O6  UNL     1      -7.390 -22.973  24.489  1.00  0.00    -0.351 OA
HETATM   24  C18 UNL     1      -8.593 -23.110  23.745  1.00  0.00     0.210 C 
ENDBRANCH  12  23
BRANCH   9  25
HETATM   25  O4  UNL     1      -2.495 -23.213  21.830  1.00  0.00    -0.355 OA
HETATM   26  C13 UNL     1      -1.270 -23.668  22.326  1.00  0.00     0.210 C 
ENDBRANCH   9  25
BRANCH  11  27
HETATM   27  O5  UNL     1      -5.442 -24.878  25.249  1.00  0.00    -0.353 OA
HETATM   28  C16 UNL     1      -4.452 -25.294  26.167  1.00  0.00     0.210 C 
ENDBRANCH  11  27
TORSDOF 6
ENDMDL
MODEL 5
REMARK VINA RESULT: -8.062548388      1.827      6.097
REMARK  6 active torsions:
REMARK  status: ('A' for Active; 'I' for Inactive)
REMARK    1  A    between atoms: C2_2  and  C4_4 
REMARK    2  A    between atoms: C5_5  and  O1_6 
REMARK    3  A    between atoms: C7_8  and  O2_9 
REMARK    4  A    between atoms: C12_16  and  O4_17 
REMARK    5  A    between atoms: C15_20  and  O5_21 
REMARK    6  A    between atoms: C17_23  and  O6_24 
ROOT
HETATM    1  C4  UNL     1      -2.506 -23.263  22.023  1.00  0.00     0.040 A 
HETATM    2  C5  UNL     1      -2.115 -24.387  22.739  1.00  0.00     0.114 A 
HETATM    3  C7  UNL     1      -2.901 -25.019  23.661  1.00  0.00     0.101 A 
HETATM    4  C8  UNL     1      -4.153 -24.510  23.896  1.00  0.00     0.057 A 
HETATM    5  C9  UNL     1      -4.606 -23.413  23.235  1.00  0.00     0.053 A 
HETATM    6  C10 UNL     1      -5.864 -22.908  23.474  1.00  0.00     0.201 A 
HETATM    7  O3  UNL     1      -6.634 -23.446  24.313  1.00  0.00    -0.286 OA
HETATM    8  C11 UNL     1      -6.239 -21.797  22.758  1.00  0.00     0.085 A 
HETATM    9  C12 UNL     1      -7.496 -21.277  22.982  1.00  0.00     0.088 A 
HETATM   10  C14 UNL     1      -7.873 -20.162  22.264  1.00  0.00     0.077 A 
HETATM   11  C15 UNL     1      -7.009 -19.587  21.346  1.00  0.00     0.107 A 
HETATM   12  C17 UNL     1      -5.771 -20.094  21.121  1.00  0.00     0.136 A 
HETATM   13  C19 UNL     1      -5.370 -21.231  21.845  1.00  0.00     0.129 A 
HETATM   14  O7  UNL     1      -4.184 -21.734  21.642  1.00  0.00    -0.305 OA
HETATM   15  C20 UNL     1      -3.793 -22.785  22.301  1.00  0.00     0.104 A 
ENDROOT
BRANCH   1  16
HETATM   16  C2  UNL     1      -1.634 -22.676  21.035  1.00  0.00    -0.055 C 
HETATM   17  C1  UNL     1      -1.645 -23.085  19.785  1.00  0.00     0.019 C 
HETATM   18  C3  UNL     1      -0.642 -21.609  21.363  1.00  0.00     0.048 C 
ENDBRANCH   1  16
BRANCH   2  19
HETATM   19  O1  UNL     1      -0.828 -24.898  22.490  1.00  0.00    -0.352 OA
HETATM   20  C6  UNL     1       0.151 -24.529  23.476  1.00  0.00     0.210 C 
ENDBRANCH   2  19
BRANCH   3  21
HETATM   21  O2  UNL     1      -2.480 -26.144  24.359  1.00  0.00    -0.358 OA
ATOM     22  H2  UNL     1      -2.290 -26.971  23.931  1.00  0.00     0.217 HD
ENDBRANCH   3  21
BRANCH  12  23
HETATM   23  O6  UNL     1      -4.863 -19.550  20.205  1.00  0.00    -0.351 OA
HETATM   24  C18 UNL     1      -4.923 -19.896  18.828  1.00  0.00     0.210 C 
ENDBRANCH  12  23
BRANCH   9  25
HETATM   25  O4  UNL     1      -8.297 -21.906  23.912  1.00  0.00    -0.355 OA
HETATM   26  C13 UNL     1      -9.677 -22.095  23.796  1.00  0.00     0.210 C 
ENDBRANCH   9  25
BRANCH  11  27
HETATM   27  O5  UNL     1      -7.440 -18.472  20.655  1.00  0.00    -0.353 OA
HETATM   28  C16 UNL     1      -8.481 -18.499  19.700  1.00  0.00     0.210 C 
ENDBRANCH  11  27
TORSDOF 6
ENDMDL
