MODEL 1
REMARK VINA RESULT: -8.468546118      0.000      0.000
REMARK  6 active torsions:
REMARK  status: ('A' for Active; 'I' for Inactive)
REMARK    1  A    between atoms: C2_2  and  O1_3 
REMARK    2  A    between atoms: O1_3  and  C3_4 
REMARK    3  A    between atoms: C3_4  and  C4_6 
REMARK    4  A    between atoms: C5_7  and  C6_8 
REMARK    5  A    between atoms: C6_8  and  N1_9 
REMARK    6  A    between atoms: N2_12  and  C9_13 
ROOT
HETATM    1  N1  UNL     1      -0.205  -9.220 -24.620  1.00  0.00     0.096 N 
HETATM    2  C7  UNL     1      -0.802  -8.226 -23.723  1.00  0.00     0.303 C 
HETATM    3  C8  UNL     1      -1.896  -7.504 -24.404  1.00  0.00     0.303 C 
HETATM    4  N2  UNL     1      -1.480  -6.911 -25.685  1.00  0.00     0.100 N 
HETATM    5  C15 UNL     1      -1.195  -8.008 -26.544  1.00  0.00     0.247 C 
HETATM    6  C16 UNL     1       0.133  -7.725 -27.243  1.00  0.00     0.045 C 
HETATM    7  C17 UNL     1      -1.051  -9.320 -25.819  1.00  0.00     0.308 C 
ENDROOT
BRANCH   1   8
HETATM    8  C6  UNL     1      -0.341 -10.544 -23.991  1.00  0.00     0.312 C 
BRANCH   8   9
HETATM    9  C5  UNL     1       0.684 -11.517 -24.538  1.00  0.00    -0.005 A 
HETATM   10  C4  UNL     1       0.586 -12.861 -24.359  1.00  0.00     0.079 A 
HETATM   11  C19 UNL     1       1.606 -13.614 -24.864  1.00  0.00     0.103 A 
HETATM   12  S1  UNL     1       2.665 -12.475 -25.563  1.00  0.00    -0.086 SA
HETATM   13  N3  UNL     1       1.732 -15.055 -24.804  1.00  0.00    -0.093 NA
HETATM   14  C18 UNL     1       1.786 -11.062 -25.199  1.00  0.00     0.061 A 
BRANCH  10  15
HETATM   15  C3  UNL     1      -0.554 -13.527 -23.648  1.00  0.00     0.296 C 
HETATM   16  O2  UNL     1      -1.518 -14.037 -24.265  1.00  0.00    -0.259 OA
BRANCH  15  17
HETATM   17  O1  UNL     1      -0.599 -13.611 -22.276  1.00  0.00    -0.318 OA
BRANCH  17  18
HETATM   18  C2  UNL     1      -1.847 -13.701 -21.623  1.00  0.00     0.174 C 
HETATM   19  C1  UNL     1      -2.191 -12.311 -21.131  1.00  0.00     0.034 C 
ENDBRANCH  17  18
ENDBRANCH  15  17
ENDBRANCH  10  15
ENDBRANCH   8   9
ENDBRANCH   1   8
BRANCH   4  20
HETATM   20  C9  UNL     1      -2.499  -6.003 -26.104  1.00  0.00     0.223 C 
HETATM   21  C10 UNL     1      -2.743  -5.023 -24.978  1.00  0.00     0.036 C 
HETATM   22  C11 UNL     1      -2.713  -3.589 -25.463  1.00  0.00     0.002 C 
HETATM   23  C12 UNL     1      -1.359  -3.435 -26.166  1.00  0.00     0.000 C 
HETATM   24  C13 UNL     1      -1.502  -4.143 -27.485  1.00  0.00     0.002 C 
HETATM   25  C14 UNL     1      -2.356  -5.369 -27.425  1.00  0.00     0.036 C 
ENDBRANCH   4  20
TORSDOF 6
ENDMDL
MODEL 2
REMARK VINA RESULT: -8.431372376      3.191      4.761
REMARK  6 active torsions:
REMARK  status: ('A' for Active; 'I' for Inactive)
REMARK    1  A    between atoms: C2_2  and  O1_3 
REMARK    2  A    between atoms: O1_3  and  C3_4 
REMARK    3  A    between atoms: C3_4  and  C4_6 
REMARK    4  A    between atoms: C5_7  and  C6_8 
REMARK    5  A    between atoms: C6_8  and  N1_9 
REMARK    6  A    between atoms: N2_12  and  C9_13 
ROOT
HETATM    1  N1  UNL     1       0.313  -8.625 -25.762  1.00  0.00     0.096 N 
HETATM    2  C7  UNL     1      -0.107  -8.261 -27.118  1.00  0.00     0.303 C 
HETATM    3  C8  UNL     1      -0.862  -6.992 -27.105  1.00  0.00     0.303 C 
HETATM    4  N2  UNL     1      -1.992  -7.008 -26.163  1.00  0.00     0.100 N 
HETATM    5  C15 UNL     1      -1.413  -7.087 -24.866  1.00  0.00     0.247 C 
HETATM    6  C16 UNL     1      -2.171  -8.154 -24.078  1.00  0.00     0.045 C 
HETATM    7  C17 UNL     1       0.039  -7.483 -24.877  1.00  0.00     0.308 C 
ENDROOT
BRANCH   1   8
HETATM    8  C6  UNL     1       1.782  -8.727 -25.750  1.00  0.00     0.312 C 
BRANCH   8   9
HETATM    9  C5  UNL     1       2.230 -10.174 -25.725  1.00  0.00    -0.005 A 
HETATM   10  C4  UNL     1       3.172 -10.663 -26.572  1.00  0.00     0.079 A 
HETATM   11  C19 UNL     1       3.444 -11.997 -26.471  1.00  0.00     0.103 A 
HETATM   12  S1  UNL     1       2.410 -12.544 -25.230  1.00  0.00    -0.086 SA
HETATM   13  N3  UNL     1       4.400 -12.749 -27.254  1.00  0.00    -0.093 NA
HETATM   14  C18 UNL     1       1.653 -11.062 -24.865  1.00  0.00     0.061 A 
BRANCH  10  15
HETATM   15  C3  UNL     1       3.898  -9.828 -27.585  1.00  0.00     0.296 C 
HETATM   16  O2  UNL     1       5.071  -9.429 -27.403  1.00  0.00    -0.259 OA
BRANCH  15  17
HETATM   17  O1  UNL     1       3.308  -9.456 -28.770  1.00  0.00    -0.318 OA
BRANCH  17  18
HETATM   18  C2  UNL     1       3.346  -8.104 -29.174  1.00  0.00     0.174 C 
HETATM   19  C1  UNL     1       3.961  -8.072 -30.557  1.00  0.00     0.034 C 
ENDBRANCH  17  18
ENDBRANCH  15  17
ENDBRANCH  10  15
ENDBRANCH   8   9
ENDBRANCH   1   8
BRANCH   4  20
HETATM   20  C9  UNL     1      -2.816  -5.875 -26.440  1.00  0.00     0.223 C 
HETATM   21  C10 UNL     1      -2.902  -5.041 -25.181  1.00  0.00     0.036 C 
HETATM   22  C11 UNL     1      -2.597  -3.582 -25.451  1.00  0.00     0.002 C 
HETATM   23  C12 UNL     1      -1.220  -3.582 -26.128  1.00  0.00     0.000 C 
HETATM   24  C13 UNL     1      -1.461  -4.053 -27.536  1.00  0.00     0.002 C 
HETATM   25  C14 UNL     1      -2.527  -5.094 -27.654  1.00  0.00     0.036 C 
ENDBRANCH   4  20
TORSDOF 6
ENDMDL
MODEL 3
REMARK VINA RESULT: -8.230622143      1.105      1.653
REMARK  6 active torsions:
REMARK  status: ('A' for Active; 'I' for Inactive)
REMARK    1  A    between atoms: C2_2  and  O1_3 
REMARK    2  A    between atoms: O1_3  and  C3_4 
REMARK    3  A    between atoms: C3_4  and  C4_6 
REMARK    4  A    between atoms: C5_7  and  C6_8 
REMARK    5  A    between atoms: C6_8  and  N1_9 
REMARK    6  A    between atoms: N2_12  and  C9_13 
ROOT
HETATM    1  N1  UNL     1      -0.114  -9.287 -24.835  1.00  0.00     0.096 N 
HETATM    2  C7  UNL     1      -0.841  -8.470 -23.858  1.00  0.00     0.303 C 
HETATM    3  C8  UNL     1      -1.941  -7.735 -24.513  1.00  0.00     0.303 C 
HETATM    4  N2  UNL     1      -1.492  -6.943 -25.669  1.00  0.00     0.100 N 
HETATM    5  C15 UNL     1      -1.071  -7.888 -26.644  1.00  0.00     0.247 C 
HETATM    6  C16 UNL     1       0.273  -7.422 -27.201  1.00  0.00     0.045 C 
HETATM    7  C17 UNL     1      -0.873  -9.275 -26.094  1.00  0.00     0.308 C 
ENDROOT
BRANCH   1   8
HETATM    8  C6  UNL     1      -0.187 -10.692 -24.401  1.00  0.00     0.312 C 
BRANCH   8   9
HETATM    9  C5  UNL     1       0.999 -11.485 -24.912  1.00  0.00    -0.005 A 
HETATM   10  C4  UNL     1       1.130 -12.821 -24.704  1.00  0.00     0.079 A 
HETATM   11  C19 UNL     1       2.272 -13.398 -25.179  1.00  0.00     0.103 A 
HETATM   12  S1  UNL     1       3.131 -12.108 -25.891  1.00  0.00    -0.086 SA
HETATM   13  N3  UNL     1       2.643 -14.794 -25.085  1.00  0.00    -0.093 NA
HETATM   14  C18 UNL     1       2.017 -10.860 -25.569  1.00  0.00     0.061 A 
BRANCH  10  15
HETATM   15  C3  UNL     1       0.110 -13.659 -23.994  1.00  0.00     0.296 C 
HETATM   16  O2  UNL     1       0.019 -13.684 -22.745  1.00  0.00    -0.259 OA
BRANCH  15  17
HETATM   17  O1  UNL     1      -0.782 -14.450 -24.682  1.00  0.00    -0.318 OA
BRANCH  17  18
HETATM   18  C2  UNL     1      -0.965 -15.794 -24.295  1.00  0.00     0.174 C 
HETATM   19  C1  UNL     1      -0.487 -16.656 -25.445  1.00  0.00     0.034 C 
ENDBRANCH  17  18
ENDBRANCH  15  17
ENDBRANCH  10  15
ENDBRANCH   8   9
ENDBRANCH   1   8
BRANCH   4  20
HETATM   20  C9  UNL     1      -2.549  -6.056 -26.035  1.00  0.00     0.223 C 
HETATM   21  C10 UNL     1      -2.745  -5.071 -24.903  1.00  0.00     0.036 C 
HETATM   22  C11 UNL     1      -2.769  -3.640 -25.399  1.00  0.00     0.002 C 
HETATM   23  C12 UNL     1      -1.459  -3.469 -26.180  1.00  0.00     0.000 C 
HETATM   24  C13 UNL     1      -1.666  -4.190 -27.484  1.00  0.00     0.002 C 
HETATM   25  C14 UNL     1      -2.494  -5.430 -27.366  1.00  0.00     0.036 C 
ENDBRANCH   4  20
TORSDOF 6
ENDMDL
MODEL 4
REMARK VINA RESULT: -8.175992266      1.055      1.390
REMARK  6 active torsions:
REMARK  status: ('A' for Active; 'I' for Inactive)
REMARK    1  A    between atoms: C2_2  and  O1_3 
REMARK    2  A    between atoms: O1_3  and  C3_4 
REMARK    3  A    between atoms: C3_4  and  C4_6 
REMARK    4  A    between atoms: C5_7  and  C6_8 
REMARK    5  A    between atoms: C6_8  and  N1_9 
REMARK    6  A    between atoms: N2_12  and  C9_13 
ROOT
HETATM    1  N1  UNL     1      -0.369  -9.149 -24.354  1.00  0.00     0.096 N 
HETATM    2  C7  UNL     1      -0.632  -7.875 -23.679  1.00  0.00     0.303 C 
HETATM    3  C8  UNL     1      -1.719  -7.142 -24.359  1.00  0.00     0.303 C 
HETATM    4  N2  UNL     1      -1.474  -6.963 -25.799  1.00  0.00     0.100 N 
HETATM    5  C15 UNL     1      -1.522  -8.268 -26.364  1.00  0.00     0.247 C 
HETATM    6  C16 UNL     1      -0.325  -8.418 -27.302  1.00  0.00     0.045 C 
HETATM    7  C17 UNL     1      -1.434  -9.371 -25.343  1.00  0.00     0.308 C 
ENDROOT
BRANCH   1   8
HETATM    8  C6  UNL     1      -0.572 -10.234 -23.379  1.00  0.00     0.312 C 
BRANCH   8   9
HETATM    9  C5  UNL     1       0.007 -11.539 -23.885  1.00  0.00    -0.005 A 
HETATM   10  C4  UNL     1      -0.225 -12.729 -23.271  1.00  0.00     0.079 A 
HETATM   11  C19 UNL     1       0.399 -13.819 -23.807  1.00  0.00     0.103 A 
HETATM   12  S1  UNL     1       1.281 -13.193 -25.125  1.00  0.00    -0.086 SA
HETATM   13  N3  UNL     1       0.311 -15.185 -23.339  1.00  0.00    -0.093 NA
HETATM   14  C18 UNL     1       0.836 -11.556 -24.966  1.00  0.00     0.061 A 
BRANCH  10  15
HETATM   15  C3  UNL     1      -1.104 -12.889 -22.066  1.00  0.00     0.296 C 
HETATM   16  O2  UNL     1      -0.723 -12.574 -20.915  1.00  0.00    -0.259 OA
BRANCH  15  17
HETATM   17  O1  UNL     1      -2.380 -13.396 -22.165  1.00  0.00    -0.318 OA
BRANCH  17  18
HETATM   18  C2  UNL     1      -2.949 -14.072 -21.066  1.00  0.00     0.174 C 
HETATM   19  C1  UNL     1      -2.475 -15.508 -21.135  1.00  0.00     0.034 C 
ENDBRANCH  17  18
ENDBRANCH  15  17
ENDBRANCH  10  15
ENDBRANCH   8   9
ENDBRANCH   1   8
BRANCH   4  20
HETATM   20  C9  UNL     1      -2.411  -6.006 -26.292  1.00  0.00     0.223 C 
HETATM   21  C10 UNL     1      -2.753  -5.062 -25.160  1.00  0.00     0.036 C 
HETATM   22  C11 UNL     1      -2.626  -3.612 -25.578  1.00  0.00     0.002 C 
HETATM   23  C12 UNL     1      -1.196  -3.477 -26.117  1.00  0.00     0.000 C 
HETATM   24  C13 UNL     1      -1.210  -4.130 -27.472  1.00  0.00     0.002 C 
HETATM   25  C14 UNL     1      -2.101  -5.327 -27.560  1.00  0.00     0.036 C 
ENDBRANCH   4  20
TORSDOF 6
ENDMDL
MODEL 5
REMARK VINA RESULT: -7.725745708      2.121      3.106
REMARK  6 active torsions:
REMARK  status: ('A' for Active; 'I' for Inactive)
REMARK    1  A    between atoms: C2_2  and  O1_3 
REMARK    2  A    between atoms: O1_3  and  C3_4 
REMARK    3  A    between atoms: C3_4  and  C4_6 
REMARK    4  A    between atoms: C5_7  and  C6_8 
REMARK    5  A    between atoms: C6_8  and  N1_9 
REMARK    6  A    between atoms: N2_12  and  C9_13 
ROOT
HETATM    1  N1  UNL     1      -1.033 -10.503 -23.949  1.00  0.00     0.096 N 
HETATM    2  C7  UNL     1      -0.053 -10.011 -24.922  1.00  0.00     0.303 C 
HETATM    3  C8  UNL     1       0.004  -8.535 -24.899  1.00  0.00     0.303 C 
HETATM    4  N2  UNL     1      -1.315  -7.908 -25.078  1.00  0.00     0.100 N 
HETATM    5  C15 UNL     1      -2.065  -8.249 -23.919  1.00  0.00     0.247 C 
HETATM    6  C16 UNL     1      -3.448  -8.712 -24.374  1.00  0.00     0.045 C 
HETATM    7  C17 UNL     1      -1.459  -9.369 -23.116  1.00  0.00     0.308 C 
ENDROOT
BRANCH   1   8
HETATM    8  C6  UNL     1      -0.331 -11.384 -23.000  1.00  0.00     0.312 C 
BRANCH   8   9
HETATM    9  C5  UNL     1      -0.695 -12.837 -23.230  1.00  0.00    -0.005 A 
HETATM   10  C4  UNL     1      -1.419 -13.560 -22.336  1.00  0.00     0.079 A 
HETATM   11  C19 UNL     1      -1.632 -14.871 -22.650  1.00  0.00     0.103 A 
HETATM   12  S1  UNL     1      -0.843 -15.080 -24.148  1.00  0.00    -0.086 SA
HETATM   13  N3  UNL     1      -2.367 -15.842 -21.868  1.00  0.00    -0.093 NA
HETATM   14  C18 UNL     1      -0.258 -13.492 -24.343  1.00  0.00     0.061 A 
BRANCH  10  15
HETATM   15  C3  UNL     1      -1.969 -12.999 -21.059  1.00  0.00     0.296 C 
HETATM   16  O2  UNL     1      -2.919 -12.184 -21.042  1.00  0.00    -0.259 OA
BRANCH  15  17
HETATM   17  O1  UNL     1      -1.451 -13.353 -19.834  1.00  0.00    -0.318 OA
BRANCH  17  18
HETATM   18  C2  UNL     1      -2.091 -14.351 -19.069  1.00  0.00     0.174 C 
HETATM   19  C1  UNL     1      -1.004 -15.144 -18.375  1.00  0.00     0.034 C 
ENDBRANCH  17  18
ENDBRANCH  15  17
ENDBRANCH  10  15
ENDBRANCH   8   9
ENDBRANCH   1   8
BRANCH   4  20
HETATM   20  C9  UNL     1      -1.113  -6.519 -25.338  1.00  0.00     0.223 C 
HETATM   21  C10 UNL     1      -0.952  -6.342 -26.831  1.00  0.00     0.036 C 
HETATM   22  C11 UNL     1      -1.852  -5.249 -27.369  1.00  0.00     0.002 C 
HETATM   23  C12 UNL     1      -3.265  -5.640 -26.918  1.00  0.00     0.000 C 
HETATM   24  C13 UNL     1      -3.327  -5.317 -25.450  1.00  0.00     0.002 C 
HETATM   25  C14 UNL     1      -2.044  -5.560 -24.721  1.00  0.00     0.036 C 
ENDBRANCH   4  20
TORSDOF 6
ENDMDL
