MODEL 1
REMARK VINA RESULT: -8.656953751      0.000      0.000
REMARK  7 active torsions:
REMARK  status: ('A' for Active; 'I' for Inactive)
REMARK    1  A    between atoms: C1_2  and  C2_3 
REMARK    2  A    between atoms: C1_2  and  O6_19 
REMARK    3  A    between atoms: C2_3  and  N1_4 
REMARK    4  A    between atoms: C5_9  and  C6_10 
REMARK    5  A    between atoms: C9_13  and  O3_14 
REMARK    6  A    between atoms: O6_19  and  C11_20 
REMARK    7  A    between atoms: C11_20  and  C12_21 
ROOT
HETATM    1  N1  UNL     1      -1.909  -6.217 -25.088  1.00  0.00    -0.265 N 
HETATM    2  C3  UNL     1      -3.169  -6.831 -25.092  1.00  0.00     0.294 C 
HETATM    3  O2  UNL     1      -4.248  -6.370 -25.480  1.00  0.00    -0.259 OA
HETATM    4  S1  UNL     1      -2.937  -8.456 -24.414  1.00  0.00    -0.023 SA
HETATM    5  C4  UNL     1      -1.235  -8.200 -23.893  1.00  0.00     0.081 C 
HETATM    6  C5  UNL     1      -0.503  -9.014 -23.157  1.00  0.00     0.062 C 
HETATM    7  C10 UNL     1      -0.879  -6.910 -24.467  1.00  0.00     0.268 C 
HETATM    8  O5  UNL     1       0.342  -6.512 -24.361  1.00  0.00    -0.266 OA
ENDROOT
BRANCH   1   9
HETATM    9  C2  UNL     1      -1.703  -4.897 -25.717  1.00  0.00     0.247 C 
BRANCH   9  10
HETATM   10  C1  UNL     1      -1.512  -5.031 -27.171  1.00  0.00     0.277 C 
HETATM   11  O1  UNL     1      -2.471  -4.882 -27.948  1.00  0.00    -0.263 OA
BRANCH  10  12
HETATM   12  O6  UNL     1      -0.268  -5.323 -27.669  1.00  0.00    -0.320 OA
BRANCH  12  13
HETATM   13  C11 UNL     1       0.171  -6.547 -28.163  1.00  0.00     0.183 C 
BRANCH  13  14
HETATM   14  C12 UNL     1       1.536  -6.931 -27.652  1.00  0.00     0.010 C 
HETATM   15  C13 UNL     1       1.465  -8.385 -27.255  1.00  0.00     0.007 C 
HETATM   16  C14 UNL     1       2.629  -9.175 -27.787  1.00  0.00     0.000 C 
HETATM   17  C15 UNL     1       3.901  -8.444 -27.418  1.00  0.00     0.000 C 
HETATM   18  C16 UNL     1       3.923  -7.135 -28.142  1.00  0.00     0.000 C 
HETATM   19  C17 UNL     1       2.579  -6.804 -28.748  1.00  0.00     0.007 C 
ENDBRANCH  13  14
ENDBRANCH  12  13
ENDBRANCH  10  12
ENDBRANCH   9  10
ENDBRANCH   1   9
BRANCH   6  20
HETATM   20  C6  UNL     1      -1.067 -10.266 -22.685  1.00  0.00     0.080 A 
HETATM   21  C7  UNL     1      -0.894 -11.537 -23.181  1.00  0.00     0.042 A 
HETATM   22  C8  UNL     1      -1.624 -12.414 -22.411  1.00  0.00     0.067 A 
HETATM   23  C9  UNL     1      -2.232 -11.639 -21.454  1.00  0.00     0.183 A 
HETATM   24  O4  UNL     1      -1.882 -10.400 -21.649  1.00  0.00    -0.288 OA
BRANCH  23  25
HETATM   25  O3  UNL     1      -3.087 -12.078 -20.430  1.00  0.00    -0.341 OA
ATOM     26  H3  UNL     1      -3.917 -12.529 -20.532  1.00  0.00     0.220 HD
ENDBRANCH  23  25
ENDBRANCH   6  20
TORSDOF 7
ENDMDL
MODEL 2
REMARK VINA RESULT: -8.447459682      2.930      4.908
REMARK  7 active torsions:
REMARK  status: ('A' for Active; 'I' for Inactive)
REMARK    1  A    between atoms: C1_2  and  C2_3 
REMARK    2  A    between atoms: C1_2  and  O6_19 
REMARK    3  A    between atoms: C2_3  and  N1_4 
REMARK    4  A    between atoms: C5_9  and  C6_10 
REMARK    5  A    between atoms: C9_13  and  O3_14 
REMARK    6  A    between atoms: O6_19  and  C11_20 
REMARK    7  A    between atoms: C11_20  and  C12_21 
ROOT
HETATM    1  N1  UNL     1       1.083  -9.332 -25.409  1.00  0.00    -0.265 N 
HETATM    2  C3  UNL     1       2.065 -10.316 -25.589  1.00  0.00     0.294 C 
HETATM    3  O2  UNL     1       3.132 -10.234 -26.209  1.00  0.00    -0.259 OA
HETATM    4  S1  UNL     1       1.488 -11.763 -24.737  1.00  0.00    -0.023 SA
HETATM    5  C4  UNL     1      -0.157 -11.129 -24.383  1.00  0.00     0.081 C 
HETATM    6  C5  UNL     1      -1.172 -11.803 -23.878  1.00  0.00     0.062 C 
HETATM    7  C10 UNL     1      -0.090  -9.730 -24.781  1.00  0.00     0.268 C 
HETATM    8  O5  UNL     1      -1.102  -8.975 -24.527  1.00  0.00    -0.266 OA
ENDROOT
BRANCH   1   9
HETATM    9  C2  UNL     1       1.299  -7.947 -25.869  1.00  0.00     0.247 C 
BRANCH   9  10
HETATM   10  C1  UNL     1       0.883  -7.787 -27.272  1.00  0.00     0.277 C 
HETATM   11  O1  UNL     1       1.633  -8.145 -28.196  1.00  0.00    -0.263 OA
BRANCH  10  12
HETATM   12  O6  UNL     1      -0.341  -7.237 -27.560  1.00  0.00    -0.320 OA
BRANCH  12  13
HETATM   13  C11 UNL     1      -0.591  -5.965 -28.064  1.00  0.00     0.183 C 
BRANCH  13  14
HETATM   14  C12 UNL     1      -1.677  -5.238 -27.313  1.00  0.00     0.010 C 
HETATM   15  C13 UNL     1      -2.337  -6.247 -26.406  1.00  0.00     0.007 C 
HETATM   16  C14 UNL     1      -2.510  -5.723 -25.007  1.00  0.00     0.000 C 
HETATM   17  C15 UNL     1      -3.176  -4.368 -25.093  1.00  0.00     0.000 C 
HETATM   18  C16 UNL     1      -2.240  -3.422 -25.777  1.00  0.00     0.000 C 
HETATM   19  C17 UNL     1      -1.090  -4.146 -26.437  1.00  0.00     0.007 C 
ENDBRANCH  13  14
ENDBRANCH  12  13
ENDBRANCH  10  12
ENDBRANCH   9  10
ENDBRANCH   1   9
BRANCH   6  20
HETATM   20  C6  UNL     1      -1.014 -13.208 -23.549  1.00  0.00     0.080 A 
HETATM   21  C7  UNL     1      -0.744 -13.790 -22.333  1.00  0.00     0.042 A 
HETATM   22  C8  UNL     1      -0.684 -15.155 -22.500  1.00  0.00     0.067 A 
HETATM   23  C9  UNL     1      -0.923 -15.370 -23.835  1.00  0.00     0.183 A 
HETATM   24  O4  UNL     1      -1.110 -14.214 -24.407  1.00  0.00    -0.288 OA
BRANCH  23  25
HETATM   25  O3  UNL     1      -0.965 -16.607 -24.498  1.00  0.00    -0.341 OA
ATOM     26  H3  UNL     1      -0.353 -16.928 -25.150  1.00  0.00     0.220 HD
ENDBRANCH  23  25
ENDBRANCH   6  20
TORSDOF 7
ENDMDL
MODEL 3
REMARK VINA RESULT: -8.407947434      2.903      5.035
REMARK  7 active torsions:
REMARK  status: ('A' for Active; 'I' for Inactive)
REMARK    1  A    between atoms: C1_2  and  C2_3 
REMARK    2  A    between atoms: C1_2  and  O6_19 
REMARK    3  A    between atoms: C2_3  and  N1_4 
REMARK    4  A    between atoms: C5_9  and  C6_10 
REMARK    5  A    between atoms: C9_13  and  O3_14 
REMARK    6  A    between atoms: O6_19  and  C11_20 
REMARK    7  A    between atoms: C11_20  and  C12_21 
ROOT
HETATM    1  N1  UNL     1       1.300  -9.338 -25.550  1.00  0.00    -0.265 N 
HETATM    2  C3  UNL     1       2.213 -10.390 -25.712  1.00  0.00     0.294 C 
HETATM    3  O2  UNL     1       3.267 -10.402 -26.357  1.00  0.00    -0.259 OA
HETATM    4  S1  UNL     1       1.562 -11.763 -24.791  1.00  0.00    -0.023 SA
HETATM    5  C4  UNL     1      -0.029 -11.008 -24.429  1.00  0.00     0.081 C 
HETATM    6  C5  UNL     1      -1.074 -11.594 -23.877  1.00  0.00     0.062 C 
HETATM    7  C10 UNL     1       0.119  -9.633 -24.884  1.00  0.00     0.268 C 
HETATM    8  O5  UNL     1      -0.836  -8.804 -24.639  1.00  0.00    -0.266 OA
ENDROOT
BRANCH   1   9
HETATM    9  C2  UNL     1       1.596  -7.988 -26.070  1.00  0.00     0.247 C 
BRANCH   9  10
HETATM   10  C1  UNL     1       1.175  -7.861 -27.475  1.00  0.00     0.277 C 
HETATM   11  O1  UNL     1       1.984  -8.065 -28.396  1.00  0.00    -0.263 OA
BRANCH  10  12
HETATM   12  O6  UNL     1      -0.119  -7.511 -27.768  1.00  0.00    -0.320 OA
BRANCH  12  13
HETATM   13  C11 UNL     1      -0.639  -6.224 -27.863  1.00  0.00     0.183 C 
BRANCH  13  14
HETATM   14  C12 UNL     1      -1.431  -5.819 -26.645  1.00  0.00     0.010 C 
HETATM   15  C13 UNL     1      -1.007  -4.415 -26.291  1.00  0.00     0.007 C 
HETATM   16  C14 UNL     1      -2.184  -3.519 -26.024  1.00  0.00     0.000 C 
HETATM   17  C15 UNL     1      -3.087  -4.213 -25.029  1.00  0.00     0.000 C 
HETATM   18  C16 UNL     1      -3.642  -5.445 -25.672  1.00  0.00     0.000 C 
HETATM   19  C17 UNL     1      -2.917  -5.787 -26.953  1.00  0.00     0.007 C 
ENDBRANCH  13  14
ENDBRANCH  12  13
ENDBRANCH  10  12
ENDBRANCH   9  10
ENDBRANCH   1   9
BRANCH   6  20
HETATM   20  C6  UNL     1      -1.001 -12.993 -23.496  1.00  0.00     0.080 A 
HETATM   21  C7  UNL     1      -0.773 -13.544 -22.257  1.00  0.00     0.042 A 
HETATM   22  C8  UNL     1      -0.791 -14.916 -22.375  1.00  0.00     0.067 A 
HETATM   23  C9  UNL     1      -1.033 -15.165 -23.704  1.00  0.00     0.183 A 
HETATM   24  O4  UNL     1      -1.148 -14.023 -24.318  1.00  0.00    -0.288 OA
BRANCH  23  25
HETATM   25  O3  UNL     1      -1.142 -16.422 -24.321  1.00  0.00    -0.341 OA
ATOM     26  H3  UNL     1      -0.780 -17.244 -24.013  1.00  0.00     0.220 HD
ENDBRANCH  23  25
ENDBRANCH   6  20
TORSDOF 7
ENDMDL
MODEL 4
REMARK VINA RESULT: -8.359092426      2.655      6.098
REMARK  7 active torsions:
REMARK  status: ('A' for Active; 'I' for Inactive)
REMARK    1  A    between atoms: C1_2  and  C2_3 
REMARK    2  A    between atoms: C1_2  and  O6_19 
REMARK    3  A    between atoms: C2_3  and  N1_4 
REMARK    4  A    between atoms: C5_9  and  C6_10 
REMARK    5  A    between atoms: C9_13  and  O3_14 
REMARK    6  A    between atoms: O6_19  and  C11_20 
REMARK    7  A    between atoms: C11_20  and  C12_21 
ROOT
HETATM    1  N1  UNL     1      -0.538  -8.756 -24.511  1.00  0.00    -0.265 N 
HETATM    2  C3  UNL     1      -0.422 -10.087 -24.935  1.00  0.00     0.294 C 
HETATM    3  O2  UNL     1      -1.047 -11.078 -24.542  1.00  0.00    -0.259 OA
HETATM    4  S1  UNL     1       0.835 -10.105 -26.190  1.00  0.00    -0.023 SA
HETATM    5  C4  UNL     1       1.369  -8.405 -25.945  1.00  0.00     0.081 C 
HETATM    6  C5  UNL     1       2.418  -7.821 -26.490  1.00  0.00     0.062 C 
HETATM    7  C10 UNL     1       0.386  -7.855 -25.023  1.00  0.00     0.268 C 
HETATM    8  O5  UNL     1       0.441  -6.597 -24.753  1.00  0.00    -0.266 OA
ENDROOT
BRANCH   1   9
HETATM    9  C2  UNL     1      -1.596  -8.348 -23.566  1.00  0.00     0.247 C 
BRANCH   9  10
HETATM   10  C1  UNL     1      -2.807  -7.918 -24.284  1.00  0.00     0.277 C 
HETATM   11  O1  UNL     1      -3.748  -8.710 -24.463  1.00  0.00    -0.263 OA
BRANCH  10  12
HETATM   12  O6  UNL     1      -2.895  -6.634 -24.760  1.00  0.00    -0.320 OA
BRANCH  12  13
HETATM   13  C11 UNL     1      -3.672  -6.185 -25.823  1.00  0.00     0.183 C 
BRANCH  13  14
HETATM   14  C12 UNL     1      -2.946  -5.205 -26.709  1.00  0.00     0.010 C 
HETATM   15  C13 UNL     1      -2.648  -3.988 -25.869  1.00  0.00     0.007 C 
HETATM   16  C14 UNL     1      -1.225  -3.528 -26.022  1.00  0.00     0.000 C 
HETATM   17  C15 UNL     1      -0.928  -3.407 -27.500  1.00  0.00     0.000 C 
HETATM   18  C16 UNL     1      -0.990  -4.772 -28.110  1.00  0.00     0.000 C 
HETATM   19  C17 UNL     1      -1.619  -5.778 -27.175  1.00  0.00     0.007 C 
ENDBRANCH  13  14
ENDBRANCH  12  13
ENDBRANCH  10  12
ENDBRANCH   9  10
ENDBRANCH   1   9
BRANCH   6  20
HETATM   20  C6  UNL     1       3.274  -8.567 -27.394  1.00  0.00     0.080 A 
HETATM   21  C7  UNL     1       3.098  -8.839 -28.730  1.00  0.00     0.042 A 
HETATM   22  C8  UNL     1       4.169  -9.581 -29.175  1.00  0.00     0.067 A 
HETATM   23  C9  UNL     1       4.980  -9.744 -28.078  1.00  0.00     0.183 A 
HETATM   24  O4  UNL     1       4.424  -9.140 -27.067  1.00  0.00    -0.288 OA
BRANCH  23  25
HETATM   25  O3  UNL     1       6.201 -10.435 -28.026  1.00  0.00    -0.341 OA
ATOM     26  H3  UNL     1       7.073 -10.059 -28.058  1.00  0.00     0.220 HD
ENDBRANCH  23  25
ENDBRANCH   6  20
TORSDOF 7
ENDMDL
MODEL 5
REMARK VINA RESULT: -8.344416105      2.449      4.451
REMARK  7 active torsions:
REMARK  status: ('A' for Active; 'I' for Inactive)
REMARK    1  A    between atoms: C1_2  and  C2_3 
REMARK    2  A    between atoms: C1_2  and  O6_19 
REMARK    3  A    between atoms: C2_3  and  N1_4 
REMARK    4  A    between atoms: C5_9  and  C6_10 
REMARK    5  A    between atoms: C9_13  and  O3_14 
REMARK    6  A    between atoms: O6_19  and  C11_20 
REMARK    7  A    between atoms: C11_20  and  C12_21 
ROOT
HETATM    1  N1  UNL     1       0.457  -9.155 -25.094  1.00  0.00    -0.265 N 
HETATM    2  C3  UNL     1      -0.695  -8.838 -24.360  1.00  0.00     0.294 C 
HETATM    3  O2  UNL     1      -1.240  -7.737 -24.221  1.00  0.00    -0.259 OA
HETATM    4  S1  UNL     1      -1.260 -10.357 -23.632  1.00  0.00    -0.023 SA
HETATM    5  C4  UNL     1       0.181 -11.331 -24.090  1.00  0.00     0.081 C 
HETATM    6  C5  UNL     1       0.459 -12.560 -23.700  1.00  0.00     0.062 C 
HETATM    7  C10 UNL     1       0.937 -10.452 -24.971  1.00  0.00     0.268 C 
HETATM    8  O5  UNL     1       1.976 -10.931 -25.562  1.00  0.00    -0.266 OA
ENDROOT
BRANCH   1   9
HETATM    9  C2  UNL     1       1.115  -8.149 -25.949  1.00  0.00     0.247 C 
BRANCH   9  10
HETATM   10  C1  UNL     1       0.389  -7.981 -27.219  1.00  0.00     0.277 C 
HETATM   11  O1  UNL     1      -0.278  -8.917 -27.692  1.00  0.00    -0.263 OA
BRANCH  10  12
HETATM   12  O6  UNL     1       0.453  -6.784 -27.885  1.00  0.00    -0.320 OA
BRANCH  12  13
HETATM   13  C11 UNL     1      -0.583  -5.875 -28.078  1.00  0.00     0.183 C 
BRANCH  13  14
HETATM   14  C12 UNL     1      -1.396  -5.638 -26.831  1.00  0.00     0.010 C 
HETATM   15  C13 UNL     1      -1.010  -4.277 -26.305  1.00  0.00     0.007 C 
HETATM   16  C14 UNL     1      -2.210  -3.446 -25.947  1.00  0.00     0.000 C 
HETATM   17  C15 UNL     1      -3.107  -4.276 -25.055  1.00  0.00     0.000 C 
HETATM   18  C16 UNL     1      -3.626  -5.434 -25.848  1.00  0.00     0.000 C 
HETATM   19  C17 UNL     1      -2.880  -5.602 -27.151  1.00  0.00     0.007 C 
ENDBRANCH  13  14
ENDBRANCH  12  13
ENDBRANCH  10  12
ENDBRANCH   9  10
ENDBRANCH   1   9
BRANCH   6  20
HETATM   20  C6  UNL     1      -0.448 -13.259 -22.808  1.00  0.00     0.080 A 
HETATM   21  C7  UNL     1      -0.749 -12.994 -21.494  1.00  0.00     0.042 A 
HETATM   22  C8  UNL     1      -1.664 -13.924 -21.054  1.00  0.00     0.067 A 
HETATM   23  C9  UNL     1      -1.897 -14.743 -22.131  1.00  0.00     0.183 A 
HETATM   24  O4  UNL     1      -1.173 -14.322 -23.128  1.00  0.00    -0.288 OA
BRANCH  23  25
HETATM   25  O3  UNL     1      -2.762 -15.849 -22.180  1.00  0.00    -0.341 OA
ATOM     26  H3  UNL     1      -3.174 -16.219 -22.952  1.00  0.00     0.220 HD
ENDBRANCH  23  25
ENDBRANCH   6  20
TORSDOF 7
ENDMDL
