MODEL 1
REMARK VINA RESULT: -9.258188800      0.000      0.000
REMARK  5 active torsions:
REMARK  status: ('A' for Active; 'I' for Inactive)
REMARK    1  A    between atoms: C2_3  and  C3_4 
REMARK    2  A    between atoms: C3_4  and  C4_6 
REMARK    3  A    between atoms: C11_14  and  O2_15 
REMARK    4  A    between atoms: C16_21  and  C17_22 
REMARK    5  A    between atoms: C20_27  and  N2_28 
ROOT
HETATM    1  N1  UNL     1      11.680   9.020  -5.414  1.00  0.00    -0.099 NA
HETATM    2  C1  UNL     1      11.005   9.039  -6.673  1.00  0.00     0.094 A 
HETATM    3  C2  UNL     1       9.603   9.164  -6.728  1.00  0.00     0.044 A 
HETATM    4  C10 UNL     1       9.062   9.160  -7.988  1.00  0.00     0.055 A 
HETATM    5  C11 UNL     1       9.806   9.044  -9.167  1.00  0.00     0.080 A 
HETATM    6  C12 UNL     1      11.161   8.927  -9.055  1.00  0.00     0.042 A 
HETATM    7  C13 UNL     1      12.025   8.787 -10.198  1.00  0.00    -0.021 A 
HETATM    8  C14 UNL     1      12.456   9.866 -10.915  1.00  0.00     0.013 A 
HETATM    9  C15 UNL     1      13.311   9.693 -12.000  1.00  0.00     0.019 A 
HETATM   10  C16 UNL     1      13.733   8.422 -12.368  1.00  0.00     0.040 A 
HETATM   11  C18 UNL     1      13.269   7.364 -11.617  1.00  0.00     0.019 A 
HETATM   12  C19 UNL     1      12.425   7.486 -10.535  1.00  0.00     0.013 A 
HETATM   13  C20 UNL     1      11.775   8.923  -7.800  1.00  0.00     0.141 A 
ENDROOT
BRANCH   3  14
HETATM   14  C3  UNL     1       8.876   9.235  -5.492  1.00  0.00     0.194 C 
HETATM   15  O1  UNL     1       9.029  10.331  -4.817  1.00  0.00    -0.287 OA
BRANCH  14  16
HETATM   16  C4  UNL     1       7.997   8.294  -4.859  1.00  0.00     0.015 A 
HETATM   17  C5  UNL     1       6.823   8.679  -4.274  1.00  0.00     0.018 A 
HETATM   18  C6  UNL     1       5.940   7.760  -3.691  1.00  0.00     0.043 A 
HETATM   19  C7  UNL     1       6.282   6.429  -3.715  1.00  0.00     0.116 A 
HETATM   20  F1  UNL     1       5.473   5.486  -3.169  1.00  0.00    -0.206 F 
HETATM   21  C8  UNL     1       7.485   6.041  -4.314  1.00  0.00     0.043 A 
HETATM   22  C9  UNL     1       8.344   6.934  -4.881  1.00  0.00     0.018 A 
ENDBRANCH  14  16
ENDBRANCH   3  14
BRANCH  13  23
HETATM   23  N2  UNL     1      13.196   8.819  -7.680  1.00  0.00    -0.113 N 
HETATM   24  O5  UNL     1      13.855   9.854  -7.594  1.00  0.00    -0.532 OA
HETATM   25  O6  UNL     1      13.841   7.612  -7.655  1.00  0.00    -0.532 OA
ENDBRANCH  13  23
BRANCH   5  26
HETATM   26  O2  UNL     1       9.162   9.049 -10.420  1.00  0.00    -0.360 OA
ATOM     27  H2  UNL     1       9.640   9.285 -11.205  1.00  0.00     0.217 HD
ENDBRANCH   5  26
BRANCH  10  28
HETATM   28  C17 UNL     1      14.642   8.202 -13.506  1.00  0.00     0.209 C 
HETATM   29  O3  UNL     1      15.389   7.189 -13.439  1.00  0.00    -0.644 OA
HETATM   30  O4  UNL     1      14.689   9.037 -14.587  1.00  0.00    -0.644 OA
ENDBRANCH  10  28
TORSDOF 5
ENDMDL
MODEL 2
REMARK VINA RESULT: -9.095753026      0.712      1.250
REMARK  5 active torsions:
REMARK  status: ('A' for Active; 'I' for Inactive)
REMARK    1  A    between atoms: C2_3  and  C3_4 
REMARK    2  A    between atoms: C3_4  and  C4_6 
REMARK    3  A    between atoms: C11_14  and  O2_15 
REMARK    4  A    between atoms: C16_21  and  C17_22 
REMARK    5  A    between atoms: C20_27  and  N2_28 
ROOT
HETATM    1  N1  UNL     1      10.865   9.030  -5.109  1.00  0.00    -0.099 NA
HETATM    2  C1  UNL     1      10.333   9.089  -6.434  1.00  0.00     0.094 A 
HETATM    3  C2  UNL     1       8.959   9.316  -6.641  1.00  0.00     0.044 A 
HETATM    4  C10 UNL     1       8.559   9.342  -7.952  1.00  0.00     0.055 A 
HETATM    5  C11 UNL     1       9.416   9.162  -9.044  1.00  0.00     0.080 A 
HETATM    6  C12 UNL     1      10.739   8.946  -8.785  1.00  0.00     0.042 A 
HETATM    7  C13 UNL     1      11.709   8.733  -9.827  1.00  0.00    -0.021 A 
HETATM    8  C14 UNL     1      12.294   9.772 -10.493  1.00  0.00     0.013 A 
HETATM    9  C15 UNL     1      13.246   9.528 -11.479  1.00  0.00     0.019 A 
HETATM   10  C16 UNL     1      13.609   8.226 -11.799  1.00  0.00     0.040 A 
HETATM   11  C18 UNL     1      12.990   7.211 -11.102  1.00  0.00     0.019 A 
HETATM   12  C19 UNL     1      12.044   7.404 -10.119  1.00  0.00     0.013 A 
HETATM   13  C20 UNL     1      11.211   8.907  -7.470  1.00  0.00     0.141 A 
ENDROOT
BRANCH   3  14
HETATM   14  C3  UNL     1       8.110   9.450  -5.492  1.00  0.00     0.194 C 
HETATM   15  O1  UNL     1       7.964  10.659  -5.043  1.00  0.00    -0.287 OA
BRANCH  14  16
HETATM   16  C4  UNL     1       7.382   8.472  -4.736  1.00  0.00     0.015 A 
HETATM   17  C5  UNL     1       7.455   7.136  -5.019  1.00  0.00     0.018 A 
HETATM   18  C6  UNL     1       6.779   6.172  -4.258  1.00  0.00     0.043 A 
HETATM   19  C7  UNL     1       6.021   6.601  -3.195  1.00  0.00     0.116 A 
HETATM   20  F1  UNL     1       5.341   5.721  -2.417  1.00  0.00    -0.206 F 
HETATM   21  C8  UNL     1       5.950   7.968  -2.911  1.00  0.00     0.043 A 
HETATM   22  C9  UNL     1       6.606   8.907  -3.650  1.00  0.00     0.018 A 
ENDBRANCH  14  16
ENDBRANCH   3  14
BRANCH  13  23
HETATM   23  N2  UNL     1      12.599   8.699  -7.197  1.00  0.00    -0.113 N 
HETATM   24  O5  UNL     1      12.995   7.549  -7.011  1.00  0.00    -0.532 OA
HETATM   25  O6  UNL     1      13.494   9.732  -7.137  1.00  0.00    -0.532 OA
ENDBRANCH  13  23
BRANCH   5  26
HETATM   26  O2  UNL     1       8.914   9.204 -10.359  1.00  0.00    -0.360 OA
ATOM     27  H2  UNL     1       9.241   8.604 -11.018  1.00  0.00     0.217 HD
ENDBRANCH   5  26
BRANCH  10  28
HETATM   28  C17 UNL     1      14.618   7.930 -12.831  1.00  0.00     0.209 C 
HETATM   29  O3  UNL     1      15.113   6.772 -12.815  1.00  0.00    -0.644 OA
HETATM   30  O4  UNL     1      15.010   8.847 -13.766  1.00  0.00    -0.644 OA
ENDBRANCH  10  28
TORSDOF 5
ENDMDL
MODEL 3
REMARK VINA RESULT: -8.754818311      3.371      4.001
REMARK  5 active torsions:
REMARK  status: ('A' for Active; 'I' for Inactive)
REMARK    1  A    between atoms: C2_3  and  C3_4 
REMARK    2  A    between atoms: C3_4  and  C4_6 
REMARK    3  A    between atoms: C11_14  and  O2_15 
REMARK    4  A    between atoms: C16_21  and  C17_22 
REMARK    5  A    between atoms: C20_27  and  N2_28 
ROOT
HETATM    1  N1  UNL     1      10.264   9.306  -7.262  1.00  0.00    -0.099 NA
HETATM    2  C1  UNL     1      10.249   9.448  -8.683  1.00  0.00     0.094 A 
HETATM    3  C2  UNL     1       9.118   9.978  -9.334  1.00  0.00     0.044 A 
HETATM    4  C10 UNL     1       9.210  10.059 -10.700  1.00  0.00     0.055 A 
HETATM    5  C11 UNL     1      10.328   9.658 -11.442  1.00  0.00     0.080 A 
HETATM    6  C12 UNL     1      11.396   9.152 -10.759  1.00  0.00     0.042 A 
HETATM    7  C13 UNL     1      12.591   8.694 -11.418  1.00  0.00    -0.021 A 
HETATM    8  C14 UNL     1      13.587   9.552 -11.787  1.00  0.00     0.013 A 
HETATM    9  C15 UNL     1      14.739   9.069 -12.401  1.00  0.00     0.019 A 
HETATM   10  C16 UNL     1      14.889   7.711 -12.647  1.00  0.00     0.040 A 
HETATM   11  C18 UNL     1      13.856   6.884 -12.259  1.00  0.00     0.019 A 
HETATM   12  C19 UNL     1      12.699   7.315 -11.648  1.00  0.00     0.013 A 
HETATM   13  C20 UNL     1      11.365   9.041  -9.366  1.00  0.00     0.141 A 
ENDROOT
BRANCH   3  14
HETATM   14  C3  UNL     1       7.978  10.335  -8.538  1.00  0.00     0.194 C 
HETATM   15  O1  UNL     1       7.107   9.391  -8.355  1.00  0.00    -0.287 OA
BRANCH  14  16
HETATM   16  C4  UNL     1       7.623  11.569  -7.897  1.00  0.00     0.015 A 
HETATM   17  C5  UNL     1       7.273  11.626  -6.577  1.00  0.00     0.018 A 
HETATM   18  C6  UNL     1       6.965  12.834  -5.936  1.00  0.00     0.043 A 
HETATM   19  C7  UNL     1       7.022  13.992  -6.674  1.00  0.00     0.116 A 
HETATM   20  F1  UNL     1       6.737  15.195  -6.116  1.00  0.00    -0.206 F 
HETATM   21  C8  UNL     1       7.380  13.927  -8.025  1.00  0.00     0.043 A 
HETATM   22  C9  UNL     1       7.679  12.753  -8.650  1.00  0.00     0.018 A 
ENDBRANCH  14  16
ENDBRANCH   3  14
BRANCH  13  23
HETATM   23  N2  UNL     1      12.489   8.529  -8.647  1.00  0.00    -0.113 N 
HETATM   24  O5  UNL     1      13.384   9.309  -8.324  1.00  0.00    -0.532 OA
HETATM   25  O6  UNL     1      12.599   7.208  -8.307  1.00  0.00    -0.532 OA
ENDBRANCH  13  23
BRANCH   5  26
HETATM   26  O2  UNL     1      10.332   9.778 -12.844  1.00  0.00    -0.360 OA
ATOM     27  H2  UNL     1      11.006   9.353 -13.361  1.00  0.00     0.217 HD
ENDBRANCH   5  26
BRANCH  10  28
HETATM   28  C17 UNL     1      16.097   7.163 -13.287  1.00  0.00     0.209 C 
HETATM   29  O3  UNL     1      17.016   6.779 -12.516  1.00  0.00    -0.644 OA
HETATM   30  O4  UNL     1      16.235   7.067 -14.643  1.00  0.00    -0.644 OA
ENDBRANCH  10  28
TORSDOF 5
ENDMDL
MODEL 4
REMARK VINA RESULT: -8.713646633      1.336      2.573
REMARK  5 active torsions:
REMARK  status: ('A' for Active; 'I' for Inactive)
REMARK    1  A    between atoms: C2_3  and  C3_4 
REMARK    2  A    between atoms: C3_4  and  C4_6 
REMARK    3  A    between atoms: C11_14  and  O2_15 
REMARK    4  A    between atoms: C16_21  and  C17_22 
REMARK    5  A    between atoms: C20_27  and  N2_28 
ROOT
HETATM    1  N1  UNL     1       7.993   9.748  -7.856  1.00  0.00    -0.099 NA
HETATM    2  C1  UNL     1       9.363   9.377  -7.700  1.00  0.00     0.094 A 
HETATM    3  C2  UNL     1       9.882   9.088  -6.423  1.00  0.00     0.044 A 
HETATM    4  C10 UNL     1      11.212   8.754  -6.392  1.00  0.00     0.055 A 
HETATM    5  C11 UNL     1      12.038   8.688  -7.520  1.00  0.00     0.080 A 
HETATM    6  C12 UNL     1      11.481   8.978  -8.733  1.00  0.00     0.042 A 
HETATM    7  C13 UNL     1      12.237   8.957  -9.958  1.00  0.00    -0.021 A 
HETATM    8  C14 UNL     1      12.463   7.801 -10.649  1.00  0.00     0.013 A 
HETATM    9  C15 UNL     1      13.179   7.824 -11.843  1.00  0.00     0.019 A 
HETATM   10  C16 UNL     1      13.672   9.022 -12.344  1.00  0.00     0.040 A 
HETATM   11  C18 UNL     1      13.421  10.162 -11.610  1.00  0.00     0.019 A 
HETATM   12  C19 UNL     1      12.718  10.188 -10.426  1.00  0.00     0.013 A 
HETATM   13  C20 UNL     1      10.132   9.327  -8.833  1.00  0.00     0.141 A 
ENDROOT
BRANCH   3  14
HETATM   14  C3  UNL     1       9.011   9.211  -5.290  1.00  0.00     0.194 C 
HETATM   15  O1  UNL     1       9.118  10.317  -4.621  1.00  0.00    -0.287 OA
BRANCH  14  16
HETATM   16  C4  UNL     1       8.027   8.315  -4.753  1.00  0.00     0.015 A 
HETATM   17  C5  UNL     1       6.901   8.767  -4.124  1.00  0.00     0.018 A 
HETATM   18  C6  UNL     1       5.916   7.898  -3.635  1.00  0.00     0.043 A 
HETATM   19  C7  UNL     1       6.104   6.547  -3.803  1.00  0.00     0.116 A 
HETATM   20  F1  UNL     1       5.191   5.650  -3.354  1.00  0.00    -0.206 F 
HETATM   21  C8  UNL     1       7.259   6.090  -4.447  1.00  0.00     0.043 A 
HETATM   22  C9  UNL     1       8.217   6.934  -4.922  1.00  0.00     0.018 A 
ENDBRANCH  14  16
ENDBRANCH   3  14
BRANCH  13  23
HETATM   23  N2  UNL     1       9.542   9.612 -10.104  1.00  0.00    -0.113 N 
HETATM   24  O5  UNL     1       9.077   8.680 -10.758  1.00  0.00    -0.532 OA
HETATM   25  O6  UNL     1       9.477  10.882 -10.610  1.00  0.00    -0.532 OA
ENDBRANCH  13  23
BRANCH   5  26
HETATM   26  O2  UNL     1      13.395   8.335  -7.391  1.00  0.00    -0.360 OA
ATOM     27  H2  UNL     1      13.852   7.915  -8.109  1.00  0.00     0.217 HD
ENDBRANCH   5  26
BRANCH  10  28
HETATM   28  C17 UNL     1      14.427   9.086 -13.607  1.00  0.00     0.209 C 
HETATM   29  O3  UNL     1      15.646   8.774 -13.549  1.00  0.00    -0.644 OA
HETATM   30  O4  UNL     1      13.855   9.460 -14.791  1.00  0.00    -0.644 OA
ENDBRANCH  10  28
TORSDOF 5
ENDMDL
MODEL 5
REMARK VINA RESULT: -8.705672997      1.363      2.737
REMARK  5 active torsions:
REMARK  status: ('A' for Active; 'I' for Inactive)
REMARK    1  A    between atoms: C2_3  and  C3_4 
REMARK    2  A    between atoms: C3_4  and  C4_6 
REMARK    3  A    between atoms: C11_14  and  O2_15 
REMARK    4  A    between atoms: C16_21  and  C17_22 
REMARK    5  A    between atoms: C20_27  and  N2_28 
ROOT
HETATM    1  N1  UNL     1       8.111   9.907  -7.722  1.00  0.00    -0.099 NA
HETATM    2  C1  UNL     1       9.400   9.327  -7.513  1.00  0.00     0.094 A 
HETATM    3  C2  UNL     1       9.819   8.969  -6.217  1.00  0.00     0.044 A 
HETATM    4  C10 UNL     1      11.077   8.431  -6.134  1.00  0.00     0.055 A 
HETATM    5  C11 UNL     1      11.925   8.229  -7.230  1.00  0.00     0.080 A 
HETATM    6  C12 UNL     1      11.467   8.594  -8.463  1.00  0.00     0.042 A 
HETATM    7  C13 UNL     1      12.256   8.447  -9.658  1.00  0.00    -0.021 A 
HETATM    8  C14 UNL     1      12.325   7.265 -10.339  1.00  0.00     0.013 A 
HETATM    9  C15 UNL     1      13.080   7.168 -11.504  1.00  0.00     0.019 A 
HETATM   10  C16 UNL     1      13.774   8.269 -11.987  1.00  0.00     0.040 A 
HETATM   11  C18 UNL     1      13.677   9.440 -11.265  1.00  0.00     0.019 A 
HETATM   12  C19 UNL     1      12.942   9.584 -10.108  1.00  0.00     0.013 A 
HETATM   13  C20 UNL     1      10.194   9.149  -8.616  1.00  0.00     0.141 A 
ENDROOT
BRANCH   3  14
HETATM   14  C3  UNL     1       8.935   9.235  -5.118  1.00  0.00     0.194 C 
HETATM   15  O1  UNL     1       9.159  10.339  -4.476  1.00  0.00    -0.287 OA
BRANCH  14  16
HETATM   16  C4  UNL     1       7.831   8.485  -4.592  1.00  0.00     0.015 A 
HETATM   17  C5  UNL     1       7.657   7.158  -4.870  1.00  0.00     0.018 A 
HETATM   18  C6  UNL     1       6.603   6.411  -4.326  1.00  0.00     0.043 A 
HETATM   19  C7  UNL     1       5.723   7.050  -3.485  1.00  0.00     0.116 A 
HETATM   20  F1  UNL     1       4.681   6.386  -2.923  1.00  0.00    -0.206 F 
HETATM   21  C8  UNL     1       5.905   8.408  -3.205  1.00  0.00     0.043 A 
HETATM   22  C9  UNL     1       6.929   9.135  -3.734  1.00  0.00     0.018 A 
ENDBRANCH  14  16
ENDBRANCH   3  14
BRANCH  13  23
HETATM   23  N2  UNL     1       9.705   9.515  -9.908  1.00  0.00    -0.113 N 
HETATM   24  O5  UNL     1       9.142   8.657 -10.587  1.00  0.00    -0.532 OA
HETATM   25  O6  UNL     1       9.839  10.781 -10.409  1.00  0.00    -0.532 OA
ENDBRANCH  13  23
BRANCH   5  26
HETATM   26  O2  UNL     1      13.204   7.669  -7.048  1.00  0.00    -0.360 OA
ATOM     27  H2  UNL     1      13.581   7.106  -7.713  1.00  0.00     0.217 HD
ENDBRANCH   5  26
BRANCH  10  28
HETATM   28  C17 UNL     1      14.576   8.206 -13.221  1.00  0.00     0.209 C 
HETATM   29  O3  UNL     1      14.425   9.153 -14.037  1.00  0.00    -0.644 OA
HETATM   30  O4  UNL     1      15.445   7.184 -13.484  1.00  0.00    -0.644 OA
ENDBRANCH  10  28
TORSDOF 5
ENDMDL
