MODEL 1
REMARK VINA RESULT: -7.625631206      0.000      0.000
REMARK  8 active torsions:
REMARK  status: ('A' for Active; 'I' for Inactive)
REMARK    1  A    between atoms: C2_2  and  O1_3 
REMARK    2  A    between atoms: O1_3  and  C3_4 
REMARK    3  A    between atoms: C3_4  and  C4_6 
REMARK    4  A    between atoms: C5_7  and  N1_8 
REMARK    5  A    between atoms: N1_8  and  C6_10 
REMARK    6  A    between atoms: C6_10  and  C7_14 
REMARK    7  A    between atoms: C7_14  and  C8_15 
REMARK    8  A    between atoms: C8_15  and  O4_17 
ROOT
HETATM    1  C4  UNL     1      13.094   8.769  -9.456  1.00  0.00     0.080 A 
HETATM    2  C5  UNL     1      13.858   7.782 -10.041  1.00  0.00     0.092 A 
HETATM    3  S1  UNL     1      13.421   7.906 -11.711  1.00  0.00    -0.072 SA
HETATM    4  C10 UNL     1      12.313   9.176 -11.611  1.00  0.00     0.029 A 
HETATM    5  C11 UNL     1      12.295   9.487 -10.279  1.00  0.00    -0.020 A 
HETATM    6  C12 UNL     1      11.336  10.611  -9.950  1.00  0.00     0.070 C 
HETATM    7  C13 UNL     1      10.027  10.427 -10.674  1.00  0.00     0.024 C 
HETATM    8  C14 UNL     1       9.142   9.446  -9.930  1.00  0.00     0.038 C 
HETATM    9  C15 UNL     1       9.318  11.766 -10.635  1.00  0.00     0.038 C 
HETATM   10  N3  UNL     1      10.127  10.009 -12.020  1.00  0.00    -0.393 N 
ATOM     11  H3  UNL     1       9.307   9.758 -12.571  1.00  0.00     0.155 HD
HETATM   12  C16 UNL     1      11.445   9.961 -12.559  1.00  0.00     0.216 C 
HETATM   13 CL1  UNL     1      12.099  11.557 -12.890  1.00  0.00    -0.097 Cl
ENDROOT
BRANCH   2  14
HETATM   14  N1  UNL     1      14.789   6.861  -9.471  1.00  0.00    -0.339 N 
ATOM     15  H1  UNL     1      15.760   7.133  -9.323  1.00  0.00     0.167 HD
BRANCH  14  16
HETATM   16  C6  UNL     1      14.343   5.560  -9.113  1.00  0.00     0.085 C 
HETATM   17  N2  UNL     1      13.300   5.484  -8.311  1.00  0.00    -0.388 N 
ATOM     18  H22 UNL     1      12.891   6.364  -7.995  1.00  0.00     0.157 HD
ATOM     19  H21 UNL     1      12.980   4.551  -8.054  1.00  0.00     0.157 HD
BRANCH  16  20
HETATM   20  C7  UNL     1      14.928   4.299  -9.565  1.00  0.00     0.187 C 
BRANCH  20  21
HETATM   21  C8  UNL     1      14.685   3.170  -8.641  1.00  0.00     0.265 C 
HETATM   22  O3  UNL     1      13.774   2.365  -8.814  1.00  0.00    -0.265 OA
BRANCH  21  23
HETATM   23  O4  UNL     1      15.503   2.993  -7.528  1.00  0.00    -0.326 OA
HETATM   24  C9  UNL     1      14.951   2.976  -6.210  1.00  0.00     0.213 C 
ENDBRANCH  21  23
ENDBRANCH  20  21
ENDBRANCH  16  20
ENDBRANCH  14  16
ENDBRANCH   2  14
BRANCH   1  25
HETATM   25  C3  UNL     1      13.211   8.983  -7.977  1.00  0.00     0.296 C 
HETATM   26  O2  UNL     1      13.919   9.884  -7.479  1.00  0.00    -0.259 OA
BRANCH  25  27
HETATM   27  O1  UNL     1      12.541   8.201  -7.052  1.00  0.00    -0.318 OA
BRANCH  27  28
HETATM   28  C2  UNL     1      11.142   8.111  -7.007  1.00  0.00     0.174 C 
HETATM   29  C1  UNL     1      10.465   9.295  -6.406  1.00  0.00     0.034 C 
ENDBRANCH  27  28
ENDBRANCH  25  27
ENDBRANCH   1  25
TORSDOF 8
ENDMDL
MODEL 2
REMARK VINA RESULT: -7.317343397      2.547      4.960
REMARK  8 active torsions:
REMARK  status: ('A' for Active; 'I' for Inactive)
REMARK    1  A    between atoms: C2_2  and  O1_3 
REMARK    2  A    between atoms: O1_3  and  C3_4 
REMARK    3  A    between atoms: C3_4  and  C4_6 
REMARK    4  A    between atoms: C5_7  and  N1_8 
REMARK    5  A    between atoms: N1_8  and  C6_10 
REMARK    6  A    between atoms: C6_10  and  C7_14 
REMARK    7  A    between atoms: C7_14  and  C8_15 
REMARK    8  A    between atoms: C8_15  and  O4_17 
ROOT
HETATM    1  C4  UNL     1      13.907   7.087 -10.173  1.00  0.00     0.080 A 
HETATM    2  C5  UNL     1      13.623   7.651  -8.948  1.00  0.00     0.092 A 
HETATM    3  S1  UNL     1      13.156   9.262  -9.372  1.00  0.00    -0.072 SA
HETATM    4  C10 UNL     1      13.332   9.167 -11.048  1.00  0.00     0.029 A 
HETATM    5  C11 UNL     1      13.753   7.882 -11.257  1.00  0.00    -0.020 A 
HETATM    6  C12 UNL     1      13.996   7.573 -12.719  1.00  0.00     0.070 C 
HETATM    7  C13 UNL     1      14.736   8.702 -13.389  1.00  0.00     0.024 C 
HETATM    8  C14 UNL     1      16.223   8.599 -13.114  1.00  0.00     0.038 C 
HETATM    9  C15 UNL     1      14.557   8.512 -14.882  1.00  0.00     0.038 C 
HETATM   10  N3  UNL     1      14.305  10.003 -13.046  1.00  0.00    -0.393 N 
ATOM     11  H3  UNL     1      14.800  10.837 -13.361  1.00  0.00     0.155 HD
HETATM   12  C16 UNL     1      13.138  10.077 -12.232  1.00  0.00     0.216 C 
HETATM   13 CL1  UNL     1      11.670   9.706 -13.121  1.00  0.00    -0.097 Cl
ENDROOT
BRANCH   2  14
HETATM   14  N1  UNL     1      13.681   7.100  -7.631  1.00  0.00    -0.339 N 
ATOM     15  H1  UNL     1      14.577   6.986  -7.157  1.00  0.00     0.167 HD
BRANCH  14  16
HETATM   16  C6  UNL     1      12.473   6.716  -6.989  1.00  0.00     0.085 C 
HETATM   17  N2  UNL     1      11.595   6.053  -7.713  1.00  0.00    -0.388 N 
ATOM     18  H22 UNL     1      11.838   5.870  -8.686  1.00  0.00     0.157 HD
ATOM     19  H21 UNL     1      10.728   5.777  -7.252  1.00  0.00     0.157 HD
BRANCH  16  20
HETATM   20  C7  UNL     1      12.124   6.978  -5.593  1.00  0.00     0.187 C 
BRANCH  20  21
HETATM   21  C8  UNL     1      12.530   8.321  -5.125  1.00  0.00     0.265 C 
HETATM   22  O3  UNL     1      12.492   9.309  -5.853  1.00  0.00    -0.265 OA
BRANCH  21  23
HETATM   23  O4  UNL     1      12.977   8.497  -3.817  1.00  0.00    -0.326 OA
HETATM   24  C9  UNL     1      12.914   7.427  -2.874  1.00  0.00     0.213 C 
ENDBRANCH  21  23
ENDBRANCH  20  21
ENDBRANCH  16  20
ENDBRANCH  14  16
ENDBRANCH   2  14
BRANCH   1  25
HETATM   25  C3  UNL     1      14.345   5.654 -10.218  1.00  0.00     0.296 C 
HETATM   26  O2  UNL     1      15.202   5.236 -11.023  1.00  0.00    -0.259 OA
BRANCH  25  27
HETATM   27  O1  UNL     1      13.835   4.688  -9.367  1.00  0.00    -0.318 OA
BRANCH  27  28
HETATM   28  C2  UNL     1      14.602   3.612  -8.896  1.00  0.00     0.174 C 
HETATM   29  C1  UNL     1      14.577   3.437  -7.416  1.00  0.00     0.034 C 
ENDBRANCH  27  28
ENDBRANCH  25  27
ENDBRANCH   1  25
TORSDOF 8
ENDMDL
MODEL 3
REMARK VINA RESULT: -7.307039387      3.326      6.277
REMARK  8 active torsions:
REMARK  status: ('A' for Active; 'I' for Inactive)
REMARK    1  A    between atoms: C2_2  and  O1_3 
REMARK    2  A    between atoms: O1_3  and  C3_4 
REMARK    3  A    between atoms: C3_4  and  C4_6 
REMARK    4  A    between atoms: C5_7  and  N1_8 
REMARK    5  A    between atoms: N1_8  and  C6_10 
REMARK    6  A    between atoms: C6_10  and  C7_14 
REMARK    7  A    between atoms: C7_14  and  C8_15 
REMARK    8  A    between atoms: C8_15  and  O4_17 
ROOT
HETATM    1  C4  UNL     1      13.214   7.952 -11.220  1.00  0.00     0.080 A 
HETATM    2  C5  UNL     1      12.671   9.068 -10.621  1.00  0.00     0.092 A 
HETATM    3  S1  UNL     1      13.004  10.315 -11.772  1.00  0.00    -0.072 SA
HETATM    4  C10 UNL     1      13.801   9.400 -12.946  1.00  0.00     0.029 A 
HETATM    5  C11 UNL     1      13.799   8.134 -12.426  1.00  0.00    -0.020 A 
HETATM    6  C12 UNL     1      14.492   7.130 -13.322  1.00  0.00     0.070 C 
HETATM    7  C13 UNL     1      15.780   7.695 -13.863  1.00  0.00     0.024 C 
HETATM    8  C14 UNL     1      16.891   7.558 -12.841  1.00  0.00     0.038 C 
HETATM    9  C15 UNL     1      16.170   6.829 -15.045  1.00  0.00     0.038 C 
HETATM   10  N3  UNL     1      15.725   9.041 -14.289  1.00  0.00    -0.393 N 
ATOM     11  H3  UNL     1      16.560   9.551 -14.577  1.00  0.00     0.155 HD
HETATM   12  C16 UNL     1      14.433   9.640 -14.292  1.00  0.00     0.216 C 
HETATM   13 CL1  UNL     1      13.424   9.066 -15.610  1.00  0.00    -0.097 Cl
ENDROOT
BRANCH   2  14
HETATM   14  N1  UNL     1      11.994   9.221  -9.372  1.00  0.00    -0.339 N 
ATOM     15  H1  UNL     1      12.500   9.539  -8.546  1.00  0.00     0.167 HD
BRANCH  14  16
HETATM   16  C6  UNL     1      10.606   8.924  -9.297  1.00  0.00     0.085 C 
HETATM   17  N2  UNL     1      10.214   8.137  -8.316  1.00  0.00    -0.388 N 
ATOM     18  H22 UNL     1      10.935   7.787  -7.684  1.00  0.00     0.157 HD
ATOM     19  H21 UNL     1       9.218   7.924  -8.262  1.00  0.00     0.157 HD
BRANCH  16  20
HETATM   20  C7  UNL     1       9.573   9.425 -10.202  1.00  0.00     0.187 C 
BRANCH  20  21
HETATM   21  C8  UNL     1       8.450  10.089  -9.505  1.00  0.00     0.265 C 
HETATM   22  O3  UNL     1       7.625   9.463  -8.847  1.00  0.00    -0.265 OA
BRANCH  21  23
HETATM   23  O4  UNL     1       8.301  11.472  -9.585  1.00  0.00    -0.326 OA
HETATM   24  C9  UNL     1       9.143  12.250 -10.437  1.00  0.00     0.213 C 
ENDBRANCH  21  23
ENDBRANCH  20  21
ENDBRANCH  16  20
ENDBRANCH  14  16
ENDBRANCH   2  14
BRANCH   1  25
HETATM   25  C3  UNL     1      13.108   6.635 -10.512  1.00  0.00     0.296 C 
HETATM   26  O2  UNL     1      13.249   5.541 -11.097  1.00  0.00    -0.259 OA
BRANCH  25  27
HETATM   27  O1  UNL     1      12.849   6.533  -9.156  1.00  0.00    -0.318 OA
BRANCH  27  28
HETATM   28  C2  UNL     1      13.850   6.258  -8.211  1.00  0.00     0.174 C 
HETATM   29  C1  UNL     1      13.751   4.912  -7.579  1.00  0.00     0.034 C 
ENDBRANCH  27  28
ENDBRANCH  25  27
ENDBRANCH   1  25
TORSDOF 8
ENDMDL
MODEL 4
REMARK VINA RESULT: -7.234554441      3.930      7.784
REMARK  8 active torsions:
REMARK  status: ('A' for Active; 'I' for Inactive)
REMARK    1  A    between atoms: C2_2  and  O1_3 
REMARK    2  A    between atoms: O1_3  and  C3_4 
REMARK    3  A    between atoms: C3_4  and  C4_6 
REMARK    4  A    between atoms: C5_7  and  N1_8 
REMARK    5  A    between atoms: N1_8  and  C6_10 
REMARK    6  A    between atoms: C6_10  and  C7_14 
REMARK    7  A    between atoms: C7_14  and  C8_15 
REMARK    8  A    between atoms: C8_15  and  O4_17 
ROOT
HETATM    1  C4  UNL     1      11.827   9.431 -11.373  1.00  0.00     0.080 A 
HETATM    2  C5  UNL     1      10.552   9.669 -10.907  1.00  0.00     0.092 A 
HETATM    3  S1  UNL     1      10.464   8.652  -9.510  1.00  0.00    -0.072 SA
HETATM    4  C10 UNL     1      12.010   7.977  -9.564  1.00  0.00     0.029 A 
HETATM    5  C11 UNL     1      12.576   8.551 -10.669  1.00  0.00    -0.020 A 
HETATM    6  C12 UNL     1      13.987   8.067 -10.926  1.00  0.00     0.070 C 
HETATM    7  C13 UNL     1      14.081   6.573 -10.749  1.00  0.00     0.024 C 
HETATM    8  C14 UNL     1      13.604   5.860 -11.999  1.00  0.00     0.038 C 
HETATM    9  C15 UNL     1      15.554   6.246 -10.600  1.00  0.00     0.038 C 
HETATM   10  N3  UNL     1      13.388   6.044  -9.638  1.00  0.00    -0.393 N 
ATOM     11  H3  UNL     1      13.301   5.040  -9.482  1.00  0.00     0.155 HD
HETATM   12  C16 UNL     1      12.817   7.001  -8.749  1.00  0.00     0.216 C 
HETATM   13 CL1  UNL     1      14.022   7.803  -7.755  1.00  0.00    -0.097 Cl
ENDROOT
BRANCH   2  14
HETATM   14  N1  UNL     1       9.521  10.524 -11.404  1.00  0.00    -0.339 N 
ATOM     15  H1  UNL     1       9.162  10.404 -12.351  1.00  0.00     0.167 HD
BRANCH  14  16
HETATM   16  C6  UNL     1       9.002  11.544 -10.561  1.00  0.00     0.085 C 
HETATM   17  N2  UNL     1       7.999  11.216  -9.773  1.00  0.00    -0.388 N 
ATOM     18  H22 UNL     1       7.658  10.257  -9.829  1.00  0.00     0.157 HD
ATOM     19  H21 UNL     1       7.627  11.948  -9.168  1.00  0.00     0.157 HD
BRANCH  16  20
HETATM   20  C7  UNL     1       9.491  12.919 -10.481  1.00  0.00     0.187 C 
BRANCH  20  21
HETATM   21  C8  UNL     1       8.581  13.828  -9.750  1.00  0.00     0.265 C 
HETATM   22  O3  UNL     1       7.726  14.498 -10.321  1.00  0.00    -0.265 OA
BRANCH  21  23
HETATM   23  O4  UNL     1       8.679  13.945  -8.365  1.00  0.00    -0.326 OA
HETATM   24  C9  UNL     1       7.510  14.097  -7.559  1.00  0.00     0.213 C 
ENDBRANCH  21  23
ENDBRANCH  20  21
ENDBRANCH  16  20
ENDBRANCH  14  16
ENDBRANCH   2  14
BRANCH   1  25
HETATM   25  C3  UNL     1      12.291  10.162 -12.597  1.00  0.00     0.296 C 
HETATM   26  O2  UNL     1      11.558  10.951 -13.230  1.00  0.00    -0.259 OA
BRANCH  25  27
HETATM   27  O1  UNL     1      13.566  10.020 -13.115  1.00  0.00    -0.318 OA
BRANCH  27  28
HETATM   28  C2  UNL     1      13.817   9.421 -14.359  1.00  0.00     0.174 C 
HETATM   29  C1  UNL     1      15.109   8.682 -14.440  1.00  0.00     0.034 C 
ENDBRANCH  27  28
ENDBRANCH  25  27
ENDBRANCH   1  25
TORSDOF 8
ENDMDL
MODEL 5
REMARK VINA RESULT: -7.198745274      2.357      5.238
REMARK  8 active torsions:
REMARK  status: ('A' for Active; 'I' for Inactive)
REMARK    1  A    between atoms: C2_2  and  O1_3 
REMARK    2  A    between atoms: O1_3  and  C3_4 
REMARK    3  A    between atoms: C3_4  and  C4_6 
REMARK    4  A    between atoms: C5_7  and  N1_8 
REMARK    5  A    between atoms: N1_8  and  C6_10 
REMARK    6  A    between atoms: C6_10  and  C7_14 
REMARK    7  A    between atoms: C7_14  and  C8_15 
REMARK    8  A    between atoms: C8_15  and  O4_17 
ROOT
HETATM    1  C4  UNL     1      13.925   7.120 -10.338  1.00  0.00     0.080 A 
HETATM    2  C5  UNL     1      13.676   7.658  -9.095  1.00  0.00     0.092 A 
HETATM    3  S1  UNL     1      13.213   9.282  -9.471  1.00  0.00    -0.072 SA
HETATM    4  C10 UNL     1      13.349   9.223 -11.152  1.00  0.00     0.029 A 
HETATM    5  C11 UNL     1      13.754   7.940 -11.401  1.00  0.00    -0.020 A 
HETATM    6  C12 UNL     1      13.959   7.663 -12.874  1.00  0.00     0.070 C 
HETATM    7  C13 UNL     1      14.693   8.801 -13.535  1.00  0.00     0.024 C 
HETATM    8  C14 UNL     1      16.186   8.679 -13.298  1.00  0.00     0.038 C 
HETATM    9  C15 UNL     1      14.478   8.646 -15.028  1.00  0.00     0.038 C 
HETATM   10  N3  UNL     1      14.283  10.097 -13.153  1.00  0.00    -0.393 N 
ATOM     11  H3  UNL     1      14.777  10.934 -13.461  1.00  0.00     0.155 HD
HETATM   12  C16 UNL     1      13.136  10.162 -12.311  1.00  0.00     0.216 C 
HETATM   13 CL1  UNL     1      11.643   9.824 -13.173  1.00  0.00    -0.097 Cl
ENDROOT
BRANCH   2  14
HETATM   14  N1  UNL     1      13.759   7.077  -7.792  1.00  0.00    -0.339 N 
ATOM     15  H1  UNL     1      14.665   6.830  -7.393  1.00  0.00     0.167 HD
BRANCH  14  16
HETATM   16  C6  UNL     1      12.564   6.848  -7.059  1.00  0.00     0.085 C 
HETATM   17  N2  UNL     1      11.780   5.876  -7.480  1.00  0.00    -0.388 N 
ATOM     18  H22 UNL     1      12.081   5.362  -8.307  1.00  0.00     0.157 HD
ATOM     19  H21 UNL     1      10.922   5.712  -6.953  1.00  0.00     0.157 HD
BRANCH  16  20
HETATM   20  C7  UNL     1      12.133   7.585  -5.872  1.00  0.00     0.187 C 
BRANCH  20  21
HETATM   21  C8  UNL     1      11.172   8.671  -6.168  1.00  0.00     0.265 C 
HETATM   22  O3  UNL     1      11.052   9.655  -5.445  1.00  0.00    -0.265 OA
BRANCH  21  23
HETATM   23  O4  UNL     1      10.363   8.595  -7.300  1.00  0.00    -0.326 OA
HETATM   24  C9  UNL     1       9.219   9.439  -7.439  1.00  0.00     0.213 C 
ENDBRANCH  21  23
ENDBRANCH  20  21
ENDBRANCH  16  20
ENDBRANCH  14  16
ENDBRANCH   2  14
BRANCH   1  25
HETATM   25  C3  UNL     1      14.349   5.684 -10.426  1.00  0.00     0.296 C 
HETATM   26  O2  UNL     1      15.126   5.263 -11.308  1.00  0.00    -0.259 OA
BRANCH  25  27
HETATM   27  O1  UNL     1      13.915   4.719  -9.534  1.00  0.00    -0.318 OA
BRANCH  27  28
HETATM   28  C2  UNL     1      14.762   3.727  -9.018  1.00  0.00     0.174 C 
HETATM   29  C1  UNL     1      14.485   3.354  -7.602  1.00  0.00     0.034 C 
ENDBRANCH  27  28
ENDBRANCH  25  27
ENDBRANCH   1  25
TORSDOF 8
ENDMDL
