MODEL 1
REMARK VINA RESULT: -7.718773563      0.000      0.000
REMARK  9 active torsions:
REMARK  status: ('A' for Active; 'I' for Inactive)
REMARK    1  A    between atoms: C2_2  and  C3_3 
REMARK    2  A    between atoms: C8_8  and  N1_9 
REMARK    3  A    between atoms: N1_9  and  C9_10 
REMARK    4  A    between atoms: C10_13  and  N3_14 
REMARK    5  A    between atoms: N3_14  and  C11_16 
REMARK    6  A    between atoms: C11_16  and  C12_17 
REMARK    7  A    between atoms: C12_17  and  C13_18 
REMARK    8  A    between atoms: C19_26  and  N5_27 
REMARK    9  A    between atoms: N5_27  and  C20_29 
ROOT
HETATM    1  C9  UNL     1     -15.776 -49.749  13.363  1.00  0.00     0.288 A 
HETATM    2  N2  UNL     1     -14.883 -49.245  12.436  1.00  0.00    -0.148 N 
ATOM      3  H2  UNL     1     -15.262 -48.784  11.609  1.00  0.00     0.188 HD
HETATM    4  C10 UNL     1     -13.564 -49.322  12.556  1.00  0.00     0.696 A 
HETATM    5  N4  UNL     1     -13.103 -49.943  13.668  1.00  0.00    -0.022 N 
ATOM      6  H4  UNL     1     -12.095 -50.025  13.798  1.00  0.00     0.203 HD
HETATM    7  C19 UNL     1     -13.910 -50.450  14.599  1.00  0.00     0.702 A 
HETATM    8  N8  UNL     1     -15.225 -50.366  14.468  1.00  0.00    -0.148 N 
ATOM      9  H8  UNL     1     -15.833 -50.759  15.187  1.00  0.00     0.188 HD
ENDROOT
BRANCH   7  10
HETATM   10  N5  UNL     1     -13.411 -51.025  15.629  1.00  0.00    -0.174 N 
ATOM     11  H5  UNL     1     -13.437 -50.526  16.518  1.00  0.00     0.186 HD
BRANCH  10  12
HETATM   12  C20 UNL     1     -12.831 -52.297  15.604  1.00  0.00     0.148 A 
HETATM   13  N6  UNL     1     -13.337 -53.516  15.364  1.00  0.00    -0.284 N 
HETATM   14  N7  UNL     1     -12.404 -54.439  15.451  1.00  0.00    -0.298 N 
ATOM     15  H6  UNL     1     -14.315 -53.702  15.143  1.00  0.00     0.188 HD
HETATM   16  C21 UNL     1     -11.219 -53.869  15.758  1.00  0.00     0.062 A 
ATOM     17  H7  UNL     1     -12.553 -55.438  15.307  1.00  0.00     0.187 HD
HETATM   18  C22 UNL     1      -9.955 -54.385  15.958  1.00  0.00     0.032 A 
HETATM   19  C26 UNL     1     -11.471 -52.505  15.859  1.00  0.00     0.038 A 
HETATM   20  C23 UNL     1      -8.941 -53.504  16.264  1.00  0.00     0.002 A 
HETATM   21  C24 UNL     1      -9.172 -52.153  16.368  1.00  0.00     0.001 A 
HETATM   22  C25 UNL     1     -10.449 -51.657  16.163  1.00  0.00     0.017 A 
ENDBRANCH  10  12
ENDBRANCH   7  10
BRANCH   4  23
HETATM   23  N3  UNL     1     -12.687 -48.883  11.748  1.00  0.00    -0.225 N 
ATOM     24  H3  UNL     1     -12.661 -47.880  11.560  1.00  0.00     0.177 HD
BRANCH  23  25
HETATM   25  C11 UNL     1     -11.743 -49.713  11.093  1.00  0.00     0.142 C 
BRANCH  25  26
HETATM   26  C12 UNL     1     -10.364 -49.663  11.767  1.00  0.00     0.058 C 
BRANCH  26  27
HETATM   27  C13 UNL     1      -9.999 -51.069  12.054  1.00  0.00    -0.057 A 
HETATM   28  C14 UNL     1      -8.752 -51.340  12.562  1.00  0.00     0.007 A 
HETATM   29  C15 UNL     1      -8.408 -52.637  12.830  1.00  0.00     0.001 A 
HETATM   30  C16 UNL     1      -9.312 -53.652  12.588  1.00  0.00     0.000 A 
HETATM   31  C17 UNL     1     -10.555 -53.366  12.082  1.00  0.00     0.001 A 
HETATM   32  C18 UNL     1     -10.922 -52.069  11.804  1.00  0.00     0.007 A 
ENDBRANCH  26  27
ENDBRANCH  25  26
ENDBRANCH  23  25
ENDBRANCH   4  23
BRANCH   1  33
HETATM   33  N1  UNL     1     -16.958 -49.682  13.261  1.00  0.00    -0.370 NA
BRANCH  33  34
HETATM   34  C8  UNL     1     -18.255 -49.622  13.214  1.00  0.00     0.117 A 
HETATM   35  C3  UNL     1     -18.973 -49.867  12.015  1.00  0.00    -0.018 A 
HETATM   36  C4  UNL     1     -20.332 -49.786  12.030  1.00  0.00     0.010 A 
HETATM   37  C5  UNL     1     -21.029 -49.475  13.170  1.00  0.00     0.001 A 
HETATM   38  C6  UNL     1     -20.376 -49.229  14.358  1.00  0.00     0.003 A 
HETATM   39  C7  UNL     1     -19.012 -49.304  14.363  1.00  0.00     0.045 A 
BRANCH  35  40
HETATM   40  C2  UNL     1     -18.181 -50.202  10.804  1.00  0.00     0.037 C 
HETATM   41  C1  UNL     1     -18.982 -50.899   9.743  1.00  0.00     0.010 C 
ENDBRANCH  35  40
ENDBRANCH  33  34
ENDBRANCH   1  33
TORSDOF 9
ENDMDL
MODEL 2
REMARK VINA RESULT: -7.568211008      2.227      8.055
REMARK  9 active torsions:
REMARK  status: ('A' for Active; 'I' for Inactive)
REMARK    1  A    between atoms: C2_2  and  C3_3 
REMARK    2  A    between atoms: C8_8  and  N1_9 
REMARK    3  A    between atoms: N1_9  and  C9_10 
REMARK    4  A    between atoms: C10_13  and  N3_14 
REMARK    5  A    between atoms: N3_14  and  C11_16 
REMARK    6  A    between atoms: C11_16  and  C12_17 
REMARK    7  A    between atoms: C12_17  and  C13_18 
REMARK    8  A    between atoms: C19_26  and  N5_27 
REMARK    9  A    between atoms: N5_27  and  C20_29 
ROOT
HETATM    1  C9  UNL     1     -11.671 -50.842  14.103  1.00  0.00     0.288 A 
HETATM    2  N2  UNL     1     -12.316 -49.907  14.890  1.00  0.00    -0.148 N 
ATOM      3  H2  UNL     1     -12.382 -50.090  15.892  1.00  0.00     0.188 HD
HETATM    4  C10 UNL     1     -12.854 -48.788  14.426  1.00  0.00     0.696 A 
HETATM    5  N4  UNL     1     -12.746 -48.585  13.091  1.00  0.00    -0.022 N 
ATOM      6  H4  UNL     1     -13.148 -47.736  12.692  1.00  0.00     0.203 HD
HETATM    7  C19 UNL     1     -12.137 -49.446  12.277  1.00  0.00     0.702 A 
HETATM    8  N8  UNL     1     -11.603 -50.560  12.753  1.00  0.00    -0.148 N 
ATOM      9  H8  UNL     1     -11.140 -51.212  12.120  1.00  0.00     0.188 HD
ENDROOT
BRANCH   7  10
HETATM   10  N5  UNL     1     -12.068 -49.195  11.022  1.00  0.00    -0.174 N 
ATOM     11  H5  UNL     1     -11.837 -48.244  10.734  1.00  0.00     0.186 HD
BRANCH  10  12
HETATM   12  C20 UNL     1     -12.291 -50.150  10.026  1.00  0.00     0.148 A 
HETATM   13  N6  UNL     1     -11.511 -50.634   9.048  1.00  0.00    -0.284 N 
HETATM   14  N7  UNL     1     -12.153 -51.535   8.336  1.00  0.00    -0.298 N 
ATOM     15  H6  UNL     1     -10.548 -50.343   8.879  1.00  0.00     0.188 HD
HETATM   16  C21 UNL     1     -13.406 -51.693   8.814  1.00  0.00     0.062 A 
ATOM     17  H7  UNL     1     -11.762 -52.040   7.541  1.00  0.00     0.187 HD
HETATM   18  C22 UNL     1     -14.460 -52.497   8.431  1.00  0.00     0.032 A 
HETATM   19  C26 UNL     1     -13.512 -50.819   9.890  1.00  0.00     0.038 A 
HETATM   20  C23 UNL     1     -15.631 -52.410   9.152  1.00  0.00     0.002 A 
HETATM   21  C24 UNL     1     -15.754 -51.552  10.220  1.00  0.00     0.001 A 
HETATM   22  C25 UNL     1     -14.682 -50.753  10.585  1.00  0.00     0.017 A 
ENDBRANCH  10  12
ENDBRANCH   7  10
BRANCH   4  23
HETATM   23  N3  UNL     1     -13.460 -47.887  15.088  1.00  0.00    -0.225 N 
ATOM     24  H3  UNL     1     -12.911 -47.294  15.711  1.00  0.00     0.177 HD
BRANCH  23  25
HETATM   25  C11 UNL     1     -14.857 -47.664  15.007  1.00  0.00     0.142 C 
BRANCH  25  26
HETATM   26  C12 UNL     1     -15.661 -48.960  15.196  1.00  0.00     0.058 C 
BRANCH  26  27
HETATM   27  C13 UNL     1     -16.555 -49.061  14.020  1.00  0.00    -0.057 A 
HETATM   28  C14 UNL     1     -16.262 -48.322  12.900  1.00  0.00     0.007 A 
HETATM   29  C15 UNL     1     -17.084 -48.410  11.809  1.00  0.00     0.001 A 
HETATM   30  C16 UNL     1     -18.190 -49.235  11.847  1.00  0.00     0.000 A 
HETATM   31  C17 UNL     1     -18.470 -49.967  12.973  1.00  0.00     0.001 A 
HETATM   32  C18 UNL     1     -17.658 -49.894  14.082  1.00  0.00     0.007 A 
ENDBRANCH  26  27
ENDBRANCH  25  26
ENDBRANCH  23  25
ENDBRANCH   4  23
BRANCH   1  33
HETATM   33  N1  UNL     1     -11.186 -51.846  14.514  1.00  0.00    -0.370 NA
BRANCH  33  34
HETATM   34  C8  UNL     1     -10.704 -52.976  14.934  1.00  0.00     0.117 A 
HETATM   35  C3  UNL     1      -9.345 -53.116  15.315  1.00  0.00    -0.018 A 
HETATM   36  C4  UNL     1      -8.900 -54.330  15.744  1.00  0.00     0.010 A 
HETATM   37  C5  UNL     1      -9.728 -55.421  15.821  1.00  0.00     0.001 A 
HETATM   38  C6  UNL     1     -11.055 -55.334  15.464  1.00  0.00     0.003 A 
HETATM   39  C7  UNL     1     -11.520 -54.126  15.029  1.00  0.00     0.045 A 
BRANCH  35  40
HETATM   40  C2  UNL     1      -8.483 -51.911  15.218  1.00  0.00     0.037 C 
HETATM   41  C1  UNL     1      -8.442 -51.106  16.484  1.00  0.00     0.010 C 
ENDBRANCH  35  40
ENDBRANCH  33  34
ENDBRANCH   1  33
TORSDOF 9
ENDMDL
MODEL 3
REMARK VINA RESULT: -7.521634897      0.864      1.634
REMARK  9 active torsions:
REMARK  status: ('A' for Active; 'I' for Inactive)
REMARK    1  A    between atoms: C2_2  and  C3_3 
REMARK    2  A    between atoms: C8_8  and  N1_9 
REMARK    3  A    between atoms: N1_9  and  C9_10 
REMARK    4  A    between atoms: C10_13  and  N3_14 
REMARK    5  A    between atoms: N3_14  and  C11_16 
REMARK    6  A    between atoms: C11_16  and  C12_17 
REMARK    7  A    between atoms: C12_17  and  C13_18 
REMARK    8  A    between atoms: C19_26  and  N5_27 
REMARK    9  A    between atoms: N5_27  and  C20_29 
ROOT
HETATM    1  C9  UNL     1     -15.875 -49.814  13.030  1.00  0.00     0.288 A 
HETATM    2  N2  UNL     1     -15.053 -49.341  12.024  1.00  0.00    -0.148 N 
ATOM      3  H2  UNL     1     -15.488 -48.850  11.243  1.00  0.00     0.188 HD
HETATM    4  C10 UNL     1     -13.735 -49.486  12.012  1.00  0.00     0.696 A 
HETATM    5  N4  UNL     1     -13.199 -50.145  13.067  1.00  0.00    -0.022 N 
ATOM      6  H4  UNL     1     -12.188 -50.280  13.095  1.00  0.00     0.203 HD
HETATM    7  C19 UNL     1     -13.935 -50.626  14.068  1.00  0.00     0.702 A 
HETATM    8  N8  UNL     1     -15.250 -50.474  14.069  1.00  0.00    -0.148 N 
ATOM      9  H8  UNL     1     -15.803 -50.847  14.841  1.00  0.00     0.188 HD
ENDROOT
BRANCH   7  10
HETATM   10  N5  UNL     1     -13.366 -51.240  15.038  1.00  0.00    -0.174 N 
ATOM     11  H5  UNL     1     -13.931 -51.872  15.604  1.00  0.00     0.186 HD
BRANCH  10  12
HETATM   12  C20 UNL     1     -12.015 -51.092  15.365  1.00  0.00     0.148 A 
HETATM   13  N6  UNL     1     -11.223 -50.015  15.470  1.00  0.00    -0.284 N 
HETATM   14  N7  UNL     1     -10.000 -50.360  15.808  1.00  0.00    -0.298 N 
ATOM     15  H6  UNL     1     -11.530 -49.055  15.311  1.00  0.00     0.188 HD
HETATM   16  C21 UNL     1      -9.920 -51.701  15.944  1.00  0.00     0.062 A 
ATOM     17  H7  UNL     1      -9.225 -49.711  15.947  1.00  0.00     0.187 HD
HETATM   18  C22 UNL     1      -8.884 -52.549  16.277  1.00  0.00     0.032 A 
HETATM   19  C26 UNL     1     -11.194 -52.185  15.666  1.00  0.00     0.038 A 
HETATM   20  C23 UNL     1      -9.149 -53.900  16.328  1.00  0.00     0.002 A 
HETATM   21  C24 UNL     1     -10.402 -54.396  16.057  1.00  0.00     0.001 A 
HETATM   22  C25 UNL     1     -11.427 -53.525  15.724  1.00  0.00     0.017 A 
ENDBRANCH  10  12
ENDBRANCH   7  10
BRANCH   4  23
HETATM   23  N3  UNL     1     -12.920 -49.079  11.125  1.00  0.00    -0.225 N 
ATOM     24  H3  UNL     1     -13.037 -48.134  10.758  1.00  0.00     0.177 HD
BRANCH  23  25
HETATM   25  C11 UNL     1     -11.858 -49.869  10.619  1.00  0.00     0.142 C 
BRANCH  25  26
HETATM   26  C12 UNL     1     -10.551 -49.645  11.395  1.00  0.00     0.058 C 
BRANCH  26  27
HETATM   27  C13 UNL     1     -10.079 -50.991  11.796  1.00  0.00    -0.057 A 
HETATM   28  C14 UNL     1     -10.834 -52.086  11.456  1.00  0.00     0.007 A 
HETATM   29  C15 UNL     1     -10.404 -53.332  11.821  1.00  0.00     0.001 A 
HETATM   30  C16 UNL     1      -9.224 -53.474  12.524  1.00  0.00     0.000 A 
HETATM   31  C17 UNL     1      -8.480 -52.370  12.856  1.00  0.00     0.001 A 
HETATM   32  C18 UNL     1      -8.893 -51.106  12.499  1.00  0.00     0.007 A 
ENDBRANCH  26  27
ENDBRANCH  25  26
ENDBRANCH  23  25
ENDBRANCH   4  23
BRANCH   1  33
HETATM   33  N1  UNL     1     -17.056 -49.686  13.047  1.00  0.00    -0.370 NA
BRANCH  33  34
HETATM   34  C8  UNL     1     -18.352 -49.607  13.089  1.00  0.00     0.117 A 
HETATM   35  C3  UNL     1     -19.151 -49.775  11.929  1.00  0.00    -0.018 A 
HETATM   36  C4  UNL     1     -20.505 -49.676  12.039  1.00  0.00     0.010 A 
HETATM   37  C5  UNL     1     -21.120 -49.421  13.238  1.00  0.00     0.001 A 
HETATM   38  C6  UNL     1     -20.387 -49.251  14.392  1.00  0.00     0.003 A 
HETATM   39  C7  UNL     1     -19.027 -49.345  14.302  1.00  0.00     0.045 A 
BRANCH  35  40
HETATM   40  C2  UNL     1     -18.446 -50.051  10.651  1.00  0.00     0.037 C 
HETATM   41  C1  UNL     1     -19.336 -50.644   9.597  1.00  0.00     0.010 C 
ENDBRANCH  35  40
ENDBRANCH  33  34
ENDBRANCH   1  33
TORSDOF 9
ENDMDL
MODEL 4
REMARK VINA RESULT: -7.423348788      1.847      3.035
REMARK  9 active torsions:
REMARK  status: ('A' for Active; 'I' for Inactive)
REMARK    1  A    between atoms: C2_2  and  C3_3 
REMARK    2  A    between atoms: C8_8  and  N1_9 
REMARK    3  A    between atoms: N1_9  and  C9_10 
REMARK    4  A    between atoms: C10_13  and  N3_14 
REMARK    5  A    between atoms: N3_14  and  C11_16 
REMARK    6  A    between atoms: C11_16  and  C12_17 
REMARK    7  A    between atoms: C12_17  and  C13_18 
REMARK    8  A    between atoms: C19_26  and  N5_27 
REMARK    9  A    between atoms: N5_27  and  C20_29 
ROOT
HETATM    1  C9  UNL     1     -13.557 -49.934  12.377  1.00  0.00     0.288 A 
HETATM    2  N2  UNL     1     -12.596 -49.894  11.384  1.00  0.00    -0.148 N 
ATOM      3  H2  UNL     1     -12.911 -49.878  10.414  1.00  0.00     0.188 HD
HETATM    4  C10 UNL     1     -11.290 -49.875  11.614  1.00  0.00     0.696 A 
HETATM    5  N4  UNL     1     -10.914 -49.899  12.915  1.00  0.00    -0.022 N 
ATOM      6  H4  UNL     1      -9.919 -49.887  13.136  1.00  0.00     0.203 HD
HETATM    7  C19 UNL     1     -11.790 -49.938  13.919  1.00  0.00     0.702 A 
HETATM    8  N8  UNL     1     -13.092 -49.956  13.676  1.00  0.00    -0.148 N 
ATOM      9  H8  UNL     1     -13.753 -49.986  14.452  1.00  0.00     0.188 HD
ENDROOT
BRANCH   7  10
HETATM   10  N5  UNL     1     -11.370 -49.958  15.129  1.00  0.00    -0.174 N 
ATOM     11  H5  UNL     1     -11.787 -49.307  15.793  1.00  0.00     0.186 HD
BRANCH  10  12
HETATM   12  C20 UNL     1     -10.373 -50.823  15.591  1.00  0.00     0.148 A 
HETATM   13  N6  UNL     1      -9.144 -50.604  16.081  1.00  0.00    -0.284 N 
HETATM   14  N7  UNL     1      -8.553 -51.738  16.392  1.00  0.00    -0.298 N 
ATOM     15  H6  UNL     1      -8.724 -49.682  16.197  1.00  0.00     0.188 HD
HETATM   16  C21 UNL     1      -9.372 -52.775  16.119  1.00  0.00     0.062 A 
ATOM     17  H7  UNL     1      -7.614 -51.820  16.783  1.00  0.00     0.187 HD
HETATM   18  C22 UNL     1      -9.233 -54.141  16.258  1.00  0.00     0.032 A 
HETATM   19  C26 UNL     1     -10.537 -52.212  15.608  1.00  0.00     0.038 A 
HETATM   20  C23 UNL     1     -10.289 -54.938  15.875  1.00  0.00     0.002 A 
HETATM   21  C24 UNL     1     -11.447 -54.399  15.368  1.00  0.00     0.001 A 
HETATM   22  C25 UNL     1     -11.565 -53.025  15.236  1.00  0.00     0.017 A 
ENDBRANCH  10  12
ENDBRANCH   7  10
BRANCH   4  23
HETATM   23  N3  UNL     1     -10.353 -49.838  10.755  1.00  0.00    -0.225 N 
ATOM     24  H3  UNL     1      -9.840 -48.965  10.637  1.00  0.00     0.177 HD
BRANCH  23  25
HETATM   25  C11 UNL     1      -9.985 -50.947   9.954  1.00  0.00     0.142 C 
BRANCH  25  26
HETATM   26  C12 UNL     1     -10.437 -52.281  10.569  1.00  0.00     0.058 C 
BRANCH  26  27
HETATM   27  C13 UNL     1      -9.211 -52.918  11.104  1.00  0.00    -0.057 A 
HETATM   28  C14 UNL     1      -8.875 -52.709  12.420  1.00  0.00     0.007 A 
HETATM   29  C15 UNL     1      -7.745 -53.296  12.921  1.00  0.00     0.001 A 
HETATM   30  C16 UNL     1      -6.960 -54.085  12.104  1.00  0.00     0.000 A 
HETATM   31  C17 UNL     1      -7.309 -54.286  10.792  1.00  0.00     0.001 A 
HETATM   32  C18 UNL     1      -8.441 -53.705  10.266  1.00  0.00     0.007 A 
ENDBRANCH  26  27
ENDBRANCH  25  26
ENDBRANCH  23  25
ENDBRANCH   4  23
BRANCH   1  33
HETATM   33  N1  UNL     1     -14.728 -49.950  12.176  1.00  0.00    -0.370 NA
BRANCH  33  34
HETATM   34  C8  UNL     1     -16.002 -50.030  11.936  1.00  0.00     0.117 A 
HETATM   35  C3  UNL     1     -16.954 -49.296  12.690  1.00  0.00    -0.018 A 
HETATM   36  C4  UNL     1     -18.276 -49.426  12.390  1.00  0.00     0.010 A 
HETATM   37  C5  UNL     1     -18.716 -50.243  11.380  1.00  0.00     0.001 A 
HETATM   38  C6  UNL     1     -17.830 -50.975  10.621  1.00  0.00     0.003 A 
HETATM   39  C7  UNL     1     -16.499 -50.860  10.907  1.00  0.00     0.045 A 
BRANCH  35  40
HETATM   40  C2  UNL     1     -16.437 -48.422  13.773  1.00  0.00     0.037 C 
HETATM   41  C1  UNL     1     -16.343 -49.113  15.102  1.00  0.00     0.010 C 
ENDBRANCH  35  40
ENDBRANCH  33  34
ENDBRANCH   1  33
TORSDOF 9
ENDMDL
MODEL 5
REMARK VINA RESULT: -7.378929410      1.911      3.818
REMARK  9 active torsions:
REMARK  status: ('A' for Active; 'I' for Inactive)
REMARK    1  A    between atoms: C2_2  and  C3_3 
REMARK    2  A    between atoms: C8_8  and  N1_9 
REMARK    3  A    between atoms: N1_9  and  C9_10 
REMARK    4  A    between atoms: C10_13  and  N3_14 
REMARK    5  A    between atoms: N3_14  and  C11_16 
REMARK    6  A    between atoms: C11_16  and  C12_17 
REMARK    7  A    between atoms: C12_17  and  C13_18 
REMARK    8  A    between atoms: C19_26  and  N5_27 
REMARK    9  A    between atoms: N5_27  and  C20_29 
ROOT
HETATM    1  C9  UNL     1     -17.968 -49.312  12.486  1.00  0.00     0.288 A 
HETATM    2  N2  UNL     1     -17.365 -48.558  13.476  1.00  0.00    -0.148 N 
ATOM      3  H2  UNL     1     -17.968 -48.060  14.132  1.00  0.00     0.188 HD
HETATM    4  C10 UNL     1     -16.053 -48.441  13.626  1.00  0.00     0.696 A 
HETATM    5  N4  UNL     1     -15.289 -49.115  12.734  1.00  0.00    -0.022 N 
ATOM      6  H4  UNL     1     -14.275 -49.051  12.813  1.00  0.00     0.203 HD
HETATM    7  C19 UNL     1     -15.807 -49.859  11.757  1.00  0.00     0.702 A 
HETATM    8  N8  UNL     1     -17.119 -49.968  11.618  1.00  0.00    -0.148 N 
ATOM      9  H8  UNL     1     -17.504 -50.540  10.866  1.00  0.00     0.188 HD
ENDROOT
BRANCH   7  10
HETATM   10  N5  UNL     1     -15.030 -50.474  10.945  1.00  0.00    -0.174 N 
ATOM     11  H5  UNL     1     -15.183 -50.348   9.945  1.00  0.00     0.186 HD
BRANCH  10  12
HETATM   12  C20 UNL     1     -13.984 -51.308  11.352  1.00  0.00     0.148 A 
HETATM   13  N6  UNL     1     -13.947 -52.596  11.721  1.00  0.00    -0.284 N 
HETATM   14  N7  UNL     1     -12.722 -52.964  12.027  1.00  0.00    -0.298 N 
ATOM     15  H6  UNL     1     -14.761 -53.210  11.759  1.00  0.00     0.188 HD
HETATM   16  C21 UNL     1     -11.876 -51.923  11.874  1.00  0.00     0.062 A 
ATOM     17  H7  UNL     1     -12.450 -53.899  12.333  1.00  0.00     0.187 HD
HETATM   18  C22 UNL     1     -10.516 -51.786  12.060  1.00  0.00     0.032 A 
HETATM   19  C26 UNL     1     -12.662 -50.859  11.444  1.00  0.00     0.038 A 
HETATM   20  C23 UNL     1      -9.953 -50.554  11.806  1.00  0.00     0.002 A 
HETATM   21  C24 UNL     1     -10.714 -49.491  11.381  1.00  0.00     0.001 A 
HETATM   22  C25 UNL     1     -12.078 -49.652  11.201  1.00  0.00     0.017 A 
ENDBRANCH  10  12
ENDBRANCH   7  10
BRANCH   4  23
HETATM   23  N3  UNL     1     -15.432 -47.768  14.509  1.00  0.00    -0.225 N 
ATOM     24  H3  UNL     1     -15.671 -46.783  14.623  1.00  0.00     0.177 HD
BRANCH  23  25
HETATM   25  C11 UNL     1     -14.424 -48.315  15.341  1.00  0.00     0.142 C 
BRANCH  25  26
HETATM   26  C12 UNL     1     -13.062 -48.382  14.633  1.00  0.00     0.058 C 
BRANCH  26  27
HETATM   27  C13 UNL     1     -12.476 -49.692  15.000  1.00  0.00    -0.057 A 
HETATM   28  C14 UNL     1     -11.116 -49.787  15.164  1.00  0.00     0.007 A 
HETATM   29  C15 UNL     1     -10.567 -50.993  15.504  1.00  0.00     0.001 A 
HETATM   30  C16 UNL     1     -11.382 -52.094  15.677  1.00  0.00     0.000 A 
HETATM   31  C17 UNL     1     -12.739 -51.985  15.511  1.00  0.00     0.001 A 
HETATM   32  C18 UNL     1     -13.313 -50.781  15.168  1.00  0.00     0.007 A 
ENDBRANCH  26  27
ENDBRANCH  25  26
ENDBRANCH  23  25
ENDBRANCH   4  23
BRANCH   1  33
HETATM   33  N1  UNL     1     -19.143 -49.421  12.348  1.00  0.00    -0.370 NA
BRANCH  33  34
HETATM   34  C8  UNL     1     -20.430 -49.568  12.256  1.00  0.00     0.117 A 
HETATM   35  C3  UNL     1     -21.041 -50.116  11.098  1.00  0.00    -0.018 A 
HETATM   36  C4  UNL     1     -22.396 -50.241  11.062  1.00  0.00     0.010 A 
HETATM   37  C5  UNL     1     -23.190 -49.855  12.112  1.00  0.00     0.001 A 
HETATM   38  C6  UNL     1     -22.643 -49.319  13.258  1.00  0.00     0.003 A 
HETATM   39  C7  UNL     1     -21.285 -49.183  13.313  1.00  0.00     0.045 A 
BRANCH  35  40
HETATM   40  C2  UNL     1     -20.146 -50.522   9.985  1.00  0.00     0.037 C 
HETATM   41  C1  UNL     1     -20.487 -49.867   8.678  1.00  0.00     0.010 C 
ENDBRANCH  35  40
ENDBRANCH  33  34
ENDBRANCH   1  33
TORSDOF 9
ENDMDL
