MODEL 1
REMARK VINA RESULT: -7.498038355      0.000      0.000
REMARK  8 active torsions:
REMARK  status: ('A' for Active; 'I' for Inactive)
REMARK    1  A    between atoms: N1_2  and  C2_4 
REMARK    2  A    between atoms: C5_11  and  C6_12 
REMARK    3  A    between atoms: C9_15  and  C10_16 
REMARK    4  A    between atoms: N5_22  and  C14_24 
REMARK    5  A    between atoms: C14_24  and  C15_25 
REMARK    6  A    between atoms: C15_25  and  N6_26 
REMARK    7  A    between atoms: C15_25  and  C16_30 
REMARK    8  A    between atoms: C16_30  and  C17_31 
ROOT
HETATM    1  C10 UNL     1      54.349   1.130  -8.907  1.00  0.00    -0.021 A 
HETATM    2  C11 UNL     1      53.328   1.808  -9.536  1.00  0.00     0.029 A 
HETATM    3  C12 UNL     1      52.225   2.267  -8.849  1.00  0.00     0.090 A 
HETATM    4  N4  UNL     1      52.137   2.049  -7.526  1.00  0.00    -0.353 N 
ATOM      5  H4  UNL     1      51.321   2.388  -7.017  1.00  0.00     0.166 HD
HETATM    6  C13 UNL     1      53.110   1.388  -6.852  1.00  0.00     0.101 A 
HETATM    7  N5  UNL     1      52.922   1.234  -5.602  1.00  0.00    -0.374 N 
ATOM      8  H5  UNL     1      52.057   1.622  -5.228  1.00  0.00     0.161 HD
HETATM    9  C25 UNL     1      54.208   0.935  -7.549  1.00  0.00     0.060 A 
ENDROOT
BRANCH   7  10
HETATM   10  C14 UNL     1      53.772   0.586  -4.664  1.00  0.00     0.154 C 
BRANCH  10  11
HETATM   11  C15 UNL     1      53.790  -0.915  -4.907  1.00  0.00     0.205 C 
BRANCH  11  12
HETATM   12  N6  UNL     1      52.587  -1.514  -4.403  1.00  0.00    -0.073 N 
ATOM     13  H63 UNL     1      51.797  -1.369  -5.031  1.00  0.00     0.274 HD
ATOM     14  H62 UNL     1      52.624  -2.532  -4.440  1.00  0.00     0.274 HD
ATOM     15  H61 UNL     1      52.392  -1.174  -3.461  1.00  0.00     0.274 HD
ENDBRANCH  11  12
BRANCH  11  16
HETATM   16  C16 UNL     1      55.053  -1.548  -4.446  1.00  0.00     0.075 C 
BRANCH  16  17
HETATM   17  C17 UNL     1      55.895  -2.112  -5.518  1.00  0.00    -0.028 A 
HETATM   18  C18 UNL     1      57.246  -2.417  -5.376  1.00  0.00     0.096 A 
HETATM   19  N7  UNL     1      57.726  -2.876  -6.537  1.00  0.00    -0.365 N 
HETATM   20  C19 UNL     1      56.742  -2.891  -7.460  1.00  0.00     0.042 A 
ATOM     21  H7  UNL     1      58.689  -3.169  -6.701  1.00  0.00     0.165 HD
HETATM   22  C20 UNL     1      56.725  -3.279  -8.782  1.00  0.00     0.030 A 
HETATM   23  C24 UNL     1      55.591  -2.415  -6.828  1.00  0.00    -0.002 A 
HETATM   24  C21 UNL     1      55.535  -3.193  -9.500  1.00  0.00     0.002 A 
HETATM   25  C22 UNL     1      54.396  -2.724  -8.879  1.00  0.00     0.001 A 
HETATM   26  C23 UNL     1      54.442  -2.343  -7.552  1.00  0.00     0.014 A 
ENDBRANCH  16  17
ENDBRANCH  11  16
ENDBRANCH  10  11
ENDBRANCH   7  10
BRANCH   1  27
HETATM   27  C9  UNL     1      55.523   0.637  -9.615  1.00  0.00    -0.026 A 
HETATM   28  C8  UNL     1      55.489   0.269 -10.942  1.00  0.00     0.013 A 
HETATM   29  C7  UNL     1      56.622  -0.199 -11.589  1.00  0.00     0.014 A 
HETATM   30  C6  UNL     1      57.842  -0.328 -10.958  1.00  0.00    -0.006 A 
HETATM   31  C27 UNL     1      57.880   0.045  -9.605  1.00  0.00     0.014 A 
HETATM   32  C26 UNL     1      56.750   0.504  -8.989  1.00  0.00     0.013 A 
BRANCH  30  33
HETATM   33  C5  UNL     1      59.034  -0.798 -11.598  1.00  0.00     0.086 A 
HETATM   34  C2  UNL     1      59.018  -1.854 -12.459  1.00  0.00     0.128 A 
HETATM   35  N2  UNL     1      60.157  -2.288 -13.071  1.00  0.00    -0.349 N 
HETATM   36  C3  UNL     1      61.329  -1.667 -12.828  1.00  0.00     0.106 A 
ATOM     37  H2  UNL     1      60.122  -3.081 -13.712  1.00  0.00     0.167 HD
HETATM   38  C4  UNL     1      61.356  -0.601 -11.963  1.00  0.00     0.105 A 
HETATM   39  N3  UNL     1      60.210  -0.191 -11.368  1.00  0.00    -0.361 N 
ATOM     40  H3  UNL     1      60.242   0.602 -10.727  1.00  0.00     0.165 HD
BRANCH  34  41
HETATM   41  N1  UNL     1      57.895  -2.428 -12.689  1.00  0.00    -0.379 N 
HETATM   42  C1  UNL     1      57.850  -3.877 -12.737  1.00  0.00     0.147 C 
ATOM     43  H1  UNL     1      57.049  -1.877 -12.835  1.00  0.00     0.160 HD
ENDBRANCH  34  41
ENDBRANCH  30  33
ENDBRANCH   1  27
TORSDOF 8
ENDMDL
MODEL 2
REMARK VINA RESULT: -7.456205919      1.803      6.834
REMARK  8 active torsions:
REMARK  status: ('A' for Active; 'I' for Inactive)
REMARK    1  A    between atoms: N1_2  and  C2_4 
REMARK    2  A    between atoms: C5_11  and  C6_12 
REMARK    3  A    between atoms: C9_15  and  C10_16 
REMARK    4  A    between atoms: N5_22  and  C14_24 
REMARK    5  A    between atoms: C14_24  and  C15_25 
REMARK    6  A    between atoms: C15_25  and  N6_26 
REMARK    7  A    between atoms: C15_25  and  C16_30 
REMARK    8  A    between atoms: C16_30  and  C17_31 
ROOT
HETATM    1  C10 UNL     1      57.156  -0.615 -10.720  1.00  0.00    -0.021 A 
HETATM    2  C11 UNL     1      57.183  -0.883 -12.071  1.00  0.00     0.029 A 
HETATM    3  C12 UNL     1      58.192  -1.626 -12.647  1.00  0.00     0.090 A 
HETATM    4  N4  UNL     1      59.180  -2.103 -11.873  1.00  0.00    -0.353 N 
ATOM      5  H4  UNL     1      59.927  -2.653 -12.298  1.00  0.00     0.166 HD
HETATM    6  C13 UNL     1      59.208  -1.871 -10.537  1.00  0.00     0.101 A 
HETATM    7  N5  UNL     1      60.193  -2.367  -9.901  1.00  0.00    -0.374 N 
ATOM      8  H5  UNL     1      60.868  -2.891 -10.458  1.00  0.00     0.161 HD
HETATM    9  C25 UNL     1      58.194  -1.129  -9.973  1.00  0.00     0.060 A 
ENDROOT
BRANCH   7  10
HETATM   10  C14 UNL     1      60.468  -2.280  -8.510  1.00  0.00     0.154 C 
BRANCH  10  11
HETATM   11  C15 UNL     1      60.412  -3.658  -7.867  1.00  0.00     0.205 C 
BRANCH  11  12
HETATM   12  N6  UNL     1      61.456  -4.492  -8.390  1.00  0.00    -0.073 N 
ATOM     13  H63 UNL     1      61.960  -4.038  -9.152  1.00  0.00     0.274 HD
ATOM     14  H62 UNL     1      62.231  -4.589  -7.735  1.00  0.00     0.274 HD
ATOM     15  H61 UNL     1      61.077  -5.397  -8.670  1.00  0.00     0.274 HD
ENDBRANCH  11  12
BRANCH  11  16
HETATM   16  C16 UNL     1      59.049  -4.247  -7.911  1.00  0.00     0.075 C 
BRANCH  16  17
HETATM   17  C17 UNL     1      58.005  -3.454  -7.235  1.00  0.00    -0.028 A 
HETATM   18  C18 UNL     1      58.152  -2.872  -5.979  1.00  0.00     0.096 A 
HETATM   19  N7  UNL     1      57.015  -2.255  -5.636  1.00  0.00    -0.365 N 
HETATM   20  C19 UNL     1      56.104  -2.403  -6.620  1.00  0.00     0.042 A 
ATOM     21  H7  UNL     1      56.861  -1.751  -4.763  1.00  0.00     0.165 HD
HETATM   22  C20 UNL     1      54.807  -1.954  -6.749  1.00  0.00     0.030 A 
HETATM   23  C24 UNL     1      56.718  -3.152  -7.626  1.00  0.00    -0.002 A 
HETATM   24  C21 UNL     1      54.098  -2.257  -7.908  1.00  0.00     0.002 A 
HETATM   25  C22 UNL     1      54.700  -2.996  -8.904  1.00  0.00     0.001 A 
HETATM   26  C23 UNL     1      56.001  -3.432  -8.747  1.00  0.00     0.014 A 
ENDBRANCH  16  17
ENDBRANCH  11  16
ENDBRANCH  10  11
ENDBRANCH   7  10
BRANCH   1  27
HETATM   27  C9  UNL     1      56.100   0.168 -10.092  1.00  0.00    -0.026 A 
HETATM   28  C8  UNL     1      56.276   0.826  -8.894  1.00  0.00     0.013 A 
HETATM   29  C7  UNL     1      55.252   1.562  -8.319  1.00  0.00     0.014 A 
HETATM   30  C6  UNL     1      54.005   1.685  -8.897  1.00  0.00    -0.006 A 
HETATM   31  C27 UNL     1      53.822   1.015 -10.118  1.00  0.00     0.014 A 
HETATM   32  C26 UNL     1      54.847   0.296 -10.665  1.00  0.00     0.013 A 
BRANCH  30  33
HETATM   33  C5  UNL     1      52.929   2.444  -8.337  1.00  0.00     0.086 A 
HETATM   34  C2  UNL     1      52.104   1.926  -7.383  1.00  0.00     0.128 A 
HETATM   35  N2  UNL     1      51.088   2.661  -6.848  1.00  0.00    -0.349 N 
HETATM   36  C3  UNL     1      50.884   3.928  -7.262  1.00  0.00     0.106 A 
ATOM     37  H2  UNL     1      50.482   2.253  -6.136  1.00  0.00     0.167 HD
HETATM   38  C4  UNL     1      51.710   4.460  -8.222  1.00  0.00     0.105 A 
HETATM   39  N3  UNL     1      52.711   3.708  -8.737  1.00  0.00    -0.361 N 
ATOM     40  H3  UNL     1      53.318   4.113  -9.449  1.00  0.00     0.165 HD
BRANCH  34  41
HETATM   41  N1  UNL     1      52.317   0.724  -6.991  1.00  0.00    -0.379 N 
HETATM   42  C1  UNL     1      51.483   0.178  -5.938  1.00  0.00     0.147 C 
ATOM     43  H1  UNL     1      53.058   0.163  -7.411  1.00  0.00     0.160 HD
ENDBRANCH  34  41
ENDBRANCH  30  33
ENDBRANCH   1  27
TORSDOF 8
ENDMDL
MODEL 3
REMARK VINA RESULT: -7.388805646      2.376      8.060
REMARK  8 active torsions:
REMARK  status: ('A' for Active; 'I' for Inactive)
REMARK    1  A    between atoms: N1_2  and  C2_4 
REMARK    2  A    between atoms: C5_11  and  C6_12 
REMARK    3  A    between atoms: C9_15  and  C10_16 
REMARK    4  A    between atoms: N5_22  and  C14_24 
REMARK    5  A    between atoms: C14_24  and  C15_25 
REMARK    6  A    between atoms: C15_25  and  N6_26 
REMARK    7  A    between atoms: C15_25  and  C16_30 
REMARK    8  A    between atoms: C16_30  and  C17_31 
ROOT
HETATM    1  C10 UNL     1      59.255  -3.386  -9.043  1.00  0.00    -0.021 A 
HETATM    2  C11 UNL     1      59.272  -4.763  -9.076  1.00  0.00     0.029 A 
HETATM    3  C12 UNL     1      60.448  -5.476  -9.181  1.00  0.00     0.090 A 
HETATM    4  N4  UNL     1      61.614  -4.813  -9.255  1.00  0.00    -0.353 N 
ATOM      5  H4  UNL     1      62.484  -5.340  -9.332  1.00  0.00     0.166 HD
HETATM    6  C13 UNL     1      61.661  -3.458  -9.228  1.00  0.00     0.101 A 
HETATM    7  N5  UNL     1      62.818  -2.934  -9.309  1.00  0.00    -0.374 N 
ATOM      8  H5  UNL     1      63.600  -3.584  -9.387  1.00  0.00     0.161 HD
HETATM    9  C25 UNL     1      60.480  -2.757  -9.122  1.00  0.00     0.060 A 
ENDROOT
BRANCH   7  10
HETATM   10  C14 UNL     1      63.155  -1.553  -9.304  1.00  0.00     0.154 C 
BRANCH  10  11
HETATM   11  C15 UNL     1      63.496  -1.081 -10.709  1.00  0.00     0.205 C 
BRANCH  11  12
HETATM   12  N6  UNL     1      64.845  -0.595 -10.755  1.00  0.00    -0.073 N 
ATOM     13  H63 UNL     1      64.883   0.424 -10.743  1.00  0.00     0.274 HD
ATOM     14  H62 UNL     1      65.345  -0.774  -9.885  1.00  0.00     0.274 HD
ATOM     15  H61 UNL     1      65.333  -0.984 -11.561  1.00  0.00     0.274 HD
ENDBRANCH  11  12
BRANCH  11  16
HETATM   16  C16 UNL     1      62.471  -0.157 -11.260  1.00  0.00     0.075 C 
BRANCH  16  17
HETATM   17  C17 UNL     1      61.292  -0.816 -11.853  1.00  0.00    -0.028 A 
HETATM   18  C18 UNL     1      61.349  -1.953 -12.654  1.00  0.00     0.096 A 
HETATM   19  N7  UNL     1      60.116  -2.276 -13.061  1.00  0.00    -0.365 N 
HETATM   20  C19 UNL     1      59.227  -1.394 -12.560  1.00  0.00     0.042 A 
ATOM     21  H7  UNL     1      59.883  -3.069 -13.659  1.00  0.00     0.165 HD
HETATM   22  C20 UNL     1      57.857  -1.299 -12.678  1.00  0.00     0.030 A 
HETATM   23  C24 UNL     1      59.957  -0.477 -11.801  1.00  0.00    -0.002 A 
HETATM   24  C21 UNL     1      57.191  -0.266 -12.025  1.00  0.00     0.002 A 
HETATM   25  C22 UNL     1      57.907   0.642 -11.274  1.00  0.00     0.001 A 
HETATM   26  C23 UNL     1      59.280   0.522 -11.173  1.00  0.00     0.014 A 
ENDBRANCH  16  17
ENDBRANCH  11  16
ENDBRANCH  10  11
ENDBRANCH   7  10
BRANCH   1  27
HETATM   27  C9  UNL     1      58.025  -2.614  -8.934  1.00  0.00    -0.026 A 
HETATM   28  C8  UNL     1      56.846  -3.008  -9.529  1.00  0.00     0.013 A 
HETATM   29  C7  UNL     1      55.691  -2.252  -9.408  1.00  0.00     0.014 A 
HETATM   30  C6  UNL     1      55.642  -1.071  -8.696  1.00  0.00    -0.006 A 
HETATM   31  C27 UNL     1      56.842  -0.666  -8.090  1.00  0.00     0.014 A 
HETATM   32  C26 UNL     1      57.968  -1.429  -8.222  1.00  0.00     0.013 A 
BRANCH  30  33
HETATM   33  C5  UNL     1      54.465  -0.271  -8.543  1.00  0.00     0.086 A 
HETATM   34  C2  UNL     1      53.542  -0.531  -7.574  1.00  0.00     0.128 A 
HETATM   35  N2  UNL     1      52.428   0.244  -7.429  1.00  0.00    -0.349 N 
HETATM   36  C3  UNL     1      52.226   1.291  -8.254  1.00  0.00     0.106 A 
ATOM     37  H2  UNL     1      51.750   0.031  -6.698  1.00  0.00     0.167 HD
HETATM   38  C4  UNL     1      53.151   1.562  -9.232  1.00  0.00     0.105 A 
HETATM   39  N3  UNL     1      54.247   0.777  -9.355  1.00  0.00    -0.361 N 
ATOM     40  H3  UNL     1      54.927   0.987 -10.085  1.00  0.00     0.165 HD
BRANCH  34  41
HETATM   41  N1  UNL     1      53.753  -1.523  -6.790  1.00  0.00    -0.379 N 
HETATM   42  C1  UNL     1      53.553  -1.339  -5.366  1.00  0.00     0.147 C 
ATOM     43  H1  UNL     1      54.055  -2.424  -7.161  1.00  0.00     0.160 HD
ENDBRANCH  34  41
ENDBRANCH  30  33
ENDBRANCH   1  27
TORSDOF 8
ENDMDL
MODEL 4
REMARK VINA RESULT: -7.353856498      1.753      7.825
REMARK  8 active torsions:
REMARK  status: ('A' for Active; 'I' for Inactive)
REMARK    1  A    between atoms: N1_2  and  C2_4 
REMARK    2  A    between atoms: C5_11  and  C6_12 
REMARK    3  A    between atoms: C9_15  and  C10_16 
REMARK    4  A    between atoms: N5_22  and  C14_24 
REMARK    5  A    between atoms: C14_24  and  C15_25 
REMARK    6  A    between atoms: C15_25  and  N6_26 
REMARK    7  A    between atoms: C15_25  and  C16_30 
REMARK    8  A    between atoms: C16_30  and  C17_31 
ROOT
HETATM    1  C10 UNL     1      57.599  -2.568  -7.138  1.00  0.00    -0.021 A 
HETATM    2  C11 UNL     1      57.987  -3.578  -6.285  1.00  0.00     0.029 A 
HETATM    3  C12 UNL     1      59.058  -4.399  -6.567  1.00  0.00     0.090 A 
HETATM    4  N4  UNL     1      59.747  -4.213  -7.705  1.00  0.00    -0.353 N 
ATOM      5  H4  UNL     1      60.540  -4.820  -7.913  1.00  0.00     0.166 HD
HETATM    6  C13 UNL     1      59.413  -3.235  -8.583  1.00  0.00     0.101 A 
HETATM    7  N5  UNL     1      60.131  -3.151  -9.631  1.00  0.00    -0.374 N 
ATOM      8  H5  UNL     1      60.889  -3.829  -9.709  1.00  0.00     0.161 HD
HETATM    9  C25 UNL     1      58.341  -2.421  -8.290  1.00  0.00     0.060 A 
ENDROOT
BRANCH   7  10
HETATM   10  C14 UNL     1      60.006  -2.229 -10.705  1.00  0.00     0.154 C 
BRANCH  10  11
HETATM   11  C15 UNL     1      59.887  -2.966 -12.030  1.00  0.00     0.205 C 
BRANCH  11  12
HETATM   12  N6  UNL     1      60.706  -2.333 -13.024  1.00  0.00    -0.073 N 
ATOM     13  H63 UNL     1      60.149  -1.809 -13.699  1.00  0.00     0.274 HD
ATOM     14  H62 UNL     1      61.243  -1.558 -12.638  1.00  0.00     0.274 HD
ATOM     15  H61 UNL     1      61.305  -3.023 -13.479  1.00  0.00     0.274 HD
ENDBRANCH  11  12
BRANCH  11  16
HETATM   16  C16 UNL     1      58.473  -3.193 -12.426  1.00  0.00     0.075 C 
BRANCH  16  17
HETATM   17  C17 UNL     1      57.561  -2.065 -12.156  1.00  0.00    -0.028 A 
HETATM   18  C18 UNL     1      57.717  -0.786 -12.685  1.00  0.00     0.096 A 
HETATM   19  N7  UNL     1      56.749   0.011 -12.220  1.00  0.00    -0.365 N 
HETATM   20  C19 UNL     1      55.944  -0.687 -11.393  1.00  0.00     0.042 A 
ATOM     21  H7  UNL     1      56.637   0.998 -12.454  1.00  0.00     0.165 HD
HETATM   22  C20 UNL     1      54.820  -0.328 -10.681  1.00  0.00     0.030 A 
HETATM   23  C24 UNL     1      56.446  -1.990 -11.350  1.00  0.00    -0.002 A 
HETATM   24  C21 UNL     1      54.175  -1.285  -9.903  1.00  0.00     0.002 A 
HETATM   25  C22 UNL     1      54.667  -2.572  -9.857  1.00  0.00     0.001 A 
HETATM   26  C23 UNL     1      55.795  -2.904 -10.582  1.00  0.00     0.014 A 
ENDBRANCH  16  17
ENDBRANCH  11  16
ENDBRANCH  10  11
ENDBRANCH   7  10
BRANCH   1  27
HETATM   27  C9  UNL     1      56.470  -1.691  -6.860  1.00  0.00    -0.026 A 
HETATM   28  C8  UNL     1      56.517  -0.330  -7.071  1.00  0.00     0.013 A 
HETATM   29  C7  UNL     1      55.428   0.481  -6.796  1.00  0.00     0.014 A 
HETATM   30  C6  UNL     1      54.238  -0.011  -6.297  1.00  0.00    -0.006 A 
HETATM   31  C27 UNL     1      54.187  -1.398  -6.080  1.00  0.00     0.014 A 
HETATM   32  C26 UNL     1      55.275  -2.176  -6.360  1.00  0.00     0.013 A 
BRANCH  30  33
HETATM   33  C5  UNL     1      53.090   0.794  -6.011  1.00  0.00     0.086 A 
HETATM   34  C2  UNL     1      52.388   1.420  -6.998  1.00  0.00     0.128 A 
HETATM   35  N2  UNL     1      51.289   2.177  -6.717  1.00  0.00    -0.349 N 
HETATM   36  C3  UNL     1      50.878   2.316  -5.440  1.00  0.00     0.106 A 
ATOM     37  H2  UNL     1      50.778   2.637  -7.471  1.00  0.00     0.167 HD
HETATM   38  C4  UNL     1      51.578   1.690  -4.438  1.00  0.00     0.105 A 
HETATM   39  N3  UNL     1      52.666   0.945  -4.746  1.00  0.00    -0.361 N 
ATOM     40  H3  UNL     1      53.178   0.484  -3.994  1.00  0.00     0.165 HD
BRANCH  34  41
HETATM   41  N1  UNL     1      52.783   1.269  -8.209  1.00  0.00    -0.379 N 
HETATM   42  C1  UNL     1      52.959   2.447  -9.035  1.00  0.00     0.147 C 
ATOM     43  H1  UNL     1      52.970   0.339  -8.582  1.00  0.00     0.160 HD
ENDBRANCH  34  41
ENDBRANCH  30  33
ENDBRANCH   1  27
TORSDOF 8
ENDMDL
MODEL 5
REMARK VINA RESULT: -7.311797294      1.685      8.108
REMARK  8 active torsions:
REMARK  status: ('A' for Active; 'I' for Inactive)
REMARK    1  A    between atoms: N1_2  and  C2_4 
REMARK    2  A    between atoms: C5_11  and  C6_12 
REMARK    3  A    between atoms: C9_15  and  C10_16 
REMARK    4  A    between atoms: N5_22  and  C14_24 
REMARK    5  A    between atoms: C14_24  and  C15_25 
REMARK    6  A    between atoms: C15_25  and  N6_26 
REMARK    7  A    between atoms: C15_25  and  C16_30 
REMARK    8  A    between atoms: C16_30  and  C17_31 
ROOT
HETATM    1  C10 UNL     1      56.805  -2.619  -7.408  1.00  0.00    -0.021 A 
HETATM    2  C11 UNL     1      57.774  -3.123  -6.567  1.00  0.00     0.029 A 
HETATM    3  C12 UNL     1      58.857  -3.830  -7.043  1.00  0.00     0.090 A 
HETATM    4  N4  UNL     1      58.978  -4.037  -8.365  1.00  0.00    -0.353 N 
ATOM      5  H4  UNL     1      59.779  -4.560  -8.718  1.00  0.00     0.166 HD
HETATM    6  C13 UNL     1      58.057  -3.566  -9.242  1.00  0.00     0.101 A 
HETATM    7  N5  UNL     1      58.268  -3.824 -10.471  1.00  0.00    -0.374 N 
ATOM      8  H5  UNL     1      59.109  -4.361 -10.677  1.00  0.00     0.161 HD
HETATM    9  C25 UNL     1      56.979  -2.861  -8.755  1.00  0.00     0.060 A 
ENDROOT
BRANCH   7  10
HETATM   10  C14 UNL     1      57.473  -3.454 -11.590  1.00  0.00     0.154 C 
BRANCH  10  11
HETATM   11  C15 UNL     1      58.326  -2.769 -12.647  1.00  0.00     0.205 C 
BRANCH  11  12
HETATM   12  N6  UNL     1      59.718  -3.006 -12.392  1.00  0.00    -0.073 N 
ATOM     13  H63 UNL     1      59.904  -3.149 -11.400  1.00  0.00     0.274 HD
ATOM     14  H62 UNL     1      60.018  -3.919 -12.734  1.00  0.00     0.274 HD
ATOM     15  H61 UNL     1      60.281  -2.250 -12.781  1.00  0.00     0.274 HD
ENDBRANCH  11  12
BRANCH  11  16
HETATM   16  C16 UNL     1      57.952  -1.344 -12.838  1.00  0.00     0.075 C 
BRANCH  16  17
HETATM   17  C17 UNL     1      57.847  -0.555 -11.596  1.00  0.00    -0.028 A 
HETATM   18  C18 UNL     1      58.938  -0.147 -10.832  1.00  0.00     0.096 A 
HETATM   19  N7  UNL     1      58.505   0.516  -9.754  1.00  0.00    -0.365 N 
HETATM   20  C19 UNL     1      57.157   0.571  -9.765  1.00  0.00     0.042 A 
ATOM     21  H7  UNL     1      59.103   0.920  -9.033  1.00  0.00     0.165 HD
HETATM   22  C20 UNL     1      56.251   1.140  -8.897  1.00  0.00     0.030 A 
HETATM   23  C24 UNL     1      56.738  -0.098 -10.918  1.00  0.00    -0.002 A 
HETATM   24  C21 UNL     1      54.890   1.046  -9.178  1.00  0.00     0.002 A 
HETATM   25  C22 UNL     1      54.472   0.387 -10.315  1.00  0.00     0.001 A 
HETATM   26  C23 UNL     1      55.403  -0.174 -11.167  1.00  0.00     0.014 A 
ENDBRANCH  16  17
ENDBRANCH  11  16
ENDBRANCH  10  11
ENDBRANCH   7  10
BRANCH   1  27
HETATM   27  C9  UNL     1      55.653  -1.871  -6.926  1.00  0.00    -0.026 A 
HETATM   28  C8  UNL     1      54.385  -2.048  -7.437  1.00  0.00     0.013 A 
HETATM   29  C7  UNL     1      53.308  -1.320  -6.959  1.00  0.00     0.014 A 
HETATM   30  C6  UNL     1      53.427  -0.381  -5.955  1.00  0.00    -0.006 A 
HETATM   31  C27 UNL     1      54.717  -0.197  -5.432  1.00  0.00     0.014 A 
HETATM   32  C26 UNL     1      55.764  -0.928  -5.920  1.00  0.00     0.013 A 
BRANCH  30  33
HETATM   33  C5  UNL     1      52.334   0.381  -5.430  1.00  0.00     0.086 A 
HETATM   34  C2  UNL     1      51.566  -0.079  -4.402  1.00  0.00     0.128 A 
HETATM   35  N2  UNL     1      50.534   0.658  -3.902  1.00  0.00    -0.349 N 
HETATM   36  C3  UNL     1      50.258   1.870  -4.427  1.00  0.00     0.106 A 
ATOM     37  H2  UNL     1      49.972   0.295  -3.133  1.00  0.00     0.167 HD
HETATM   38  C4  UNL     1      51.026   2.343  -5.462  1.00  0.00     0.105 A 
HETATM   39  N3  UNL     1      52.044   1.589  -5.940  1.00  0.00    -0.361 N 
ATOM     40  H3  UNL     1      52.608   1.950  -6.709  1.00  0.00     0.165 HD
BRANCH  34  41
HETATM   41  N1  UNL     1      51.848  -1.228  -3.906  1.00  0.00    -0.379 N 
HETATM   42  C1  UNL     1      52.227  -1.308  -2.509  1.00  0.00     0.147 C 
ATOM     43  H1  UNL     1      51.806  -2.068  -4.483  1.00  0.00     0.160 HD
ENDBRANCH  34  41
ENDBRANCH  30  33
ENDBRANCH   1  27
TORSDOF 8
ENDMDL
