MODEL 1
REMARK VINA RESULT: -6.666979066      0.000      0.000
REMARK  10 active torsions:
REMARK  status: ('A' for Active; 'I' for Inactive)
REMARK    1  A    between atoms: C4_7  and  N3_8 
REMARK    2  A    between atoms: N3_8  and  C5_10 
REMARK    3  A    between atoms: C5_10  and  C6_11 
REMARK    4  A    between atoms: C12_19  and  N5_20 
REMARK    5  A    between atoms: N5_20  and  C13_21 
REMARK    6  A    between atoms: C13_21  and  N6_22 
REMARK    7  A    between atoms: C13_21  and  C14_26 
REMARK    8  A    between atoms: C14_26  and  C15_27 
REMARK    9  A    between atoms: C18_30  and  C19_31 
REMARK   10  A    between atoms: C28_40  and  O1_41 
ROOT
HETATM    1  C1  UNL     1      63.596  -0.455 -12.050  1.00  0.00     0.158 C 
HETATM    2  N1  UNL     1      62.259  -0.214 -11.551  1.00  0.00    -0.339 N 
HETATM    3  C2  UNL     1      61.919   0.765 -10.696  1.00  0.00     0.123 A 
HETATM    4  C3  UNL     1      60.548   0.692 -10.440  1.00  0.00     0.084 A 
HETATM    5  N2  UNL     1      59.713   1.410  -9.676  1.00  0.00    -0.189 N 
ATOM      6  H2  UNL     1      60.072   2.197  -9.135  1.00  0.00     0.184 HD
HETATM    7  C4  UNL     1      58.404   1.101  -9.619  1.00  0.00     0.681 A 
HETATM    8  N4  UNL     1      57.961   0.079 -10.327  1.00  0.00    -0.164 N 
ATOM      9  H4  UNL     1      56.966  -0.140 -10.271  1.00  0.00     0.187 HD
HETATM   10  C12 UNL     1      58.748  -0.713 -11.139  1.00  0.00     0.206 A 
HETATM   11  C27 UNL     1      60.104  -0.375 -11.184  1.00  0.00     0.102 A 
HETATM   12  C28 UNL     1      61.153  -0.939 -11.872  1.00  0.00     0.159 A 
ENDROOT
BRANCH  10  13
HETATM   13  N5  UNL     1      58.322  -1.628 -11.765  1.00  0.00    -0.395 NA
BRANCH  13  14
HETATM   14  C13 UNL     1      57.777  -2.726 -12.268  1.00  0.00     0.364 C 
BRANCH  14  15
HETATM   15  N6  UNL     1      58.627  -3.454 -13.257  1.00  0.00    -0.046 N 
ATOM     16  H63 UNL     1      59.508  -2.960 -13.395  1.00  0.00     0.278 HD
ATOM     17  H62 UNL     1      58.973  -4.324 -12.852  1.00  0.00     0.278 HD
ATOM     18  H61 UNL     1      58.180  -3.637 -14.155  1.00  0.00     0.278 HD
ENDBRANCH  14  15
BRANCH  14  19
HETATM   19  C14 UNL     1      57.439  -3.846 -11.252  1.00  0.00     0.107 C 
BRANCH  19  20
HETATM   20  C15 UNL     1      56.723  -3.333 -10.079  1.00  0.00    -0.053 A 
HETATM   21  C16 UNL     1      57.328  -3.336  -8.851  1.00  0.00     0.008 A 
HETATM   22  C17 UNL     1      56.665  -2.848  -7.718  1.00  0.00     0.013 A 
HETATM   23  C18 UNL     1      55.383  -2.353  -7.817  1.00  0.00    -0.026 A 
HETATM   24  C25 UNL     1      54.764  -2.344  -9.051  1.00  0.00     0.013 A 
HETATM   25  C26 UNL     1      55.439  -2.831 -10.151  1.00  0.00     0.008 A 
BRANCH  23  26
HETATM   26  C19 UNL     1      54.643  -1.832  -6.674  1.00  0.00    -0.026 A 
HETATM   27  C20 UNL     1      55.298  -1.579  -5.485  1.00  0.00     0.012 A 
HETATM   28  C21 UNL     1      54.589  -1.084  -4.400  1.00  0.00     0.001 A 
HETATM   29  C22 UNL     1      53.235  -0.831  -4.467  1.00  0.00     0.000 A 
HETATM   30  C23 UNL     1      52.598  -1.085  -5.651  1.00  0.00     0.001 A 
HETATM   31  C24 UNL     1      53.276  -1.580  -6.754  1.00  0.00     0.012 A 
ENDBRANCH  23  26
ENDBRANCH  19  20
ENDBRANCH  14  19
ENDBRANCH  13  14
ENDBRANCH  10  13
BRANCH   7  32
HETATM   32  N3  UNL     1      57.593   1.815  -8.861  1.00  0.00    -0.222 N 
ATOM     33  H3  UNL     1      57.437   2.804  -9.057  1.00  0.00     0.178 HD
BRANCH  32  34
HETATM   34  C5  UNL     1      56.921   1.170  -7.738  1.00  0.00     0.176 C 
BRANCH  34  35
HETATM   35  C6  UNL     1      55.457   1.396  -7.931  1.00  0.00    -0.040 A 
HETATM   36  C7  UNL     1      54.797   1.075  -9.100  1.00  0.00     0.009 A 
HETATM   37  C8  UNL     1      53.433   1.289  -9.272  1.00  0.00     0.001 A 
HETATM   38  C9  UNL     1      52.692   1.843  -8.236  1.00  0.00     0.000 A 
HETATM   39  C10 UNL     1      53.339   2.168  -7.062  1.00  0.00     0.001 A 
HETATM   40  C11 UNL     1      54.695   1.945  -6.920  1.00  0.00     0.009 A 
ENDBRANCH  34  35
ENDBRANCH  32  34
ENDBRANCH   7  32
BRANCH  12  41
HETATM   41  O1  UNL     1      61.215  -2.012 -12.737  1.00  0.00    -0.345 OA
ATOM     42  H1  UNL     1      60.430  -2.412 -13.096  1.00  0.00     0.219 HD
ENDBRANCH  12  41
TORSDOF 10
ENDMDL
MODEL 2
REMARK VINA RESULT: -6.633815477      3.842      8.176
REMARK  10 active torsions:
REMARK  status: ('A' for Active; 'I' for Inactive)
REMARK    1  A    between atoms: C4_7  and  N3_8 
REMARK    2  A    between atoms: N3_8  and  C5_10 
REMARK    3  A    between atoms: C5_10  and  C6_11 
REMARK    4  A    between atoms: C12_19  and  N5_20 
REMARK    5  A    between atoms: N5_20  and  C13_21 
REMARK    6  A    between atoms: C13_21  and  N6_22 
REMARK    7  A    between atoms: C13_21  and  C14_26 
REMARK    8  A    between atoms: C14_26  and  C15_27 
REMARK    9  A    between atoms: C18_30  and  C19_31 
REMARK   10  A    between atoms: C28_40  and  O1_41 
ROOT
HETATM    1  C1  UNL     1      50.916   0.100  -2.467  1.00  0.00     0.158 C 
HETATM    2  N1  UNL     1      51.864  -0.293  -3.487  1.00  0.00    -0.339 N 
HETATM    3  C2  UNL     1      52.910  -1.115  -3.293  1.00  0.00     0.123 A 
HETATM    4  C3  UNL     1      53.600  -1.267  -4.498  1.00  0.00     0.084 A 
HETATM    5  N2  UNL     1      54.691  -1.960  -4.855  1.00  0.00    -0.189 N 
ATOM      6  H2  UNL     1      55.183  -2.524  -4.161  1.00  0.00     0.184 HD
HETATM    7  C4  UNL     1      55.142  -1.917  -6.122  1.00  0.00     0.681 A 
HETATM    8  N4  UNL     1      54.491  -1.182  -7.004  1.00  0.00    -0.164 N 
ATOM      9  H4  UNL     1      54.848  -1.161  -7.959  1.00  0.00     0.187 HD
HETATM   10  C12 UNL     1      53.361  -0.439  -6.725  1.00  0.00     0.206 A 
HETATM   11  C27 UNL     1      52.909  -0.497  -5.404  1.00  0.00     0.102 A 
HETATM   12  C28 UNL     1      51.838   0.106  -4.787  1.00  0.00     0.159 A 
ENDROOT
BRANCH  10  13
HETATM   13  N5  UNL     1      52.796   0.215  -7.539  1.00  0.00    -0.395 NA
BRANCH  13  14
HETATM   14  C13 UNL     1      52.366   1.018  -8.502  1.00  0.00     0.364 C 
BRANCH  14  15
HETATM   15  N6  UNL     1      51.468   2.120  -8.049  1.00  0.00    -0.046 N 
ATOM     16  H63 UNL     1      50.511   1.778  -7.952  1.00  0.00     0.278 HD
ATOM     17  H62 UNL     1      51.669   2.363  -7.078  1.00  0.00     0.278 HD
ATOM     18  H61 UNL     1      51.485   2.957  -8.632  1.00  0.00     0.278 HD
ENDBRANCH  14  15
BRANCH  14  19
HETATM   19  C14 UNL     1      53.458   1.796  -9.278  1.00  0.00     0.107 C 
BRANCH  19  20
HETATM   20  C15 UNL     1      54.438   0.900  -9.904  1.00  0.00    -0.053 A 
HETATM   21  C16 UNL     1      55.772   1.045  -9.632  1.00  0.00     0.008 A 
HETATM   22  C17 UNL     1      56.724   0.200 -10.214  1.00  0.00     0.013 A 
HETATM   23  C18 UNL     1      56.336  -0.800 -11.079  1.00  0.00    -0.026 A 
HETATM   24  C25 UNL     1      54.994  -0.956 -11.360  1.00  0.00     0.013 A 
HETATM   25  C26 UNL     1      54.076  -0.110 -10.773  1.00  0.00     0.008 A 
BRANCH  23  26
HETATM   26  C19 UNL     1      57.281  -1.709 -11.715  1.00  0.00    -0.026 A 
HETATM   27  C20 UNL     1      58.550  -1.272 -12.036  1.00  0.00     0.012 A 
HETATM   28  C21 UNL     1      59.445  -2.142 -12.643  1.00  0.00     0.001 A 
HETATM   29  C22 UNL     1      59.109  -3.446 -12.939  1.00  0.00     0.000 A 
HETATM   30  C23 UNL     1      57.848  -3.868 -12.615  1.00  0.00     0.001 A 
HETATM   31  C24 UNL     1      56.930  -3.025 -12.010  1.00  0.00     0.012 A 
ENDBRANCH  23  26
ENDBRANCH  19  20
ENDBRANCH  14  19
ENDBRANCH  13  14
ENDBRANCH  10  13
BRANCH   7  32
HETATM   32  N3  UNL     1      56.219  -2.601  -6.460  1.00  0.00    -0.222 N 
ATOM     33  H3  UNL     1      56.999  -2.694  -5.808  1.00  0.00     0.178 HD
BRANCH  32  34
HETATM   34  C5  UNL     1      56.279  -3.223  -7.778  1.00  0.00     0.176 C 
BRANCH  34  35
HETATM   35  C6  UNL     1      57.689  -3.084  -8.251  1.00  0.00    -0.040 A 
HETATM   36  C7  UNL     1      58.368  -4.100  -8.892  1.00  0.00     0.009 A 
HETATM   37  C8  UNL     1      59.682  -3.963  -9.330  1.00  0.00     0.001 A 
HETATM   38  C9  UNL     1      60.348  -2.762  -9.124  1.00  0.00     0.000 A 
HETATM   39  C10 UNL     1      59.682  -1.738  -8.485  1.00  0.00     0.001 A 
HETATM   40  C11 UNL     1      58.378  -1.903  -8.060  1.00  0.00     0.009 A 
ENDBRANCH  34  35
ENDBRANCH  32  34
ENDBRANCH   7  32
BRANCH  12  41
HETATM   41  O1  UNL     1      50.864   0.960  -5.265  1.00  0.00    -0.345 OA
ATOM     42  H1  UNL     1      50.074   1.144  -4.769  1.00  0.00     0.219 HD
ENDBRANCH  12  41
TORSDOF 10
ENDMDL
MODEL 3
REMARK VINA RESULT: -6.610054593      3.669      7.948
REMARK  10 active torsions:
REMARK  status: ('A' for Active; 'I' for Inactive)
REMARK    1  A    between atoms: C4_7  and  N3_8 
REMARK    2  A    between atoms: N3_8  and  C5_10 
REMARK    3  A    between atoms: C5_10  and  C6_11 
REMARK    4  A    between atoms: C12_19  and  N5_20 
REMARK    5  A    between atoms: N5_20  and  C13_21 
REMARK    6  A    between atoms: C13_21  and  N6_22 
REMARK    7  A    between atoms: C13_21  and  C14_26 
REMARK    8  A    between atoms: C14_26  and  C15_27 
REMARK    9  A    between atoms: C18_30  and  C19_31 
REMARK   10  A    between atoms: C28_40  and  O1_41 
ROOT
HETATM    1  C1  UNL     1      54.003   0.690  -1.765  1.00  0.00     0.158 C 
HETATM    2  N1  UNL     1      54.368  -0.018  -2.973  1.00  0.00    -0.339 N 
HETATM    3  C2  UNL     1      55.343  -0.940  -3.062  1.00  0.00     0.123 A 
HETATM    4  C3  UNL     1      55.408  -1.408  -4.376  1.00  0.00     0.084 A 
HETATM    5  N2  UNL     1      56.183  -2.310  -4.996  1.00  0.00    -0.189 N 
ATOM      6  H2  UNL     1      56.902  -2.807  -4.470  1.00  0.00     0.184 HD
HETATM    7  C4  UNL     1      56.018  -2.564  -6.307  1.00  0.00     0.681 A 
HETATM    8  N4  UNL     1      55.082  -1.910  -6.969  1.00  0.00    -0.164 N 
ATOM      9  H4  UNL     1      54.972  -2.116  -7.962  1.00  0.00     0.187 HD
HETATM   10  C12 UNL     1      54.240  -0.968  -6.412  1.00  0.00     0.206 A 
HETATM   11  C27 UNL     1      54.428  -0.719  -5.049  1.00  0.00     0.102 A 
HETATM   12  C28 UNL     1      53.782   0.140  -4.190  1.00  0.00     0.159 A 
ENDROOT
BRANCH  10  13
HETATM   13  N5  UNL     1      53.407  -0.393  -7.032  1.00  0.00    -0.395 NA
BRANCH  13  14
HETATM   14  C13 UNL     1      52.640   0.296  -7.865  1.00  0.00     0.364 C 
BRANCH  14  15
HETATM   15  N6  UNL     1      51.730   1.282  -7.213  1.00  0.00    -0.046 N 
ATOM     16  H63 UNL     1      52.112   1.572  -6.312  1.00  0.00     0.278 HD
ATOM     17  H62 UNL     1      51.757   2.172  -7.712  1.00  0.00     0.278 HD
ATOM     18  H61 UNL     1      50.765   0.970  -7.102  1.00  0.00     0.278 HD
ENDBRANCH  14  15
BRANCH  14  19
HETATM   19  C14 UNL     1      53.380   1.180  -8.899  1.00  0.00     0.107 C 
BRANCH  19  20
HETATM   20  C15 UNL     1      54.429   0.440  -9.611  1.00  0.00    -0.053 A 
HETATM   21  C16 UNL     1      54.097  -0.618 -10.413  1.00  0.00     0.008 A 
HETATM   22  C17 UNL     1      55.081  -1.337 -11.105  1.00  0.00     0.013 A 
HETATM   23  C18 UNL     1      56.410  -0.991 -10.990  1.00  0.00    -0.026 A 
HETATM   24  C25 UNL     1      56.755   0.075 -10.184  1.00  0.00     0.013 A 
HETATM   25  C26 UNL     1      55.767   0.766  -9.514  1.00  0.00     0.008 A 
BRANCH  23  26
HETATM   26  C19 UNL     1      57.477  -1.701 -11.685  1.00  0.00    -0.026 A 
HETATM   27  C20 UNL     1      57.251  -2.968 -12.184  1.00  0.00     0.012 A 
HETATM   28  C21 UNL     1      58.271  -3.640 -12.844  1.00  0.00     0.001 A 
HETATM   29  C22 UNL     1      59.518  -3.079 -13.022  1.00  0.00     0.000 A 
HETATM   30  C23 UNL     1      59.729  -1.822 -12.523  1.00  0.00     0.001 A 
HETATM   31  C24 UNL     1      58.733  -1.125 -11.859  1.00  0.00     0.012 A 
ENDBRANCH  23  26
ENDBRANCH  19  20
ENDBRANCH  14  19
ENDBRANCH  13  14
ENDBRANCH  10  13
BRANCH   7  32
HETATM   32  N3  UNL     1      56.790  -3.452  -6.907  1.00  0.00    -0.222 N 
ATOM     33  H3  UNL     1      57.325  -4.127  -6.359  1.00  0.00     0.178 HD
BRANCH  32  34
HETATM   34  C5  UNL     1      56.866  -3.456  -8.363  1.00  0.00     0.176 C 
BRANCH  34  35
HETATM   35  C6  UNL     1      58.318  -3.437  -8.713  1.00  0.00    -0.040 A 
HETATM   36  C7  UNL     1      58.956  -4.497  -9.324  1.00  0.00     0.009 A 
HETATM   37  C8  UNL     1      60.309  -4.472  -9.647  1.00  0.00     0.001 A 
HETATM   38  C9  UNL     1      61.061  -3.342  -9.352  1.00  0.00     0.000 A 
HETATM   39  C10 UNL     1      60.436  -2.275  -8.742  1.00  0.00     0.001 A 
HETATM   40  C11 UNL     1      59.091  -2.328  -8.432  1.00  0.00     0.009 A 
ENDBRANCH  34  35
ENDBRANCH  32  34
ENDBRANCH   7  32
BRANCH  12  41
HETATM   41  O1  UNL     1      52.746   1.031  -4.387  1.00  0.00    -0.345 OA
ATOM     42  H1  UNL     1      52.079   0.884  -5.048  1.00  0.00     0.219 HD
ENDBRANCH  12  41
TORSDOF 10
ENDMDL
MODEL 4
REMARK VINA RESULT: -6.598483364      4.857      9.226
REMARK  10 active torsions:
REMARK  status: ('A' for Active; 'I' for Inactive)
REMARK    1  A    between atoms: C4_7  and  N3_8 
REMARK    2  A    between atoms: N3_8  and  C5_10 
REMARK    3  A    between atoms: C5_10  and  C6_11 
REMARK    4  A    between atoms: C12_19  and  N5_20 
REMARK    5  A    between atoms: N5_20  and  C13_21 
REMARK    6  A    between atoms: C13_21  and  N6_22 
REMARK    7  A    between atoms: C13_21  and  C14_26 
REMARK    8  A    between atoms: C14_26  and  C15_27 
REMARK    9  A    between atoms: C18_30  and  C19_31 
REMARK   10  A    between atoms: C28_40  and  O1_41 
ROOT
HETATM    1  C1  UNL     1      48.257   2.298  -1.646  1.00  0.00     0.158 C 
HETATM    2  N1  UNL     1      49.253   1.708  -2.514  1.00  0.00    -0.339 N 
HETATM    3  C2  UNL     1      49.977   0.613  -2.224  1.00  0.00     0.123 A 
HETATM    4  C3  UNL     1      50.834   0.337  -3.292  1.00  0.00     0.084 A 
HETATM    5  N2  UNL     1      51.748  -0.617  -3.518  1.00  0.00    -0.189 N 
ATOM      6  H2  UNL     1      51.917  -1.334  -2.812  1.00  0.00     0.184 HD
HETATM    7  C4  UNL     1      52.446  -0.634  -4.669  1.00  0.00     0.681 A 
HETATM    8  N4  UNL     1      52.212   0.303  -5.568  1.00  0.00    -0.164 N 
ATOM      9  H4  UNL     1      52.750   0.274  -6.434  1.00  0.00     0.187 HD
HETATM   10  C12 UNL     1      51.290   1.321  -5.420  1.00  0.00     0.206 A 
HETATM   11  C27 UNL     1      50.577   1.320  -4.218  1.00  0.00     0.102 A 
HETATM   12  C28 UNL     1      49.603   2.170  -3.745  1.00  0.00     0.159 A 
ENDROOT
BRANCH  10  13
HETATM   13  N5  UNL     1      51.101   2.152  -6.246  1.00  0.00    -0.395 NA
BRANCH  13  14
HETATM   14  C13 UNL     1      51.098   3.039  -7.232  1.00  0.00     0.364 C 
BRANCH  14  15
HETATM   15  N6  UNL     1      50.193   4.207  -7.024  1.00  0.00    -0.046 N 
ATOM     16  H63 UNL     1      49.244   3.975  -7.317  1.00  0.00     0.278 HD
ATOM     17  H62 UNL     1      50.039   4.361  -6.027  1.00  0.00     0.278 HD
ATOM     18  H61 UNL     1      50.498   5.072  -7.470  1.00  0.00     0.278 HD
ENDBRANCH  14  15
BRANCH  14  19
HETATM   19  C14 UNL     1      52.451   3.732  -7.529  1.00  0.00     0.107 C 
BRANCH  19  20
HETATM   20  C15 UNL     1      53.428   2.809  -8.119  1.00  0.00    -0.053 A 
HETATM   21  C16 UNL     1      54.688   2.717  -7.592  1.00  0.00     0.008 A 
HETATM   22  C17 UNL     1      55.636   1.841  -8.136  1.00  0.00     0.013 A 
HETATM   23  C18 UNL     1      55.318   1.052  -9.220  1.00  0.00    -0.026 A 
HETATM   24  C25 UNL     1      54.051   1.138  -9.759  1.00  0.00     0.013 A 
HETATM   25  C26 UNL     1      53.135   2.008  -9.204  1.00  0.00     0.008 A 
BRANCH  23  26
HETATM   26  C19 UNL     1      56.263   0.123  -9.829  1.00  0.00    -0.026 A 
HETATM   27  C20 UNL     1      55.990  -0.426 -11.066  1.00  0.00     0.012 A 
HETATM   28  C21 UNL     1      56.892  -1.310 -11.640  1.00  0.00     0.001 A 
HETATM   29  C22 UNL     1      58.067  -1.665 -11.013  1.00  0.00     0.000 A 
HETATM   30  C23 UNL     1      58.327  -1.112  -9.788  1.00  0.00     0.001 A 
HETATM   31  C24 UNL     1      57.447  -0.227  -9.186  1.00  0.00     0.012 A 
ENDBRANCH  23  26
ENDBRANCH  19  20
ENDBRANCH  14  19
ENDBRANCH  13  14
ENDBRANCH  10  13
BRANCH   7  32
HETATM   32  N3  UNL     1      53.346  -1.577  -4.878  1.00  0.00    -0.222 N 
ATOM     33  H3  UNL     1      53.110  -2.559  -4.731  1.00  0.00     0.178 HD
BRANCH  32  34
HETATM   34  C5  UNL     1      54.681  -1.196  -5.324  1.00  0.00     0.176 C 
BRANCH  34  35
HETATM   35  C6  UNL     1      54.951  -1.972  -6.571  1.00  0.00    -0.040 A 
HETATM   36  C7  UNL     1      54.097  -1.968  -7.655  1.00  0.00     0.009 A 
HETATM   37  C8  UNL     1      54.355  -2.693  -8.815  1.00  0.00     0.001 A 
HETATM   38  C9  UNL     1      55.515  -3.453  -8.900  1.00  0.00     0.000 A 
HETATM   39  C10 UNL     1      56.378  -3.465  -7.825  1.00  0.00     0.001 A 
HETATM   40  C11 UNL     1      56.095  -2.736  -6.686  1.00  0.00     0.009 A 
ENDBRANCH  34  35
ENDBRANCH  32  34
ENDBRANCH   7  32
BRANCH  12  41
HETATM   41  O1  UNL     1      49.014   3.290  -4.294  1.00  0.00    -0.345 OA
ATOM     42  H1  UNL     1      48.073   3.357  -4.405  1.00  0.00     0.219 HD
ENDBRANCH  12  41
TORSDOF 10
ENDMDL
MODEL 5
REMARK VINA RESULT: -6.566980194      4.684      9.276
REMARK  10 active torsions:
REMARK  status: ('A' for Active; 'I' for Inactive)
REMARK    1  A    between atoms: C4_7  and  N3_8 
REMARK    2  A    between atoms: N3_8  and  C5_10 
REMARK    3  A    between atoms: C5_10  and  C6_11 
REMARK    4  A    between atoms: C12_19  and  N5_20 
REMARK    5  A    between atoms: N5_20  and  C13_21 
REMARK    6  A    between atoms: C13_21  and  N6_22 
REMARK    7  A    between atoms: C13_21  and  C14_26 
REMARK    8  A    between atoms: C14_26  and  C15_27 
REMARK    9  A    between atoms: C18_30  and  C19_31 
REMARK   10  A    between atoms: C28_40  and  O1_41 
ROOT
HETATM    1  C1  UNL     1      49.005  -0.194  -0.618  1.00  0.00     0.158 C 
HETATM    2  N1  UNL     1      50.039  -0.235  -1.629  1.00  0.00    -0.339 N 
HETATM    3  C2  UNL     1      51.053  -1.118  -1.662  1.00  0.00     0.123 A 
HETATM    4  C3  UNL     1      51.850  -0.855  -2.778  1.00  0.00     0.084 A 
HETATM    5  N2  UNL     1      52.962  -1.420  -3.270  1.00  0.00    -0.189 N 
ATOM      6  H2  UNL     1      53.380  -2.218  -2.790  1.00  0.00     0.184 HD
HETATM    7  C4  UNL     1      53.530  -0.943  -4.393  1.00  0.00     0.681 A 
HETATM    8  N4  UNL     1      52.972   0.089  -4.998  1.00  0.00    -0.164 N 
ATOM      9  H4  UNL     1      53.417   0.437  -5.848  1.00  0.00     0.187 HD
HETATM   10  C12 UNL     1      51.830   0.731  -4.563  1.00  0.00     0.206 A 
HETATM   11  C27 UNL     1      51.257   0.220  -3.395  1.00  0.00     0.102 A 
HETATM   12  C28 UNL     1      50.139   0.608  -2.692  1.00  0.00     0.159 A 
ENDROOT
BRANCH  10  13
HETATM   13  N5  UNL     1      51.351   1.660  -5.127  1.00  0.00    -0.395 NA
BRANCH  13  14
HETATM   14  C13 UNL     1      50.730   2.546  -5.893  1.00  0.00     0.364 C 
BRANCH  14  15
HETATM   15  N6  UNL     1      49.856   3.508  -5.160  1.00  0.00    -0.046 N 
ATOM     16  H63 UNL     1      48.935   3.551  -5.598  1.00  0.00     0.278 HD
ATOM     17  H62 UNL     1      49.601   3.129  -4.248  1.00  0.00     0.278 HD
ATOM     18  H61 UNL     1      50.241   4.446  -5.056  1.00  0.00     0.278 HD
ENDBRANCH  14  15
BRANCH  14  19
HETATM   19  C14 UNL     1      51.641   3.499  -6.707  1.00  0.00     0.107 C 
BRANCH  19  20
HETATM   20  C15 UNL     1      52.625   2.769  -7.515  1.00  0.00    -0.053 A 
HETATM   21  C16 UNL     1      52.206   1.904  -8.489  1.00  0.00     0.008 A 
HETATM   22  C17 UNL     1      53.126   1.200  -9.276  1.00  0.00     0.013 A 
HETATM   23  C18 UNL     1      54.480   1.363  -9.082  1.00  0.00    -0.026 A 
HETATM   24  C25 UNL     1      54.914   2.233  -8.101  1.00  0.00     0.013 A 
HETATM   25  C26 UNL     1      53.987   2.915  -7.341  1.00  0.00     0.008 A 
BRANCH  23  26
HETATM   26  C19 UNL     1      55.485   0.657  -9.868  1.00  0.00    -0.026 A 
HETATM   27  C20 UNL     1      55.113  -0.032 -11.004  1.00  0.00     0.012 A 
HETATM   28  C21 UNL     1      56.074  -0.702 -11.748  1.00  0.00     0.001 A 
HETATM   29  C22 UNL     1      57.405  -0.705 -11.389  1.00  0.00     0.000 A 
HETATM   30  C23 UNL     1      57.761  -0.017 -10.261  1.00  0.00     0.001 A 
HETATM   31  C24 UNL     1      56.827   0.663  -9.495  1.00  0.00     0.012 A 
ENDBRANCH  23  26
ENDBRANCH  19  20
ENDBRANCH  14  19
ENDBRANCH  13  14
ENDBRANCH  10  13
BRANCH   7  32
HETATM   32  N3  UNL     1      54.626  -1.507  -4.866  1.00  0.00    -0.222 N 
ATOM     33  H3  UNL     1      54.923  -2.423  -4.530  1.00  0.00     0.178 HD
BRANCH  32  34
HETATM   34  C5  UNL     1      55.406  -0.802  -5.877  1.00  0.00     0.176 C 
BRANCH  34  35
HETATM   35  C6  UNL     1      55.509  -1.719  -7.051  1.00  0.00    -0.040 A 
HETATM   36  C7  UNL     1      56.697  -2.303  -7.444  1.00  0.00     0.009 A 
HETATM   37  C8  UNL     1      56.786  -3.156  -8.539  1.00  0.00     0.001 A 
HETATM   38  C9  UNL     1      55.643  -3.444  -9.275  1.00  0.00     0.000 A 
HETATM   39  C10 UNL     1      54.450  -2.868  -8.894  1.00  0.00     0.001 A 
HETATM   40  C11 UNL     1      54.391  -2.024  -7.802  1.00  0.00     0.009 A 
ENDBRANCH  34  35
ENDBRANCH  32  34
ENDBRANCH   7  32
BRANCH  12  41
HETATM   41  O1  UNL     1      49.224   1.619  -2.905  1.00  0.00    -0.345 OA
ATOM     42  H1  UNL     1      48.921   2.177  -2.198  1.00  0.00     0.219 HD
ENDBRANCH  12  41
TORSDOF 10
ENDMDL
