MODEL 1
REMARK VINA RESULT: -6.514064585      0.000      0.000
REMARK  7 active torsions:
REMARK  status: ('A' for Active; 'I' for Inactive)
REMARK    1  A    between atoms: C2_2  and  N1_5 
REMARK       I    between atoms: N1_5  and  C5_7 
REMARK    2  A    between atoms: C5_7  and  C6_9 
REMARK    3  A    between atoms: C6_9  and  S1_10 
REMARK    4  A    between atoms: S1_10  and  C7_11 
REMARK       I    between atoms: N4_17  and  C9_19 
REMARK    5  A    between atoms: C9_19  and  C10_21 
REMARK    6  A    between atoms: C10_21  and  C11_22 
REMARK    7  A    between atoms: C11_22  and  C12_23 
ROOT
HETATM    1  C7  UNL     1      -3.148 -16.304  -7.939  1.00  0.00     0.130 A 
HETATM    2  N2  UNL     1      -3.717 -16.894  -6.885  1.00  0.00    -0.286 N 
ATOM      3  H2  UNL     1      -4.727 -16.834  -6.756  1.00  0.00     0.188 HD
HETATM    4  N3  UNL     1      -3.012 -17.526  -6.045  1.00  0.00    -0.278 N 
ATOM      5  H3  UNL     1      -3.447 -17.976  -5.241  1.00  0.00     0.189 HD
HETATM    6  C8  UNL     1      -1.692 -17.595  -6.226  1.00  0.00     0.168 A 
HETATM    7  N4  UNL     1      -0.793 -18.188  -5.487  1.00  0.00    -0.306 N 
ATOM      8  H4  UNL     1       0.196 -18.167  -5.737  1.00  0.00     0.171 HD
HETATM    9  C9  UNL     1      -1.245 -18.860  -4.327  1.00  0.00     0.223 C 
HETATM   10  O2  UNL     1      -1.318 -18.240  -3.235  1.00  0.00    -0.273 OA
HETATM   11  S2  UNL     1      -1.500 -16.701  -7.676  1.00  0.00    -0.026 SA
ENDROOT
BRANCH   1  12
HETATM   12  S1  UNL     1      -3.957 -15.376  -9.252  1.00  0.00    -0.094 SA
BRANCH  12  13
HETATM   13  C6  UNL     1      -5.046 -16.325 -10.270  1.00  0.00     0.184 C 
BRANCH  13  14
HETATM   14  C5  UNL     1      -5.521 -17.600  -9.763  1.00  0.00     0.227 C 
HETATM   15  N1  UNL     1      -5.504 -18.791 -10.528  1.00  0.00    -0.352 N 
ATOM     16  H1  UNL     1      -5.134 -18.752 -11.477  1.00  0.00     0.163 HD
HETATM   17  O1  UNL     1      -5.988 -17.710  -8.572  1.00  0.00    -0.273 OA
BRANCH  15  18
HETATM   18  C2  UNL     1      -5.986 -20.064 -10.028  1.00  0.00     0.022 C 
HETATM   19  C1  UNL     1      -6.185 -20.972 -11.243  1.00  0.00     0.037 C 
HETATM   20  C3  UNL     1      -5.005 -20.735  -9.117  1.00  0.00     0.037 C 
HETATM   21  C4  UNL     1      -7.317 -19.946  -9.348  1.00  0.00     0.037 C 
ENDBRANCH  15  18
ENDBRANCH  13  14
ENDBRANCH  12  13
ENDBRANCH   1  12
BRANCH   9  22
HETATM   22  C10 UNL     1      -1.646 -20.291  -4.326  1.00  0.00     0.104 C 
BRANCH  22  23
HETATM   23  C11 UNL     1      -3.157 -20.435  -4.299  1.00  0.00     0.024 C 
BRANCH  23  24
HETATM   24  C12 UNL     1      -3.609 -21.361  -5.394  1.00  0.00     0.115 C 
HETATM   25 CL1  UNL     1      -5.341 -21.073  -5.700  1.00  0.00    -0.130 Cl
ENDBRANCH  23  24
ENDBRANCH  22  23
ENDBRANCH   9  22
TORSDOF 7
ENDMDL
MODEL 2
REMARK VINA RESULT: -6.369350415      1.018      1.187
REMARK  7 active torsions:
REMARK  status: ('A' for Active; 'I' for Inactive)
REMARK    1  A    between atoms: C2_2  and  N1_5 
REMARK       I    between atoms: N1_5  and  C5_7 
REMARK    2  A    between atoms: C5_7  and  C6_9 
REMARK    3  A    between atoms: C6_9  and  S1_10 
REMARK    4  A    between atoms: S1_10  and  C7_11 
REMARK       I    between atoms: N4_17  and  C9_19 
REMARK    5  A    between atoms: C9_19  and  C10_21 
REMARK    6  A    between atoms: C10_21  and  C11_22 
REMARK    7  A    between atoms: C11_22  and  C12_23 
ROOT
HETATM    1  C7  UNL     1      -3.762 -16.522  -8.216  1.00  0.00     0.130 A 
HETATM    2  N2  UNL     1      -4.258 -17.230  -7.200  1.00  0.00    -0.286 N 
ATOM      3  H2  UNL     1      -5.266 -17.378  -7.130  1.00  0.00     0.188 HD
HETATM    4  N3  UNL     1      -3.489 -17.720  -6.322  1.00  0.00    -0.278 N 
ATOM      5  H3  UNL     1      -3.869 -18.261  -5.546  1.00  0.00     0.189 HD
HETATM    6  C8  UNL     1      -2.175 -17.518  -6.425  1.00  0.00     0.168 A 
HETATM    7  N4  UNL     1      -1.218 -17.928  -5.636  1.00  0.00    -0.306 N 
ATOM      8  H4  UNL     1      -0.241 -17.704  -5.827  1.00  0.00     0.171 HD
HETATM    9  C9  UNL     1      -1.590 -18.695  -4.507  1.00  0.00     0.223 C 
HETATM   10  O2  UNL     1      -1.849 -18.120  -3.419  1.00  0.00    -0.273 OA
HETATM   11  S2  UNL     1      -2.085 -16.582  -7.857  1.00  0.00    -0.026 SA
ENDROOT
BRANCH   1  12
HETATM   12  S1  UNL     1      -4.665 -15.756  -9.571  1.00  0.00    -0.094 SA
BRANCH  12  13
HETATM   13  C6  UNL     1      -5.491 -16.890 -10.647  1.00  0.00     0.184 C 
BRANCH  13  14
HETATM   14  C5  UNL     1      -6.106 -18.068 -10.061  1.00  0.00     0.227 C 
HETATM   15  N1  UNL     1      -5.393 -19.263  -9.800  1.00  0.00    -0.352 N 
ATOM     16  H1  UNL     1      -4.400 -19.294 -10.029  1.00  0.00     0.163 HD
HETATM   17  O1  UNL     1      -7.350 -18.081  -9.743  1.00  0.00    -0.273 OA
BRANCH  15  18
HETATM   18  C2  UNL     1      -6.005 -20.443  -9.223  1.00  0.00     0.022 C 
HETATM   19  C1  UNL     1      -4.894 -21.481  -9.050  1.00  0.00     0.037 C 
HETATM   20  C3  UNL     1      -6.597 -20.185  -7.872  1.00  0.00     0.037 C 
HETATM   21  C4  UNL     1      -7.036 -21.054 -10.125  1.00  0.00     0.037 C 
ENDBRANCH  15  18
ENDBRANCH  13  14
ENDBRANCH  12  13
ENDBRANCH   1  12
BRANCH   9  22
HETATM   22  C10 UNL     1      -1.692 -20.178  -4.535  1.00  0.00     0.104 C 
BRANCH  22  23
HETATM   23  C11 UNL     1      -3.106 -20.634  -4.224  1.00  0.00     0.024 C 
BRANCH  23  24
HETATM   24  C12 UNL     1      -3.820 -21.011  -5.493  1.00  0.00     0.115 C 
HETATM   25 CL1  UNL     1      -3.382 -22.686  -5.913  1.00  0.00    -0.130 Cl
ENDBRANCH  23  24
ENDBRANCH  22  23
ENDBRANCH   9  22
TORSDOF 7
ENDMDL
MODEL 3
REMARK VINA RESULT: -6.277545618      2.540      3.240
REMARK  7 active torsions:
REMARK  status: ('A' for Active; 'I' for Inactive)
REMARK    1  A    between atoms: C2_2  and  N1_5 
REMARK       I    between atoms: N1_5  and  C5_7 
REMARK    2  A    between atoms: C5_7  and  C6_9 
REMARK    3  A    between atoms: C6_9  and  S1_10 
REMARK    4  A    between atoms: S1_10  and  C7_11 
REMARK       I    between atoms: N4_17  and  C9_19 
REMARK    5  A    between atoms: C9_19  and  C10_21 
REMARK    6  A    between atoms: C10_21  and  C11_22 
REMARK    7  A    between atoms: C11_22  and  C12_23 
ROOT
HETATM    1  C7  UNL     1      -3.992 -16.766  -8.399  1.00  0.00     0.130 A 
HETATM    2  N2  UNL     1      -4.439 -17.564  -7.427  1.00  0.00    -0.286 N 
ATOM      3  H2  UNL     1      -5.408 -17.885  -7.441  1.00  0.00     0.188 HD
HETATM    4  N3  UNL     1      -3.671 -17.925  -6.488  1.00  0.00    -0.278 N 
ATOM      5  H3  UNL     1      -4.014 -18.535  -5.746  1.00  0.00     0.189 HD
HETATM    6  C8  UNL     1      -2.408 -17.498  -6.481  1.00  0.00     0.168 A 
HETATM    7  N4  UNL     1      -1.462 -17.747  -5.615  1.00  0.00    -0.306 N 
ATOM      8  H4  UNL     1      -0.527 -17.355  -5.725  1.00  0.00     0.171 HD
HETATM    9  C9  UNL     1      -1.786 -18.583  -4.520  1.00  0.00     0.223 C 
HETATM   10  O2  UNL     1      -2.230 -18.076  -3.458  1.00  0.00    -0.273 OA
HETATM   11  S2  UNL     1      -2.365 -16.540  -7.902  1.00  0.00    -0.026 SA
ENDROOT
BRANCH   1  12
HETATM   12  S1  UNL     1      -4.900 -16.150  -9.825  1.00  0.00    -0.094 SA
BRANCH  12  13
HETATM   13  C6  UNL     1      -5.423 -17.394 -10.966  1.00  0.00     0.184 C 
BRANCH  13  14
HETATM   14  C5  UNL     1      -6.573 -17.113 -11.807  1.00  0.00     0.227 C 
HETATM   15  N1  UNL     1      -7.251 -15.871 -11.800  1.00  0.00    -0.352 N 
ATOM     16  H1  UNL     1      -6.913 -15.137 -11.178  1.00  0.00     0.163 HD
HETATM   17  O1  UNL     1      -7.036 -17.996 -12.617  1.00  0.00    -0.273 OA
BRANCH  15  18
HETATM   18  C2  UNL     1      -8.405 -15.590 -12.633  1.00  0.00     0.022 C 
HETATM   19  C1  UNL     1      -8.906 -14.198 -12.243  1.00  0.00     0.037 C 
HETATM   20  C3  UNL     1      -8.070 -15.558 -14.091  1.00  0.00     0.037 C 
HETATM   21  C4  UNL     1      -9.534 -16.545 -12.388  1.00  0.00     0.037 C 
ENDBRANCH  15  18
ENDBRANCH  13  14
ENDBRANCH  12  13
ENDBRANCH   1  12
BRANCH   9  22
HETATM   22  C10 UNL     1      -1.628 -20.060  -4.556  1.00  0.00     0.104 C 
BRANCH  22  23
HETATM   23  C11 UNL     1      -2.944 -20.759  -4.267  1.00  0.00     0.024 C 
BRANCH  23  24
HETATM   24  C12 UNL     1      -3.407 -21.515  -5.482  1.00  0.00     0.115 C 
HETATM   25 CL1  UNL     1      -5.122 -21.128  -5.771  1.00  0.00    -0.130 Cl
ENDBRANCH  23  24
ENDBRANCH  22  23
ENDBRANCH   9  22
TORSDOF 7
ENDMDL
MODEL 4
REMARK VINA RESULT: -6.247924646      4.168      5.432
REMARK  7 active torsions:
REMARK  status: ('A' for Active; 'I' for Inactive)
REMARK    1  A    between atoms: C2_2  and  N1_5 
REMARK       I    between atoms: N1_5  and  C5_7 
REMARK    2  A    between atoms: C5_7  and  C6_9 
REMARK    3  A    between atoms: C6_9  and  S1_10 
REMARK    4  A    between atoms: S1_10  and  C7_11 
REMARK       I    between atoms: N4_17  and  C9_19 
REMARK    5  A    between atoms: C9_19  and  C10_21 
REMARK    6  A    between atoms: C10_21  and  C11_22 
REMARK    7  A    between atoms: C11_22  and  C12_23 
ROOT
HETATM    1  C7  UNL     1      -4.270 -23.358  -6.350  1.00  0.00     0.130 A 
HETATM    2  N2  UNL     1      -3.138 -23.038  -5.719  1.00  0.00    -0.286 N 
ATOM      3  H2  UNL     1      -2.467 -23.769  -5.480  1.00  0.00     0.188 HD
HETATM    4  N3  UNL     1      -2.890 -21.834  -5.414  1.00  0.00    -0.278 N 
ATOM      5  H3  UNL     1      -2.025 -21.591  -4.932  1.00  0.00     0.189 HD
HETATM    6  C8  UNL     1      -3.777 -20.889  -5.730  1.00  0.00     0.168 A 
HETATM    7  N4  UNL     1      -3.718 -19.603  -5.508  1.00  0.00    -0.306 N 
ATOM      8  H4  UNL     1      -4.470 -18.980  -5.804  1.00  0.00     0.171 HD
HETATM    9  C9  UNL     1      -2.571 -19.109  -4.842  1.00  0.00     0.223 C 
HETATM   10  O2  UNL     1      -2.561 -19.036  -3.587  1.00  0.00    -0.273 OA
HETATM   11  S2  UNL     1      -5.000 -21.812  -6.497  1.00  0.00    -0.026 SA
ENDROOT
BRANCH   1  12
HETATM   12  S1  UNL     1      -4.809 -24.988  -6.887  1.00  0.00    -0.094 SA
BRANCH  12  13
HETATM   13  C6  UNL     1      -6.409 -25.030  -7.636  1.00  0.00     0.184 C 
BRANCH  13  14
HETATM   14  C5  UNL     1      -6.602 -24.310  -8.882  1.00  0.00     0.227 C 
HETATM   15  N1  UNL     1      -7.280 -23.070  -8.961  1.00  0.00    -0.352 N 
ATOM     16  H1  UNL     1      -7.644 -22.661  -8.101  1.00  0.00     0.163 HD
HETATM   17  O1  UNL     1      -6.156 -24.773  -9.994  1.00  0.00    -0.273 OA
BRANCH  15  18
HETATM   18  C2  UNL     1      -7.482 -22.352 -10.205  1.00  0.00     0.022 C 
HETATM   19  C1  UNL     1      -8.167 -21.031  -9.849  1.00  0.00     0.037 C 
HETATM   20  C3  UNL     1      -6.196 -22.023 -10.897  1.00  0.00     0.037 C 
HETATM   21  C4  UNL     1      -8.396 -23.079 -11.144  1.00  0.00     0.037 C 
ENDBRANCH  15  18
ENDBRANCH  13  14
ENDBRANCH  12  13
ENDBRANCH   1  12
BRANCH   9  22
HETATM   22  C10 UNL     1      -1.350 -18.661  -5.561  1.00  0.00     0.104 C 
BRANCH  22  23
HETATM   23  C11 UNL     1      -1.701 -18.031  -6.897  1.00  0.00     0.024 C 
BRANCH  23  24
HETATM   24  C12 UNL     1      -0.858 -16.808  -7.132  1.00  0.00     0.115 C 
HETATM   25 CL1  UNL     1      -1.870 -15.562  -7.905  1.00  0.00    -0.130 Cl
ENDBRANCH  23  24
ENDBRANCH  22  23
ENDBRANCH   9  22
TORSDOF 7
ENDMDL
MODEL 5
REMARK VINA RESULT: -6.203179534      1.757      2.303
REMARK  7 active torsions:
REMARK  status: ('A' for Active; 'I' for Inactive)
REMARK    1  A    between atoms: C2_2  and  N1_5 
REMARK       I    between atoms: N1_5  and  C5_7 
REMARK    2  A    between atoms: C5_7  and  C6_9 
REMARK    3  A    between atoms: C6_9  and  S1_10 
REMARK    4  A    between atoms: S1_10  and  C7_11 
REMARK       I    between atoms: N4_17  and  C9_19 
REMARK    5  A    between atoms: C9_19  and  C10_21 
REMARK    6  A    between atoms: C10_21  and  C11_22 
REMARK    7  A    between atoms: C11_22  and  C12_23 
ROOT
HETATM    1  C7  UNL     1      -2.873 -16.918  -7.607  1.00  0.00     0.130 A 
HETATM    2  N2  UNL     1      -3.876 -17.647  -7.114  1.00  0.00    -0.286 N 
ATOM      3  H2  UNL     1      -4.839 -17.411  -7.355  1.00  0.00     0.188 HD
HETATM    4  N3  UNL     1      -3.642 -18.627  -6.348  1.00  0.00    -0.278 N 
ATOM      5  H3  UNL     1      -4.409 -19.184  -5.972  1.00  0.00     0.189 HD
HETATM    6  C8  UNL     1      -2.378 -18.923  -6.039  1.00  0.00     0.168 A 
HETATM    7  N4  UNL     1      -1.923 -19.879  -5.276  1.00  0.00    -0.306 N 
ATOM      8  H4  UNL     1      -0.922 -20.000  -5.118  1.00  0.00     0.171 HD
HETATM    9  C9  UNL     1      -2.872 -20.741  -4.676  1.00  0.00     0.223 C 
HETATM   10  O2  UNL     1      -3.348 -20.456  -3.547  1.00  0.00    -0.273 OA
HETATM   11  S2  UNL     1      -1.525 -17.716  -6.907  1.00  0.00    -0.026 SA
ENDROOT
BRANCH   1  12
HETATM   12  S1  UNL     1      -2.978 -15.504  -8.716  1.00  0.00    -0.094 SA
BRANCH  12  13
HETATM   13  C6  UNL     1      -4.523 -15.334  -9.556  1.00  0.00     0.184 C 
BRANCH  13  14
HETATM   14  C5  UNL     1      -5.195 -16.540 -10.008  1.00  0.00     0.227 C 
HETATM   15  N1  UNL     1      -6.196 -17.196  -9.252  1.00  0.00    -0.352 N 
ATOM     16  H1  UNL     1      -6.461 -16.799  -8.351  1.00  0.00     0.163 HD
HETATM   17  O1  UNL     1      -4.909 -17.077 -11.138  1.00  0.00    -0.273 OA
BRANCH  15  18
HETATM   18  C2  UNL     1      -6.863 -18.405  -9.696  1.00  0.00     0.022 C 
HETATM   19  C1  UNL     1      -7.493 -19.046  -8.458  1.00  0.00     0.037 C 
HETATM   20  C3  UNL     1      -7.964 -18.131 -10.673  1.00  0.00     0.037 C 
HETATM   21  C4  UNL     1      -5.909 -19.408 -10.270  1.00  0.00     0.037 C 
ENDBRANCH  15  18
ENDBRANCH  13  14
ENDBRANCH  12  13
ENDBRANCH   1  12
BRANCH   9  22
HETATM   22  C10 UNL     1      -3.348 -21.992  -5.320  1.00  0.00     0.104 C 
BRANCH  22  23
HETATM   23  C11 UNL     1      -4.723 -21.802  -5.935  1.00  0.00     0.024 C 
BRANCH  23  24
HETATM   24  C12 UNL     1      -4.786 -22.469  -7.282  1.00  0.00     0.115 C 
HETATM   25 CL1  UNL     1      -3.816 -21.517  -8.433  1.00  0.00    -0.130 Cl
ENDBRANCH  23  24
ENDBRANCH  22  23
ENDBRANCH   9  22
TORSDOF 7
ENDMDL
