MODEL 1
REMARK VINA RESULT: -8.084983332      0.000      0.000
REMARK  5 active torsions:
REMARK  status: ('A' for Active; 'I' for Inactive)
REMARK       I    between atoms: C1_2  and  N1_3 
REMARK    1  A    between atoms: C1_2  and  C8_20 
REMARK    2  A    between atoms: N1_3  and  S1_5 
REMARK    3  A    between atoms: S1_5  and  N2_8 
REMARK    4  A    between atoms: N2_8  and  C2_10 
REMARK    5  A    between atoms: C7_16  and  N3_17 
ROOT
HETATM    1  S1  UNL     1       3.768   4.722  -2.129  1.00  0.00     0.326 S 
HETATM    2  O2  UNL     1       5.219   4.458  -2.455  1.00  0.00    -0.182 OA
HETATM    3  O3  UNL     1       3.535   6.193  -2.349  1.00  0.00    -0.182 OA
ENDROOT
BRANCH   1   4
HETATM    4  N1  UNL     1       3.557   4.367  -0.468  1.00  0.00    -0.233 N 
HETATM    5  C1  UNL     1       3.519   3.032  -0.038  1.00  0.00     0.266 C 
HETATM    6  O1  UNL     1       3.640   2.069  -0.867  1.00  0.00    -0.267 OA
ATOM      7  H1  UNL     1       3.459   5.125   0.207  1.00  0.00     0.183 HD
BRANCH   5   8
HETATM    8  C8  UNL     1       3.337   2.742   1.378  1.00  0.00     0.033 A 
HETATM    9  C9  UNL     1       3.456   3.810   2.254  1.00  0.00     0.017 A 
HETATM   10  C10 UNL     1       3.306   3.671   3.593  1.00  0.00     0.001 A 
HETATM   11  C11 UNL     1       3.022   2.413   4.121  1.00  0.00     0.000 A 
HETATM   12  C12 UNL     1       2.905   1.357   3.244  1.00  0.00     0.001 A 
HETATM   13  C13 UNL     1       3.057   1.500   1.883  1.00  0.00     0.017 A 
ENDBRANCH   5   8
ENDBRANCH   1   4
BRANCH   1  14
HETATM   14  N2  UNL     1       2.727   3.833  -3.169  1.00  0.00    -0.263 N 
ATOM     15  H2  UNL     1       3.024   2.905  -3.472  1.00  0.00     0.180 HD
BRANCH  14  16
HETATM   16  C2  UNL     1       1.470   4.326  -3.633  1.00  0.00     0.098 A 
HETATM   17  C3  UNL     1       0.299   3.921  -2.970  1.00  0.00     0.064 A 
HETATM   18 CL1  UNL     1       0.406   2.872  -1.559  1.00  0.00    -0.082 Cl
HETATM   19  C4  UNL     1      -0.942   4.328  -3.398  1.00  0.00     0.026 A 
HETATM   20  C5  UNL     1      -1.000   5.148  -4.503  1.00  0.00     0.004 A 
HETATM   21  C6  UNL     1       0.132   5.551  -5.159  1.00  0.00     0.038 A 
HETATM   22  C7  UNL     1       1.387   5.143  -4.729  1.00  0.00     0.131 A 
BRANCH  22  23
HETATM   23  N3  UNL     1       2.559   5.603  -5.440  1.00  0.00    -0.113 N 
HETATM   24  O4  UNL     1       3.343   4.760  -5.904  1.00  0.00    -0.532 OA
HETATM   25  O5  UNL     1       2.816   6.935  -5.579  1.00  0.00    -0.532 OA
ENDBRANCH  22  23
ENDBRANCH  14  16
ENDBRANCH   1  14
TORSDOF 5
ENDMDL
MODEL 2
REMARK VINA RESULT: -8.065020669      1.713      2.666
REMARK  5 active torsions:
REMARK  status: ('A' for Active; 'I' for Inactive)
REMARK       I    between atoms: C1_2  and  N1_3 
REMARK    1  A    between atoms: C1_2  and  C8_20 
REMARK    2  A    between atoms: N1_3  and  S1_5 
REMARK    3  A    between atoms: S1_5  and  N2_8 
REMARK    4  A    between atoms: N2_8  and  C2_10 
REMARK    5  A    between atoms: C7_16  and  N3_17 
ROOT
HETATM    1  S1  UNL     1       3.677   4.567  -2.123  1.00  0.00     0.326 S 
HETATM    2  O2  UNL     1       5.127   4.298  -2.450  1.00  0.00    -0.182 OA
HETATM    3  O3  UNL     1       3.442   6.034  -2.369  1.00  0.00    -0.182 OA
ENDROOT
BRANCH   1   4
HETATM    4  N1  UNL     1       3.472   4.244  -0.454  1.00  0.00    -0.233 N 
HETATM    5  C1  UNL     1       3.491   2.919   0.008  1.00  0.00     0.266 C 
HETATM    6  O1  UNL     1       3.659   1.942  -0.797  1.00  0.00    -0.267 OA
ATOM      7  H1  UNL     1       3.338   5.013   0.202  1.00  0.00     0.183 HD
BRANCH   5   8
HETATM    8  C8  UNL     1       3.314   2.655   1.429  1.00  0.00     0.033 A 
HETATM    9  C9  UNL     1       3.416   3.743   2.283  1.00  0.00     0.017 A 
HETATM   10  C10 UNL     1       3.269   3.630   3.625  1.00  0.00     0.001 A 
HETATM   11  C11 UNL     1       3.006   2.378   4.179  1.00  0.00     0.000 A 
HETATM   12  C12 UNL     1       2.906   1.303   3.325  1.00  0.00     0.001 A 
HETATM   13  C13 UNL     1       3.055   1.420   1.961  1.00  0.00     0.017 A 
ENDBRANCH   5   8
ENDBRANCH   1   4
BRANCH   1  14
HETATM   14  N2  UNL     1       2.632   3.658  -3.142  1.00  0.00    -0.263 N 
ATOM     15  H2  UNL     1       2.910   2.709  -3.396  1.00  0.00     0.180 HD
BRANCH  14  16
HETATM   16  C2  UNL     1       1.398   4.161  -3.653  1.00  0.00     0.098 A 
HETATM   17  C3  UNL     1       1.425   5.018  -4.766  1.00  0.00     0.064 A 
HETATM   18 CL1  UNL     1       2.961   5.405  -5.539  1.00  0.00    -0.082 Cl
HETATM   19  C4  UNL     1       0.272   5.566  -5.276  1.00  0.00     0.026 A 
HETATM   20  C5  UNL     1      -0.915   5.248  -4.654  1.00  0.00     0.004 A 
HETATM   21  C6  UNL     1      -0.958   4.414  -3.569  1.00  0.00     0.038 A 
HETATM   22  C7  UNL     1       0.204   3.858  -3.054  1.00  0.00     0.131 A 
BRANCH  22  23
HETATM   23  N3  UNL     1       0.114   2.969  -1.917  1.00  0.00    -0.113 N 
HETATM   24  O4  UNL     1       0.447   3.397  -0.800  1.00  0.00    -0.532 OA
HETATM   25  O5  UNL     1      -0.302   1.680  -2.066  1.00  0.00    -0.532 OA
ENDBRANCH  22  23
ENDBRANCH  14  16
ENDBRANCH   1  14
TORSDOF 5
ENDMDL
MODEL 3
REMARK VINA RESULT: -7.998401296      0.128      1.194
REMARK  5 active torsions:
REMARK  status: ('A' for Active; 'I' for Inactive)
REMARK       I    between atoms: C1_2  and  N1_3 
REMARK    1  A    between atoms: C1_2  and  C8_20 
REMARK    2  A    between atoms: N1_3  and  S1_5 
REMARK    3  A    between atoms: S1_5  and  N2_8 
REMARK    4  A    between atoms: N2_8  and  C2_10 
REMARK    5  A    between atoms: C7_16  and  N3_17 
ROOT
HETATM    1  S1  UNL     1       3.792   4.764  -2.183  1.00  0.00     0.326 S 
HETATM    2  O2  UNL     1       5.239   4.472  -2.503  1.00  0.00    -0.182 OA
HETATM    3  O3  UNL     1       3.577   6.231  -2.447  1.00  0.00    -0.182 OA
ENDROOT
BRANCH   1   4
HETATM    4  N1  UNL     1       3.578   4.463  -0.512  1.00  0.00    -0.233 N 
HETATM    5  C1  UNL     1       3.544   3.142  -0.039  1.00  0.00     0.266 C 
HETATM    6  O1  UNL     1       3.670   2.153  -0.836  1.00  0.00    -0.267 OA
ATOM      7  H1  UNL     1       3.476   5.242   0.138  1.00  0.00     0.183 HD
BRANCH   5   8
HETATM    8  C8  UNL     1       3.359   2.898   1.385  1.00  0.00     0.033 A 
HETATM    9  C9  UNL     1       3.034   1.602   1.759  1.00  0.00     0.017 A 
HETATM   10  C10 UNL     1       2.839   1.246   3.051  1.00  0.00     0.001 A 
HETATM   11  C11 UNL     1       2.966   2.209   4.051  1.00  0.00     0.000 A 
HETATM   12  C12 UNL     1       3.290   3.493   3.672  1.00  0.00     0.001 A 
HETATM   13  C13 UNL     1       3.489   3.853   2.358  1.00  0.00     0.017 A 
ENDBRANCH   5   8
ENDBRANCH   1   4
BRANCH   1  14
HETATM   14  N2  UNL     1       2.739   3.857  -3.195  1.00  0.00    -0.263 N 
ATOM     15  H2  UNL     1       3.033   2.925  -3.487  1.00  0.00     0.180 HD
BRANCH  14  16
HETATM   16  C2  UNL     1       1.475   4.340  -3.650  1.00  0.00     0.098 A 
HETATM   17  C3  UNL     1       0.312   3.933  -2.973  1.00  0.00     0.064 A 
HETATM   18 CL1  UNL     1       0.439   2.894  -1.556  1.00  0.00    -0.082 Cl
HETATM   19  C4  UNL     1      -0.935   4.332  -3.391  1.00  0.00     0.026 A 
HETATM   20  C5  UNL     1      -1.008   5.144  -4.501  1.00  0.00     0.004 A 
HETATM   21  C6  UNL     1       0.116   5.549  -5.170  1.00  0.00     0.038 A 
HETATM   22  C7  UNL     1       1.376   5.150  -4.750  1.00  0.00     0.131 A 
BRANCH  22  23
HETATM   23  N3  UNL     1       2.539   5.613  -5.474  1.00  0.00    -0.113 N 
HETATM   24  O4  UNL     1       2.624   6.819  -5.755  1.00  0.00    -0.532 OA
HETATM   25  O5  UNL     1       3.513   4.743  -5.865  1.00  0.00    -0.532 OA
ENDBRANCH  22  23
ENDBRANCH  14  16
ENDBRANCH   1  14
TORSDOF 5
ENDMDL
MODEL 4
REMARK VINA RESULT: -7.774352630      1.777      6.707
REMARK  5 active torsions:
REMARK  status: ('A' for Active; 'I' for Inactive)
REMARK       I    between atoms: C1_2  and  N1_3 
REMARK    1  A    between atoms: C1_2  and  C8_20 
REMARK    2  A    between atoms: N1_3  and  S1_5 
REMARK    3  A    between atoms: S1_5  and  N2_8 
REMARK    4  A    between atoms: N2_8  and  C2_10 
REMARK    5  A    between atoms: C7_16  and  N3_17 
ROOT
HETATM    1  S1  UNL     1       4.214   4.006  -3.035  1.00  0.00     0.326 S 
HETATM    2  O2  UNL     1       5.148   4.886  -3.831  1.00  0.00    -0.182 OA
HETATM    3  O3  UNL     1       4.750   2.602  -3.133  1.00  0.00    -0.182 OA
ENDROOT
BRANCH   1   4
HETATM    4  N1  UNL     1       2.687   4.072  -3.805  1.00  0.00    -0.233 N 
HETATM    5  C1  UNL     1       1.838   5.166  -3.580  1.00  0.00     0.266 C 
HETATM    6  O1  UNL     1       2.184   6.122  -2.806  1.00  0.00    -0.267 OA
ATOM      7  H1  UNL     1       2.395   3.317  -4.426  1.00  0.00     0.183 HD
BRANCH   5   8
HETATM    8  C8  UNL     1       0.540   5.211  -4.238  1.00  0.00     0.033 A 
HETATM    9  C9  UNL     1      -0.483   4.480  -3.653  1.00  0.00     0.017 A 
HETATM   10  C10 UNL     1      -1.736   4.442  -4.167  1.00  0.00     0.001 A 
HETATM   11  C11 UNL     1      -2.019   5.161  -5.328  1.00  0.00     0.000 A 
HETATM   12  C12 UNL     1      -0.998   5.884  -5.903  1.00  0.00     0.001 A 
HETATM   13  C13 UNL     1       0.275   5.923  -5.379  1.00  0.00     0.017 A 
ENDBRANCH   5   8
ENDBRANCH   1   4
BRANCH   1  14
HETATM   14  N2  UNL     1       4.181   4.474  -1.381  1.00  0.00    -0.263 N 
ATOM     15  H2  UNL     1       3.955   5.443  -1.157  1.00  0.00     0.180 HD
BRANCH  14  16
HETATM   16  C2  UNL     1       4.455   3.578  -0.304  1.00  0.00     0.098 A 
HETATM   17  C3  UNL     1       3.431   2.726   0.145  1.00  0.00     0.064 A 
HETATM   18 CL1  UNL     1       1.864   2.737  -0.660  1.00  0.00    -0.082 Cl
HETATM   19  C4  UNL     1       3.624   1.873   1.205  1.00  0.00     0.026 A 
HETATM   20  C5  UNL     1       4.857   1.883   1.817  1.00  0.00     0.004 A 
HETATM   21  C6  UNL     1       5.864   2.707   1.392  1.00  0.00     0.038 A 
HETATM   22  C7  UNL     1       5.674   3.568   0.321  1.00  0.00     0.131 A 
BRANCH  22  23
HETATM   23  N3  UNL     1       6.768   4.410  -0.108  1.00  0.00    -0.113 N 
HETATM   24  O4  UNL     1       7.922   3.952  -0.071  1.00  0.00    -0.532 OA
HETATM   25  O5  UNL     1       6.547   5.689  -0.522  1.00  0.00    -0.532 OA
ENDBRANCH  22  23
ENDBRANCH  14  16
ENDBRANCH   1  14
TORSDOF 5
ENDMDL
MODEL 5
REMARK VINA RESULT: -7.736511904      2.501      6.746
REMARK  5 active torsions:
REMARK  status: ('A' for Active; 'I' for Inactive)
REMARK       I    between atoms: C1_2  and  N1_3 
REMARK    1  A    between atoms: C1_2  and  C8_20 
REMARK    2  A    between atoms: N1_3  and  S1_5 
REMARK    3  A    between atoms: S1_5  and  N2_8 
REMARK    4  A    between atoms: N2_8  and  C2_10 
REMARK    5  A    between atoms: C7_16  and  N3_17 
ROOT
HETATM    1  S1  UNL     1       0.941   2.773  -1.813  1.00  0.00     0.326 S 
HETATM    2  O2  UNL     1       0.081   1.601  -2.222  1.00  0.00    -0.182 OA
HETATM    3  O3  UNL     1       0.249   3.434  -0.650  1.00  0.00    -0.182 OA
ENDROOT
BRANCH   1   4
HETATM    4  N1  UNL     1       0.966   3.860  -3.135  1.00  0.00    -0.233 N 
HETATM    5  C1  UNL     1      -0.240   4.300  -3.701  1.00  0.00     0.266 C 
HETATM    6  O1  UNL     1      -1.366   3.903  -3.245  1.00  0.00    -0.267 OA
ATOM      7  H1  UNL     1       1.856   4.187  -3.510  1.00  0.00     0.183 HD
BRANCH   5   8
HETATM    8  C8  UNL     1      -0.207   5.223  -4.826  1.00  0.00     0.033 A 
HETATM    9  C9  UNL     1      -1.390   5.389  -5.532  1.00  0.00     0.017 A 
HETATM   10  C10 UNL     1      -1.490   6.220  -6.597  1.00  0.00     0.001 A 
HETATM   11  C11 UNL     1      -0.369   6.941  -7.008  1.00  0.00     0.000 A 
HETATM   12  C12 UNL     1       0.801   6.770  -6.302  1.00  0.00     0.001 A 
HETATM   13  C13 UNL     1       0.901   5.926  -5.219  1.00  0.00     0.017 A 
ENDBRANCH   5   8
ENDBRANCH   1   4
BRANCH   1  14
HETATM   14  N2  UNL     1       2.499   2.253  -1.309  1.00  0.00    -0.263 N 
ATOM     15  H2  UNL     1       2.720   1.258  -1.371  1.00  0.00     0.180 HD
BRANCH  14  16
HETATM   16  C2  UNL     1       3.501   3.137  -0.807  1.00  0.00     0.098 A 
HETATM   17  C3  UNL     1       3.581   3.353   0.580  1.00  0.00     0.064 A 
HETATM   18 CL1  UNL     1       2.493   2.491   1.666  1.00  0.00    -0.082 Cl
HETATM   19  C4  UNL     1       4.496   4.226   1.117  1.00  0.00     0.026 A 
HETATM   20  C5  UNL     1       5.335   4.887   0.247  1.00  0.00     0.004 A 
HETATM   21  C6  UNL     1       5.270   4.687  -1.106  1.00  0.00     0.038 A 
HETATM   22  C7  UNL     1       4.348   3.805  -1.651  1.00  0.00     0.131 A 
BRANCH  22  23
HETATM   23  N3  UNL     1       4.322   3.611  -3.084  1.00  0.00    -0.113 N 
HETATM   24  O4  UNL     1       4.792   2.560  -3.550  1.00  0.00    -0.532 OA
HETATM   25  O5  UNL     1       3.816   4.568  -3.912  1.00  0.00    -0.532 OA
ENDBRANCH  22  23
ENDBRANCH  14  16
ENDBRANCH   1  14
TORSDOF 5
ENDMDL
