MODEL 1
REMARK VINA RESULT: -8.449672291      0.000      0.000
REMARK  7 active torsions:
REMARK  status: ('A' for Active; 'I' for Inactive)
REMARK    1  A    between atoms: C1_2  and  C2_3 
REMARK       I    between atoms: C1_2  and  N1_16 
REMARK    2  A    between atoms: C2_3  and  O2_4 
REMARK    3  A    between atoms: O2_4  and  C3_5 
REMARK    4  A    between atoms: C3_5  and  C4_7 
REMARK    5  A    between atoms: C5_8  and  C6_9 
REMARK    6  A    between atoms: N1_16  and  N2_18 
REMARK       I    between atoms: N2_18  and  C12_20 
REMARK    7  A    between atoms: C12_20  and  C13_22 
ROOT
HETATM    1  O1  UNL     1       0.974   7.342  -8.755  1.00  0.00    -0.269 OA
HETATM    2  C1  UNL     1       0.427   7.357  -7.620  1.00  0.00     0.260 C 
HETATM    3  N1  UNL     1       1.248   7.477  -6.481  1.00  0.00    -0.265 N 
ATOM      4  H1  UNL     1       0.817   7.498  -5.557  1.00  0.00     0.190 HD
ENDROOT
BRANCH   2   5
HETATM    5  C2  UNL     1      -1.034   7.253  -7.528  1.00  0.00     0.283 C 
BRANCH   5   6
HETATM    6  O2  UNL     1      -1.563   6.018  -7.952  1.00  0.00    -0.309 OA
BRANCH   6   7
HETATM    7  C3  UNL     1      -2.609   5.408  -7.261  1.00  0.00     0.283 C 
HETATM    8  O3  UNL     1      -3.781   5.723  -7.570  1.00  0.00    -0.260 OA
BRANCH   7   9
HETATM    9  C4  UNL     1      -2.355   4.426  -6.202  1.00  0.00     0.083 C 
HETATM   10  C5  UNL     1      -1.520   4.721  -5.223  1.00  0.00     0.019 C 
BRANCH  10  11
HETATM   11  C6  UNL     1      -1.223   3.795  -4.146  1.00  0.00    -0.014 A 
HETATM   12  C7  UNL     1      -1.944   2.653  -3.922  1.00  0.00     0.013 A 
HETATM   13  C8  UNL     1      -1.615   1.795  -2.872  1.00  0.00     0.001 A 
HETATM   14  C9  UNL     1      -0.567   2.058  -2.029  1.00  0.00     0.002 A 
HETATM   15  C10 UNL     1       0.162   3.206  -2.249  1.00  0.00     0.024 A 
HETATM   16  C11 UNL     1      -0.165   4.049  -3.285  1.00  0.00     0.044 A 
HETATM   17 CL1  UNL     1       0.768   5.506  -3.557  1.00  0.00    -0.083 Cl
ENDBRANCH  10  11
ENDBRANCH   7   9
ENDBRANCH   6   7
ENDBRANCH   5   6
ENDBRANCH   2   5
BRANCH   3  18
HETATM   18  N2  UNL     1       2.651   7.569  -6.589  1.00  0.00    -0.262 N 
HETATM   19  C12 UNL     1       3.458   6.425  -6.439  1.00  0.00     0.293 C 
HETATM   20  O4  UNL     1       2.927   5.306  -6.206  1.00  0.00    -0.264 OA
ATOM     21  H2  UNL     1       3.085   8.472  -6.777  1.00  0.00     0.190 HD
BRANCH  19  22
HETATM   22  C13 UNL     1       4.905   6.569  -6.559  1.00  0.00     0.144 A 
HETATM   23  C14 UNL     1       5.571   7.739  -6.924  1.00  0.00     0.045 A 
HETATM   24  C15 UNL     1       6.910   7.445  -6.916  1.00  0.00     0.027 A 
HETATM   25  C16 UNL     1       7.031   6.128  -6.553  1.00  0.00     0.143 A 
HETATM   26  O5  UNL     1       5.810   5.644  -6.350  1.00  0.00    -0.317 OA
ENDBRANCH  19  22
ENDBRANCH   3  18
TORSDOF 7
ENDMDL
MODEL 2
REMARK VINA RESULT: -8.403117013      5.456      7.088
REMARK  7 active torsions:
REMARK  status: ('A' for Active; 'I' for Inactive)
REMARK    1  A    between atoms: C1_2  and  C2_3 
REMARK       I    between atoms: C1_2  and  N1_16 
REMARK    2  A    between atoms: C2_3  and  O2_4 
REMARK    3  A    between atoms: O2_4  and  C3_5 
REMARK    4  A    between atoms: C3_5  and  C4_7 
REMARK    5  A    between atoms: C5_8  and  C6_9 
REMARK    6  A    between atoms: N1_16  and  N2_18 
REMARK       I    between atoms: N2_18  and  C12_20 
REMARK    7  A    between atoms: C12_20  and  C13_22 
ROOT
HETATM    1  O1  UNL     1       3.092   3.728  -1.669  1.00  0.00    -0.269 OA
HETATM    2  C1  UNL     1       2.555   2.729  -1.120  1.00  0.00     0.260 C 
HETATM    3  N1  UNL     1       3.389   1.745  -0.553  1.00  0.00    -0.265 N 
ATOM      4  H1  UNL     1       2.967   0.935  -0.099  1.00  0.00     0.190 HD
ENDROOT
BRANCH   2   5
HETATM    5  C2  UNL     1       1.091   2.631  -1.089  1.00  0.00     0.283 C 
BRANCH   5   6
HETATM    6  O2  UNL     1       0.430   3.402  -2.066  1.00  0.00    -0.309 OA
BRANCH   6   7
HETATM    7  C3  UNL     1      -0.622   2.871  -2.810  1.00  0.00     0.283 C 
HETATM    8  O3  UNL     1      -1.080   1.756  -2.470  1.00  0.00    -0.260 OA
BRANCH   7   9
HETATM    9  C4  UNL     1      -1.182   3.589  -3.959  1.00  0.00     0.083 C 
HETATM   10  C5  UNL     1      -0.627   4.717  -4.360  1.00  0.00     0.019 C 
BRANCH  10  11
HETATM   11  C6  UNL     1      -1.132   5.477  -5.488  1.00  0.00    -0.014 A 
HETATM   12  C7  UNL     1      -2.431   5.409  -5.914  1.00  0.00     0.013 A 
HETATM   13  C8  UNL     1      -2.867   6.164  -7.004  1.00  0.00     0.001 A 
HETATM   14  C9  UNL     1      -2.019   6.995  -7.688  1.00  0.00     0.002 A 
HETATM   15  C10 UNL     1      -0.710   7.069  -7.264  1.00  0.00     0.024 A 
HETATM   16  C11 UNL     1      -0.285   6.324  -6.190  1.00  0.00     0.044 A 
HETATM   17 CL1  UNL     1       1.381   6.423  -5.658  1.00  0.00    -0.083 Cl
ENDBRANCH  10  11
ENDBRANCH   7   9
ENDBRANCH   6   7
ENDBRANCH   5   6
ENDBRANCH   2   5
BRANCH   3  18
HETATM   18  N2  UNL     1       4.795   1.853  -0.599  1.00  0.00    -0.262 N 
HETATM   19  C12 UNL     1       5.578   1.490   0.512  1.00  0.00     0.293 C 
HETATM   20  O4  UNL     1       5.024   1.064   1.562  1.00  0.00    -0.264 OA
ATOM     21  H2  UNL     1       5.247   2.198  -1.445  1.00  0.00     0.190 HD
BRANCH  19  22
HETATM   22  C13 UNL     1       7.029   1.618   0.419  1.00  0.00     0.144 A 
HETATM   23  C14 UNL     1       7.708   2.715  -0.113  1.00  0.00     0.045 A 
HETATM   24  C15 UNL     1       9.045   2.433  -0.011  1.00  0.00     0.027 A 
HETATM   25  C16 UNL     1       9.153   1.195   0.570  1.00  0.00     0.143 A 
HETATM   26  O5  UNL     1       7.925   0.746   0.810  1.00  0.00    -0.317 OA
ENDBRANCH  19  22
ENDBRANCH   3  18
TORSDOF 7
ENDMDL
MODEL 3
REMARK VINA RESULT: -8.236774921      4.916      6.657
REMARK  7 active torsions:
REMARK  status: ('A' for Active; 'I' for Inactive)
REMARK    1  A    between atoms: C1_2  and  C2_3 
REMARK       I    between atoms: C1_2  and  N1_16 
REMARK    2  A    between atoms: C2_3  and  O2_4 
REMARK    3  A    between atoms: O2_4  and  C3_5 
REMARK    4  A    between atoms: C3_5  and  C4_7 
REMARK    5  A    between atoms: C5_8  and  C6_9 
REMARK    6  A    between atoms: N1_16  and  N2_18 
REMARK       I    between atoms: N2_18  and  C12_20 
REMARK    7  A    between atoms: C12_20  and  C13_22 
ROOT
HETATM    1  O1  UNL     1       2.249   2.752  -2.595  1.00  0.00    -0.269 OA
HETATM    2  C1  UNL     1       1.523   2.657  -1.569  1.00  0.00     0.260 C 
HETATM    3  N1  UNL     1       2.117   2.231  -0.364  1.00  0.00    -0.265 N 
ATOM      4  H1  UNL     1       1.543   2.156   0.475  1.00  0.00     0.190 HD
ENDROOT
BRANCH   2   5
HETATM    5  C2  UNL     1       0.099   2.994  -1.667  1.00  0.00     0.283 C 
BRANCH   5   6
HETATM    6  O2  UNL     1      -0.690   2.028  -2.323  1.00  0.00    -0.309 OA
BRANCH   6   7
HETATM    7  C3  UNL     1      -1.625   2.398  -3.289  1.00  0.00     0.283 C 
HETATM    8  O3  UNL     1      -2.798   1.978  -3.164  1.00  0.00    -0.260 OA
BRANCH   7   9
HETATM    9  C4  UNL     1      -1.255   3.252  -4.421  1.00  0.00     0.083 C 
HETATM   10  C5  UNL     1      -1.647   4.512  -4.445  1.00  0.00     0.019 C 
BRANCH  10  11
HETATM   11  C6  UNL     1      -1.318   5.411  -5.536  1.00  0.00    -0.014 A 
HETATM   12  C7  UNL     1      -2.162   5.653  -6.586  1.00  0.00     0.013 A 
HETATM   13  C8  UNL     1      -1.798   6.529  -7.609  1.00  0.00     0.001 A 
HETATM   14  C9  UNL     1      -0.590   7.176  -7.606  1.00  0.00     0.002 A 
HETATM   15  C10 UNL     1       0.265   6.936  -6.552  1.00  0.00     0.024 A 
HETATM   16  C11 UNL     1      -0.098   6.073  -5.545  1.00  0.00     0.044 A 
HETATM   17 CL1  UNL     1       0.995   5.775  -4.210  1.00  0.00    -0.083 Cl
ENDBRANCH  10  11
ENDBRANCH   7   9
ENDBRANCH   6   7
ENDBRANCH   5   6
ENDBRANCH   2   5
BRANCH   3  18
HETATM   18  N2  UNL     1       3.487   1.905  -0.291  1.00  0.00    -0.262 N 
HETATM   19  C12 UNL     1       4.422   2.838   0.194  1.00  0.00     0.293 C 
HETATM   20  O4  UNL     1       4.036   3.979   0.569  1.00  0.00    -0.264 OA
ATOM     21  H2  UNL     1       3.804   0.983  -0.594  1.00  0.00     0.190 HD
BRANCH  19  22
HETATM   22  C13 UNL     1       5.829   2.456   0.252  1.00  0.00     0.144 A 
HETATM   23  C14 UNL     1       6.309   1.209   0.652  1.00  0.00     0.045 A 
HETATM   24  C15 UNL     1       7.675   1.269   0.561  1.00  0.00     0.027 A 
HETATM   25  C16 UNL     1       7.994   2.526   0.116  1.00  0.00     0.143 A 
HETATM   26  O5  UNL     1       6.862   3.201  -0.056  1.00  0.00    -0.317 OA
ENDBRANCH  19  22
ENDBRANCH   3  18
TORSDOF 7
ENDMDL
MODEL 4
REMARK VINA RESULT: -8.156051476      5.432      7.083
REMARK  7 active torsions:
REMARK  status: ('A' for Active; 'I' for Inactive)
REMARK    1  A    between atoms: C1_2  and  C2_3 
REMARK       I    between atoms: C1_2  and  N1_16 
REMARK    2  A    between atoms: C2_3  and  O2_4 
REMARK    3  A    between atoms: O2_4  and  C3_5 
REMARK    4  A    between atoms: C3_5  and  C4_7 
REMARK    5  A    between atoms: C5_8  and  C6_9 
REMARK    6  A    between atoms: N1_16  and  N2_18 
REMARK       I    between atoms: N2_18  and  C12_20 
REMARK    7  A    between atoms: C12_20  and  C13_22 
ROOT
HETATM    1  O1  UNL     1       3.574   2.617  -2.235  1.00  0.00    -0.269 OA
HETATM    2  C1  UNL     1       3.113   2.585  -1.062  1.00  0.00     0.260 C 
HETATM    3  N1  UNL     1       4.005   2.343   0.002  1.00  0.00    -0.265 N 
ATOM      4  H1  UNL     1       3.646   2.321   0.956  1.00  0.00     0.190 HD
ENDROOT
BRANCH   2   5
HETATM    5  C2  UNL     1       1.678   2.802  -0.852  1.00  0.00     0.283 C 
BRANCH   5   6
HETATM    6  O2  UNL     1       1.016   3.437  -1.922  1.00  0.00    -0.309 OA
BRANCH   6   7
HETATM    7  C3  UNL     1      -0.191   2.945  -2.415  1.00  0.00     0.283 C 
HETATM    8  O3  UNL     1      -0.685   1.935  -1.863  1.00  0.00    -0.260 OA
BRANCH   7   9
HETATM    9  C4  UNL     1      -0.870   3.583  -3.546  1.00  0.00     0.083 C 
HETATM   10  C5  UNL     1      -0.297   4.597  -4.166  1.00  0.00     0.019 C 
BRANCH  10  11
HETATM   11  C6  UNL     1      -0.915   5.275  -5.291  1.00  0.00    -0.014 A 
HETATM   12  C7  UNL     1      -2.203   5.038  -5.690  1.00  0.00     0.013 A 
HETATM   13  C8  UNL     1      -2.751   5.719  -6.777  1.00  0.00     0.001 A 
HETATM   14  C9  UNL     1      -2.028   6.643  -7.486  1.00  0.00     0.002 A 
HETATM   15  C10 UNL     1      -0.731   6.885  -7.090  1.00  0.00     0.024 A 
HETATM   16  C11 UNL     1      -0.195   6.213  -6.017  1.00  0.00     0.044 A 
HETATM   17 CL1  UNL     1       1.454   6.528  -5.521  1.00  0.00    -0.083 Cl
ENDBRANCH  10  11
ENDBRANCH   7   9
ENDBRANCH   6   7
ENDBRANCH   5   6
ENDBRANCH   2   5
BRANCH   3  18
HETATM   18  N2  UNL     1       5.380   2.129  -0.221  1.00  0.00    -0.262 N 
HETATM   19  C12 UNL     1       6.343   2.732   0.609  1.00  0.00     0.293 C 
HETATM   20  O4  UNL     1       5.978   3.472   1.563  1.00  0.00    -0.264 OA
ATOM     21  H2  UNL     1       5.681   1.532  -0.992  1.00  0.00     0.190 HD
BRANCH  19  22
HETATM   22  C13 UNL     1       7.756   2.482   0.340  1.00  0.00     0.144 A 
HETATM   23  C14 UNL     1       8.382   1.237   0.413  1.00  0.00     0.045 A 
HETATM   24  C15 UNL     1       9.697   1.443   0.089  1.00  0.00     0.027 A 
HETATM   25  C16 UNL     1       9.844   2.781  -0.170  1.00  0.00     0.143 A 
HETATM   26  O5  UNL     1       8.661   3.364  -0.008  1.00  0.00    -0.317 OA
ENDBRANCH  19  22
ENDBRANCH   3  18
TORSDOF 7
ENDMDL
MODEL 5
REMARK VINA RESULT: -8.149378412      1.583      1.882
REMARK  7 active torsions:
REMARK  status: ('A' for Active; 'I' for Inactive)
REMARK    1  A    between atoms: C1_2  and  C2_3 
REMARK       I    between atoms: C1_2  and  N1_16 
REMARK    2  A    between atoms: C2_3  and  O2_4 
REMARK    3  A    between atoms: O2_4  and  C3_5 
REMARK    4  A    between atoms: C3_5  and  C4_7 
REMARK    5  A    between atoms: C5_8  and  C6_9 
REMARK    6  A    between atoms: N1_16  and  N2_18 
REMARK       I    between atoms: N2_18  and  C12_20 
REMARK    7  A    between atoms: C12_20  and  C13_22 
ROOT
HETATM    1  O1  UNL     1       1.106   7.219  -8.550  1.00  0.00    -0.269 OA
HETATM    2  C1  UNL     1       0.415   7.134  -7.500  1.00  0.00     0.260 C 
HETATM    3  N1  UNL     1       1.053   6.743  -6.306  1.00  0.00    -0.265 N 
ATOM      4  H1  UNL     1       0.506   6.677  -5.448  1.00  0.00     0.190 HD
ENDROOT
BRANCH   2   5
HETATM    5  C2  UNL     1      -1.018   7.448  -7.560  1.00  0.00     0.283 C 
BRANCH   5   6
HETATM    6  O2  UNL     1      -1.840   6.368  -7.939  1.00  0.00    -0.309 OA
BRANCH   6   7
HETATM    7  C3  UNL     1      -2.709   5.771  -7.027  1.00  0.00     0.283 C 
HETATM    8  O3  UNL     1      -3.906   5.625  -7.364  1.00  0.00    -0.260 OA
BRANCH   7   9
HETATM    9  C4  UNL     1      -2.245   5.322  -5.711  1.00  0.00     0.083 C 
HETATM   10  C5  UNL     1      -1.775   4.098  -5.566  1.00  0.00     0.019 C 
BRANCH  10  11
HETATM   11  C6  UNL     1      -1.301   3.590  -4.291  1.00  0.00    -0.014 A 
HETATM   12  C7  UNL     1      -0.389   4.253  -3.515  1.00  0.00     0.013 A 
HETATM   13  C8  UNL     1       0.032   3.722  -2.295  1.00  0.00     0.001 A 
HETATM   14  C9  UNL     1      -0.444   2.525  -1.830  1.00  0.00     0.002 A 
HETATM   15  C10 UNL     1      -1.362   1.852  -2.606  1.00  0.00     0.024 A 
HETATM   16  C11 UNL     1      -1.775   2.379  -3.807  1.00  0.00     0.044 A 
HETATM   17 CL1  UNL     1      -2.942   1.517  -4.788  1.00  0.00    -0.083 Cl
ENDBRANCH  10  11
ENDBRANCH   7   9
ENDBRANCH   6   7
ENDBRANCH   5   6
ENDBRANCH   2   5
BRANCH   3  18
HETATM   18  N2  UNL     1       2.429   6.439  -6.270  1.00  0.00    -0.262 N 
HETATM   19  C12 UNL     1       3.319   7.231  -5.520  1.00  0.00     0.293 C 
HETATM   20  O4  UNL     1       2.886   8.223  -4.872  1.00  0.00    -0.264 OA
ATOM     21  H2  UNL     1       2.784   5.638  -6.793  1.00  0.00     0.190 HD
BRANCH  19  22
HETATM   22  C13 UNL     1       4.735   6.878  -5.512  1.00  0.00     0.144 A 
HETATM   23  C14 UNL     1       5.376   6.097  -6.474  1.00  0.00     0.045 A 
HETATM   24  C15 UNL     1       6.689   6.009  -6.093  1.00  0.00     0.027 A 
HETATM   25  C16 UNL     1       6.821   6.724  -4.931  1.00  0.00     0.143 A 
HETATM   26  O5  UNL     1       5.629   7.225  -4.620  1.00  0.00    -0.317 OA
ENDBRANCH  19  22
ENDBRANCH   3  18
TORSDOF 7
ENDMDL
