MODEL 1
REMARK VINA RESULT: -8.039871326      0.000      0.000
REMARK  4 active torsions:
REMARK  status: ('A' for Active; 'I' for Inactive)
REMARK    1  A    between atoms: C3_3  and  C19_24 
REMARK    2  A    between atoms: C4_4  and  C5_5 
REMARK       I    between atoms: N2_12  and  C9_13 
REMARK    3  A    between atoms: C9_13  and  C10_15 
REMARK    4  A    between atoms: C10_15  and  C11_16 
ROOT
HETATM    1  C1  UNL     1      -6.572   4.354  15.748  1.00  0.00     0.018 C 
HETATM    2  C2  UNL     1      -5.893   3.376  15.526  1.00  0.00    -0.074 C 
HETATM    3  C3  UNL     1      -5.073   2.232  15.254  1.00  0.00     0.060 C 
HETATM    4  C4  UNL     1      -4.482   2.140  14.078  1.00  0.00     0.023 C 
ENDROOT
BRANCH   3   5
HETATM    5  C19 UNL     1      -4.935   1.229  16.294  1.00  0.00     0.163 C 
HETATM    6  C20 UNL     1      -6.084   0.885  17.143  1.00  0.00     0.097 C 
HETATM    7  O3  UNL     1      -3.799   0.696  16.411  1.00  0.00    -0.292 OA
ENDBRANCH   3   5
BRANCH   4   8
HETATM    8  C5  UNL     1      -4.657   3.186  13.059  1.00  0.00     0.123 C 
HETATM    9  N1  UNL     1      -5.083   2.524  11.840  1.00  0.00    -0.349 N 
HETATM   10  C6  UNL     1      -4.075   2.016  10.986  1.00  0.00     0.243 C 
ATOM     11  H1  UNL     1      -6.072   2.429  11.607  1.00  0.00     0.163 HD
HETATM   12  O1  UNL     1      -4.355   1.105  10.167  1.00  0.00    -0.269 OA
HETATM   13  C7  UNL     1      -2.730   2.553  11.068  1.00  0.00     0.100 C 
HETATM   14  C8  UNL     1      -2.444   3.508  11.928  1.00  0.00     0.030 C 
HETATM   15  N2  UNL     1      -1.219   4.204  12.212  1.00  0.00    -0.321 N 
HETATM   16  C17 UNL     1      -3.494   4.078  12.845  1.00  0.00     0.024 C 
HETATM   17  C9  UNL     1      -0.003   4.239  11.500  1.00  0.00     0.224 C 
HETATM   18  C15 UNL     1      -1.427   4.940  13.448  1.00  0.00     0.133 C 
HETATM   19  O2  UNL     1       0.937   4.965  11.989  1.00  0.00    -0.273 OA
HETATM   20  C16 UNL     1      -2.622   4.270  14.081  1.00  0.00     0.038 C 
HETATM   21  C18 UNL     1      -3.892   5.481  12.398  1.00  0.00     0.024 C 
BRANCH  17  22
HETATM   22  C10 UNL     1       0.312   3.533  10.250  1.00  0.00     0.111 C 
BRANCH  22  23
HETATM   23  C11 UNL     1       0.081   4.425   9.029  1.00  0.00    -0.043 C 
HETATM   24  C12 UNL     1      -0.597   3.606   7.976  1.00  0.00     0.015 C 
HETATM   25  C13 UNL     1       1.462   4.889   8.594  1.00  0.00     0.015 C 
HETATM   26  C14 UNL     1      -0.754   5.616   9.358  1.00  0.00     0.015 C 
ENDBRANCH  22  23
ENDBRANCH  17  22
ENDBRANCH   4   8
TORSDOF 4
ENDMDL
MODEL 2
REMARK VINA RESULT: -7.949180597      1.903      7.167
REMARK  4 active torsions:
REMARK  status: ('A' for Active; 'I' for Inactive)
REMARK    1  A    between atoms: C3_3  and  C19_24 
REMARK    2  A    between atoms: C4_4  and  C5_5 
REMARK       I    between atoms: N2_12  and  C9_13 
REMARK    3  A    between atoms: C9_13  and  C10_15 
REMARK    4  A    between atoms: C10_15  and  C11_16 
ROOT
HETATM    1  C1  UNL     1      -2.109   4.708   8.426  1.00  0.00     0.018 C 
HETATM    2  C2  UNL     1      -1.487   4.419   9.425  1.00  0.00    -0.074 C 
HETATM    3  C3  UNL     1      -0.768   4.062  10.612  1.00  0.00     0.060 C 
HETATM    4  C4  UNL     1      -1.434   3.939  11.744  1.00  0.00     0.023 C 
ENDROOT
BRANCH   3   5
HETATM    5  C19 UNL     1       0.665   3.855  10.505  1.00  0.00     0.163 C 
HETATM    6  C20 UNL     1       1.564   4.364  11.550  1.00  0.00     0.097 C 
HETATM    7  O3  UNL     1       1.065   3.230   9.486  1.00  0.00    -0.292 OA
ENDBRANCH   3   5
BRANCH   4   8
HETATM    8  C5  UNL     1      -2.887   4.161  11.797  1.00  0.00     0.123 C 
HETATM    9  N1  UNL     1      -3.103   5.383  12.549  1.00  0.00    -0.349 N 
HETATM   10  C6  UNL     1      -3.180   5.276  13.959  1.00  0.00     0.243 C 
ATOM     11  H1  UNL     1      -3.195   6.284  12.080  1.00  0.00     0.163 HD
HETATM   12  O1  UNL     1      -2.952   6.286  14.672  1.00  0.00    -0.269 OA
HETATM   13  C7  UNL     1      -3.521   4.002  14.563  1.00  0.00     0.100 C 
HETATM   14  C8  UNL     1      -3.759   2.950  13.809  1.00  0.00     0.030 C 
HETATM   15  N2  UNL     1      -4.110   1.596  14.140  1.00  0.00    -0.321 N 
HETATM   16  C17 UNL     1      -3.695   3.029  12.307  1.00  0.00     0.024 C 
HETATM   17  C9  UNL     1      -4.530   1.035  15.364  1.00  0.00     0.224 C 
HETATM   18  C15 UNL     1      -3.961   0.810  12.926  1.00  0.00     0.133 C 
HETATM   19  O2  UNL     1      -4.789  -0.223  15.369  1.00  0.00    -0.273 OA
HETATM   20  C16 UNL     1      -3.080   1.659  12.042  1.00  0.00     0.038 C 
HETATM   21  C18 UNL     1      -5.096   2.976  11.706  1.00  0.00     0.024 C 
BRANCH  17  22
HETATM   22  C10 UNL     1      -4.707   1.735  16.644  1.00  0.00     0.111 C 
BRANCH  22  23
HETATM   23  C11 UNL     1      -6.178   2.071  16.900  1.00  0.00    -0.043 C 
HETATM   24  C12 UNL     1      -6.617   3.055  15.862  1.00  0.00     0.015 C 
HETATM   25  C13 UNL     1      -6.226   2.657  18.302  1.00  0.00     0.015 C 
HETATM   26  C14 UNL     1      -7.045   0.859  16.847  1.00  0.00     0.015 C 
ENDBRANCH  22  23
ENDBRANCH  17  22
ENDBRANCH   4   8
TORSDOF 4
ENDMDL
MODEL 3
REMARK VINA RESULT: -7.523881420      1.093      1.177
REMARK  4 active torsions:
REMARK  status: ('A' for Active; 'I' for Inactive)
REMARK    1  A    between atoms: C3_3  and  C19_24 
REMARK    2  A    between atoms: C4_4  and  C5_5 
REMARK       I    between atoms: N2_12  and  C9_13 
REMARK    3  A    between atoms: C9_13  and  C10_15 
REMARK    4  A    between atoms: C10_15  and  C11_16 
ROOT
HETATM    1  C1  UNL     1      -6.294   4.657  14.859  1.00  0.00     0.018 C 
HETATM    2  C2  UNL     1      -5.445   3.794  14.882  1.00  0.00    -0.074 C 
HETATM    3  C3  UNL     1      -4.424   2.788  14.900  1.00  0.00     0.060 C 
HETATM    4  C4  UNL     1      -3.620   2.681  13.860  1.00  0.00     0.023 C 
ENDROOT
BRANCH   3   5
HETATM    5  C19 UNL     1      -4.328   1.936  16.071  1.00  0.00     0.163 C 
HETATM    6  C20 UNL     1      -5.489   1.764  16.955  1.00  0.00     0.097 C 
HETATM    7  O3  UNL     1      -3.215   1.376  16.266  1.00  0.00    -0.292 OA
ENDBRANCH   3   5
BRANCH   4   8
HETATM    8  C5  UNL     1      -3.761   3.571  12.698  1.00  0.00     0.123 C 
HETATM    9  N1  UNL     1      -3.910   2.724  11.529  1.00  0.00    -0.349 N 
HETATM   10  C6  UNL     1      -2.727   2.270  10.898  1.00  0.00     0.243 C 
ATOM     11  H1  UNL     1      -4.832   2.466  11.176  1.00  0.00     0.163 HD
HETATM   12  O1  UNL     1      -2.764   1.243  10.174  1.00  0.00    -0.269 OA
HETATM   13  C7  UNL     1      -1.487   2.997  11.093  1.00  0.00     0.100 C 
HETATM   14  C8  UNL     1      -1.457   4.072  11.851  1.00  0.00     0.030 C 
HETATM   15  N2  UNL     1      -0.386   4.962  12.208  1.00  0.00    -0.321 N 
HETATM   16  C17 UNL     1      -2.697   4.589  12.531  1.00  0.00     0.024 C 
HETATM   17  C9  UNL     1       0.913   5.087  11.672  1.00  0.00     0.224 C 
HETATM   18  C15 UNL     1      -0.871   5.794  13.296  1.00  0.00     0.133 C 
HETATM   19  O2  UNL     1       1.670   5.988  12.186  1.00  0.00    -0.273 OA
HETATM   20  C16 UNL     1      -2.058   5.038  13.840  1.00  0.00     0.038 C 
HETATM   21  C18 UNL     1      -3.191   5.863  11.853  1.00  0.00     0.024 C 
BRANCH  17  22
HETATM   22  C10 UNL     1       1.501   4.297  10.582  1.00  0.00     0.111 C 
BRANCH  22  23
HETATM   23  C11 UNL     1       1.304   4.979   9.226  1.00  0.00    -0.043 C 
HETATM   24  C12 UNL     1       0.828   3.949   8.252  1.00  0.00     0.015 C 
HETATM   25  C13 UNL     1       2.667   5.539   8.849  1.00  0.00     0.015 C 
HETATM   26  C14 UNL     1       0.320   6.097   9.302  1.00  0.00     0.015 C 
ENDBRANCH  22  23
ENDBRANCH  17  22
ENDBRANCH   4   8
TORSDOF 4
ENDMDL
MODEL 4
REMARK VINA RESULT: -7.406494413      2.024      7.063
REMARK  4 active torsions:
REMARK  status: ('A' for Active; 'I' for Inactive)
REMARK    1  A    between atoms: C3_3  and  C19_24 
REMARK    2  A    between atoms: C4_4  and  C5_5 
REMARK       I    between atoms: N2_12  and  C9_13 
REMARK    3  A    between atoms: C9_13  and  C10_15 
REMARK    4  A    between atoms: C10_15  and  C11_16 
ROOT
HETATM    1  C1  UNL     1       0.602   4.604  10.181  1.00  0.00     0.018 C 
HETATM    2  C2  UNL     1      -0.572   4.460   9.924  1.00  0.00    -0.074 C 
HETATM    3  C3  UNL     1      -1.968   4.298   9.641  1.00  0.00     0.060 C 
HETATM    4  C4  UNL     1      -2.750   3.791  10.575  1.00  0.00     0.023 C 
ENDROOT
BRANCH   3   5
HETATM    5  C19 UNL     1      -2.449   4.702   8.333  1.00  0.00     0.163 C 
HETATM    6  C20 UNL     1      -1.496   5.084   7.282  1.00  0.00     0.097 C 
HETATM    7  O3  UNL     1      -3.700   4.702   8.172  1.00  0.00    -0.292 OA
ENDBRANCH   3   5
BRANCH   4   8
HETATM    8  C5  UNL     1      -2.209   3.396  11.884  1.00  0.00     0.123 C 
HETATM    9  N1  UNL     1      -2.243   1.947  11.939  1.00  0.00    -0.349 N 
HETATM   10  C6  UNL     1      -3.444   1.338  12.376  1.00  0.00     0.243 C 
ATOM     11  H1  UNL     1      -1.432   1.388  11.672  1.00  0.00     0.163 HD
HETATM   12  O1  UNL     1      -3.685   0.145  12.063  1.00  0.00    -0.269 OA
HETATM   13  C7  UNL     1      -4.382   2.100  13.179  1.00  0.00     0.100 C 
HETATM   14  C8  UNL     1      -4.121   3.348  13.503  1.00  0.00     0.030 C 
HETATM   15  N2  UNL     1      -4.862   4.311  14.271  1.00  0.00    -0.321 N 
HETATM   16  C17 UNL     1      -2.850   4.025  13.063  1.00  0.00     0.024 C 
HETATM   17  C9  UNL     1      -5.986   4.143  15.105  1.00  0.00     0.224 C 
HETATM   18  C15 UNL     1      -4.231   5.603  14.052  1.00  0.00     0.133 C 
HETATM   19  O2  UNL     1      -6.443   5.195  15.685  1.00  0.00    -0.273 OA
HETATM   20  C16 UNL     1      -3.423   5.412  12.792  1.00  0.00     0.038 C 
HETATM   21  C18 UNL     1      -1.896   4.194  14.242  1.00  0.00     0.024 C 
BRANCH  17  22
HETATM   22  C10 UNL     1      -6.699   2.890  15.389  1.00  0.00     0.111 C 
BRANCH  22  23
HETATM   23  C11 UNL     1      -6.285   2.303  16.740  1.00  0.00    -0.043 C 
HETATM   24  C12 UNL     1      -4.840   1.923  16.658  1.00  0.00     0.015 C 
HETATM   25  C13 UNL     1      -7.184   1.097  16.955  1.00  0.00     0.015 C 
HETATM   26  C14 UNL     1      -6.491   3.272  17.855  1.00  0.00     0.015 C 
ENDBRANCH  22  23
ENDBRANCH  17  22
ENDBRANCH   4   8
TORSDOF 4
ENDMDL
MODEL 5
REMARK VINA RESULT: -7.124872470      1.230      1.639
REMARK  4 active torsions:
REMARK  status: ('A' for Active; 'I' for Inactive)
REMARK    1  A    between atoms: C3_3  and  C19_24 
REMARK    2  A    between atoms: C4_4  and  C5_5 
REMARK       I    between atoms: N2_12  and  C9_13 
REMARK    3  A    between atoms: C9_13  and  C10_15 
REMARK    4  A    between atoms: C10_15  and  C11_16 
ROOT
HETATM    1  C1  UNL     1      -6.981   3.932  16.630  1.00  0.00     0.018 C 
HETATM    2  C2  UNL     1      -6.070   3.242  16.231  1.00  0.00    -0.074 C 
HETATM    3  C3  UNL     1      -4.977   2.443  15.759  1.00  0.00     0.060 C 
HETATM    4  C4  UNL     1      -4.218   2.916  14.789  1.00  0.00     0.023 C 
ENDROOT
BRANCH   3   5
HETATM    5  C19 UNL     1      -4.763   1.147  16.377  1.00  0.00     0.163 C 
HETATM    6  C20 UNL     1      -5.838   0.514  17.153  1.00  0.00     0.097 C 
HETATM    7  O3  UNL     1      -3.629   0.625  16.204  1.00  0.00    -0.292 OA
ENDBRANCH   3   5
BRANCH   4   8
HETATM    8  C5  UNL     1      -4.480   4.237  14.197  1.00  0.00     0.123 C 
HETATM    9  N1  UNL     1      -5.295   4.020  13.017  1.00  0.00    -0.349 N 
HETATM   10  C6  UNL     1      -4.623   3.732  11.804  1.00  0.00     0.243 C 
ATOM     11  H1  UNL     1      -6.313   4.072  13.060  1.00  0.00     0.163 HD
HETATM   12  O1  UNL     1      -5.237   3.144  10.879  1.00  0.00    -0.269 OA
HETATM   13  C7  UNL     1      -3.235   4.122  11.645  1.00  0.00     0.100 C 
HETATM   14  C8  UNL     1      -2.600   4.738  12.619  1.00  0.00     0.030 C 
HETATM   15  N2  UNL     1      -1.251   5.223  12.724  1.00  0.00    -0.321 N 
HETATM   16  C17 UNL     1      -3.285   5.067  13.919  1.00  0.00     0.024 C 
HETATM   17  C9  UNL     1      -0.262   5.392  11.733  1.00  0.00     0.224 C 
HETATM   18  C15 UNL     1      -1.026   5.550  14.122  1.00  0.00     0.133 C 
HETATM   19  O2  UNL     1       0.871   5.861  12.116  1.00  0.00    -0.273 OA
HETATM   20  C16 UNL     1      -2.112   4.802  14.857  1.00  0.00     0.038 C 
HETATM   21  C18 UNL     1      -3.562   6.564  14.015  1.00  0.00     0.024 C 
BRANCH  17  22
HETATM   22  C10 UNL     1      -0.383   5.090  10.301  1.00  0.00     0.111 C 
BRANCH  22  23
HETATM   23  C11 UNL     1       0.113   3.678   9.982  1.00  0.00    -0.043 C 
HETATM   24  C12 UNL     1       1.561   3.765   9.616  1.00  0.00     0.015 C 
HETATM   25  C13 UNL     1      -0.744   3.195   8.822  1.00  0.00     0.015 C 
HETATM   26  C14 UNL     1      -0.062   2.751  11.137  1.00  0.00     0.015 C 
ENDBRANCH  22  23
ENDBRANCH  17  22
ENDBRANCH   4   8
TORSDOF 4
ENDMDL
