MODEL 1
REMARK VINA RESULT: -6.866609149      0.000      0.000
REMARK  3 active torsions:
REMARK  status: ('A' for Active; 'I' for Inactive)
REMARK    1  A    between atoms: C4_7  and  C5_8 
REMARK       I    between atoms: C5_8  and  N2_10 
REMARK    2  A    between atoms: C8_15  and  N4_16 
REMARK    3  A    between atoms: N5_27  and  C19_28 
ROOT
HETATM    1  C1  UNL     1      -2.163   8.170  15.150  1.00  0.00     0.100 C 
HETATM    2  C2  UNL     1      -2.074   7.145  14.488  1.00  0.00    -0.140 C 
HETATM    3  C3  UNL     1      -1.956   5.908  13.733  1.00  0.00     0.335 C 
HETATM    4  N1  UNL     1      -1.237   6.078  12.477  1.00  0.00    -0.026 N 
ATOM      5  H11 UNL     1      -0.255   5.803  12.488  1.00  0.00     0.281 HD
ATOM      6  H12 UNL     1      -1.051   7.042  12.200  1.00  0.00     0.281 HD
HETATM    7  C4  UNL     1      -2.082   5.328  11.591  1.00  0.00     0.257 C 
HETATM    8  C8  UNL     1      -2.091   5.637  10.187  1.00  0.00     0.237 C 
HETATM    9  C12 UNL     1      -3.499   5.252   9.780  1.00  0.00     0.044 C 
HETATM   10  C13 UNL     1      -4.336   5.563  11.035  1.00  0.00     0.022 C 
HETATM   11  C14 UNL     1      -4.781   7.027  10.953  1.00  0.00    -0.040 C 
HETATM   12  C15 UNL     1      -4.767   7.649   9.599  1.00  0.00     0.015 C 
HETATM   13  C16 UNL     1      -6.195   7.244  11.529  1.00  0.00     0.015 C 
HETATM   14  C17 UNL     1      -3.658   7.342  11.898  1.00  0.00     0.038 C 
HETATM   15  C18 UNL     1      -3.435   5.887  12.107  1.00  0.00     0.070 C 
HETATM   16  N5  UNL     1      -3.282   5.355  13.368  1.00  0.00    -0.232 NA
ENDROOT
BRANCH  16  17
HETATM   17  C19 UNL     1      -4.123   5.477  14.451  1.00  0.00     0.148 C 
HETATM   18 CL1  UNL     1      -5.764   4.812  14.263  1.00  0.00    -0.084 Cl
ENDBRANCH  16  17
BRANCH   7  19
HETATM   19  C5  UNL     1      -2.038   3.929  12.021  1.00  0.00     0.263 C 
HETATM   20  O1  UNL     1      -0.956   3.372  12.434  1.00  0.00    -0.270 OA
HETATM   21  N2  UNL     1      -3.167   3.075  12.028  1.00  0.00    -0.317 N 
HETATM   22  C6  UNL     1      -3.212   1.834  11.842  1.00  0.00     0.091 C 
ATOM     23  H2  UNL     1      -4.063   3.528  12.209  1.00  0.00     0.169 HD
HETATM   24  C7  UNL     1      -4.557   1.169  11.908  1.00  0.00     0.085 C 
HETATM   25  N3  UNL     1      -2.106   0.995  11.562  1.00  0.00    -0.088 NA
ENDBRANCH   7  19
BRANCH   8  26
HETATM   26  N4  UNL     1      -1.071   5.232   9.307  1.00  0.00    -0.071 N 
HETATM   27  C9  UNL     1      -1.392   3.857   8.868  1.00  0.00     0.272 C 
HETATM   28  C10 UNL     1       0.275   5.239   9.679  1.00  0.00     0.272 C 
HETATM   29  C11 UNL     1      -1.209   6.025   8.072  1.00  0.00     0.272 C 
ENDBRANCH   8  26
TORSDOF 3
ENDMDL
MODEL 2
REMARK VINA RESULT: -6.533341435      2.038      4.566
REMARK  3 active torsions:
REMARK  status: ('A' for Active; 'I' for Inactive)
REMARK    1  A    between atoms: C4_7  and  C5_8 
REMARK       I    between atoms: C5_8  and  N2_10 
REMARK    2  A    between atoms: C8_15  and  N4_16 
REMARK    3  A    between atoms: N5_27  and  C19_28 
ROOT
HETATM    1  C1  UNL     1      -6.967   7.719  10.998  1.00  0.00     0.100 C 
HETATM    2  C2  UNL     1      -6.067   6.977  10.633  1.00  0.00    -0.140 C 
HETATM    3  C3  UNL     1      -5.000   6.109  10.162  1.00  0.00     0.335 C 
HETATM    4  N1  UNL     1      -5.199   4.713  10.536  1.00  0.00    -0.026 N 
ATOM      5  H11 UNL     1      -5.589   4.112   9.810  1.00  0.00     0.281 HD
ATOM      6  H12 UNL     1      -5.949   4.537  11.204  1.00  0.00     0.281 HD
HETATM    7  C4  UNL     1      -3.877   4.374  10.981  1.00  0.00     0.257 C 
HETATM    8  C8  UNL     1      -3.698   3.303  11.923  1.00  0.00     0.237 C 
HETATM    9  C12 UNL     1      -2.446   3.729  12.664  1.00  0.00     0.044 C 
HETATM   10  C13 UNL     1      -2.534   5.267  12.668  1.00  0.00     0.022 C 
HETATM   11  C14 UNL     1      -3.334   5.689  13.905  1.00  0.00    -0.040 C 
HETATM   12  C15 UNL     1      -3.417   4.696  15.012  1.00  0.00     0.015 C 
HETATM   13  C16 UNL     1      -2.809   7.002  14.523  1.00  0.00     0.015 C 
HETATM   14  C17 UNL     1      -4.516   5.847  12.994  1.00  0.00     0.038 C 
HETATM   15  C18 UNL     1      -3.627   5.656  11.818  1.00  0.00     0.070 C 
HETATM   16  N5  UNL     1      -3.684   6.494  10.726  1.00  0.00    -0.232 NA
ENDROOT
BRANCH  16  17
HETATM   17  C19 UNL     1      -3.580   7.866  10.700  1.00  0.00     0.148 C 
HETATM   18 CL1  UNL     1      -2.054   8.560  11.301  1.00  0.00    -0.084 Cl
ENDBRANCH  16  17
BRANCH   7  19
HETATM   19  C5  UNL     1      -2.984   4.471   9.824  1.00  0.00     0.263 C 
HETATM   20  O1  UNL     1      -3.404   4.317   8.619  1.00  0.00    -0.270 OA
HETATM   21  N2  UNL     1      -1.600   4.748   9.923  1.00  0.00    -0.317 N 
HETATM   22  C6  UNL     1      -0.667   4.356   9.179  1.00  0.00     0.091 C 
ATOM     23  H2  UNL     1      -1.323   5.346  10.701  1.00  0.00     0.169 HD
HETATM   24  C7  UNL     1       0.727   4.805   9.514  1.00  0.00     0.085 C 
HETATM   25  N3  UNL     1      -0.804   3.512   8.050  1.00  0.00    -0.088 NA
ENDBRANCH   7  19
BRANCH   8  26
HETATM   26  N4  UNL     1      -3.758   1.945  11.561  1.00  0.00    -0.071 N 
HETATM   27  C9  UNL     1      -2.395   1.540  11.155  1.00  0.00     0.272 C 
HETATM   28  C10 UNL     1      -4.633   1.478  10.578  1.00  0.00     0.272 C 
HETATM   29  C11 UNL     1      -3.993   1.167  12.791  1.00  0.00     0.272 C 
ENDBRANCH   8  26
TORSDOF 3
ENDMDL
MODEL 3
REMARK VINA RESULT: -6.402911734      1.762      4.355
REMARK  3 active torsions:
REMARK  status: ('A' for Active; 'I' for Inactive)
REMARK    1  A    between atoms: C4_7  and  C5_8 
REMARK       I    between atoms: C5_8  and  N2_10 
REMARK    2  A    between atoms: C8_15  and  N4_16 
REMARK    3  A    between atoms: N5_27  and  C19_28 
ROOT
HETATM    1  C1  UNL     1      -5.320   7.878  10.736  1.00  0.00     0.100 C 
HETATM    2  C2  UNL     1      -4.505   7.010  11.017  1.00  0.00    -0.140 C 
HETATM    3  C3  UNL     1      -3.510   5.998  11.330  1.00  0.00     0.335 C 
HETATM    4  N1  UNL     1      -3.978   4.643  11.069  1.00  0.00    -0.026 N 
ATOM      5  H11 UNL     1      -3.671   4.231  10.188  1.00  0.00     0.281 HD
ATOM      6  H12 UNL     1      -4.973   4.550  10.863  1.00  0.00     0.281 HD
HETATM    7  C4  UNL     1      -3.525   3.979  12.259  1.00  0.00     0.257 C 
HETATM    8  C8  UNL     1      -4.195   2.788  12.706  1.00  0.00     0.237 C 
HETATM    9  C12 UNL     1      -3.989   2.846  14.207  1.00  0.00     0.044 C 
HETATM   10  C13 UNL     1      -3.989   4.356  14.514  1.00  0.00     0.022 C 
HETATM   11  C14 UNL     1      -5.439   4.786  14.761  1.00  0.00    -0.040 C 
HETATM   12  C15 UNL     1      -6.397   3.706  15.129  1.00  0.00     0.015 C 
HETATM   13  C16 UNL     1      -5.552   5.872  15.850  1.00  0.00     0.015 C 
HETATM   14  C17 UNL     1      -5.446   5.301  13.351  1.00  0.00     0.038 C 
HETATM   15  C18 UNL     1      -3.981   5.068  13.266  1.00  0.00     0.070 C 
HETATM   16  N5  UNL     1      -3.126   6.025  12.762  1.00  0.00    -0.232 NA
ENDROOT
BRANCH  16  17
HETATM   17  C19 UNL     1      -2.990   7.336  13.157  1.00  0.00     0.148 C 
HETATM   18 CL1  UNL     1      -2.463   7.611  14.835  1.00  0.00    -0.084 Cl
ENDBRANCH  16  17
BRANCH   7  19
HETATM   19  C5  UNL     1      -2.061   4.023  12.257  1.00  0.00     0.263 C 
HETATM   20  O1  UNL     1      -1.374   4.058  13.343  1.00  0.00    -0.270 OA
HETATM   21  N2  UNL     1      -1.278   4.025  11.078  1.00  0.00    -0.317 N 
HETATM   22  C6  UNL     1      -0.165   4.570  10.877  1.00  0.00     0.091 C 
ATOM     23  H2  UNL     1      -1.670   3.515  10.286  1.00  0.00     0.169 HD
HETATM   24  C7  UNL     1       0.454   4.410   9.517  1.00  0.00     0.085 C 
HETATM   25  N3  UNL     1       0.565   5.338  11.817  1.00  0.00    -0.088 NA
ENDBRANCH   7  19
BRANCH   8  26
HETATM   26  N4  UNL     1      -3.998   1.529  12.113  1.00  0.00    -0.071 N 
HETATM   27  C9  UNL     1      -4.315   0.509  13.136  1.00  0.00     0.272 C 
HETATM   28  C10 UNL     1      -2.781   1.163  11.535  1.00  0.00     0.272 C 
HETATM   29  C11 UNL     1      -5.058   1.341  11.105  1.00  0.00     0.272 C 
ENDBRANCH   8  26
TORSDOF 3
ENDMDL
MODEL 4
REMARK VINA RESULT: -6.274619330      1.943      3.899
REMARK  3 active torsions:
REMARK  status: ('A' for Active; 'I' for Inactive)
REMARK    1  A    between atoms: C4_7  and  C5_8 
REMARK       I    between atoms: C5_8  and  N2_10 
REMARK    2  A    between atoms: C8_15  and  N4_16 
REMARK    3  A    between atoms: N5_27  and  C19_28 
ROOT
HETATM    1  C1  UNL     1      -3.263   2.750  15.819  1.00  0.00     0.100 C 
HETATM    2  C2  UNL     1      -3.628   3.277  14.777  1.00  0.00    -0.140 C 
HETATM    3  C3  UNL     1      -4.094   3.882  13.541  1.00  0.00     0.335 C 
HETATM    4  N1  UNL     1      -3.089   3.860  12.485  1.00  0.00    -0.026 N 
ATOM      5  H11 UNL     1      -3.187   3.114  11.796  1.00  0.00     0.281 HD
ATOM      6  H12 UNL     1      -2.150   3.584  12.773  1.00  0.00     0.281 HD
HETATM    7  C4  UNL     1      -3.217   5.197  11.977  1.00  0.00     0.257 C 
HETATM    8  C8  UNL     1      -2.102   5.812  11.311  1.00  0.00     0.237 C 
HETATM    9  C12 UNL     1      -2.317   7.283  11.612  1.00  0.00     0.044 C 
HETATM   10  C13 UNL     1      -2.965   7.274  13.009  1.00  0.00     0.022 C 
HETATM   11  C14 UNL     1      -1.841   7.291  14.050  1.00  0.00    -0.040 C 
HETATM   12  C15 UNL     1      -0.513   7.780  13.583  1.00  0.00     0.015 C 
HETATM   13  C16 UNL     1      -2.207   8.120  15.298  1.00  0.00     0.015 C 
HETATM   14  C17 UNL     1      -2.051   5.811  14.190  1.00  0.00     0.038 C 
HETATM   15  C18 UNL     1      -3.275   5.913  13.353  1.00  0.00     0.070 C 
HETATM   16  N5  UNL     1      -4.456   5.308  13.724  1.00  0.00    -0.232 NA
ENDROOT
BRANCH  16  17
HETATM   17  C19 UNL     1      -5.142   5.438  14.910  1.00  0.00     0.148 C 
HETATM   18 CL1  UNL     1      -6.679   4.550  15.042  1.00  0.00    -0.084 Cl
ENDBRANCH  16  17
BRANCH   7  19
HETATM   19  C5  UNL     1      -4.558   5.323  11.404  1.00  0.00     0.263 C 
HETATM   20  O1  UNL     1      -5.115   4.371  10.743  1.00  0.00    -0.270 OA
HETATM   21  N2  UNL     1      -5.358   6.484  11.529  1.00  0.00    -0.317 N 
HETATM   22  C6  UNL     1      -6.203   6.944  10.722  1.00  0.00     0.091 C 
ATOM     23  H2  UNL     1      -5.232   7.017  12.389  1.00  0.00     0.169 HD
HETATM   24  C7  UNL     1      -6.921   8.206  11.109  1.00  0.00     0.085 C 
HETATM   25  N3  UNL     1      -6.539   6.387   9.464  1.00  0.00    -0.088 NA
ENDBRANCH   7  19
BRANCH   8  26
HETATM   26  N4  UNL     1      -1.739   5.510   9.986  1.00  0.00    -0.071 N 
HETATM   27  C9  UNL     1      -2.484   6.434   9.105  1.00  0.00     0.272 C 
HETATM   28  C10 UNL     1      -1.885   4.228   9.452  1.00  0.00     0.272 C 
HETATM   29  C11 UNL     1      -0.335   5.924   9.805  1.00  0.00     0.272 C 
ENDBRANCH   8  26
TORSDOF 3
ENDMDL
MODEL 5
REMARK VINA RESULT: -6.089258591      2.109      4.690
REMARK  3 active torsions:
REMARK  status: ('A' for Active; 'I' for Inactive)
REMARK    1  A    between atoms: C4_7  and  C5_8 
REMARK       I    between atoms: C5_8  and  N2_10 
REMARK    2  A    between atoms: C8_15  and  N4_16 
REMARK    3  A    between atoms: N5_27  and  C19_28 
ROOT
HETATM    1  C1  UNL     1      -4.143   6.937   8.805  1.00  0.00     0.100 C 
HETATM    2  C2  UNL     1      -3.889   5.968   9.508  1.00  0.00    -0.140 C 
HETATM    3  C3  UNL     1      -3.587   4.795  10.311  1.00  0.00     0.335 C 
HETATM    4  N1  UNL     1      -4.496   4.630  11.438  1.00  0.00    -0.026 N 
ATOM      5  H11 UNL     1      -5.253   3.960  11.301  1.00  0.00     0.281 HD
ATOM      6  H12 UNL     1      -5.115   5.418  11.627  1.00  0.00     0.281 HD
HETATM    7  C4  UNL     1      -3.562   4.309  12.480  1.00  0.00     0.257 C 
HETATM    8  C8  UNL     1      -3.904   4.580  13.849  1.00  0.00     0.237 C 
HETATM    9  C12 UNL     1      -2.548   4.833  14.477  1.00  0.00     0.044 C 
HETATM   10  C13 UNL     1      -1.738   5.483  13.340  1.00  0.00     0.022 C 
HETATM   11  C14 UNL     1      -1.976   6.996  13.397  1.00  0.00    -0.040 C 
HETATM   12  C15 UNL     1      -2.464   7.542  14.694  1.00  0.00     0.015 C 
HETATM   13  C16 UNL     1      -0.718   7.803  13.018  1.00  0.00     0.015 C 
HETATM   14  C17 UNL     1      -2.965   6.806  12.282  1.00  0.00     0.038 C 
HETATM   15  C18 UNL     1      -2.513   5.398  12.131  1.00  0.00     0.070 C 
HETATM   16  N5  UNL     1      -2.226   4.860  10.895  1.00  0.00    -0.232 NA
ENDROOT
BRANCH  16  17
HETATM   17  C19 UNL     1      -1.359   5.340   9.940  1.00  0.00     0.148 C 
HETATM   18 CL1  UNL     1       0.365   5.385  10.380  1.00  0.00    -0.084 Cl
ENDBRANCH  16  17
BRANCH   7  19
HETATM   19  C5  UNL     1      -2.939   3.029  12.133  1.00  0.00     0.263 C 
HETATM   20  O1  UNL     1      -1.677   2.821  12.266  1.00  0.00    -0.270 OA
HETATM   21  N2  UNL     1      -3.658   1.917  11.635  1.00  0.00    -0.317 N 
HETATM   22  C6  UNL     1      -3.272   1.028  10.836  1.00  0.00     0.091 C 
ATOM     23  H2  UNL     1      -4.618   1.825  11.968  1.00  0.00     0.169 HD
HETATM   24  C7  UNL     1      -4.250  -0.053  10.471  1.00  0.00     0.085 C 
HETATM   25  N3  UNL     1      -1.994   0.952  10.232  1.00  0.00    -0.088 NA
ENDBRANCH   7  19
BRANCH   8  26
HETATM   26  N4  UNL     1      -4.779   3.770  14.595  1.00  0.00    -0.071 N 
HETATM   27  C9  UNL     1      -3.958   3.025  15.574  1.00  0.00     0.272 C 
HETATM   28  C10 UNL     1      -5.632   2.845  13.990  1.00  0.00     0.272 C 
HETATM   29  C11 UNL     1      -5.595   4.659  15.442  1.00  0.00     0.272 C 
ENDBRANCH   8  26
TORSDOF 3
ENDMDL
