MODEL 1
REMARK VINA RESULT: -7.309821684      0.000      0.000
REMARK  3 active torsions:
REMARK  status: ('A' for Active; 'I' for Inactive)
REMARK    1  A    between atoms: N2_9  and  C8_10 
REMARK    2  A    between atoms: C8_10  and  C9_11 
REMARK       I    between atoms: C9_11  and  N3_13 
REMARK    3  A    between atoms: N3_13  and  C10_15 
ROOT
HETATM    1  C9  UNL     1      17.461  24.479   4.869  1.00  0.00     0.246 C 
HETATM    2  O1  UNL     1      16.307  24.910   4.633  1.00  0.00    -0.272 OA
HETATM    3  N3  UNL     1      17.558  23.225   5.538  1.00  0.00    -0.350 N 
ATOM      4  H3  UNL     1      18.490  22.862   5.739  1.00  0.00     0.163 HD
ENDROOT
BRANCH   1   5
HETATM    5  C8  UNL     1      18.677  25.221   4.481  1.00  0.00     0.374 C 
BRANCH   5   6
HETATM    6  N2  UNL     1      18.920  25.136   3.060  1.00  0.00     0.098 N 
HETATM    7  C7  UNL     1      18.579  23.875   2.494  1.00  0.00     0.273 C 
HETATM    8  C6  UNL     1      19.565  22.782   2.550  1.00  0.00     0.031 C 
HETATM    9  C5  UNL     1      20.944  23.271   2.810  1.00  0.00     0.015 C 
HETATM   10  C4  UNL     1      21.167  24.588   2.153  1.00  0.00     0.014 C 
HETATM   11  C3  UNL     1      22.628  24.984   2.477  1.00  0.00     0.043 C 
HETATM   12  C20 UNL     1      20.222  25.619   2.693  1.00  0.00     0.284 C 
HETATM   13  C21 UNL     1      21.242  24.571   0.662  1.00  0.00     0.283 C 
HETATM   14  C2  UNL     1      23.353  24.046   1.510  1.00  0.00     0.272 C 
HETATM   15  N1  UNL     1      22.544  24.020   0.328  1.00  0.00     0.085 N 
HETATM   16  C1  UNL     1      22.479  22.735  -0.313  1.00  0.00     0.309 C 
ENDBRANCH   5   6
ENDBRANCH   1   5
BRANCH   3  17
HETATM   17  C10 UNL     1      16.424  22.437   5.948  1.00  0.00     0.034 C 
HETATM   18  C11 UNL     1      15.544  23.086   6.960  1.00  0.00     0.035 C 
HETATM   19  C12 UNL     1      14.405  22.123   7.271  1.00  0.00    -0.012 C 
HETATM   20  C13 UNL     1      13.664  21.746   6.016  1.00  0.00     0.009 C 
HETATM   21  C17 UNL     1      14.951  20.881   7.938  1.00  0.00     0.009 C 
HETATM   22  C14 UNL     1      14.581  21.013   5.059  1.00  0.00    -0.012 C 
HETATM   23  C15 UNL     1      15.186  19.788   5.685  1.00  0.00     0.009 C 
HETATM   24  C19 UNL     1      15.695  21.977   4.713  1.00  0.00     0.035 C 
HETATM   25  C16 UNL     1      15.882  20.200   6.958  1.00  0.00    -0.012 C 
HETATM   26  C18 UNL     1      16.974  21.160   6.600  1.00  0.00     0.035 C 
ENDBRANCH   3  17
TORSDOF 3
ENDMDL
MODEL 2
REMARK VINA RESULT: -7.109854894      0.291      1.478
REMARK  3 active torsions:
REMARK  status: ('A' for Active; 'I' for Inactive)
REMARK    1  A    between atoms: N2_9  and  C8_10 
REMARK    2  A    between atoms: C8_10  and  C9_11 
REMARK       I    between atoms: C9_11  and  N3_13 
REMARK    3  A    between atoms: N3_13  and  C10_15 
ROOT
HETATM    1  C9  UNL     1      17.651  24.292   4.690  1.00  0.00     0.246 C 
HETATM    2  O1  UNL     1      16.498  24.708   4.427  1.00  0.00    -0.272 OA
HETATM    3  N3  UNL     1      17.749  23.027   5.337  1.00  0.00    -0.350 N 
ATOM      4  H3  UNL     1      18.680  22.675   5.560  1.00  0.00     0.163 HD
ENDROOT
BRANCH   1   5
HETATM    5  C8  UNL     1      18.865  25.062   4.356  1.00  0.00     0.374 C 
BRANCH   5   6
HETATM    6  N2  UNL     1      19.137  25.035   2.937  1.00  0.00     0.098 N 
HETATM    7  C7  UNL     1      18.847  23.785   2.321  1.00  0.00     0.273 C 
HETATM    8  C6  UNL     1      19.868  22.722   2.358  1.00  0.00     0.031 C 
HETATM    9  C5  UNL     1      21.225  23.246   2.661  1.00  0.00     0.015 C 
HETATM   10  C4  UNL     1      21.417  24.592   2.055  1.00  0.00     0.014 C 
HETATM   11  C3  UNL     1      22.858  25.024   2.420  1.00  0.00     0.043 C 
HETATM   12  C20 UNL     1      20.428  25.572   2.612  1.00  0.00     0.284 C 
HETATM   13  C21 UNL     1      21.519  24.630   0.566  1.00  0.00     0.283 C 
HETATM   14  C2  UNL     1      23.631  24.145   1.436  1.00  0.00     0.272 C 
HETATM   15  N1  UNL     1      22.844  24.134   0.238  1.00  0.00     0.085 N 
HETATM   16  C1  UNL     1      22.832  22.871  -0.448  1.00  0.00     0.309 C 
ENDBRANCH   5   6
ENDBRANCH   1   5
BRANCH   3  17
HETATM   17  C10 UNL     1      16.616  22.212   5.696  1.00  0.00     0.034 C 
HETATM   18  C11 UNL     1      15.670  21.930   4.581  1.00  0.00     0.035 C 
HETATM   19  C12 UNL     1      14.547  21.060   5.133  1.00  0.00    -0.012 C 
HETATM   20  C13 UNL     1      15.097  19.805   5.756  1.00  0.00     0.009 C 
HETATM   21  C17 UNL     1      13.753  21.839   6.159  1.00  0.00     0.009 C 
HETATM   22  C14 UNL     1      15.982  20.145   6.938  1.00  0.00    -0.012 C 
HETATM   23  C15 UNL     1      15.254  20.955   7.973  1.00  0.00     0.009 C 
HETATM   24  C19 UNL     1      17.123  20.976   6.391  1.00  0.00     0.035 C 
HETATM   25  C16 UNL     1      14.684  22.180   7.302  1.00  0.00    -0.012 C 
HETATM   26  C18 UNL     1      15.823  22.985   6.759  1.00  0.00     0.035 C 
ENDBRANCH   3  17
TORSDOF 3
ENDMDL
MODEL 3
REMARK VINA RESULT: -6.848596849      0.986      1.787
REMARK  3 active torsions:
REMARK  status: ('A' for Active; 'I' for Inactive)
REMARK    1  A    between atoms: N2_9  and  C8_10 
REMARK    2  A    between atoms: C8_10  and  C9_11 
REMARK       I    between atoms: C9_11  and  N3_13 
REMARK    3  A    between atoms: N3_13  and  C10_15 
ROOT
HETATM    1  C9  UNL     1      17.643  24.136   4.247  1.00  0.00     0.246 C 
HETATM    2  O1  UNL     1      16.506  24.644   4.096  1.00  0.00    -0.272 OA
HETATM    3  N3  UNL     1      17.723  22.958   5.044  1.00  0.00    -0.350 N 
ATOM      4  H3  UNL     1      18.641  22.534   5.177  1.00  0.00     0.163 HD
ENDROOT
BRANCH   1   5
HETATM    5  C8  UNL     1      18.855  24.716   3.637  1.00  0.00     0.374 C 
BRANCH   5   6
HETATM    6  N2  UNL     1      19.797  23.691   3.253  1.00  0.00     0.098 N 
HETATM    7  C7  UNL     1      21.156  24.045   3.487  1.00  0.00     0.273 C 
HETATM    8  C6  UNL     1      21.869  24.836   2.468  1.00  0.00     0.031 C 
HETATM    9  C5  UNL     1      21.201  24.792   1.142  1.00  0.00     0.015 C 
HETATM   10  C4  UNL     1      20.584  23.457   0.907  1.00  0.00     0.014 C 
HETATM   11  C3  UNL     1      19.938  23.526  -0.498  1.00  0.00     0.043 C 
HETATM   12  C20 UNL     1      19.538  23.166   1.941  1.00  0.00     0.284 C 
HETATM   13  C21 UNL     1      21.534  22.327   0.686  1.00  0.00     0.283 C 
HETATM   14  C2  UNL     1      21.204  23.419  -1.351  1.00  0.00     0.272 C 
HETATM   15  N1  UNL     1      22.048  22.488  -0.663  1.00  0.00     0.085 N 
HETATM   16  C1  UNL     1      23.447  22.813  -0.711  1.00  0.00     0.309 C 
ENDBRANCH   5   6
ENDBRANCH   1   5
BRANCH   3  17
HETATM   17  C10 UNL     1      16.590  22.327   5.672  1.00  0.00     0.034 C 
HETATM   18  C11 UNL     1      15.899  23.159   6.697  1.00  0.00     0.035 C 
HETATM   19  C12 UNL     1      14.735  22.345   7.248  1.00  0.00    -0.012 C 
HETATM   20  C13 UNL     1      13.814  21.908   6.141  1.00  0.00     0.009 C 
HETATM   21  C17 UNL     1      15.260  21.136   7.988  1.00  0.00     0.009 C 
HETATM   22  C14 UNL     1      14.542  20.994   5.176  1.00  0.00    -0.012 C 
HETATM   23  C15 UNL     1      15.122  19.792   5.867  1.00  0.00     0.009 C 
HETATM   24  C19 UNL     1      15.677  21.808   4.592  1.00  0.00     0.035 C 
HETATM   25  C16 UNL     1      16.003  20.271   6.993  1.00  0.00    -0.012 C 
HETATM   26  C18 UNL     1      17.114  21.081   6.400  1.00  0.00     0.035 C 
ENDBRANCH   3  17
TORSDOF 3
ENDMDL
MODEL 4
REMARK VINA RESULT: -6.784846388      0.138      1.504
REMARK  3 active torsions:
REMARK  status: ('A' for Active; 'I' for Inactive)
REMARK    1  A    between atoms: N2_9  and  C8_10 
REMARK    2  A    between atoms: C8_10  and  C9_11 
REMARK       I    between atoms: C9_11  and  N3_13 
REMARK    3  A    between atoms: N3_13  and  C10_15 
ROOT
HETATM    1  C9  UNL     1      17.496  24.385   4.827  1.00  0.00     0.246 C 
HETATM    2  O1  UNL     1      16.306  24.697   4.585  1.00  0.00    -0.272 OA
HETATM    3  N3  UNL     1      17.714  23.156   5.514  1.00  0.00    -0.350 N 
ATOM      4  H3  UNL     1      18.677  22.889   5.721  1.00  0.00     0.163 HD
ENDROOT
BRANCH   1   5
HETATM    5  C8  UNL     1      18.633  25.237   4.430  1.00  0.00     0.374 C 
BRANCH   5   6
HETATM    6  N2  UNL     1      18.903  25.136   3.014  1.00  0.00     0.098 N 
HETATM    7  C7  UNL     1      18.582  23.865   2.458  1.00  0.00     0.273 C 
HETATM    8  C6  UNL     1      19.577  22.781   2.545  1.00  0.00     0.031 C 
HETATM    9  C5  UNL     1      20.947  23.286   2.823  1.00  0.00     0.015 C 
HETATM   10  C4  UNL     1      21.170  24.596   2.153  1.00  0.00     0.014 C 
HETATM   11  C3  UNL     1      22.621  25.010   2.498  1.00  0.00     0.043 C 
HETATM   12  C20 UNL     1      20.206  25.626   2.663  1.00  0.00     0.284 C 
HETATM   13  C21 UNL     1      21.271  24.561   0.664  1.00  0.00     0.283 C 
HETATM   14  C2  UNL     1      23.372  24.067   1.556  1.00  0.00     0.272 C 
HETATM   15  N1  UNL     1      22.583  24.018   0.360  1.00  0.00     0.085 N 
HETATM   16  C1  UNL     1      22.541  22.725  -0.265  1.00  0.00     0.309 C 
ENDBRANCH   5   6
ENDBRANCH   1   5
BRANCH   3  17
HETATM   17  C10 UNL     1      16.662  22.267   5.936  1.00  0.00     0.034 C 
HETATM   18  C11 UNL     1      17.127  20.958   6.474  1.00  0.00     0.035 C 
HETATM   19  C12 UNL     1      15.895  20.155   6.871  1.00  0.00    -0.012 C 
HETATM   20  C13 UNL     1      15.051  20.919   7.856  1.00  0.00     0.009 C 
HETATM   21  C17 UNL     1      15.078  19.826   5.641  1.00  0.00     0.009 C 
HETATM   22  C14 UNL     1      14.532  22.197   7.230  1.00  0.00    -0.012 C 
HETATM   23  C15 UNL     1      13.746  21.932   5.977  1.00  0.00     0.009 C 
HETATM   24  C19 UNL     1      15.750  23.020   6.868  1.00  0.00     0.035 C 
HETATM   25  C16 UNL     1      14.609  21.131   5.035  1.00  0.00    -0.012 C 
HETATM   26  C18 UNL     1      15.813  21.953   4.696  1.00  0.00     0.035 C 
ENDBRANCH   3  17
TORSDOF 3
ENDMDL
MODEL 5
REMARK VINA RESULT: -6.703156898      1.658      7.984
REMARK  3 active torsions:
REMARK  status: ('A' for Active; 'I' for Inactive)
REMARK    1  A    between atoms: N2_9  and  C8_10 
REMARK    2  A    between atoms: C8_10  and  C9_11 
REMARK       I    between atoms: C9_11  and  N3_13 
REMARK    3  A    between atoms: N3_13  and  C10_15 
ROOT
HETATM    1  C9  UNL     1      20.007  24.732   3.496  1.00  0.00     0.246 C 
HETATM    2  O1  UNL     1      20.033  25.723   2.728  1.00  0.00    -0.272 OA
HETATM    3  N3  UNL     1      20.937  23.686   3.230  1.00  0.00    -0.350 N 
ATOM      4  H3  UNL     1      20.927  22.871   3.845  1.00  0.00     0.163 HD
ENDROOT
BRANCH   1   5
HETATM    5  C8  UNL     1      19.066  24.633   4.628  1.00  0.00     0.374 C 
BRANCH   5   6
HETATM    6  N2  UNL     1      17.776  24.140   4.204  1.00  0.00     0.098 N 
HETATM    7  C7  UNL     1      16.683  24.926   4.665  1.00  0.00     0.273 C 
HETATM    8  C6  UNL     1      16.142  24.670   6.011  1.00  0.00     0.031 C 
HETATM    9  C5  UNL     1      16.535  23.338   6.539  1.00  0.00     0.015 C 
HETATM   10  C4  UNL     1      16.599  22.335   5.441  1.00  0.00     0.014 C 
HETATM   11  C3  UNL     1      16.998  20.997   6.108  1.00  0.00     0.043 C 
HETATM   12  C20 UNL     1      17.625  22.729   4.421  1.00  0.00     0.284 C 
HETATM   13  C21 UNL     1      15.290  21.932   4.845  1.00  0.00     0.283 C 
HETATM   14  C2  UNL     1      15.658  20.639   6.754  1.00  0.00     0.272 C 
HETATM   15  N1  UNL     1      14.661  21.049   5.811  1.00  0.00     0.085 N 
HETATM   16  C1  UNL     1      13.476  21.601   6.408  1.00  0.00     0.309 C 
ENDBRANCH   5   6
ENDBRANCH   1   5
BRANCH   3  17
HETATM   17  C10 UNL     1      21.889  23.704   2.149  1.00  0.00     0.034 C 
HETATM   18  C11 UNL     1      21.290  23.789   0.788  1.00  0.00     0.035 C 
HETATM   19  C12 UNL     1      22.431  23.804  -0.221  1.00  0.00    -0.012 C 
HETATM   20  C13 UNL     1      23.384  24.933   0.062  1.00  0.00     0.009 C 
HETATM   21  C17 UNL     1      23.169  22.484  -0.180  1.00  0.00     0.009 C 
HETATM   22  C14 UNL     1      24.031  24.752   1.420  1.00  0.00    -0.012 C 
HETATM   23  C15 UNL     1      24.747  23.435   1.532  1.00  0.00     0.009 C 
HETATM   24  C19 UNL     1      22.908  24.777   2.434  1.00  0.00     0.035 C 
HETATM   25  C16 UNL     1      23.771  22.334   1.201  1.00  0.00    -0.012 C 
HETATM   26  C18 UNL     1      22.662  22.379   2.206  1.00  0.00     0.035 C 
ENDBRANCH   3  17
TORSDOF 3
ENDMDL
