MODEL 1
REMARK VINA RESULT: -7.420302260      0.000      0.000
REMARK  2 active torsions:
REMARK  status: ('A' for Active; 'I' for Inactive)
REMARK    1  A    between atoms: C8_8  and  O1_9 
REMARK    2  A    between atoms: O1_9  and  C9_10 
ROOT
HETATM    1  C1  UNL     1      16.066  17.766   2.931  1.00  0.00     0.036 C 
HETATM    2  C2  UNL     1      15.977  19.205   2.674  1.00  0.00    -0.026 C 
HETATM    3  C3  UNL     1      16.210  20.207   3.493  1.00  0.00    -0.061 C 
HETATM    4  C4  UNL     1      16.061  21.556   3.015  1.00  0.00     0.031 C 
HETATM    5  C5  UNL     1      16.168  21.948   1.628  1.00  0.00    -0.007 C 
HETATM    6  C6  UNL     1      17.227  21.491   0.734  1.00  0.00     0.011 C 
HETATM    7  C7  UNL     1      16.335  23.481   1.805  1.00  0.00     0.037 C 
HETATM    8  C8  UNL     1      17.165  23.607   3.072  1.00  0.00     0.132 C 
HETATM    9  C12 UNL     1      17.120  22.326   3.794  1.00  0.00     0.010 C 
HETATM   10  C13 UNL     1      18.408  21.535   3.780  1.00  0.00     0.006 C 
HETATM   11  C14 UNL     1      19.633  22.464   3.820  1.00  0.00     0.011 C 
HETATM   12  C15 UNL     1      18.487  20.688   5.003  1.00  0.00     0.067 C 
HETATM   13  C16 UNL     1      17.883  19.299   4.946  1.00  0.00     0.146 C 
HETATM   14  O2  UNL     1      18.510  18.237   4.980  1.00  0.00    -0.296 OA
HETATM   15  C17 UNL     1      16.594  19.927   4.861  1.00  0.00     0.065 C 
HETATM   16  C18 UNL     1      15.401  19.595   5.680  1.00  0.00     0.145 C 
HETATM   17  N1  UNL     1      14.738  20.894   5.916  1.00  0.00    -0.359 N 
ATOM     18  H1  UNL     1      13.845  20.888   6.410  1.00  0.00     0.162 HD
HETATM   19  C19 UNL     1      15.257  22.149   5.503  1.00  0.00     0.223 C 
HETATM   20  O3  UNL     1      14.519  23.158   5.361  1.00  0.00    -0.273 OA
HETATM   21  C20 UNL     1      16.712  22.344   5.214  1.00  0.00     0.096 C 
HETATM   22  C21 UNL     1      17.241  21.024   5.674  1.00  0.00     0.033 C 
ENDROOT
BRANCH   8  23
HETATM   23  O1  UNL     1      16.761  24.618   3.889  1.00  0.00    -0.381 OA
BRANCH  23  24
HETATM   24  C9  UNL     1      17.263  25.867   3.600  1.00  0.00     0.114 C 
HETATM   25  C10 UNL     1      16.834  26.744   4.797  1.00  0.00     0.039 C 
HETATM   26  C11 UNL     1      18.742  25.987   3.528  1.00  0.00     0.039 C 
ENDBRANCH  23  24
ENDBRANCH   8  23
TORSDOF 2
ENDMDL
MODEL 2
REMARK VINA RESULT: -7.157661432      2.291      4.225
REMARK  2 active torsions:
REMARK  status: ('A' for Active; 'I' for Inactive)
REMARK    1  A    between atoms: C8_8  and  O1_9 
REMARK    2  A    between atoms: O1_9  and  C9_10 
ROOT
HETATM    1  C1  UNL     1      15.414  22.958   6.917  1.00  0.00     0.036 C 
HETATM    2  C2  UNL     1      16.447  23.603   6.104  1.00  0.00    -0.026 C 
HETATM    3  C3  UNL     1      17.200  23.082   5.160  1.00  0.00    -0.061 C 
HETATM    4  C4  UNL     1      18.159  23.917   4.484  1.00  0.00     0.031 C 
HETATM    5  C5  UNL     1      18.053  25.354   4.368  1.00  0.00    -0.007 C 
HETATM    6  C6  UNL     1      16.824  26.051   4.003  1.00  0.00     0.011 C 
HETATM    7  C7  UNL     1      19.084  25.599   3.235  1.00  0.00     0.037 C 
HETATM    8  C8  UNL     1      18.918  24.387   2.332  1.00  0.00     0.132 C 
HETATM    9  C12 UNL     1      18.192  23.343   3.073  1.00  0.00     0.010 C 
HETATM   10  C13 UNL     1      16.775  23.096   2.612  1.00  0.00     0.006 C 
HETATM   11  C14 UNL     1      16.646  23.270   1.089  1.00  0.00     0.011 C 
HETATM   12  C15 UNL     1      16.394  21.686   2.903  1.00  0.00     0.067 C 
HETATM   13  C16 UNL     1      15.780  21.380   4.255  1.00  0.00     0.146 C 
HETATM   14  O2  UNL     1      14.613  21.034   4.457  1.00  0.00    -0.296 OA
HETATM   15  C17 UNL     1      17.059  21.678   4.838  1.00  0.00     0.065 C 
HETATM   16  C18 UNL     1      17.793  20.841   5.820  1.00  0.00     0.145 C 
HETATM   17  N1  UNL     1      19.215  20.993   5.452  1.00  0.00    -0.359 N 
ATOM     18  H1  UNL     1      19.911  20.547   6.051  1.00  0.00     0.162 HD
HETATM   19  C19 UNL     1      19.681  21.717   4.322  1.00  0.00     0.223 C 
HETATM   20  O3  UNL     1      20.857  22.155   4.255  1.00  0.00    -0.273 OA
HETATM   21  C20 UNL     1      18.798  21.997   3.147  1.00  0.00     0.096 C 
HETATM   22  C21 UNL     1      17.608  21.175   3.523  1.00  0.00     0.033 C 
ENDROOT
BRANCH   8  23
HETATM   23  O1  UNL     1      20.096  23.893   1.863  1.00  0.00    -0.381 OA
BRANCH  23  24
HETATM   24  C9  UNL     1      21.017  24.824   1.438  1.00  0.00     0.114 C 
HETATM   25  C10 UNL     1      22.312  24.467   2.202  1.00  0.00     0.039 C 
HETATM   26  C11 UNL     1      21.382  24.789  -0.001  1.00  0.00     0.039 C 
ENDBRANCH  23  24
ENDBRANCH   8  23
TORSDOF 2
ENDMDL
MODEL 3
REMARK VINA RESULT: -6.869543668      2.158      4.780
REMARK  2 active torsions:
REMARK  status: ('A' for Active; 'I' for Inactive)
REMARK    1  A    between atoms: C8_8  and  O1_9 
REMARK    2  A    between atoms: O1_9  and  C9_10 
ROOT
HETATM    1  C1  UNL     1      21.578  22.095   2.901  1.00  0.00     0.036 C 
HETATM    2  C2  UNL     1      20.442  21.706   3.739  1.00  0.00    -0.026 C 
HETATM    3  C3  UNL     1      19.287  22.314   3.898  1.00  0.00    -0.061 C 
HETATM    4  C4  UNL     1      18.306  21.740   4.781  1.00  0.00     0.031 C 
HETATM    5  C5  UNL     1      18.239  20.338   5.127  1.00  0.00    -0.007 C 
HETATM    6  C6  UNL     1      18.352  19.255   4.155  1.00  0.00     0.011 C 
HETATM    7  C7  UNL     1      16.806  20.286   5.719  1.00  0.00     0.037 C 
HETATM    8  C8  UNL     1      16.026  21.266   4.857  1.00  0.00     0.132 C 
HETATM    9  C12 UNL     1      16.982  22.117   4.130  1.00  0.00     0.010 C 
HETATM   10  C13 UNL     1      17.075  21.855   2.645  1.00  0.00     0.006 C 
HETATM   11  C14 UNL     1      15.707  21.463   2.061  1.00  0.00     0.011 C 
HETATM   12  C15 UNL     1      17.485  23.103   1.943  1.00  0.00     0.067 C 
HETATM   13  C16 UNL     1      18.968  23.368   1.772  1.00  0.00     0.146 C 
HETATM   14  O2  UNL     1      19.586  23.358   0.704  1.00  0.00    -0.296 OA
HETATM   15  C17 UNL     1      19.038  23.554   3.195  1.00  0.00     0.065 C 
HETATM   16  C18 UNL     1      19.681  24.692   3.900  1.00  0.00     0.145 C 
HETATM   17  N1  UNL     1      18.815  24.943   5.070  1.00  0.00    -0.359 N 
ATOM     18  H1  UNL     1      19.114  25.652   5.739  1.00  0.00     0.162 HD
HETATM   19  C19 UNL     1      17.593  24.265   5.327  1.00  0.00     0.223 C 
HETATM   20  O3  UNL     1      17.097  24.208   6.481  1.00  0.00    -0.273 OA
HETATM   21  C20 UNL     1      16.826  23.583   4.239  1.00  0.00     0.096 C 
HETATM   22  C21 UNL     1      17.613  24.036   3.052  1.00  0.00     0.033 C 
ENDROOT
BRANCH   8  23
HETATM   23  O1  UNL     1      15.155  22.039   5.562  1.00  0.00    -0.381 OA
BRANCH  23  24
HETATM   24  C9  UNL     1      14.366  21.379   6.477  1.00  0.00     0.114 C 
HETATM   25  C10 UNL     1      14.496  22.209   7.773  1.00  0.00     0.039 C 
HETATM   26  C11 UNL     1      12.910  21.328   6.182  1.00  0.00     0.039 C 
ENDBRANCH  23  24
ENDBRANCH   8  23
TORSDOF 2
ENDMDL
MODEL 4
REMARK VINA RESULT: -6.859099293      2.386      4.964
REMARK  2 active torsions:
REMARK  status: ('A' for Active; 'I' for Inactive)
REMARK    1  A    between atoms: C8_8  and  O1_9 
REMARK    2  A    between atoms: O1_9  and  C9_10 
ROOT
HETATM    1  C1  UNL     1      20.350  23.119  -0.397  1.00  0.00     0.036 C 
HETATM    2  C2  UNL     1      19.296  22.746   0.548  1.00  0.00    -0.026 C 
HETATM    3  C3  UNL     1      19.251  22.928   1.850  1.00  0.00    -0.061 C 
HETATM    4  C4  UNL     1      18.098  22.477   2.584  1.00  0.00     0.031 C 
HETATM    5  C5  UNL     1      16.783  22.298   2.011  1.00  0.00    -0.007 C 
HETATM    6  C6  UNL     1      16.143  23.267   1.128  1.00  0.00     0.011 C 
HETATM    7  C7  UNL     1      15.942  22.225   3.313  1.00  0.00     0.037 C 
HETATM    8  C8  UNL     1      16.634  23.209   4.243  1.00  0.00     0.132 C 
HETATM    9  C12 UNL     1      17.975  23.497   3.709  1.00  0.00     0.010 C 
HETATM   10  C13 UNL     1      18.153  24.883   3.134  1.00  0.00     0.006 C 
HETATM   11  C14 UNL     1      17.334  25.922   3.919  1.00  0.00     0.011 C 
HETATM   12  C15 UNL     1      19.578  25.296   3.258  1.00  0.00     0.067 C 
HETATM   13  C16 UNL     1      20.523  24.938   2.128  1.00  0.00     0.146 C 
HETATM   14  O2  UNL     1      21.055  25.736   1.350  1.00  0.00    -0.296 OA
HETATM   15  C17 UNL     1      20.370  23.563   2.514  1.00  0.00     0.065 C 
HETATM   16  C18 UNL     1      21.466  22.586   2.736  1.00  0.00     0.145 C 
HETATM   17  N1  UNL     1      21.004  21.756   3.866  1.00  0.00    -0.359 N 
ATOM     18  H1  UNL     1      21.585  20.965   4.144  1.00  0.00     0.162 HD
HETATM   19  C19 UNL     1      19.804  21.981   4.592  1.00  0.00     0.223 C 
HETATM   20  O3  UNL     1      19.249  21.069   5.255  1.00  0.00    -0.273 OA
HETATM   21  C20 UNL     1      19.133  23.319   4.610  1.00  0.00     0.096 C 
HETATM   22  C21 UNL     1      20.167  24.130   3.899  1.00  0.00     0.033 C 
ENDROOT
BRANCH   8  23
HETATM   23  O1  UNL     1      16.728  22.769   5.528  1.00  0.00    -0.381 OA
BRANCH  23  24
HETATM   24  C9  UNL     1      15.661  22.035   5.995  1.00  0.00     0.114 C 
HETATM   25  C10 UNL     1      16.304  20.805   6.674  1.00  0.00     0.039 C 
HETATM   26  C11 UNL     1      14.823  22.674   7.042  1.00  0.00     0.039 C 
ENDBRANCH  23  24
ENDBRANCH   8  23
TORSDOF 2
ENDMDL
MODEL 5
REMARK VINA RESULT: -6.850960319      2.050      5.179
REMARK  2 active torsions:
REMARK  status: ('A' for Active; 'I' for Inactive)
REMARK    1  A    between atoms: C8_8  and  O1_9 
REMARK    2  A    between atoms: O1_9  and  C9_10 
ROOT
HETATM    1  C1  UNL     1      17.540  25.567   6.663  1.00  0.00     0.036 C 
HETATM    2  C2  UNL     1      16.766  24.426   6.171  1.00  0.00    -0.026 C 
HETATM    3  C3  UNL     1      16.964  23.696   5.095  1.00  0.00    -0.061 C 
HETATM    4  C4  UNL     1      16.066  22.608   4.808  1.00  0.00     0.031 C 
HETATM    5  C5  UNL     1      15.280  21.914   5.802  1.00  0.00    -0.007 C 
HETATM    6  C6  UNL     1      15.808  21.460   7.084  1.00  0.00     0.011 C 
HETATM    7  C7  UNL     1      14.885  20.655   4.986  1.00  0.00     0.037 C 
HETATM    8  C8  UNL     1      16.115  20.377   4.137  1.00  0.00     0.132 C 
HETATM    9  C12 UNL     1      16.964  21.580   4.130  1.00  0.00     0.010 C 
HETATM   10  C13 UNL     1      18.250  21.464   4.914  1.00  0.00     0.006 C 
HETATM   11  C14 UNL     1      18.831  20.042   4.823  1.00  0.00     0.011 C 
HETATM   12  C15 UNL     1      19.276  22.370   4.327  1.00  0.00     0.067 C 
HETATM   13  C16 UNL     1      19.343  23.795   4.841  1.00  0.00     0.146 C 
HETATM   14  O2  UNL     1      20.261  24.280   5.508  1.00  0.00    -0.296 OA
HETATM   15  C17 UNL     1      18.069  24.018   4.216  1.00  0.00     0.065 C 
HETATM   16  C18 UNL     1      17.714  25.152   3.326  1.00  0.00     0.145 C 
HETATM   17  N1  UNL     1      16.813  24.565   2.314  1.00  0.00    -0.359 N 
ATOM     18  H1  UNL     1      16.390  25.194   1.632  1.00  0.00     0.162 HD
HETATM   19  C19 UNL     1      16.495  23.183   2.225  1.00  0.00     0.223 C 
HETATM   20  O3  UNL     1      15.459  22.778   1.638  1.00  0.00    -0.273 OA
HETATM   21  C20 UNL     1      17.375  22.131   2.822  1.00  0.00     0.096 C 
HETATM   22  C21 UNL     1      18.539  22.976   3.228  1.00  0.00     0.033 C 
ENDROOT
BRANCH   8  23
HETATM   23  O1  UNL     1      15.824  20.005   2.861  1.00  0.00    -0.381 OA
BRANCH  23  24
HETATM   24  C9  UNL     1      15.988  18.670   2.568  1.00  0.00     0.114 C 
HETATM   25  C10 UNL     1      17.189  18.630   1.597  1.00  0.00     0.039 C 
HETATM   26  C11 UNL     1      16.363  17.783   3.701  1.00  0.00     0.039 C 
ENDBRANCH  23  24
ENDBRANCH   8  23
TORSDOF 2
ENDMDL
