MODEL 1
REMARK VINA RESULT: -6.490567048      0.000      0.000
REMARK  4 active torsions:
REMARK  status: ('A' for Active; 'I' for Inactive)
REMARK    1  A    between atoms: C3_5  and  N2_6 
REMARK       I    between atoms: N2_6  and  C4_8 
REMARK    2  A    between atoms: C4_8  and  C5_10 
REMARK    3  A    between atoms: C5_10  and  N3_11 
REMARK    4  A    between atoms: C11_21  and  C12_22 
ROOT
HETATM    1  N3  UNL     1      16.193  22.684   4.938  1.00  0.00    -0.338 N 
HETATM    2  C6  UNL     1      15.292  23.121   5.983  1.00  0.00     0.172 C 
HETATM    3  S1  UNL     1      13.811  22.409   6.160  1.00  0.00    -0.041 SA
HETATM    4  N4  UNL     1      15.617  24.153   6.894  1.00  0.00    -0.351 N 
ATOM      5  H4  UNL     1      15.228  24.174   7.836  1.00  0.00     0.163 HD
HETATM    6  C7  UNL     1      16.528  25.180   6.430  1.00  0.00     0.088 C 
HETATM    7  C8  UNL     1      15.686  26.148   5.603  1.00  0.00     0.046 C 
HETATM    8  C9  UNL     1      17.164  25.923   7.582  1.00  0.00     0.046 C 
HETATM    9  C10 UNL     1      17.571  24.517   5.628  1.00  0.00     0.177 C 
HETATM   10  O2  UNL     1      18.742  24.768   5.852  1.00  0.00    -0.293 OA
HETATM   11  C11 UNL     1      17.268  23.537   4.537  1.00  0.00     0.162 C 
ENDROOT
BRANCH   1  12
HETATM   12  C5  UNL     1      15.933  21.399   4.376  1.00  0.00     0.229 C 
BRANCH  12  13
HETATM   13  C4  UNL     1      16.908  20.362   4.742  1.00  0.00     0.241 C 
HETATM   14  N2  UNL     1      18.153  20.168   4.064  1.00  0.00    -0.306 N 
ATOM     15  H2  UNL     1      18.636  20.939   3.603  1.00  0.00     0.171 HD
HETATM   16  O1  UNL     1      16.624  19.605   5.707  1.00  0.00    -0.271 OA
BRANCH  14  17
HETATM   17  C3  UNL     1      18.644  18.946   4.064  1.00  0.00     0.151 A 
HETATM   18  N1  UNL     1      18.008  17.803   3.809  1.00  0.00    -0.339 N 
HETATM   19  C2  UNL     1      18.693  16.682   3.861  1.00  0.00     0.020 A 
ATOM     20  H1  UNL     1      17.015  17.798   3.578  1.00  0.00     0.168 HD
HETATM   21  C1  UNL     1      18.072  15.311   3.587  1.00  0.00     0.069 C 
HETATM   22  C15 UNL     1      20.027  16.774   4.179  1.00  0.00     0.004 A 
HETATM   23  S2  UNL     1      20.237  18.447   4.387  1.00  0.00    -0.057 SA
HETATM   24  C16 UNL     1      21.034  15.661   4.308  1.00  0.00     0.058 C 
ENDBRANCH  14  17
ENDBRANCH  12  13
ENDBRANCH   1  12
BRANCH  11  25
HETATM   25  C12 UNL     1      17.074  24.323   3.290  1.00  0.00     0.008 C 
HETATM   26  C13 UNL     1      18.462  24.423   2.632  1.00  0.00     0.012 C 
HETATM   27  C14 UNL     1      16.222  23.612   2.243  1.00  0.00     0.012 C 
ENDBRANCH  11  25
TORSDOF 4
ENDMDL
MODEL 2
REMARK VINA RESULT: -6.391147493      2.009      2.535
REMARK  4 active torsions:
REMARK  status: ('A' for Active; 'I' for Inactive)
REMARK    1  A    between atoms: C3_5  and  N2_6 
REMARK       I    between atoms: N2_6  and  C4_8 
REMARK    2  A    between atoms: C4_8  and  C5_10 
REMARK    3  A    between atoms: C5_10  and  N3_11 
REMARK    4  A    between atoms: C11_21  and  C12_22 
ROOT
HETATM    1  N3  UNL     1      16.436  22.744   4.853  1.00  0.00    -0.338 N 
HETATM    2  C6  UNL     1      15.502  23.145   5.883  1.00  0.00     0.172 C 
HETATM    3  S1  UNL     1      14.023  22.417   5.998  1.00  0.00    -0.041 SA
HETATM    4  N4  UNL     1      15.792  24.155   6.830  1.00  0.00    -0.351 N 
ATOM      5  H4  UNL     1      15.376  24.147   7.761  1.00  0.00     0.163 HD
HETATM    6  C7  UNL     1      16.707  25.202   6.421  1.00  0.00     0.088 C 
HETATM    7  C8  UNL     1      15.881  26.185   5.596  1.00  0.00     0.046 C 
HETATM    8  C9  UNL     1      17.303  25.918   7.610  1.00  0.00     0.046 C 
HETATM    9  C10 UNL     1      17.778  24.569   5.632  1.00  0.00     0.177 C 
HETATM   10  O2  UNL     1      18.940  24.823   5.896  1.00  0.00    -0.293 OA
HETATM   11  C11 UNL     1      17.515  23.616   4.506  1.00  0.00     0.162 C 
ENDROOT
BRANCH   1  12
HETATM   12  C5  UNL     1      16.204  21.473   4.249  1.00  0.00     0.229 C 
BRANCH  12  13
HETATM   13  C4  UNL     1      17.419  20.769   3.816  1.00  0.00     0.241 C 
HETATM   14  N2  UNL     1      18.445  20.331   4.713  1.00  0.00    -0.306 N 
ATOM     15  H2  UNL     1      18.239  20.087   5.682  1.00  0.00     0.171 HD
HETATM   16  O1  UNL     1      17.559  20.544   2.585  1.00  0.00    -0.271 OA
BRANCH  14  17
HETATM   17  C3  UNL     1      19.666  20.260   4.227  1.00  0.00     0.151 A 
HETATM   18  N1  UNL     1      20.275  21.109   3.401  1.00  0.00    -0.339 N 
HETATM   19  C2  UNL     1      21.512  20.849   3.037  1.00  0.00     0.020 A 
ATOM     20  H1  UNL     1      19.795  21.942   3.059  1.00  0.00     0.168 HD
HETATM   21  C1  UNL     1      22.311  21.750   2.093  1.00  0.00     0.069 C 
HETATM   22  C15 UNL     1      22.088  19.707   3.540  1.00  0.00     0.004 A 
HETATM   23  S2  UNL     1      20.845  19.065   4.503  1.00  0.00    -0.057 SA
HETATM   24  C16 UNL     1      23.475  19.174   3.288  1.00  0.00     0.058 C 
ENDBRANCH  14  17
ENDBRANCH  12  13
ENDBRANCH   1  12
BRANCH  11  25
HETATM   25  C12 UNL     1      17.350  24.434   3.276  1.00  0.00     0.008 C 
HETATM   26  C13 UNL     1      18.650  24.258   2.472  1.00  0.00     0.012 C 
HETATM   27  C14 UNL     1      16.265  23.917   2.336  1.00  0.00     0.012 C 
ENDBRANCH  11  25
TORSDOF 4
ENDMDL
MODEL 3
REMARK VINA RESULT: -6.196352098      2.913      6.925
REMARK  4 active torsions:
REMARK  status: ('A' for Active; 'I' for Inactive)
REMARK    1  A    between atoms: C3_5  and  N2_6 
REMARK       I    between atoms: N2_6  and  C4_8 
REMARK    2  A    between atoms: C4_8  and  C5_10 
REMARK    3  A    between atoms: C5_10  and  N3_11 
REMARK    4  A    between atoms: C11_21  and  C12_22 
ROOT
HETATM    1  N3  UNL     1      16.500  20.242   3.165  1.00  0.00    -0.338 N 
HETATM    2  C6  UNL     1      15.797  19.046   2.755  1.00  0.00     0.172 C 
HETATM    3  S1  UNL     1      16.077  17.609   3.522  1.00  0.00    -0.041 SA
HETATM    4  N4  UNL     1      14.851  19.035   1.703  1.00  0.00    -0.351 N 
ATOM      5  H4  UNL     1      14.078  18.370   1.690  1.00  0.00     0.163 HD
HETATM    6  C7  UNL     1      15.028  20.009   0.645  1.00  0.00     0.088 C 
HETATM    7  C8  UNL     1      16.097  19.436  -0.282  1.00  0.00     0.046 C 
HETATM    8  C9  UNL     1      13.751  20.228  -0.132  1.00  0.00     0.046 C 
HETATM    9  C10 UNL     1      15.451  21.273   1.274  1.00  0.00     0.177 C 
HETATM   10  O2  UNL     1      14.878  22.305   0.976  1.00  0.00    -0.293 OA
HETATM   11  C11 UNL     1      16.563  21.359   2.275  1.00  0.00     0.162 C 
ENDROOT
BRANCH   1  12
HETATM   12  C5  UNL     1      17.089  20.216   4.464  1.00  0.00     0.229 C 
BRANCH  12  13
HETATM   13  C4  UNL     1      17.170  21.525   5.127  1.00  0.00     0.241 C 
HETATM   14  N2  UNL     1      16.036  22.218   5.657  1.00  0.00    -0.306 N 
ATOM     15  H2  UNL     1      15.214  21.717   5.995  1.00  0.00     0.171 HD
HETATM   16  O1  UNL     1      18.305  22.060   5.230  1.00  0.00    -0.271 OA
BRANCH  14  17
HETATM   17  C3  UNL     1      16.104  23.532   5.686  1.00  0.00     0.151 A 
HETATM   18  N1  UNL     1      16.478  24.359   4.710  1.00  0.00    -0.339 N 
HETATM   19  C2  UNL     1      16.473  25.652   4.950  1.00  0.00     0.020 A 
ATOM     20  H1  UNL     1      16.762  23.998   3.799  1.00  0.00     0.168 HD
HETATM   21  C1  UNL     1      16.882  26.696   3.909  1.00  0.00     0.069 C 
HETATM   22  C15 UNL     1      16.079  26.057   6.203  1.00  0.00     0.004 A 
HETATM   23  S2  UNL     1      15.737  24.582   6.972  1.00  0.00    -0.057 SA
HETATM   24  C16 UNL     1      15.981  27.461   6.741  1.00  0.00     0.058 C 
ENDBRANCH  14  17
ENDBRANCH  12  13
ENDBRANCH   1  12
BRANCH  11  25
HETATM   25  C12 UNL     1      17.824  21.538   1.508  1.00  0.00     0.008 C 
HETATM   26  C13 UNL     1      18.319  22.959   1.832  1.00  0.00     0.012 C 
HETATM   27  C14 UNL     1      18.961  20.636   1.978  1.00  0.00     0.012 C 
ENDBRANCH  11  25
TORSDOF 4
ENDMDL
MODEL 4
REMARK VINA RESULT: -6.139687724      3.221      5.895
REMARK  4 active torsions:
REMARK  status: ('A' for Active; 'I' for Inactive)
REMARK    1  A    between atoms: C3_5  and  N2_6 
REMARK       I    between atoms: N2_6  and  C4_8 
REMARK    2  A    between atoms: C4_8  and  C5_10 
REMARK    3  A    between atoms: C5_10  and  N3_11 
REMARK    4  A    between atoms: C11_21  and  C12_22 
ROOT
HETATM    1  N3  UNL     1      16.584  22.975   5.185  1.00  0.00    -0.338 N 
HETATM    2  C6  UNL     1      15.703  23.614   6.139  1.00  0.00     0.172 C 
HETATM    3  S1  UNL     1      16.158  25.014   6.890  1.00  0.00    -0.041 SA
HETATM    4  N4  UNL     1      14.431  23.093   6.477  1.00  0.00    -0.351 N 
ATOM      5  H4  UNL     1      13.669  23.701   6.775  1.00  0.00     0.163 HD
HETATM    6  C7  UNL     1      14.258  21.657   6.379  1.00  0.00     0.088 C 
HETATM    7  C8  UNL     1      14.858  21.072   7.655  1.00  0.00     0.046 C 
HETATM    8  C9  UNL     1      12.799  21.276   6.288  1.00  0.00     0.046 C 
HETATM    9  C10 UNL     1      14.967  21.208   5.169  1.00  0.00     0.177 C 
HETATM   10  O2  UNL     1      14.392  20.481   4.379  1.00  0.00    -0.293 OA
HETATM   11  C11 UNL     1      16.377  21.601   4.850  1.00  0.00     0.162 C 
ENDROOT
BRANCH   1  12
HETATM   12  C5  UNL     1      17.616  23.791   4.634  1.00  0.00     0.229 C 
BRANCH  12  13
HETATM   13  C4  UNL     1      17.455  24.103   3.207  1.00  0.00     0.241 C 
HETATM   14  N2  UNL     1      16.303  23.738   2.440  1.00  0.00    -0.306 N 
ATOM     15  H2  UNL     1      15.384  23.639   2.871  1.00  0.00     0.171 HD
HETATM   16  O1  UNL     1      18.388  24.725   2.634  1.00  0.00    -0.271 OA
BRANCH  14  17
HETATM   17  C3  UNL     1      16.487  23.537   1.153  1.00  0.00     0.151 A 
HETATM   18  N1  UNL     1      17.568  23.053   0.541  1.00  0.00    -0.339 N 
HETATM   19  C2  UNL     1      17.542  22.929  -0.768  1.00  0.00     0.020 A 
ATOM     20  H1  UNL     1      18.394  22.785   1.075  1.00  0.00     0.168 HD
HETATM   21  C1  UNL     1      18.721  22.386  -1.578  1.00  0.00     0.069 C 
HETATM   22  C15 UNL     1      16.392  23.314  -1.413  1.00  0.00     0.004 A 
HETATM   23  S2  UNL     1      15.408  23.829  -0.129  1.00  0.00    -0.057 SA
HETATM   24  C16 UNL     1      16.095  23.280  -2.890  1.00  0.00     0.058 C 
ENDBRANCH  14  17
ENDBRANCH  12  13
ENDBRANCH   1  12
BRANCH  11  25
HETATM   25  C12 UNL     1      17.264  20.607   5.510  1.00  0.00     0.008 C 
HETATM   26  C13 UNL     1      16.860  19.235   4.941  1.00  0.00     0.012 C 
HETATM   27  C14 UNL     1      18.734  20.745   5.125  1.00  0.00     0.012 C 
ENDBRANCH  11  25
TORSDOF 4
ENDMDL
MODEL 5
REMARK VINA RESULT: -6.137921040      2.460      7.086
REMARK  4 active torsions:
REMARK  status: ('A' for Active; 'I' for Inactive)
REMARK    1  A    between atoms: C3_5  and  N2_6 
REMARK       I    between atoms: N2_6  and  C4_8 
REMARK    2  A    between atoms: C4_8  and  C5_10 
REMARK    3  A    between atoms: C5_10  and  N3_11 
REMARK    4  A    between atoms: C11_21  and  C12_22 
ROOT
HETATM    1  N3  UNL     1      17.626  21.209   2.497  1.00  0.00    -0.338 N 
HETATM    2  C6  UNL     1      18.654  20.445   1.823  1.00  0.00     0.172 C 
HETATM    3  S1  UNL     1      18.654  20.318   0.175  1.00  0.00    -0.041 SA
HETATM    4  N4  UNL     1      19.694  19.781   2.515  1.00  0.00    -0.351 N 
ATOM      5  H4  UNL     1      20.606  19.628   2.085  1.00  0.00     0.163 HD
HETATM    6  C7  UNL     1      19.408  19.329   3.862  1.00  0.00     0.088 C 
HETATM    7  C8  UNL     1      18.643  18.017   3.713  1.00  0.00     0.046 C 
HETATM    8  C9  UNL     1      20.675  19.088   4.650  1.00  0.00     0.046 C 
HETATM    9  C10 UNL     1      18.605  20.376   4.518  1.00  0.00     0.177 C 
HETATM   10  O2  UNL     1      18.930  20.768   5.624  1.00  0.00    -0.293 OA
HETATM   11  C11 UNL     1      17.393  20.995   3.891  1.00  0.00     0.162 C 
ENDROOT
BRANCH   1  12
HETATM   12  C5  UNL     1      16.907  22.146   1.697  1.00  0.00     0.229 C 
BRANCH  12  13
HETATM   13  C4  UNL     1      16.433  23.333   2.420  1.00  0.00     0.241 C 
HETATM   14  N2  UNL     1      17.294  24.388   2.864  1.00  0.00    -0.306 N 
ATOM     15  H2  UNL     1      18.160  24.613   2.374  1.00  0.00     0.171 HD
HETATM   16  O1  UNL     1      15.201  23.421   2.661  1.00  0.00    -0.271 OA
BRANCH  14  17
HETATM   17  C3  UNL     1      16.913  25.053   3.934  1.00  0.00     0.151 A 
HETATM   18  N1  UNL     1      16.601  24.570   5.136  1.00  0.00    -0.339 N 
HETATM   19  C2  UNL     1      16.245  25.417   6.077  1.00  0.00     0.020 A 
ATOM     20  H1  UNL     1      16.638  23.568   5.323  1.00  0.00     0.168 HD
HETATM   21  C1  UNL     1      15.865  24.980   7.493  1.00  0.00     0.069 C 
HETATM   22  C15 UNL     1      16.219  26.750   5.745  1.00  0.00     0.004 A 
HETATM   23  S2  UNL     1      16.702  26.731   4.118  1.00  0.00    -0.057 SA
HETATM   24  C16 UNL     1      15.850  27.921   6.619  1.00  0.00     0.058 C 
ENDBRANCH  14  17
ENDBRANCH  12  13
ENDBRANCH   1  12
BRANCH  11  25
HETATM   25  C12 UNL     1      16.233  20.139   4.256  1.00  0.00     0.008 C 
HETATM   26  C13 UNL     1      15.339  21.003   5.164  1.00  0.00     0.012 C 
HETATM   27  C14 UNL     1      15.330  19.794   3.075  1.00  0.00     0.012 C 
ENDBRANCH  11  25
TORSDOF 4
ENDMDL
