MODEL 1
REMARK VINA RESULT: -6.848810602      0.000      0.000
REMARK  7 active torsions:
REMARK  status: ('A' for Active; 'I' for Inactive)
REMARK    1  A    between atoms: N1_2  and  C2_3 
REMARK       I    between atoms: N1_2  and  C4_7 
REMARK    2  A    between atoms: C2_3  and  C3_4 
REMARK    3  A    between atoms: C3_4  and  O1_5 
REMARK       I    between atoms: C4_7  and  N2_9 
REMARK    4  A    between atoms: N2_9  and  C5_11 
REMARK    5  A    between atoms: C7_13  and  N3_14 
REMARK    6  A    between atoms: N3_14  and  C9_16 
REMARK    7  A    between atoms: C9_16  and  C10_17 
ROOT
HETATM    1  C10 UNL     1      15.373  22.340   1.575  1.00  0.00    -0.064 C 
HETATM    2  C11 UNL     1      15.143  23.207   0.789  1.00  0.00    -0.022 C 
HETATM    3 BR1  UNL     1      14.749  24.587  -0.443  1.00  0.00     0.010 Br
ENDROOT
BRANCH   1   4
HETATM    4  C9  UNL     1      15.653  21.262   2.518  1.00  0.00     0.366 C 
BRANCH   4   5
HETATM    5  N3  UNL     1      16.816  21.563   3.299  1.00  0.00     0.099 N 
HETATM    6  C8  UNL     1      18.009  20.900   2.888  1.00  0.00     0.311 C 
BRANCH   5   7
HETATM    7  C7  UNL     1      16.617  21.512   4.712  1.00  0.00     0.226 C 
HETATM    8  C6  UNL     1      16.748  22.906   5.270  1.00  0.00     0.063 C 
HETATM    9  C5  UNL     1      15.494  23.425   5.921  1.00  0.00     0.111 C 
HETATM   10  C15 UNL     1      14.957  22.464   6.960  1.00  0.00     0.120 C 
HETATM   11  C13 UNL     1      14.992  21.032   6.546  1.00  0.00     0.104 C 
HETATM   12  N4  UNL     1      13.521  22.425   7.024  1.00  0.00    -0.353 N 
HETATM   13  C12 UNL     1      15.283  20.875   5.053  1.00  0.00     0.052 C 
HETATM   14  C14 UNL     1      13.530  21.033   6.781  1.00  0.00     0.224 C 
HETATM   15  O3  UNL     1      12.705  20.069   6.747  1.00  0.00    -0.273 OA
ATOM     16  H4  UNL     1      12.792  23.120   7.182  1.00  0.00     0.163 HD
BRANCH   9  17
HETATM   17  N2  UNL     1      15.880  24.615   6.654  1.00  0.00    -0.336 N 
HETATM   18  C4  UNL     1      15.722  25.903   6.081  1.00  0.00     0.318 C 
HETATM   19  N1  UNL     1      16.098  27.067   6.789  1.00  0.00    -0.337 N 
HETATM   20  O2  UNL     1      15.233  26.022   4.904  1.00  0.00    -0.247 OA
HETATM   21  C1  UNL     1      15.909  28.355   6.173  1.00  0.00     0.154 C 
ATOM     22  H2  UNL     1      16.269  24.524   7.593  1.00  0.00     0.164 HD
BRANCH  19  23
HETATM   23  C2  UNL     1      16.669  26.958   8.098  1.00  0.00     0.153 C 
BRANCH  23  24
HETATM   24  C3  UNL     1      16.092  27.990   9.058  1.00  0.00     0.184 C 
BRANCH  24  25
HETATM   25  O1  UNL     1      15.105  27.460   9.853  1.00  0.00    -0.399 OA
ATOM     26  H1  UNL     1      14.263  27.872   9.698  1.00  0.00     0.209 HD
ENDBRANCH  24  25
ENDBRANCH  23  24
ENDBRANCH  19  23
ENDBRANCH   9  17
ENDBRANCH   5   7
ENDBRANCH   4   5
ENDBRANCH   1   4
TORSDOF 7
ENDMDL
MODEL 2
REMARK VINA RESULT: -6.482549254      2.431      2.846
REMARK  7 active torsions:
REMARK  status: ('A' for Active; 'I' for Inactive)
REMARK    1  A    between atoms: N1_2  and  C2_3 
REMARK       I    between atoms: N1_2  and  C4_7 
REMARK    2  A    between atoms: C2_3  and  C3_4 
REMARK    3  A    between atoms: C3_4  and  O1_5 
REMARK       I    between atoms: C4_7  and  N2_9 
REMARK    4  A    between atoms: N2_9  and  C5_11 
REMARK    5  A    between atoms: C7_13  and  N3_14 
REMARK    6  A    between atoms: N3_14  and  C9_16 
REMARK    7  A    between atoms: C9_16  and  C10_17 
ROOT
HETATM    1  C10 UNL     1      18.827  19.691   3.673  1.00  0.00    -0.064 C 
HETATM    2  C11 UNL     1      19.897  19.411   4.118  1.00  0.00    -0.022 C 
HETATM    3 BR1  UNL     1      21.589  18.985   4.849  1.00  0.00     0.010 Br
ENDROOT
BRANCH   1   4
HETATM    4  C9  UNL     1      17.529  20.047   3.107  1.00  0.00     0.366 C 
BRANCH   4   5
HETATM    5  N3  UNL     1      17.091  21.316   3.608  1.00  0.00     0.099 N 
HETATM    6  C8  UNL     1      17.867  22.434   3.183  1.00  0.00     0.311 C 
BRANCH   5   7
HETATM    7  C7  UNL     1      16.807  21.341   5.006  1.00  0.00     0.226 C 
HETATM    8  C6  UNL     1      16.907  22.763   5.495  1.00  0.00     0.063 C 
HETATM    9  C5  UNL     1      15.617  23.315   6.042  1.00  0.00     0.111 C 
HETATM   10  C15 UNL     1      15.017  22.411   7.096  1.00  0.00     0.120 C 
HETATM   11  C13 UNL     1      15.074  20.959   6.763  1.00  0.00     0.104 C 
HETATM   12  N4  UNL     1      13.580  22.373   7.076  1.00  0.00    -0.353 N 
HETATM   13  C12 UNL     1      15.454  20.722   5.301  1.00  0.00     0.052 C 
HETATM   14  C14 UNL     1      13.600  20.969   6.910  1.00  0.00     0.224 C 
HETATM   15  O3  UNL     1      12.777  20.005   6.877  1.00  0.00    -0.273 OA
ATOM     16  H4  UNL     1      12.844  23.075   7.152  1.00  0.00     0.163 HD
BRANCH   9  17
HETATM   17  N2  UNL     1      15.960  24.543   6.731  1.00  0.00    -0.336 N 
HETATM   18  C4  UNL     1      15.761  25.803   6.112  1.00  0.00     0.318 C 
HETATM   19  N1  UNL     1      16.095  27.004   6.777  1.00  0.00    -0.337 N 
HETATM   20  O2  UNL     1      15.270  25.863   4.931  1.00  0.00    -0.247 OA
HETATM   21  C1  UNL     1      15.863  28.262   6.115  1.00  0.00     0.154 C 
ATOM     22  H2  UNL     1      16.351  24.500   7.673  1.00  0.00     0.164 HD
BRANCH  19  23
HETATM   23  C2  UNL     1      16.666  26.963   8.090  1.00  0.00     0.153 C 
BRANCH  23  24
HETATM   24  C3  UNL     1      16.061  28.016   9.008  1.00  0.00     0.184 C 
BRANCH  24  25
HETATM   25  O1  UNL     1      15.120  27.483   9.856  1.00  0.00    -0.399 OA
ATOM     26  H1  UNL     1      14.248  27.809   9.670  1.00  0.00     0.209 HD
ENDBRANCH  24  25
ENDBRANCH  23  24
ENDBRANCH  19  23
ENDBRANCH   9  17
ENDBRANCH   5   7
ENDBRANCH   4   5
ENDBRANCH   1   4
TORSDOF 7
ENDMDL
MODEL 3
REMARK VINA RESULT: -6.411793130      3.337      6.814
REMARK  7 active torsions:
REMARK  status: ('A' for Active; 'I' for Inactive)
REMARK    1  A    between atoms: N1_2  and  C2_3 
REMARK       I    between atoms: N1_2  and  C4_7 
REMARK    2  A    between atoms: C2_3  and  C3_4 
REMARK    3  A    between atoms: C3_4  and  O1_5 
REMARK       I    between atoms: C4_7  and  N2_9 
REMARK    4  A    between atoms: N2_9  and  C5_11 
REMARK    5  A    between atoms: C7_13  and  N3_14 
REMARK    6  A    between atoms: N3_14  and  C9_16 
REMARK    7  A    between atoms: C9_16  and  C10_17 
ROOT
HETATM    1  C10 UNL     1      16.124  26.795   6.045  1.00  0.00    -0.064 C 
HETATM    2  C11 UNL     1      15.652  27.453   6.921  1.00  0.00    -0.022 C 
HETATM    3 BR1  UNL     1      14.934  28.503   8.320  1.00  0.00     0.010 Br
ENDROOT
BRANCH   1   4
HETATM    4  C9  UNL     1      16.691  25.968   4.984  1.00  0.00     0.366 C 
BRANCH   4   5
HETATM    5  N3  UNL     1      16.731  24.592   5.383  1.00  0.00     0.099 N 
HETATM    6  C8  UNL     1      17.740  23.808   4.750  1.00  0.00     0.311 C 
BRANCH   5   7
HETATM    7  C7  UNL     1      15.462  23.941   5.409  1.00  0.00     0.226 C 
HETATM    8  C6  UNL     1      15.322  23.101   4.166  1.00  0.00     0.063 C 
HETATM    9  C5  UNL     1      15.184  21.626   4.435  1.00  0.00     0.111 C 
HETATM   10  C15 UNL     1      14.077  21.334   5.424  1.00  0.00     0.120 C 
HETATM   11  C13 UNL     1      14.030  22.267   6.586  1.00  0.00     0.104 C 
HETATM   12  N4  UNL     1      14.362  20.232   6.302  1.00  0.00    -0.353 N 
HETATM   13  C12 UNL     1      15.290  23.128   6.678  1.00  0.00     0.052 C 
HETATM   14  C14 UNL     1      14.176  21.060   7.432  1.00  0.00     0.224 C 
HETATM   15  O3  UNL     1      14.130  20.948   8.695  1.00  0.00    -0.273 OA
ATOM     16  H4  UNL     1      14.601  19.250   6.165  1.00  0.00     0.163 HD
BRANCH   9  17
HETATM   17  N2  UNL     1      14.760  21.023   3.186  1.00  0.00    -0.336 N 
HETATM   18  C4  UNL     1      15.143  19.699   2.853  1.00  0.00     0.318 C 
HETATM   19  N1  UNL     1      14.735  19.106   1.637  1.00  0.00    -0.337 N 
HETATM   20  O2  UNL     1      15.870  19.023   3.661  1.00  0.00    -0.247 OA
HETATM   21  C1  UNL     1      15.137  17.754   1.345  1.00  0.00     0.154 C 
ATOM     22  H2  UNL     1      14.180  21.559   2.540  1.00  0.00     0.164 HD
BRANCH  19  23
HETATM   23  C2  UNL     1      13.940  19.850   0.706  1.00  0.00     0.153 C 
BRANCH  23  24
HETATM   24  C3  UNL     1      12.613  19.163   0.414  1.00  0.00     0.184 C 
BRANCH  24  25
HETATM   25  O1  UNL     1      11.590  19.675   1.175  1.00  0.00    -0.399 OA
ATOM     26  H1  UNL     1      11.074  20.312   0.695  1.00  0.00     0.209 HD
ENDBRANCH  24  25
ENDBRANCH  23  24
ENDBRANCH  19  23
ENDBRANCH   9  17
ENDBRANCH   5   7
ENDBRANCH   4   5
ENDBRANCH   1   4
TORSDOF 7
ENDMDL
MODEL 4
REMARK VINA RESULT: -6.360143112      3.153      5.570
REMARK  7 active torsions:
REMARK  status: ('A' for Active; 'I' for Inactive)
REMARK    1  A    between atoms: N1_2  and  C2_3 
REMARK       I    between atoms: N1_2  and  C4_7 
REMARK    2  A    between atoms: C2_3  and  C3_4 
REMARK    3  A    between atoms: C3_4  and  O1_5 
REMARK       I    between atoms: C4_7  and  N2_9 
REMARK    4  A    between atoms: N2_9  and  C5_11 
REMARK    5  A    between atoms: C7_13  and  N3_14 
REMARK    6  A    between atoms: N3_14  and  C9_16 
REMARK    7  A    between atoms: C9_16  and  C10_17 
ROOT
HETATM    1  C10 UNL     1      20.478  25.105   2.535  1.00  0.00    -0.064 C 
HETATM    2  C11 UNL     1      21.529  24.706   2.137  1.00  0.00    -0.022 C 
HETATM    3 BR1  UNL     1      23.208  24.103   1.509  1.00  0.00     0.010 Br
ENDROOT
BRANCH   1   4
HETATM    4  C9  UNL     1      19.181  25.590   2.998  1.00  0.00     0.366 C 
BRANCH   4   5
HETATM    5  N3  UNL     1      18.213  24.534   2.985  1.00  0.00     0.099 N 
HETATM    6  C8  UNL     1      18.115  23.820   1.755  1.00  0.00     0.311 C 
BRANCH   5   7
HETATM    7  C7  UNL     1      16.938  24.885   3.522  1.00  0.00     0.226 C 
HETATM    8  C6  UNL     1      16.489  23.792   4.457  1.00  0.00     0.063 C 
HETATM    9  C5  UNL     1      16.316  24.239   5.884  1.00  0.00     0.111 C 
HETATM   10  C15 UNL     1      15.423  25.457   5.990  1.00  0.00     0.120 C 
HETATM   11  C13 UNL     1      15.681  26.497   4.954  1.00  0.00     0.104 C 
HETATM   12  N4  UNL     1      15.815  26.372   7.027  1.00  0.00    -0.353 N 
HETATM   13  C12 UNL     1      16.985  26.242   4.198  1.00  0.00     0.052 C 
HETATM   14  C14 UNL     1      15.923  27.421   6.087  1.00  0.00     0.224 C 
HETATM   15  O3  UNL     1      16.135  28.672   6.079  1.00  0.00    -0.273 OA
ATOM     16  H4  UNL     1      15.957  26.295   8.035  1.00  0.00     0.163 HD
BRANCH   9  17
HETATM   17  N2  UNL     1      15.603  23.173   6.560  1.00  0.00    -0.336 N 
HETATM   18  C4  UNL     1      14.276  22.837   6.187  1.00  0.00     0.318 C 
HETATM   19  N1  UNL     1      13.575  21.800   6.843  1.00  0.00    -0.337 N 
HETATM   20  O2  UNL     1      13.698  23.479   5.242  1.00  0.00    -0.247 OA
HETATM   21  C1  UNL     1      12.234  21.485   6.422  1.00  0.00     0.154 C 
ATOM     22  H2  UNL     1      16.061  22.659   7.313  1.00  0.00     0.164 HD
BRANCH  19  23
HETATM   23  C2  UNL     1      14.192  21.084   7.918  1.00  0.00     0.153 C 
BRANCH  23  24
HETATM   24  C3  UNL     1      13.545  21.400   9.259  1.00  0.00     0.184 C 
BRANCH  24  25
HETATM   25  O1  UNL     1      13.600  20.332  10.122  1.00  0.00    -0.399 OA
ATOM     26  H1  UNL     1      14.242  19.687   9.851  1.00  0.00     0.209 HD
ENDBRANCH  24  25
ENDBRANCH  23  24
ENDBRANCH  19  23
ENDBRANCH   9  17
ENDBRANCH   5   7
ENDBRANCH   4   5
ENDBRANCH   1   4
TORSDOF 7
ENDMDL
MODEL 5
REMARK VINA RESULT: -6.356798816      1.422      1.482
REMARK  7 active torsions:
REMARK  status: ('A' for Active; 'I' for Inactive)
REMARK    1  A    between atoms: N1_2  and  C2_3 
REMARK       I    between atoms: N1_2  and  C4_7 
REMARK    2  A    between atoms: C2_3  and  C3_4 
REMARK    3  A    between atoms: C3_4  and  O1_5 
REMARK       I    between atoms: C4_7  and  N2_9 
REMARK    4  A    between atoms: N2_9  and  C5_11 
REMARK    5  A    between atoms: C7_13  and  N3_14 
REMARK    6  A    between atoms: N3_14  and  C9_16 
REMARK    7  A    between atoms: C9_16  and  C10_17 
ROOT
HETATM    1  C10 UNL     1      17.741  22.939   1.658  1.00  0.00    -0.064 C 
HETATM    2  C11 UNL     1      18.463  23.038   0.714  1.00  0.00    -0.022 C 
HETATM    3 BR1  UNL     1      19.634  23.196  -0.763  1.00  0.00     0.010 Br
ENDROOT
BRANCH   1   4
HETATM    4  C9  UNL     1      16.848  22.842   2.809  1.00  0.00     0.366 C 
BRANCH   4   5
HETATM    5  N3  UNL     1      16.953  21.552   3.423  1.00  0.00     0.099 N 
HETATM    6  C8  UNL     1      16.275  20.501   2.739  1.00  0.00     0.311 C 
BRANCH   5   7
HETATM    7  C7  UNL     1      16.715  21.538   4.830  1.00  0.00     0.226 C 
HETATM    8  C6  UNL     1      16.801  22.950   5.350  1.00  0.00     0.063 C 
HETATM    9  C5  UNL     1      15.519  23.462   5.951  1.00  0.00     0.111 C 
HETATM   10  C15 UNL     1      14.973  22.520   7.002  1.00  0.00     0.120 C 
HETATM   11  C13 UNL     1      15.049  21.077   6.632  1.00  0.00     0.104 C 
HETATM   12  N4  UNL     1      13.537  22.452   7.028  1.00  0.00    -0.353 N 
HETATM   13  C12 UNL     1      15.386  20.883   5.153  1.00  0.00     0.052 C 
HETATM   14  C14 UNL     1      13.581  21.054   6.826  1.00  0.00     0.224 C 
HETATM   15  O3  UNL     1      12.777  20.073   6.797  1.00  0.00    -0.273 OA
ATOM     16  H4  UNL     1      12.790  23.136   7.144  1.00  0.00     0.163 HD
BRANCH   9  17
HETATM   17  N2  UNL     1      15.860  24.680   6.658  1.00  0.00    -0.336 N 
HETATM   18  C4  UNL     1      15.738  25.944   6.027  1.00  0.00     0.318 C 
HETATM   19  N1  UNL     1      16.070  27.136   6.710  1.00  0.00    -0.337 N 
HETATM   20  O2  UNL     1      15.322  26.016   4.818  1.00  0.00    -0.247 OA
HETATM   21  C1  UNL     1      15.920  28.398   6.034  1.00  0.00     0.154 C 
ATOM     22  H2  UNL     1      16.191  24.627   7.622  1.00  0.00     0.164 HD
BRANCH  19  23
HETATM   23  C2  UNL     1      16.560  27.080   8.055  1.00  0.00     0.153 C 
BRANCH  23  24
HETATM   24  C3  UNL     1      15.755  27.971   8.992  1.00  0.00     0.184 C 
BRANCH  24  25
HETATM   25  O1  UNL     1      15.053  27.241   9.920  1.00  0.00    -0.399 OA
ATOM     26  H1  UNL     1      15.185  27.567  10.803  1.00  0.00     0.209 HD
ENDBRANCH  24  25
ENDBRANCH  23  24
ENDBRANCH  19  23
ENDBRANCH   9  17
ENDBRANCH   5   7
ENDBRANCH   4   5
ENDBRANCH   1   4
TORSDOF 7
ENDMDL
