MODEL 1
REMARK VINA RESULT: -5.953617204      0.000      0.000
REMARK  6 active torsions:
REMARK  status: ('A' for Active; 'I' for Inactive)
REMARK    1  A    between atoms: N1_2  and  C3_4 
REMARK    2  A    between atoms: C3_4  and  N2_6 
REMARK    3  A    between atoms: N2_6  and  C4_8 
REMARK    4  A    between atoms: C4_8  and  C5_9 
REMARK    5  A    between atoms: C5_9  and  C6_10 
REMARK    6  A    between atoms: C6_10  and  N3_11 
REMARK       I    between atoms: N3_11  and  C7_13 
REMARK       I    between atoms: C7_13  and  N4_15 
ROOT
HETATM    1  N3  UNL     1      14.041  22.532   6.090  1.00  0.00    -0.343 N 
ATOM      2  H3  UNL     1      14.303  22.729   5.124  1.00  0.00     0.164 HD
HETATM    3  C7  UNL     1      14.536  23.374   7.106  1.00  0.00     0.318 C 
HETATM    4  O1  UNL     1      14.230  23.138   8.298  1.00  0.00    -0.247 OA
HETATM    5  N4  UNL     1      15.365  24.480   6.850  1.00  0.00    -0.327 N 
HETATM    6  C8  UNL     1      15.837  24.931   5.563  1.00  0.00     0.140 C 
HETATM    7  C9  UNL     1      16.802  26.055   5.872  1.00  0.00     0.077 C 
HETATM    8  C10 UNL     1      17.322  25.566   7.239  1.00  0.00     0.041 C 
HETATM    9  C11 UNL     1      15.907  25.380   7.827  1.00  0.00     0.111 C 
HETATM   10  C12 UNL     1      15.369  26.774   7.599  1.00  0.00     0.150 C 
HETATM   11 BR1  UNL     1      15.696  27.963   9.054  1.00  0.00    -0.081 Br
HETATM   12  C13 UNL     1      16.005  27.214   6.322  1.00  0.00     0.149 C 
HETATM   13  O2  UNL     1      15.919  28.276   5.741  1.00  0.00    -0.296 OA
ENDROOT
BRANCH   1  14
HETATM   14  C6  UNL     1      13.185  21.410   6.351  1.00  0.00     0.126 C 
BRANCH  14  15
HETATM   15  C5  UNL     1      13.997  20.201   6.691  1.00  0.00     0.039 C 
BRANCH  15  16
HETATM   16  C4  UNL     1      14.922  19.793   5.558  1.00  0.00     0.123 C 
BRANCH  16  17
HETATM   17  N2  UNL     1      16.291  19.880   6.034  1.00  0.00    -0.367 N 
ATOM     18  H2  UNL     1      16.494  19.691   7.016  1.00  0.00     0.161 HD
BRANCH  17  19
HETATM   19  C3  UNL     1      17.351  20.223   5.156  1.00  0.00     0.169 C 
HETATM   20  S1  UNL     1      17.499  21.758   4.659  1.00  0.00    -0.041 SA
BRANCH  19  21
HETATM   21  N1  UNL     1      18.259  19.240   4.728  1.00  0.00    -0.367 N 
HETATM   22  C1  UNL     1      19.681  19.479   4.823  1.00  0.00     0.151 C 
HETATM   23  C2  UNL     1      17.765  17.994   4.195  1.00  0.00     0.151 C 
ENDBRANCH  19  21
ENDBRANCH  17  19
ENDBRANCH  16  17
ENDBRANCH  15  16
ENDBRANCH  14  15
ENDBRANCH   1  14
TORSDOF 6
ENDMDL
MODEL 2
REMARK VINA RESULT: -5.872807321      1.251      1.730
REMARK  6 active torsions:
REMARK  status: ('A' for Active; 'I' for Inactive)
REMARK    1  A    between atoms: N1_2  and  C3_4 
REMARK    2  A    between atoms: C3_4  and  N2_6 
REMARK    3  A    between atoms: N2_6  and  C4_8 
REMARK    4  A    between atoms: C4_8  and  C5_9 
REMARK    5  A    between atoms: C5_9  and  C6_10 
REMARK    6  A    between atoms: C6_10  and  N3_11 
REMARK       I    between atoms: N3_11  and  C7_13 
REMARK       I    between atoms: C7_13  and  N4_15 
ROOT
HETATM    1  N3  UNL     1      14.096  22.467   6.211  1.00  0.00    -0.343 N 
ATOM      2  H3  UNL     1      14.383  22.624   5.245  1.00  0.00     0.164 HD
HETATM    3  C7  UNL     1      14.563  23.353   7.203  1.00  0.00     0.318 C 
HETATM    4  O1  UNL     1      14.227  23.166   8.395  1.00  0.00    -0.247 OA
HETATM    5  N4  UNL     1      15.395  24.451   6.921  1.00  0.00    -0.327 N 
HETATM    6  C8  UNL     1      15.898  24.848   5.628  1.00  0.00     0.140 C 
HETATM    7  C9  UNL     1      16.852  25.988   5.914  1.00  0.00     0.077 C 
HETATM    8  C10 UNL     1      17.339  25.560   7.313  1.00  0.00     0.041 C 
HETATM    9  C11 UNL     1      15.910  25.393   7.873  1.00  0.00     0.111 C 
HETATM   10  C12 UNL     1      15.374  26.775   7.572  1.00  0.00     0.150 C 
HETATM   11 BR1  UNL     1      15.660  28.026   8.982  1.00  0.00    -0.081 Br
HETATM   12  C13 UNL     1      16.041  27.163   6.294  1.00  0.00     0.149 C 
HETATM   13  O2  UNL     1      15.966  28.199   5.666  1.00  0.00    -0.296 OA
ENDROOT
BRANCH   1  14
HETATM   14  C6  UNL     1      13.238  21.354   6.497  1.00  0.00     0.126 C 
BRANCH  14  15
HETATM   15  C5  UNL     1      14.013  20.075   6.476  1.00  0.00     0.039 C 
BRANCH  15  16
HETATM   16  C4  UNL     1      15.497  20.300   6.717  1.00  0.00     0.123 C 
BRANCH  16  17
HETATM   17  N2  UNL     1      16.224  19.833   5.550  1.00  0.00    -0.367 N 
ATOM     18  H2  UNL     1      16.481  18.849   5.479  1.00  0.00     0.161 HD
BRANCH  17  19
HETATM   19  C3  UNL     1      16.582  20.725   4.506  1.00  0.00     0.169 C 
HETATM   20  S1  UNL     1      17.932  21.609   4.651  1.00  0.00    -0.041 SA
BRANCH  19  21
HETATM   21  N1  UNL     1      15.771  20.835   3.363  1.00  0.00    -0.367 N 
HETATM   22  C1  UNL     1      15.234  19.646   2.742  1.00  0.00     0.151 C 
HETATM   23  C2  UNL     1      15.480  22.137   2.816  1.00  0.00     0.151 C 
ENDBRANCH  19  21
ENDBRANCH  17  19
ENDBRANCH  16  17
ENDBRANCH  15  16
ENDBRANCH  14  15
ENDBRANCH   1  14
TORSDOF 6
ENDMDL
MODEL 3
REMARK VINA RESULT: -5.857632812      1.383      1.666
REMARK  6 active torsions:
REMARK  status: ('A' for Active; 'I' for Inactive)
REMARK    1  A    between atoms: N1_2  and  C3_4 
REMARK    2  A    between atoms: C3_4  and  N2_6 
REMARK    3  A    between atoms: N2_6  and  C4_8 
REMARK    4  A    between atoms: C4_8  and  C5_9 
REMARK    5  A    between atoms: C5_9  and  C6_10 
REMARK    6  A    between atoms: C6_10  and  N3_11 
REMARK       I    between atoms: N3_11  and  C7_13 
REMARK       I    between atoms: C7_13  and  N4_15 
ROOT
HETATM    1  N3  UNL     1      14.015  22.585   6.183  1.00  0.00    -0.343 N 
ATOM      2  H3  UNL     1      14.272  22.768   5.212  1.00  0.00     0.164 HD
HETATM    3  C7  UNL     1      14.522  23.435   7.185  1.00  0.00     0.318 C 
HETATM    4  O1  UNL     1      14.223  23.216   8.382  1.00  0.00    -0.247 OA
HETATM    5  N4  UNL     1      15.357  24.532   6.910  1.00  0.00    -0.327 N 
HETATM    6  C8  UNL     1      15.824  24.964   5.614  1.00  0.00     0.140 C 
HETATM    7  C9  UNL     1      16.799  26.085   5.904  1.00  0.00     0.077 C 
HETATM    8  C10 UNL     1      17.325  25.610   7.273  1.00  0.00     0.041 C 
HETATM    9  C11 UNL     1      15.913  25.440   7.873  1.00  0.00     0.111 C 
HETATM   10  C12 UNL     1      15.383  26.835   7.632  1.00  0.00     0.150 C 
HETATM   11 BR1  UNL     1      15.727  28.040   9.069  1.00  0.00    -0.081 Br
HETATM   12  C13 UNL     1      16.013  27.256   6.345  1.00  0.00     0.149 C 
HETATM   13  O2  UNL     1      15.930  28.311   5.751  1.00  0.00    -0.296 OA
ENDROOT
BRANCH   1  14
HETATM   14  C6  UNL     1      13.153  21.472   6.462  1.00  0.00     0.126 C 
BRANCH  14  15
HETATM   15  C5  UNL     1      13.922  20.190   6.415  1.00  0.00     0.039 C 
BRANCH  15  16
HETATM   16  C4  UNL     1      15.394  20.391   6.735  1.00  0.00     0.123 C 
BRANCH  16  17
HETATM   17  N2  UNL     1      16.176  19.665   5.750  1.00  0.00    -0.367 N 
ATOM     18  H2  UNL     1      16.773  18.895   6.052  1.00  0.00     0.161 HD
BRANCH  17  19
HETATM   19  C3  UNL     1      16.125  20.010   4.375  1.00  0.00     0.169 C 
HETATM   20  S1  UNL     1      15.666  18.892   3.297  1.00  0.00    -0.041 SA
BRANCH  19  21
HETATM   21  N1  UNL     1      16.468  21.309   3.961  1.00  0.00    -0.367 N 
HETATM   22  C1  UNL     1      17.695  21.915   4.425  1.00  0.00     0.151 C 
HETATM   23  C2  UNL     1      15.591  22.031   3.073  1.00  0.00     0.151 C 
ENDBRANCH  19  21
ENDBRANCH  17  19
ENDBRANCH  16  17
ENDBRANCH  15  16
ENDBRANCH  14  15
ENDBRANCH   1  14
TORSDOF 6
ENDMDL
MODEL 4
REMARK VINA RESULT: -5.843228551      3.308      5.382
REMARK  6 active torsions:
REMARK  status: ('A' for Active; 'I' for Inactive)
REMARK    1  A    between atoms: N1_2  and  C3_4 
REMARK    2  A    between atoms: C3_4  and  N2_6 
REMARK    3  A    between atoms: N2_6  and  C4_8 
REMARK    4  A    between atoms: C4_8  and  C5_9 
REMARK    5  A    between atoms: C5_9  and  C6_10 
REMARK    6  A    between atoms: C6_10  and  N3_11 
REMARK       I    between atoms: N3_11  and  C7_13 
REMARK       I    between atoms: C7_13  and  N4_15 
ROOT
HETATM    1  N3  UNL     1      17.331  20.799   3.659  1.00  0.00    -0.343 N 
ATOM      2  H3  UNL     1      16.672  21.085   2.935  1.00  0.00     0.164 HD
HETATM    3  C7  UNL     1      16.996  21.038   5.007  1.00  0.00     0.318 C 
HETATM    4  O1  UNL     1      17.801  20.700   5.906  1.00  0.00    -0.247 OA
HETATM    5  N4  UNL     1      15.790  21.643   5.402  1.00  0.00    -0.327 N 
HETATM    6  C8  UNL     1      14.729  22.107   4.540  1.00  0.00     0.140 C 
HETATM    7  C9  UNL     1      13.750  22.801   5.463  1.00  0.00     0.077 C 
HETATM    8  C10 UNL     1      14.736  23.308   6.535  1.00  0.00     0.041 C 
HETATM    9  C11 UNL     1      15.379  21.920   6.749  1.00  0.00     0.111 C 
HETATM   10  C12 UNL     1      14.134  21.130   7.081  1.00  0.00     0.150 C 
HETATM   11 BR1  UNL     1      13.723  21.103   8.943  1.00  0.00    -0.081 Br
HETATM   12  C13 UNL     1      13.063  21.755   6.249  1.00  0.00     0.149 C 
HETATM   13  O2  UNL     1      11.878  21.499   6.193  1.00  0.00    -0.296 OA
ENDROOT
BRANCH   1  14
HETATM   14  C6  UNL     1      18.557  20.170   3.257  1.00  0.00     0.126 C 
BRANCH  14  15
HETATM   15  C5  UNL     1      19.427  21.142   2.526  1.00  0.00     0.039 C 
BRANCH  15  16
HETATM   16  C4  UNL     1      20.535  21.696   3.406  1.00  0.00     0.123 C 
BRANCH  16  17
HETATM   17  N2  UNL     1      19.976  22.753   4.230  1.00  0.00    -0.367 N 
ATOM     18  H2  UNL     1      19.948  22.638   5.243  1.00  0.00     0.161 HD
BRANCH  17  19
HETATM   19  C3  UNL     1      19.469  23.943   3.648  1.00  0.00     0.169 C 
HETATM   20  S1  UNL     1      20.421  24.811   2.666  1.00  0.00    -0.041 SA
BRANCH  19  21
HETATM   21  N1  UNL     1      18.154  24.358   3.924  1.00  0.00    -0.367 N 
HETATM   22  C1  UNL     1      17.787  24.751   5.265  1.00  0.00     0.151 C 
HETATM   23  C2  UNL     1      17.177  24.388   2.864  1.00  0.00     0.151 C 
ENDBRANCH  19  21
ENDBRANCH  17  19
ENDBRANCH  16  17
ENDBRANCH  15  16
ENDBRANCH  14  15
ENDBRANCH   1  14
TORSDOF 6
ENDMDL
MODEL 5
REMARK VINA RESULT: -5.795104724      3.961      7.328
REMARK  6 active torsions:
REMARK  status: ('A' for Active; 'I' for Inactive)
REMARK    1  A    between atoms: N1_2  and  C3_4 
REMARK    2  A    between atoms: C3_4  and  N2_6 
REMARK    3  A    between atoms: N2_6  and  C4_8 
REMARK    4  A    between atoms: C4_8  and  C5_9 
REMARK    5  A    between atoms: C5_9  and  C6_10 
REMARK    6  A    between atoms: C6_10  and  N3_11 
REMARK       I    between atoms: N3_11  and  C7_13 
REMARK       I    between atoms: C7_13  and  N4_15 
ROOT
HETATM    1  N3  UNL     1      15.719  20.919   6.716  1.00  0.00    -0.343 N 
ATOM      2  H3  UNL     1      16.529  21.483   6.976  1.00  0.00     0.164 HD
HETATM    3  C7  UNL     1      15.874  19.945   5.710  1.00  0.00     0.318 C 
HETATM    4  O1  UNL     1      14.886  19.252   5.374  1.00  0.00    -0.247 OA
HETATM    5  N4  UNL     1      17.095  19.705   5.056  1.00  0.00    -0.327 N 
HETATM    6  C8  UNL     1      18.349  20.381   5.284  1.00  0.00     0.140 C 
HETATM    7  C9  UNL     1      19.283  19.844   4.221  1.00  0.00     0.077 C 
HETATM    8  C10 UNL     1      18.255  19.564   3.106  1.00  0.00     0.041 C 
HETATM    9  C11 UNL     1      17.331  18.735   4.025  1.00  0.00     0.111 C 
HETATM   10  C12 UNL     1      18.331  17.707   4.503  1.00  0.00     0.150 C 
HETATM   11 BR1  UNL     1      18.425  16.161   3.390  1.00  0.00    -0.081 Br
HETATM   12  C13 UNL     1      19.621  18.453   4.587  1.00  0.00     0.149 C 
HETATM   13  O2  UNL     1      20.728  18.054   4.885  1.00  0.00    -0.296 OA
ENDROOT
BRANCH   1  14
HETATM   14  C6  UNL     1      14.476  21.156   7.392  1.00  0.00     0.126 C 
BRANCH  14  15
HETATM   15  C5  UNL     1      14.220  22.624   7.519  1.00  0.00     0.039 C 
BRANCH  15  16
HETATM   16  C4  UNL     1      14.960  23.429   6.464  1.00  0.00     0.123 C 
BRANCH  16  17
HETATM   17  N2  UNL     1      15.744  24.449   7.136  1.00  0.00    -0.367 N 
ATOM     18  H2  UNL     1      16.122  24.261   8.065  1.00  0.00     0.161 HD
BRANCH  17  19
HETATM   19  C3  UNL     1      15.993  25.704   6.523  1.00  0.00     0.169 C 
HETATM   20  S1  UNL     1      16.440  25.747   4.966  1.00  0.00    -0.041 SA
BRANCH  19  21
HETATM   21  N1  UNL     1      15.850  26.891   7.263  1.00  0.00    -0.367 N 
HETATM   22  C1  UNL     1      15.755  28.160   6.579  1.00  0.00     0.151 C 
HETATM   23  C2  UNL     1      15.800  26.834   8.703  1.00  0.00     0.151 C 
ENDBRANCH  19  21
ENDBRANCH  17  19
ENDBRANCH  16  17
ENDBRANCH  15  16
ENDBRANCH  14  15
ENDBRANCH   1  14
TORSDOF 6
ENDMDL
