MODEL 1
REMARK VINA RESULT: -8.110671132      0.000      0.000
REMARK  17 active torsions:
REMARK  status: ('A' for Active; 'I' for Inactive)
REMARK    1  A    between atoms: C2_2  and  O1_3 
REMARK    2  A    between atoms: C2_2  and  C3_5 
REMARK    3  A    between atoms: C2_2  and  C4_8 
REMARK    4  A    between atoms: C3_5  and  O2_6 
REMARK    5  A    between atoms: C4_8  and  O3_9 
REMARK    6  A    between atoms: C4_8  and  C5_11 
REMARK    7  A    between atoms: C5_11  and  O4_12 
REMARK    8  A    between atoms: C5_11  and  C6_14 
REMARK    9  A    between atoms: C6_14  and  O5_15 
REMARK   10  A    between atoms: C6_14  and  C7_17 
REMARK   11  A    between atoms: C7_17  and  O7_19 
REMARK   12  A    between atoms: O7_19  and  C8_20 
REMARK   13  A    between atoms: N1_24  and  N2_26 
REMARK   14  A    between atoms: N2_26  and  C11_28 
REMARK   15  A    between atoms: C16_35  and  N4_36 
REMARK   16  A    between atoms: N4_36  and  N5_38 
REMARK       I    between atoms: N5_38  and  C17_40 
REMARK       I    between atoms: C17_40  and  N6_42 
REMARK   17  A    between atoms: N6_42  and  N7_44 
ROOT
HETATM    1  C8  UNL     1     -13.524   3.509   8.958  1.00  0.00     0.193 C 
HETATM    2  C9  UNL     1     -14.918   4.077   9.251  1.00  0.00     0.213 C 
HETATM    3  O8  UNL     1     -15.235   4.994   8.244  1.00  0.00    -0.329 OA
HETATM    4  C10 UNL     1     -14.420   5.576   7.299  1.00  0.00     0.203 C 
HETATM    5  N1  UNL     1     -14.972   5.939   6.173  1.00  0.00    -0.276 N 
ATOM      6  H1  UNL     1     -14.396   6.374   5.453  1.00  0.00     0.189 HD
HETATM    7  C16 UNL     1     -13.002   5.870   7.335  1.00  0.00     0.170 C 
HETATM    8  N8  UNL     1     -12.178   5.381   8.210  1.00  0.00    -0.352 N 
ATOM      9  H8  UNL     1     -11.206   5.677   8.114  1.00  0.00     0.162 HD
HETATM   10  C18 UNL     1     -12.451   4.465   9.315  1.00  0.00     0.222 C 
HETATM   11  C19 UNL     1     -11.220   3.770   9.626  1.00  0.00     0.087 C 
HETATM   12  N9  UNL     1     -10.227   3.237   9.879  1.00  0.00    -0.195 NA
ENDROOT
BRANCH   1  13
HETATM   13  O7  UNL     1     -13.452   2.321   9.718  1.00  0.00    -0.309 OA
BRANCH  13  14
HETATM   14  C7  UNL     1     -13.537   1.056   9.104  1.00  0.00     0.291 C 
HETATM   15  O6  UNL     1     -13.740   1.091   7.867  1.00  0.00    -0.262 OA
BRANCH  14  16
HETATM   16  C6  UNL     1     -13.409  -0.220   9.814  1.00  0.00     0.248 C 
BRANCH  16  17
HETATM   17  C5  UNL     1     -12.563  -0.217  11.041  1.00  0.00     0.188 C 
BRANCH  17  18
HETATM   18  C4  UNL     1     -11.734  -1.454  11.138  1.00  0.00     0.185 C 
BRANCH  18  19
HETATM   19  C2  UNL     1     -10.307  -1.266  11.501  1.00  0.00     0.103 C 
HETATM   20  C1  UNL     1      -9.513  -0.499  10.433  1.00  0.00     0.051 C 
BRANCH  19  21
HETATM   21  O1  UNL     1     -10.274  -0.373  12.611  1.00  0.00    -0.385 OA
ATOM     22  H1  UNL     1     -11.105  -0.546  13.038  1.00  0.00     0.210 HD
ENDBRANCH  19  21
BRANCH  19  23
HETATM   23  C3  UNL     1      -9.558  -2.487  11.923  1.00  0.00     0.204 C 
BRANCH  23  24
HETATM   24  O2  UNL     1     -10.349  -3.610  12.029  1.00  0.00    -0.398 OA
ATOM     25  H2  UNL     1     -10.619  -3.966  11.191  1.00  0.00     0.209 HD
ENDBRANCH  23  24
ENDBRANCH  19  23
ENDBRANCH  18  19
BRANCH  18  26
HETATM   26  O3  UNL     1     -11.839  -2.203   9.980  1.00  0.00    -0.390 OA
ATOM     27  H3  UNL     1     -12.066  -3.101  10.189  1.00  0.00     0.210 HD
ENDBRANCH  18  26
ENDBRANCH  17  18
BRANCH  17  28
HETATM   28  O4  UNL     1     -13.294   0.075  12.189  1.00  0.00    -0.390 OA
ATOM     29  H4  UNL     1     -14.219   0.229  12.036  1.00  0.00     0.210 HD
ENDBRANCH  17  28
ENDBRANCH  16  17
BRANCH  16  30
HETATM   30  O5  UNL     1     -14.642  -0.807  10.084  1.00  0.00    -0.383 OA
ATOM     31  H5  UNL     1     -14.537  -1.741  10.224  1.00  0.00     0.210 HD
ENDBRANCH  16  30
ENDBRANCH  14  16
ENDBRANCH  13  14
ENDBRANCH   1  13
BRANCH   7  32
HETATM   32  N4  UNL     1     -12.469   6.742   6.354  1.00  0.00    -0.278 N 
ATOM     33  H4  UNL     1     -12.760   7.720   6.351  1.00  0.00     0.189 HD
BRANCH  32  34
HETATM   34  N5  UNL     1     -11.561   6.308   5.393  1.00  0.00    -0.249 N 
HETATM   35  C17 UNL     1     -12.038   5.938   4.114  1.00  0.00     0.352 C 
HETATM   36  O9  UNL     1     -13.264   6.004   3.861  1.00  0.00    -0.244 OA
HETATM   37  N6  UNL     1     -11.114   5.495   3.132  1.00  0.00    -0.257 N 
ATOM     38  H6  UNL     1     -10.119   5.448   3.353  1.00  0.00     0.191 HD
ATOM     39  H5  UNL     1     -10.565   6.259   5.609  1.00  0.00     0.192 HD
BRANCH  37  40
HETATM   40  N7  UNL     1     -11.568   5.123   1.859  1.00  0.00    -0.341 N 
ATOM     41  H72 UNL     1     -12.413   4.557   1.781  1.00  0.00     0.177 HD
ATOM     42  H71 UNL     1     -11.055   5.419   1.029  1.00  0.00     0.177 HD
ENDBRANCH  37  40
ENDBRANCH  32  34
ENDBRANCH   7  32
BRANCH   5  43
HETATM   43  N2  UNL     1     -16.327   5.746   5.930  1.00  0.00    -0.297 N 
ATOM     44  H2  UNL     1     -16.796   4.908   6.274  1.00  0.00     0.187 HD
BRANCH  43  45
HETATM   45  C11 UNL     1     -17.052   6.723   5.201  1.00  0.00     0.063 A 
HETATM   46  C12 UNL     1     -16.393   7.775   4.563  1.00  0.00     0.034 A 
HETATM   47  C13 UNL     1     -17.145   8.681   3.879  1.00  0.00     0.019 A 
HETATM   48  C14 UNL     1     -18.529   8.539   3.834  1.00  0.00     0.088 A 
HETATM   49  N3  UNL     1     -19.158   7.526   4.449  1.00  0.00    -0.373 N 
HETATM   50  C15 UNL     1     -18.412   6.634   5.123  1.00  0.00     0.118 A 
ATOM     51  H3  UNL     1     -20.173   7.435   4.406  1.00  0.00     0.164 HD
ENDBRANCH  43  45
ENDBRANCH   5  43
TORSDOF 17
ENDMDL
MODEL 2
REMARK VINA RESULT: -7.743770409      4.515     10.186
REMARK  17 active torsions:
REMARK  status: ('A' for Active; 'I' for Inactive)
REMARK    1  A    between atoms: C2_2  and  O1_3 
REMARK    2  A    between atoms: C2_2  and  C3_5 
REMARK    3  A    between atoms: C2_2  and  C4_8 
REMARK    4  A    between atoms: C3_5  and  O2_6 
REMARK    5  A    between atoms: C4_8  and  O3_9 
REMARK    6  A    between atoms: C4_8  and  C5_11 
REMARK    7  A    between atoms: C5_11  and  O4_12 
REMARK    8  A    between atoms: C5_11  and  C6_14 
REMARK    9  A    between atoms: C6_14  and  O5_15 
REMARK   10  A    between atoms: C6_14  and  C7_17 
REMARK   11  A    between atoms: C7_17  and  O7_19 
REMARK   12  A    between atoms: O7_19  and  C8_20 
REMARK   13  A    between atoms: N1_24  and  N2_26 
REMARK   14  A    between atoms: N2_26  and  C11_28 
REMARK   15  A    between atoms: C16_35  and  N4_36 
REMARK   16  A    between atoms: N4_36  and  N5_38 
REMARK       I    between atoms: N5_38  and  C17_40 
REMARK       I    between atoms: C17_40  and  N6_42 
REMARK   17  A    between atoms: N6_42  and  N7_44 
ROOT
HETATM    1  C8  UNL     1     -12.176  -1.161  11.049  1.00  0.00     0.193 C 
HETATM    2  C9  UNL     1     -11.607  -2.545  11.384  1.00  0.00     0.213 C 
HETATM    3  O8  UNL     1     -10.228  -2.416  11.569  1.00  0.00    -0.329 OA
HETATM    4  C10 UNL     1      -9.393  -1.368  11.244  1.00  0.00     0.203 C 
HETATM    5  N1  UNL     1      -8.314  -1.217  11.964  1.00  0.00    -0.276 N 
ATOM      6  H1  UNL     1      -7.675  -0.452  11.748  1.00  0.00     0.189 HD
HETATM    7  C16 UNL     1      -9.505  -0.366  10.205  1.00  0.00     0.170 C 
HETATM    8  N8  UNL     1     -10.590  -0.130   9.534  1.00  0.00    -0.352 N 
ATOM      9  H8  UNL     1     -10.522   0.606   8.830  1.00  0.00     0.162 HD
HETATM   10  C18 UNL     1     -11.897  -0.773   9.647  1.00  0.00     0.222 C 
HETATM   11  C19 UNL     1     -12.891   0.160   9.160  1.00  0.00     0.087 C 
HETATM   12  N9  UNL     1     -13.674   0.904   8.750  1.00  0.00    -0.195 NA
ENDROOT
BRANCH   1  13
HETATM   13  O7  UNL     1     -13.561  -1.269  11.305  1.00  0.00    -0.309 OA
BRANCH  13  14
HETATM   14  C7  UNL     1     -14.218  -0.364  12.161  1.00  0.00     0.291 C 
HETATM   15  O6  UNL     1     -13.793  -0.362  13.340  1.00  0.00    -0.262 OA
BRANCH  14  16
HETATM   16  C6  UNL     1     -15.314   0.520  11.750  1.00  0.00     0.248 C 
BRANCH  16  17
HETATM   17  C5  UNL     1     -15.013   1.979  11.711  1.00  0.00     0.188 C 
BRANCH  17  18
HETATM   18  C4  UNL     1     -15.987   2.716  10.855  1.00  0.00     0.185 C 
BRANCH  18  19
HETATM   19  C2  UNL     1     -15.638   4.118  10.513  1.00  0.00     0.103 C 
HETATM   20  C1  UNL     1     -16.780   5.106  10.794  1.00  0.00     0.051 C 
BRANCH  19  21
HETATM   21  O1  UNL     1     -14.636   4.534  11.436  1.00  0.00    -0.385 OA
ATOM     22  H1  UNL     1     -13.833   4.383  10.950  1.00  0.00     0.210 HD
ENDBRANCH  19  21
BRANCH  19  23
HETATM   23  C3  UNL     1     -15.075   4.353   9.150  1.00  0.00     0.204 C 
BRANCH  23  24
HETATM   24  O2  UNL     1     -13.759   3.966   9.022  1.00  0.00    -0.398 OA
ATOM     25  H2  UNL     1     -13.139   4.628   9.305  1.00  0.00     0.209 HD
ENDBRANCH  23  24
ENDBRANCH  19  23
ENDBRANCH  18  19
BRANCH  18  26
HETATM   26  O3  UNL     1     -17.257   2.658  11.400  1.00  0.00    -0.390 OA
ATOM     27  H3  UNL     1     -17.702   1.870  11.114  1.00  0.00     0.210 HD
ENDBRANCH  18  26
ENDBRANCH  17  18
BRANCH  17  28
HETATM   28  O4  UNL     1     -13.677   2.238  11.415  1.00  0.00    -0.390 OA
ATOM     29  H4  UNL     1     -13.065   1.946  12.080  1.00  0.00     0.210 HD
ENDBRANCH  17  28
ENDBRANCH  16  17
BRANCH  16  30
HETATM   30  O5  UNL     1     -15.902   0.120  10.554  1.00  0.00    -0.383 OA
ATOM     31  H5  UNL     1     -16.643   0.679  10.350  1.00  0.00     0.210 HD
ENDBRANCH  16  30
ENDBRANCH  14  16
ENDBRANCH  13  14
ENDBRANCH   1  13
BRANCH   7  32
HETATM   32  N4  UNL     1      -8.364   0.415   9.895  1.00  0.00    -0.278 N 
ATOM     33  H4  UNL     1      -7.515  -0.055   9.579  1.00  0.00     0.189 HD
BRANCH  32  34
HETATM   34  N5  UNL     1      -8.364   1.801  10.008  1.00  0.00    -0.249 N 
HETATM   35  C17 UNL     1      -8.300   2.386  11.295  1.00  0.00     0.352 C 
HETATM   36  O9  UNL     1      -8.245   1.655  12.311  1.00  0.00    -0.244 OA
HETATM   37  N6  UNL     1      -8.299   3.800  11.413  1.00  0.00    -0.257 N 
ATOM     38  H6  UNL     1      -8.344   4.382  10.577  1.00  0.00     0.191 HD
ATOM     39  H5  UNL     1      -8.409   2.388   9.175  1.00  0.00     0.192 HD
BRANCH  37  40
HETATM   40  N7  UNL     1      -8.238   4.397  12.680  1.00  0.00    -0.341 N 
ATOM     41  H72 UNL     1      -8.662   3.918  13.474  1.00  0.00     0.177 HD
ATOM     42  H71 UNL     1      -7.773   5.297  12.797  1.00  0.00     0.177 HD
ENDBRANCH  37  40
ENDBRANCH  32  34
ENDBRANCH   7  32
BRANCH   5  43
HETATM   43  N2  UNL     1      -8.014  -2.073  13.016  1.00  0.00    -0.297 N 
ATOM     44  H2  UNL     1      -8.710  -2.741  13.350  1.00  0.00     0.187 HD
BRANCH  43  45
HETATM   45  C11 UNL     1      -6.734  -2.011  13.625  1.00  0.00     0.063 A 
HETATM   46  C12 UNL     1      -6.360  -2.939  14.598  1.00  0.00     0.034 A 
HETATM   47  C13 UNL     1      -5.117  -2.827  15.145  1.00  0.00     0.019 A 
HETATM   48  C14 UNL     1      -4.266  -1.809  14.728  1.00  0.00     0.088 A 
HETATM   49  N3  UNL     1      -4.631  -0.919  13.791  1.00  0.00    -0.373 N 
HETATM   50  C15 UNL     1      -5.858  -1.033  13.255  1.00  0.00     0.118 A 
ATOM     51  H3  UNL     1      -3.996  -0.178  13.495  1.00  0.00     0.164 HD
ENDBRANCH  43  45
ENDBRANCH   5  43
TORSDOF 17
ENDMDL
MODEL 3
REMARK VINA RESULT: -7.583749381      3.483      5.951
REMARK  17 active torsions:
REMARK  status: ('A' for Active; 'I' for Inactive)
REMARK    1  A    between atoms: C2_2  and  O1_3 
REMARK    2  A    between atoms: C2_2  and  C3_5 
REMARK    3  A    between atoms: C2_2  and  C4_8 
REMARK    4  A    between atoms: C3_5  and  O2_6 
REMARK    5  A    between atoms: C4_8  and  O3_9 
REMARK    6  A    between atoms: C4_8  and  C5_11 
REMARK    7  A    between atoms: C5_11  and  O4_12 
REMARK    8  A    between atoms: C5_11  and  C6_14 
REMARK    9  A    between atoms: C6_14  and  O5_15 
REMARK   10  A    between atoms: C6_14  and  C7_17 
REMARK   11  A    between atoms: C7_17  and  O7_19 
REMARK   12  A    between atoms: O7_19  and  C8_20 
REMARK   13  A    between atoms: N1_24  and  N2_26 
REMARK   14  A    between atoms: N2_26  and  C11_28 
REMARK   15  A    between atoms: C16_35  and  N4_36 
REMARK   16  A    between atoms: N4_36  and  N5_38 
REMARK       I    between atoms: N5_38  and  C17_40 
REMARK       I    between atoms: C17_40  and  N6_42 
REMARK   17  A    between atoms: N6_42  and  N7_44 
ROOT
HETATM    1  C8  UNL     1     -14.205   3.197  10.037  1.00  0.00     0.193 C 
HETATM    2  C9  UNL     1     -13.438   2.539   8.883  1.00  0.00     0.213 C 
HETATM    3  O8  UNL     1     -12.321   3.328   8.596  1.00  0.00    -0.329 OA
HETATM    4  C10 UNL     1     -12.029   4.614   8.995  1.00  0.00     0.203 C 
HETATM    5  N1  UNL     1     -10.769   4.942   9.086  1.00  0.00    -0.276 N 
ATOM      6  H1  UNL     1     -10.520   5.888   9.377  1.00  0.00     0.189 HD
HETATM    7  C16 UNL     1     -12.909   5.711   9.345  1.00  0.00     0.170 C 
HETATM    8  N8  UNL     1     -14.176   5.579   9.591  1.00  0.00    -0.352 N 
ATOM      9  H8  UNL     1     -14.671   6.440   9.824  1.00  0.00     0.162 HD
HETATM   10  C18 UNL     1     -14.991   4.367   9.582  1.00  0.00     0.222 C 
HETATM   11  C19 UNL     1     -16.129   4.594  10.447  1.00  0.00     0.087 C 
HETATM   12  N9  UNL     1     -17.045   4.794  11.122  1.00  0.00    -0.195 NA
ENDROOT
BRANCH   1  13
HETATM   13  O7  UNL     1     -15.028   2.172  10.554  1.00  0.00    -0.309 OA
BRANCH  13  14
HETATM   14  C7  UNL     1     -14.482   1.088  11.269  1.00  0.00     0.291 C 
HETATM   15  O6  UNL     1     -14.703   1.117  12.503  1.00  0.00    -0.262 OA
BRANCH  14  16
HETATM   16  C6  UNL     1     -13.711  -0.001  10.663  1.00  0.00     0.248 C 
BRANCH  16  17
HETATM   17  C5  UNL     1     -12.806  -0.762  11.571  1.00  0.00     0.188 C 
BRANCH  17  18
HETATM   18  C4  UNL     1     -11.812  -1.567  10.804  1.00  0.00     0.185 C 
BRANCH  18  19
HETATM   19  C2  UNL     1     -10.405  -1.498  11.272  1.00  0.00     0.103 C 
HETATM   20  C1  UNL     1      -9.504  -0.673  10.341  1.00  0.00     0.051 C 
BRANCH  19  21
HETATM   21  O1  UNL     1     -10.401  -0.725  12.469  1.00  0.00    -0.385 OA
ATOM     22  H1  UNL     1     -11.119  -1.107  12.962  1.00  0.00     0.210 HD
ENDBRANCH  19  21
BRANCH  19  23
HETATM   23  C3  UNL     1      -9.748  -2.796  11.610  1.00  0.00     0.204 C 
BRANCH  23  24
HETATM   24  O2  UNL     1     -10.619  -3.745  12.097  1.00  0.00    -0.398 OA
ATOM     25  H2  UNL     1     -10.190  -4.540  12.392  1.00  0.00     0.209 HD
ENDBRANCH  23  24
ENDBRANCH  19  23
ENDBRANCH  18  19
BRANCH  18  26
HETATM   26  O3  UNL     1     -11.883  -1.274   9.455  1.00  0.00    -0.390 OA
ATOM     27  H3  UNL     1     -12.789  -1.186   9.185  1.00  0.00     0.210 HD
ENDBRANCH  18  26
ENDBRANCH  17  18
BRANCH  17  28
HETATM   28  O4  UNL     1     -13.506  -1.480  12.537  1.00  0.00    -0.390 OA
ATOM     29  H4  UNL     1     -14.429  -1.599  12.345  1.00  0.00     0.210 HD
ENDBRANCH  17  28
ENDBRANCH  16  17
BRANCH  16  30
HETATM   30  O5  UNL     1     -14.510  -0.880   9.937  1.00  0.00    -0.383 OA
ATOM     31  H5  UNL     1     -14.226  -0.907   9.030  1.00  0.00     0.210 HD
ENDBRANCH  16  30
ENDBRANCH  14  16
ENDBRANCH  13  14
ENDBRANCH   1  13
BRANCH   7  32
HETATM   32  N4  UNL     1     -12.360   7.015   9.429  1.00  0.00    -0.278 N 
ATOM     33  H4  UNL     1     -11.807   7.266  10.248  1.00  0.00     0.189 HD
BRANCH  32  34
HETATM   34  N5  UNL     1     -12.552   7.963   8.430  1.00  0.00    -0.249 N 
HETATM   35  C17 UNL     1     -11.524   8.183   7.483  1.00  0.00     0.352 C 
HETATM   36  O9  UNL     1     -10.459   7.526   7.554  1.00  0.00    -0.244 OA
HETATM   37  N6  UNL     1     -11.718   9.149   6.462  1.00  0.00    -0.257 N 
ATOM     38  H6  UNL     1     -12.590   9.675   6.417  1.00  0.00     0.191 HD
ATOM     39  H5  UNL     1     -13.423   8.492   8.380  1.00  0.00     0.192 HD
BRANCH  37  40
HETATM   40  N7  UNL     1     -10.709   9.380   5.516  1.00  0.00    -0.341 N 
ATOM     41  H72 UNL     1      -9.737   9.403   5.824  1.00  0.00     0.177 HD
ATOM     42  H71 UNL     1     -10.953   9.523   4.536  1.00  0.00     0.177 HD
ENDBRANCH  37  40
ENDBRANCH  32  34
ENDBRANCH   7  32
BRANCH   5  43
HETATM   43  N2  UNL     1      -9.757   4.036   8.796  1.00  0.00    -0.297 N 
ATOM     44  H2  UNL     1      -9.613   3.716   7.837  1.00  0.00     0.187 HD
BRANCH  43  45
HETATM   45  C11 UNL     1      -8.925   3.557   9.841  1.00  0.00     0.063 A 
HETATM   46  C12 UNL     1      -7.879   2.673   9.573  1.00  0.00     0.034 A 
HETATM   47  C13 UNL     1      -7.116   2.248  10.619  1.00  0.00     0.019 A 
HETATM   48  C14 UNL     1      -7.394   2.698  11.906  1.00  0.00     0.088 A 
HETATM   49  N3  UNL     1      -8.402   3.548  12.158  1.00  0.00    -0.373 N 
HETATM   50  C15 UNL     1      -9.152   3.964  11.123  1.00  0.00     0.118 A 
ATOM     51  H3  UNL     1      -8.593   3.869  13.107  1.00  0.00     0.164 HD
ENDBRANCH  43  45
ENDBRANCH   5  43
TORSDOF 17
ENDMDL
MODEL 4
REMARK VINA RESULT: -7.575798318      4.314     10.878
REMARK  17 active torsions:
REMARK  status: ('A' for Active; 'I' for Inactive)
REMARK    1  A    between atoms: C2_2  and  O1_3 
REMARK    2  A    between atoms: C2_2  and  C3_5 
REMARK    3  A    between atoms: C2_2  and  C4_8 
REMARK    4  A    between atoms: C3_5  and  O2_6 
REMARK    5  A    between atoms: C4_8  and  O3_9 
REMARK    6  A    between atoms: C4_8  and  C5_11 
REMARK    7  A    between atoms: C5_11  and  O4_12 
REMARK    8  A    between atoms: C5_11  and  C6_14 
REMARK    9  A    between atoms: C6_14  and  O5_15 
REMARK   10  A    between atoms: C6_14  and  C7_17 
REMARK   11  A    between atoms: C7_17  and  O7_19 
REMARK   12  A    between atoms: O7_19  and  C8_20 
REMARK   13  A    between atoms: N1_24  and  N2_26 
REMARK   14  A    between atoms: N2_26  and  C11_28 
REMARK   15  A    between atoms: C16_35  and  N4_36 
REMARK   16  A    between atoms: N4_36  and  N5_38 
REMARK       I    between atoms: N5_38  and  C17_40 
REMARK       I    between atoms: C17_40  and  N6_42 
REMARK   17  A    between atoms: N6_42  and  N7_44 
ROOT
HETATM    1  C8  UNL     1     -10.320   0.674  10.538  1.00  0.00     0.193 C 
HETATM    2  C9  UNL     1      -9.509  -0.575  10.173  1.00  0.00     0.213 C 
HETATM    3  O8  UNL     1      -8.365  -0.601  10.975  1.00  0.00    -0.329 OA
HETATM    4  C10 UNL     1      -7.817   0.394  11.756  1.00  0.00     0.203 C 
HETATM    5  N1  UNL     1      -7.122   0.024  12.797  1.00  0.00    -0.276 N 
ATOM      6  H1  UNL     1      -6.702   0.737  13.394  1.00  0.00     0.189 HD
HETATM    7  C16 UNL     1      -7.878   1.834  11.619  1.00  0.00     0.170 C 
HETATM    8  N8  UNL     1      -8.708   2.458  10.841  1.00  0.00    -0.352 N 
ATOM      9  H8  UNL     1      -8.636   3.476  10.846  1.00  0.00     0.162 HD
HETATM   10  C18 UNL     1      -9.732   1.904   9.958  1.00  0.00     0.222 C 
HETATM   11  C19 UNL     1     -10.744   2.921   9.764  1.00  0.00     0.087 C 
HETATM   12  N9  UNL     1     -11.535   3.746   9.599  1.00  0.00    -0.195 NA
ENDROOT
BRANCH   1  13
HETATM   13  O7  UNL     1     -11.617   0.420  10.039  1.00  0.00    -0.309 OA
BRANCH  13  14
HETATM   14  C7  UNL     1     -12.708   0.228  10.909  1.00  0.00     0.291 C 
HETATM   15  O6  UNL     1     -12.413  -0.311  12.002  1.00  0.00    -0.262 OA
BRANCH  14  16
HETATM   16  C6  UNL     1     -14.090   0.609  10.603  1.00  0.00     0.248 C 
BRANCH  16  17
HETATM   17  C5  UNL     1     -14.286   1.936   9.952  1.00  0.00     0.188 C 
BRANCH  17  18
HETATM   18  C4  UNL     1     -15.609   2.529  10.305  1.00  0.00     0.185 C 
BRANCH  18  19
HETATM   19  C2  UNL     1     -15.620   3.980  10.619  1.00  0.00     0.103 C 
HETATM   20  C1  UNL     1     -16.991   4.480  11.097  1.00  0.00     0.051 C 
BRANCH  19  21
HETATM   21  O1  UNL     1     -14.805   4.162  11.773  1.00  0.00    -0.385 OA
ATOM     22  H1  UNL     1     -13.927   4.069  11.422  1.00  0.00     0.210 HD
ENDBRANCH  19  21
BRANCH  19  23
HETATM   23  C3  UNL     1     -15.073   4.895   9.572  1.00  0.00     0.204 C 
BRANCH  23  24
HETATM   24  O2  UNL     1     -13.880   5.485   9.924  1.00  0.00    -0.398 OA
ATOM     25  H2  UNL     1     -13.907   5.927  10.765  1.00  0.00     0.209 HD
ENDBRANCH  23  24
ENDBRANCH  19  23
ENDBRANCH  18  19
BRANCH  18  26
HETATM   26  O3  UNL     1     -16.207   1.814  11.326  1.00  0.00    -0.390 OA
ATOM     27  H3  UNL     1     -15.548   1.455  11.907  1.00  0.00     0.210 HD
ENDBRANCH  18  26
ENDBRANCH  17  18
BRANCH  17  28
HETATM   28  O4  UNL     1     -14.017   1.903   8.587  1.00  0.00    -0.390 OA
ATOM     29  H4  UNL     1     -14.738   1.593   8.053  1.00  0.00     0.210 HD
ENDBRANCH  17  28
ENDBRANCH  16  17
BRANCH  16  30
HETATM   30  O5  UNL     1     -14.771  -0.376   9.894  1.00  0.00    -0.383 OA
ATOM     31  H5  UNL     1     -14.657  -1.220  10.315  1.00  0.00     0.210 HD
ENDBRANCH  16  30
ENDBRANCH  14  16
ENDBRANCH  13  14
ENDBRANCH   1  13
BRANCH   7  32
HETATM   32  N4  UNL     1      -6.980   2.623  12.381  1.00  0.00    -0.278 N 
ATOM     33  H4  UNL     1      -6.022   2.738  12.052  1.00  0.00     0.189 HD
BRANCH  32  34
HETATM   34  N5  UNL     1      -7.365   3.244  13.565  1.00  0.00    -0.249 N 
HETATM   35  C17 UNL     1      -6.730   2.874  14.774  1.00  0.00     0.352 C 
HETATM   36  O9  UNL     1      -5.833   1.997  14.766  1.00  0.00    -0.244 OA
HETATM   37  N6  UNL     1      -7.119   3.506  15.982  1.00  0.00    -0.257 N 
ATOM     38  H6  UNL     1      -7.849   4.219  15.973  1.00  0.00     0.191 HD
ATOM     39  H5  UNL     1      -8.095   3.956  13.561  1.00  0.00     0.192 HD
BRANCH  37  40
HETATM   40  N7  UNL     1      -6.501   3.152  17.190  1.00  0.00    -0.341 N 
ATOM     41  H72 UNL     1      -6.820   2.319  17.684  1.00  0.00     0.177 HD
ATOM     42  H71 UNL     1      -5.743   3.725  17.561  1.00  0.00     0.177 HD
ENDBRANCH  37  40
ENDBRANCH  32  34
ENDBRANCH   7  32
BRANCH   5  43
HETATM   43  N2  UNL     1      -6.939  -1.317  13.113  1.00  0.00    -0.297 N 
ATOM     44  H2  UNL     1      -7.710  -1.977  13.013  1.00  0.00     0.187 HD
BRANCH  43  45
HETATM   45  C11 UNL     1      -5.673  -1.760  13.575  1.00  0.00     0.063 A 
HETATM   46  C12 UNL     1      -5.536  -2.999  14.201  1.00  0.00     0.034 A 
HETATM   47  C13 UNL     1      -4.294  -3.370  14.623  1.00  0.00     0.019 A 
HETATM   48  C14 UNL     1      -3.213  -2.517  14.424  1.00  0.00     0.088 A 
HETATM   49  N3  UNL     1      -3.351  -1.325  13.822  1.00  0.00    -0.373 N 
HETATM   50  C15 UNL     1      -4.577  -0.965  13.407  1.00  0.00     0.118 A 
ATOM     51  H3  UNL     1      -2.549  -0.711  13.682  1.00  0.00     0.164 HD
ENDBRANCH  43  45
ENDBRANCH   5  43
TORSDOF 17
ENDMDL
MODEL 5
REMARK VINA RESULT: -7.574121316      1.681      2.332
REMARK  17 active torsions:
REMARK  status: ('A' for Active; 'I' for Inactive)
REMARK    1  A    between atoms: C2_2  and  O1_3 
REMARK    2  A    between atoms: C2_2  and  C3_5 
REMARK    3  A    between atoms: C2_2  and  C4_8 
REMARK    4  A    between atoms: C3_5  and  O2_6 
REMARK    5  A    between atoms: C4_8  and  O3_9 
REMARK    6  A    between atoms: C4_8  and  C5_11 
REMARK    7  A    between atoms: C5_11  and  O4_12 
REMARK    8  A    between atoms: C5_11  and  C6_14 
REMARK    9  A    between atoms: C6_14  and  O5_15 
REMARK   10  A    between atoms: C6_14  and  C7_17 
REMARK   11  A    between atoms: C7_17  and  O7_19 
REMARK   12  A    between atoms: O7_19  and  C8_20 
REMARK   13  A    between atoms: N1_24  and  N2_26 
REMARK   14  A    between atoms: N2_26  and  C11_28 
REMARK   15  A    between atoms: C16_35  and  N4_36 
REMARK   16  A    between atoms: N4_36  and  N5_38 
REMARK       I    between atoms: N5_38  and  C17_40 
REMARK       I    between atoms: C17_40  and  N6_42 
REMARK   17  A    between atoms: N6_42  and  N7_44 
ROOT
HETATM    1  C8  UNL     1     -13.029   3.651   8.926  1.00  0.00     0.193 C 
HETATM    2  C9  UNL     1     -14.390   4.326   9.138  1.00  0.00     0.213 C 
HETATM    3  O8  UNL     1     -14.558   5.290   8.141  1.00  0.00    -0.329 OA
HETATM    4  C10 UNL     1     -13.631   5.827   7.274  1.00  0.00     0.203 C 
HETATM    5  N1  UNL     1     -14.070   6.263   6.123  1.00  0.00    -0.276 N 
ATOM      6  H1  UNL     1     -13.409   6.667   5.460  1.00  0.00     0.189 HD
HETATM    7  C16 UNL     1     -12.201   6.000   7.418  1.00  0.00     0.170 C 
HETATM    8  N8  UNL     1     -11.485   5.423   8.333  1.00  0.00    -0.352 N 
ATOM      9  H8  UNL     1     -10.488   5.639   8.315  1.00  0.00     0.162 HD
HETATM   10  C18 UNL     1     -11.910   4.505   9.388  1.00  0.00     0.222 C 
HETATM   11  C19 UNL     1     -10.766   3.702   9.762  1.00  0.00     0.087 C 
HETATM   12  N9  UNL     1      -9.840   3.082  10.068  1.00  0.00    -0.195 NA
ENDROOT
BRANCH   1  13
HETATM   13  O7  UNL     1     -13.109   2.442   9.652  1.00  0.00    -0.309 OA
BRANCH  13  14
HETATM   14  C7  UNL     1     -13.437   1.229   9.015  1.00  0.00     0.291 C 
HETATM   15  O6  UNL     1     -13.909   1.360   7.861  1.00  0.00    -0.262 OA
BRANCH  14  16
HETATM   16  C6  UNL     1     -13.262  -0.097   9.616  1.00  0.00     0.248 C 
BRANCH  16  17
HETATM   17  C5  UNL     1     -12.469  -0.156  10.877  1.00  0.00     0.188 C 
BRANCH  17  18
HETATM   18  C4  UNL     1     -11.690  -1.425  10.975  1.00  0.00     0.185 C 
BRANCH  18  19
HETATM   19  C2  UNL     1     -10.292  -1.305  11.458  1.00  0.00     0.103 C 
HETATM   20  C1  UNL     1      -9.383  -0.544  10.482  1.00  0.00     0.051 C 
BRANCH  19  21
HETATM   21  O1  UNL     1     -10.316  -0.445  12.593  1.00  0.00    -0.385 OA
ATOM     22  H1  UNL     1     -10.052  -1.025  13.297  1.00  0.00     0.210 HD
ENDBRANCH  19  21
BRANCH  19  23
HETATM   23  C3  UNL     1      -9.629  -2.567  11.904  1.00  0.00     0.204 C 
BRANCH  23  24
HETATM   24  O2  UNL     1     -10.496  -3.630  12.035  1.00  0.00    -0.398 OA
ATOM     25  H2  UNL     1     -10.066  -4.477  12.011  1.00  0.00     0.209 HD
ENDBRANCH  23  24
ENDBRANCH  19  23
ENDBRANCH  18  19
BRANCH  18  26
HETATM   26  O3  UNL     1     -11.726  -2.113   9.776  1.00  0.00    -0.390 OA
ATOM     27  H3  UNL     1     -12.613  -2.390   9.582  1.00  0.00     0.210 HD
ENDBRANCH  18  26
ENDBRANCH  17  18
BRANCH  17  28
HETATM   28  O4  UNL     1     -13.238   0.134  12.001  1.00  0.00    -0.390 OA
ATOM     29  H4  UNL     1     -14.123  -0.210  11.970  1.00  0.00     0.210 HD
ENDBRANCH  17  28
ENDBRANCH  16  17
BRANCH  16  30
HETATM   30  O5  UNL     1     -14.467  -0.774   9.775  1.00  0.00    -0.383 OA
ATOM     31  H5  UNL     1     -15.110  -0.448   9.156  1.00  0.00     0.210 HD
ENDBRANCH  16  30
ENDBRANCH  14  16
ENDBRANCH  13  14
ENDBRANCH   1  13
BRANCH   7  32
HETATM   32  N4  UNL     1     -11.529   6.850   6.505  1.00  0.00    -0.278 N 
ATOM     33  H4  UNL     1     -11.526   6.607   5.514  1.00  0.00     0.189 HD
BRANCH  32  34
HETATM   34  N5  UNL     1     -10.873   8.006   6.916  1.00  0.00    -0.249 N 
HETATM   35  C17 UNL     1     -11.593   9.223   6.971  1.00  0.00     0.352 C 
HETATM   36  O9  UNL     1     -12.804   9.247   6.651  1.00  0.00    -0.244 OA
HETATM   37  N6  UNL     1     -10.926  10.403   7.391  1.00  0.00    -0.257 N 
ATOM     38  H6  UNL     1      -9.941  10.367   7.649  1.00  0.00     0.191 HD
ATOM     39  H5  UNL     1      -9.887   7.976   7.175  1.00  0.00     0.192 HD
BRANCH  37  40
HETATM   40  N7  UNL     1     -11.624  11.618   7.451  1.00  0.00    -0.341 N 
ATOM     41  H72 UNL     1     -11.666  12.206   6.618  1.00  0.00     0.177 HD
ATOM     42  H71 UNL     1     -12.079  11.902   8.318  1.00  0.00     0.177 HD
ENDBRANCH  37  40
ENDBRANCH  32  34
ENDBRANCH   7  32
BRANCH   5  43
HETATM   43  N2  UNL     1     -15.414   6.190   5.780  1.00  0.00    -0.297 N 
ATOM     44  H2  UNL     1     -15.978   5.394   6.080  1.00  0.00     0.187 HD
BRANCH  43  45
HETATM   45  C11 UNL     1     -15.997   7.229   5.011  1.00  0.00     0.063 A 
HETATM   46  C12 UNL     1     -17.375   7.273   4.797  1.00  0.00     0.034 A 
HETATM   47  C13 UNL     1     -17.875   8.296   4.048  1.00  0.00     0.019 A 
HETATM   48  C14 UNL     1     -17.014   9.256   3.525  1.00  0.00     0.088 A 
HETATM   49  N3  UNL     1     -15.688   9.208   3.734  1.00  0.00    -0.373 N 
HETATM   50  C15 UNL     1     -15.200   8.197   4.472  1.00  0.00     0.118 A 
ATOM     51  H3  UNL     1     -15.070   9.919   3.343  1.00  0.00     0.164 HD
ENDBRANCH  43  45
ENDBRANCH   5  43
TORSDOF 17
ENDMDL
