MODEL 1
REMARK VINA RESULT: -3.787231259      0.000      0.000
REMARK  4 active torsions:
REMARK  status: ('A' for Active; 'I' for Inactive)
REMARK    1  A    between atoms: N1_2  and  C2_5 
REMARK    2  A    between atoms: C2_5  and  C3_6 
REMARK    3  A    between atoms: C3_6  and  C4_7 
REMARK    4  A    between atoms: C6_9  and  N2_10 
ROOT
HETATM    1  C4  UNL     1       6.161  39.485  -1.439  1.00  0.00     0.189 C 
HETATM    2  C5  UNL     1       7.556  39.694  -1.987  1.00  0.00     0.067 C 
HETATM    3  C6  UNL     1       8.002  38.270  -2.313  1.00  0.00     0.211 C 
HETATM    4  C7  UNL     1       7.304  37.504  -1.184  1.00  0.00     0.265 C 
HETATM    5  N3  UNL     1       5.973  38.076  -1.261  1.00  0.00    -0.069 N 
ATOM      6  H31 UNL     1       5.387  37.649  -1.979  1.00  0.00     0.277 HD
ATOM      7  H32 UNL     1       5.381  37.840  -0.464  1.00  0.00     0.277 HD
ENDROOT
BRANCH   1   8
HETATM    8  C3  UNL     1       5.194  40.067  -2.451  1.00  0.00     0.060 C 
BRANCH   8   9
HETATM    9  C2  UNL     1       3.877  40.444  -1.826  1.00  0.00     0.233 C 
BRANCH   9  10
HETATM   10  N1  UNL     1       2.771  39.732  -2.435  1.00  0.00    -0.079 N 
HETATM   11  C1  UNL     1       2.307  38.636  -1.649  1.00  0.00     0.266 C 
ATOM     12  H12 UNL     1       3.012  39.426  -3.378  1.00  0.00     0.276 HD
ATOM     13  H11 UNL     1       2.006  40.371  -2.656  1.00  0.00     0.276 HD
ENDBRANCH   9  10
ENDBRANCH   8   9
ENDBRANCH   1   8
BRANCH   3  14
HETATM   14  N2  UNL     1       9.422  38.117  -2.272  1.00  0.00    -0.073 N 
ATOM     15  H23 UNL     1       9.812  38.061  -3.214  1.00  0.00     0.274 HD
ATOM     16  H22 UNL     1       9.875  38.976  -1.957  1.00  0.00     0.274 HD
ATOM     17  H21 UNL     1       9.715  37.321  -1.706  1.00  0.00     0.274 HD
ENDBRANCH   3  14
TORSDOF 4
ENDMDL
MODEL 2
REMARK VINA RESULT: -3.226722317      1.453      1.749
REMARK  4 active torsions:
REMARK  status: ('A' for Active; 'I' for Inactive)
REMARK    1  A    between atoms: N1_2  and  C2_5 
REMARK    2  A    between atoms: C2_5  and  C3_6 
REMARK    3  A    between atoms: C3_6  and  C4_7 
REMARK    4  A    between atoms: C6_9  and  N2_10 
ROOT
HETATM    1  C4  UNL     1       5.713  39.432  -2.189  1.00  0.00     0.189 C 
HETATM    2  C5  UNL     1       6.608  38.248  -2.489  1.00  0.00     0.067 C 
HETATM    3  C6  UNL     1       7.901  38.618  -1.766  1.00  0.00     0.211 C 
HETATM    4  C7  UNL     1       7.891  40.139  -1.954  1.00  0.00     0.265 C 
HETATM    5  N3  UNL     1       6.523  40.442  -1.575  1.00  0.00    -0.069 N 
ATOM      6  H31 UNL     1       6.387  40.517  -0.567  1.00  0.00     0.277 HD
ATOM      7  H32 UNL     1       6.237  41.393  -1.808  1.00  0.00     0.277 HD
ENDROOT
BRANCH   1   8
HETATM    8  C3  UNL     1       4.618  38.938  -1.264  1.00  0.00     0.060 C 
BRANCH   8   9
HETATM    9  C2  UNL     1       3.250  39.362  -1.728  1.00  0.00     0.233 C 
BRANCH   9  10
HETATM   10  N1  UNL     1       3.324  40.281  -2.847  1.00  0.00    -0.079 N 
HETATM   11  C1  UNL     1       2.307  40.060  -3.823  1.00  0.00     0.266 C 
ATOM     12  H12 UNL     1       4.250  40.256  -3.276  1.00  0.00     0.276 HD
ATOM     13  H11 UNL     1       3.314  41.248  -2.524  1.00  0.00     0.276 HD
ENDBRANCH   9  10
ENDBRANCH   8   9
ENDBRANCH   1   8
BRANCH   3  14
HETATM   14  N2  UNL     1       9.052  38.009  -2.354  1.00  0.00    -0.073 N 
ATOM     15  H23 UNL     1       9.121  37.025  -2.091  1.00  0.00     0.274 HD
ATOM     16  H22 UNL     1       8.936  37.902  -3.362  1.00  0.00     0.274 HD
ATOM     17  H21 UNL     1       9.915  38.508  -2.136  1.00  0.00     0.274 HD
ENDBRANCH   3  14
TORSDOF 4
ENDMDL
MODEL 3
REMARK VINA RESULT: -2.963177964      1.047      4.542
REMARK  4 active torsions:
REMARK  status: ('A' for Active; 'I' for Inactive)
REMARK    1  A    between atoms: N1_2  and  C2_5 
REMARK    2  A    between atoms: C2_5  and  C3_6 
REMARK    3  A    between atoms: C3_6  and  C4_7 
REMARK    4  A    between atoms: C6_9  and  N2_10 
ROOT
HETATM    1  C4  UNL     1       5.383  39.048  -1.685  1.00  0.00     0.189 C 
HETATM    2  C5  UNL     1       4.681  39.807  -2.791  1.00  0.00     0.067 C 
HETATM    3  C6  UNL     1       3.353  40.189  -2.141  1.00  0.00     0.211 C 
HETATM    4  C7  UNL     1       3.125  38.961  -1.253  1.00  0.00     0.265 C 
HETATM    5  N3  UNL     1       4.432  38.835  -0.636  1.00  0.00    -0.069 N 
ATOM      6  H31 UNL     1       4.565  39.451   0.166  1.00  0.00     0.277 HD
ATOM      7  H32 UNL     1       4.564  37.955  -0.137  1.00  0.00     0.277 HD
ENDROOT
BRANCH   1   8
HETATM    8  C3  UNL     1       6.551  39.903  -1.233  1.00  0.00     0.060 C 
BRANCH   8   9
HETATM    9  C2  UNL     1       7.661  39.931  -2.250  1.00  0.00     0.233 C 
BRANCH   9  10
HETATM   10  N1  UNL     1       8.693  38.961  -1.945  1.00  0.00    -0.079 N 
HETATM   11  C1  UNL     1       8.338  37.629  -2.312  1.00  0.00     0.266 C 
ATOM     12  H12 UNL     1       8.956  39.008  -0.961  1.00  0.00     0.276 HD
ATOM     13  H11 UNL     1       9.581  39.229  -2.370  1.00  0.00     0.276 HD
ENDBRANCH   9  10
ENDBRANCH   8   9
ENDBRANCH   1   8
BRANCH   3  14
HETATM   14  N2  UNL     1       2.306  40.367  -3.097  1.00  0.00    -0.073 N 
ATOM     15  H23 UNL     1       2.537  41.106  -3.761  1.00  0.00     0.274 HD
ATOM     16  H22 UNL     1       2.257  39.576  -3.740  1.00  0.00     0.274 HD
ATOM     17  H21 UNL     1       1.401  40.538  -2.659  1.00  0.00     0.274 HD
ENDBRANCH   3  14
TORSDOF 4
ENDMDL
MODEL 4
REMARK VINA RESULT: -2.868803430      1.418      4.598
REMARK  4 active torsions:
REMARK  status: ('A' for Active; 'I' for Inactive)
REMARK    1  A    between atoms: N1_2  and  C2_5 
REMARK    2  A    between atoms: C2_5  and  C3_6 
REMARK    3  A    between atoms: C3_6  and  C4_7 
REMARK    4  A    between atoms: C6_9  and  N2_10 
ROOT
HETATM    1  C4  UNL     1       5.638  40.444  -1.794  1.00  0.00     0.189 C 
HETATM    2  C5  UNL     1       4.616  39.849  -0.849  1.00  0.00     0.067 C 
HETATM    3  C6  UNL     1       3.617  39.201  -1.806  1.00  0.00     0.211 C 
HETATM    4  C7  UNL     1       3.677  40.193  -2.972  1.00  0.00     0.265 C 
HETATM    5  N3  UNL     1       5.113  40.336  -3.123  1.00  0.00    -0.069 N 
ATOM      6  H31 UNL     1       5.542  39.591  -3.671  1.00  0.00     0.277 HD
ATOM      7  H32 UNL     1       5.384  41.108  -3.732  1.00  0.00     0.277 HD
ENDROOT
BRANCH   1   8
HETATM    8  C3  UNL     1       6.918  39.650  -1.619  1.00  0.00     0.060 C 
BRANCH   8   9
HETATM    9  C2  UNL     1       6.664  38.166  -1.589  1.00  0.00     0.233 C 
BRANCH   9  10
HETATM   10  N1  UNL     1       7.895  37.414  -1.441  1.00  0.00    -0.079 N 
HETATM   11  C1  UNL     1       8.897  37.785  -2.386  1.00  0.00     0.266 C 
ATOM     12  H12 UNL     1       7.714  36.411  -1.479  1.00  0.00     0.276 HD
ATOM     13  H11 UNL     1       8.251  37.485  -0.488  1.00  0.00     0.276 HD
ENDBRANCH   9  10
ENDBRANCH   8   9
ENDBRANCH   1   8
BRANCH   3  14
HETATM   14  N2  UNL     1       2.306  39.103  -1.246  1.00  0.00    -0.073 N 
ATOM     15  H23 UNL     1       2.020  38.129  -1.150  1.00  0.00     0.274 HD
ATOM     16  H22 UNL     1       2.305  39.373  -0.262  1.00  0.00     0.274 HD
ATOM     17  H21 UNL     1       1.614  39.638  -1.772  1.00  0.00     0.274 HD
ENDBRANCH   3  14
TORSDOF 4
ENDMDL
MODEL 5
REMARK VINA RESULT: -2.422283996      9.190     10.511
REMARK  4 active torsions:
REMARK  status: ('A' for Active; 'I' for Inactive)
REMARK    1  A    between atoms: N1_2  and  C2_5 
REMARK    2  A    between atoms: C2_5  and  C3_6 
REMARK    3  A    between atoms: C3_6  and  C4_7 
REMARK    4  A    between atoms: C6_9  and  N2_10 
ROOT
HETATM    1  C4  UNL     1      11.574  32.326   1.786  1.00  0.00     0.189 C 
HETATM    2  C5  UNL     1      10.339  32.793   2.527  1.00  0.00     0.067 C 
HETATM    3  C6  UNL     1       9.695  31.478   2.961  1.00  0.00     0.211 C 
HETATM    4  C7  UNL     1      10.063  30.590   1.768  1.00  0.00     0.265 C 
HETATM    5  N3  UNL     1      11.473  30.905   1.630  1.00  0.00    -0.069 N 
ATOM      6  H31 UNL     1      12.072  30.381   2.267  1.00  0.00     0.277 HD
ATOM      7  H32 UNL     1      11.885  30.560   0.763  1.00  0.00     0.277 HD
ENDROOT
BRANCH   1   8
HETATM    8  C3  UNL     1      12.772  32.724   2.626  1.00  0.00     0.060 C 
BRANCH   8   9
HETATM    9  C2  UNL     1      12.744  34.183   2.997  1.00  0.00     0.233 C 
BRANCH   9  10
HETATM   10  N1  UNL     1      13.898  34.891   2.478  1.00  0.00    -0.079 N 
HETATM   11  C1  UNL     1      14.691  34.100   1.594  1.00  0.00     0.266 C 
ATOM     12  H12 UNL     1      14.466  35.266   3.238  1.00  0.00     0.276 HD
ATOM     13  H11 UNL     1      13.617  35.764   2.031  1.00  0.00     0.276 HD
ENDBRANCH   9  10
ENDBRANCH   8   9
ENDBRANCH   1   8
BRANCH   3  14
HETATM   14  N2  UNL     1       8.281  31.591   3.135  1.00  0.00    -0.073 N 
ATOM     15  H23 UNL     1       7.902  32.352   2.571  1.00  0.00     0.274 HD
ATOM     16  H22 UNL     1       7.795  30.806   2.701  1.00  0.00     0.274 HD
ATOM     17  H21 UNL     1       8.013  31.692   4.114  1.00  0.00     0.274 HD
ENDBRANCH   3  14
TORSDOF 4
ENDMDL
