MODEL 1
REMARK VINA RESULT: -4.129548663      0.000      0.000
REMARK  4 active torsions:
REMARK  status: ('A' for Active; 'I' for Inactive)
REMARK    1  A    between atoms: N1_1  and  C1_5 
REMARK    2  A    between atoms: C1_5  and  C2_6 
REMARK    3  A    between atoms: C2_6  and  N2_7 
REMARK    4  A    between atoms: N2_7  and  C3_9 
ROOT
HETATM    1  N2  UNL     1       5.911  39.632  -1.255  1.00  0.00    -0.373 N 
ATOM      2  H2  UNL     1       5.983  40.219  -0.424  1.00  0.00     0.161 HD
ENDROOT
BRANCH   1   3
HETATM    3  C2  UNL     1       4.711  39.632  -2.029  1.00  0.00     0.148 C 
BRANCH   3   4
HETATM    4  C1  UNL     1       3.507  39.122  -1.271  1.00  0.00     0.249 C 
BRANCH   4   5
HETATM    5  N1  UNL     1       4.002  38.572  -0.006  1.00  0.00    -0.078 N 
ATOM      6  H13 UNL     1       4.975  38.813   0.182  1.00  0.00     0.274 HD
ATOM      7  H12 UNL     1       3.596  39.022   0.814  1.00  0.00     0.274 HD
ATOM      8  H11 UNL     1       3.837  37.566  -0.036  1.00  0.00     0.274 HD
ENDBRANCH   4   5
ENDBRANCH   3   4
ENDBRANCH   1   3
BRANCH   1   9
HETATM    9  C3  UNL     1       6.917  38.879  -1.611  1.00  0.00     0.131 A 
HETATM   10  C4  UNL     1       8.156  39.297  -2.055  1.00  0.00     0.154 A 
HETATM   11  N3  UNL     1       8.929  38.212  -2.327  1.00  0.00    -0.292 N 
HETATM   12  N4  UNL     1       8.178  37.153  -2.055  1.00  0.00    -0.021 NA
ATOM     13  H3  UNL     1       9.890  38.212  -2.671  1.00  0.00     0.183 HD
HETATM   14  N5  UNL     1       6.979  37.536  -1.628  1.00  0.00    -0.268 N 
ATOM     15  H5  UNL     1       6.222  36.907  -1.354  1.00  0.00     0.186 HD
ENDBRANCH   1   9
TORSDOF 4
ENDMDL
MODEL 2
REMARK VINA RESULT: -4.045875669      1.456      1.678
REMARK  4 active torsions:
REMARK  status: ('A' for Active; 'I' for Inactive)
REMARK    1  A    between atoms: N1_1  and  C1_5 
REMARK    2  A    between atoms: C1_5  and  C2_6 
REMARK    3  A    between atoms: C2_6  and  N2_7 
REMARK    4  A    between atoms: N2_7  and  C3_9 
ROOT
HETATM    1  N2  UNL     1       5.474  38.164  -1.139  1.00  0.00    -0.373 N 
ATOM      2  H2  UNL     1       5.195  37.250  -0.783  1.00  0.00     0.161 HD
ENDROOT
BRANCH   1   3
HETATM    3  C2  UNL     1       4.529  39.235  -1.178  1.00  0.00     0.148 C 
BRANCH   3   4
HETATM    4  C1  UNL     1       3.093  38.767  -1.212  1.00  0.00     0.249 C 
BRANCH   4   5
HETATM    5  N1  UNL     1       2.471  39.386  -2.385  1.00  0.00    -0.078 N 
ATOM      6  H13 UNL     1       1.472  39.194  -2.457  1.00  0.00     0.274 HD
ATOM      7  H12 UNL     1       2.402  40.401  -2.314  1.00  0.00     0.274 HD
ATOM      8  H11 UNL     1       2.999  39.076  -3.200  1.00  0.00     0.274 HD
ENDBRANCH   4   5
ENDBRANCH   3   4
ENDBRANCH   1   3
BRANCH   1   9
HETATM    9  C3  UNL     1       6.695  38.355  -1.560  1.00  0.00     0.131 A 
HETATM   10  C4  UNL     1       7.705  37.418  -1.645  1.00  0.00     0.154 A 
HETATM   11  N3  UNL     1       8.830  38.008  -2.131  1.00  0.00    -0.292 N 
HETATM   12  N4  UNL     1       8.514  39.280  -2.338  1.00  0.00    -0.021 NA
ATOM     13  H3  UNL     1       9.733  37.564  -2.302  1.00  0.00     0.183 HD
HETATM   14  N5  UNL     1       7.246  39.500  -2.003  1.00  0.00    -0.268 N 
ATOM     15  H5  UNL     1       6.765  40.398  -2.071  1.00  0.00     0.186 HD
ENDBRANCH   1   9
TORSDOF 4
ENDMDL
MODEL 3
REMARK VINA RESULT: -4.044574752      8.847      9.723
REMARK  4 active torsions:
REMARK  status: ('A' for Active; 'I' for Inactive)
REMARK    1  A    between atoms: N1_1  and  C1_5 
REMARK    2  A    between atoms: C1_5  and  C2_6 
REMARK    3  A    between atoms: C2_6  and  N2_7 
REMARK    4  A    between atoms: N2_7  and  C3_9 
ROOT
HETATM    1  N2  UNL     1      11.261  33.109   2.876  1.00  0.00    -0.373 N 
ATOM      2  H2  UNL     1      10.975  33.933   3.405  1.00  0.00     0.161 HD
ENDROOT
BRANCH   1   3
HETATM    3  C2  UNL     1      12.603  32.995   2.401  1.00  0.00     0.148 C 
BRANCH   3   4
HETATM    4  C1  UNL     1      13.413  34.259   2.579  1.00  0.00     0.249 C 
BRANCH   4   5
HETATM    5  N1  UNL     1      14.617  34.113   1.758  1.00  0.00    -0.078 N 
ATOM      6  H13 UNL     1      15.441  34.546   2.174  1.00  0.00     0.274 HD
ATOM      7  H12 UNL     1      14.972  33.158   1.731  1.00  0.00     0.274 HD
ATOM      8  H11 UNL     1      14.392  34.483   0.834  1.00  0.00     0.274 HD
ENDBRANCH   4   5
ENDBRANCH   3   4
ENDBRANCH   1   3
BRANCH   1   9
HETATM    9  C3  UNL     1      10.400  32.158   2.633  1.00  0.00     0.131 A 
HETATM   10  C4  UNL     1       9.189  31.947   3.263  1.00  0.00     0.154 A 
HETATM   11  N3  UNL     1       8.585  30.854   2.726  1.00  0.00    -0.292 N 
HETATM   12  N4  UNL     1       9.408  30.407   1.787  1.00  0.00    -0.021 NA
ATOM     13  H3  UNL     1       7.682  30.459   2.991  1.00  0.00     0.183 HD
HETATM   14  N5  UNL     1      10.492  31.174   1.721  1.00  0.00    -0.268 N 
ATOM     15  H5  UNL     1      11.272  31.037   1.077  1.00  0.00     0.186 HD
ENDBRANCH   1   9
TORSDOF 4
ENDMDL
MODEL 4
REMARK VINA RESULT: -4.025138695      1.517      4.327
REMARK  4 active torsions:
REMARK  status: ('A' for Active; 'I' for Inactive)
REMARK    1  A    between atoms: N1_1  and  C1_5 
REMARK    2  A    between atoms: C1_5  and  C2_6 
REMARK    3  A    between atoms: C2_6  and  N2_7 
REMARK    4  A    between atoms: N2_7  and  C3_9 
ROOT
HETATM    1  N2  UNL     1       6.127  39.514  -1.115  1.00  0.00    -0.373 N 
ATOM      2  H2  UNL     1       6.340  39.827  -0.168  1.00  0.00     0.161 HD
ENDROOT
BRANCH   1   3
HETATM    3  C2  UNL     1       7.188  39.210  -2.023  1.00  0.00     0.148 C 
BRANCH   3   4
HETATM    4  C1  UNL     1       7.748  37.817  -1.846  1.00  0.00     0.249 C 
BRANCH   4   5
HETATM    5  N1  UNL     1       9.166  37.880  -2.210  1.00  0.00    -0.078 N 
ATOM      6  H13 UNL     1       9.332  38.356  -3.095  1.00  0.00     0.274 HD
ATOM      7  H12 UNL     1       9.704  38.513  -1.619  1.00  0.00     0.274 HD
ATOM      8  H11 UNL     1       9.518  36.923  -2.196  1.00  0.00     0.274 HD
ENDBRANCH   4   5
ENDBRANCH   3   4
ENDBRANCH   1   3
BRANCH   1   9
HETATM    9  C3  UNL     1       4.885  39.391  -1.498  1.00  0.00     0.131 A 
HETATM   10  C4  UNL     1       3.863  38.752  -0.824  1.00  0.00     0.154 A 
HETATM   11  N3  UNL     1       2.717  38.842  -1.551  1.00  0.00    -0.292 N 
HETATM   12  N4  UNL     1       3.033  39.520  -2.646  1.00  0.00    -0.021 NA
ATOM     13  H3  UNL     1       1.802  38.463  -1.305  1.00  0.00     0.183 HD
HETATM   14  N5  UNL     1       4.320  39.854  -2.628  1.00  0.00    -0.268 N 
ATOM     15  H5  UNL     1       4.803  40.380  -3.356  1.00  0.00     0.186 HD
ENDBRANCH   1   9
TORSDOF 4
ENDMDL
MODEL 5
REMARK VINA RESULT: -4.023071147      1.201      4.171
REMARK  4 active torsions:
REMARK  status: ('A' for Active; 'I' for Inactive)
REMARK    1  A    between atoms: N1_1  and  C1_5 
REMARK    2  A    between atoms: C1_5  and  C2_6 
REMARK    3  A    between atoms: C2_6  and  N2_7 
REMARK    4  A    between atoms: N2_7  and  C3_9 
ROOT
HETATM    1  N2  UNL     1       6.250  39.669  -1.141  1.00  0.00    -0.373 N 
ATOM      2  H2  UNL     1       6.551  40.184  -0.314  1.00  0.00     0.161 HD
ENDROOT
BRANCH   1   3
HETATM    3  C2  UNL     1       7.215  39.225  -2.097  1.00  0.00     0.148 C 
BRANCH   3   4
HETATM    4  C1  UNL     1       7.731  37.831  -1.826  1.00  0.00     0.249 C 
BRANCH   4   5
HETATM    5  N1  UNL     1       9.150  37.824  -2.191  1.00  0.00    -0.078 N 
ATOM      6  H13 UNL     1       9.320  37.470  -3.132  1.00  0.00     0.274 HD
ATOM      7  H12 UNL     1       9.533  38.759  -2.334  1.00  0.00     0.274 HD
ATOM      8  H11 UNL     1       9.639  37.296  -1.469  1.00  0.00     0.274 HD
ENDBRANCH   4   5
ENDBRANCH   3   4
ENDBRANCH   1   3
BRANCH   1   9
HETATM    9  C3  UNL     1       4.983  39.413  -1.326  1.00  0.00     0.131 A 
HETATM   10  C4  UNL     1       4.162  39.929  -2.310  1.00  0.00     0.154 A 
HETATM   11  N3  UNL     1       2.910  39.419  -2.167  1.00  0.00    -0.292 N 
HETATM   12  N4  UNL     1       2.964  38.609  -1.118  1.00  0.00    -0.021 NA
ATOM     13  H3  UNL     1       2.095  39.619  -2.747  1.00  0.00     0.183 HD
HETATM   14  N5  UNL     1       4.192  38.595  -0.609  1.00  0.00    -0.268 N 
ATOM     15  H5  UNL     1       4.488  38.048   0.200  1.00  0.00     0.186 HD
ENDBRANCH   1   9
TORSDOF 4
ENDMDL
