MODEL 1
REMARK VINA RESULT: -7.892500833      0.000      0.000
REMARK  9 active torsions:
REMARK  status: ('A' for Active; 'I' for Inactive)
REMARK    1  A    between atoms: C2_5  and  C3_7 
REMARK    2  A    between atoms: C3_7  and  N4_8 
REMARK    3  A    between atoms: N4_8  and  C4_10 
REMARK    4  A    between atoms: C5_13  and  C6_14 
REMARK    5  A    between atoms: C6_14  and  O1_15 
REMARK    6  A    between atoms: C7_17  and  C8_18 
REMARK    7  A    between atoms: C8_18  and  C9_19 
REMARK    8  A    between atoms: C9_19  and  C10_20 
REMARK    9  A    between atoms: C10_20  and  N6_21 
ROOT
HETATM    1  N1  UNL     1      59.454   8.418  81.248  1.00  0.00    -0.172 NA
HETATM    2  C1  UNL     1      59.366   9.208  82.077  1.00  0.00     0.183 C 
HETATM    3  N2  UNL     1      59.245  10.158  83.090  1.00  0.00    -0.284 N 
ATOM      4  H2  UNL     1      58.371  10.198  83.616  1.00  0.00     0.179 HD
HETATM    5  C2  UNL     1      60.181  10.985  83.393  1.00  0.00     0.119 C 
HETATM    6  N3  UNL     1      61.390  10.918  82.651  1.00  0.00    -0.085 NA
ENDROOT
BRANCH   5   7
HETATM    7  C3  UNL     1      60.001  11.970  84.474  1.00  0.00     0.196 C 
BRANCH   7   8
HETATM    8  N4  UNL     1      59.467  13.213  83.971  1.00  0.00    -0.356 N 
ATOM      9  H4  UNL     1      60.082  13.936  83.596  1.00  0.00     0.163 HD
BRANCH   8  10
HETATM   10  C4  UNL     1      58.048  13.398  84.015  1.00  0.00     0.172 C 
HETATM   11  N5  UNL     1      57.346  13.911  84.965  1.00  0.00    -0.354 N 
HETATM   12  C5  UNL     1      55.940  13.929  84.642  1.00  0.00     0.130 C 
ATOM     13  H5  UNL     1      57.738  14.261  85.840  1.00  0.00     0.163 HD
HETATM   14  C7  UNL     1      55.860  12.969  83.508  1.00  0.00     0.109 C 
HETATM   15  N9  UNL     1      57.180  13.021  82.954  1.00  0.00    -0.356 N 
ATOM     16  H9  UNL     1      57.445  12.827  81.989  1.00  0.00     0.163 HD
BRANCH  12  17
HETATM   17  C6  UNL     1      55.453  15.308  84.338  1.00  0.00     0.191 C 
BRANCH  17  18
HETATM   18  O1  UNL     1      56.101  16.303  85.023  1.00  0.00    -0.399 OA
ATOM     19  H1  UNL     1      56.237  17.101  84.524  1.00  0.00     0.209 HD
ENDBRANCH  17  18
ENDBRANCH  12  17
BRANCH  14  20
HETATM   20  C8  UNL     1      54.761  13.226  82.535  1.00  0.00     0.029 C 
BRANCH  20  21
HETATM   21  C9  UNL     1      53.673  12.202  82.802  1.00  0.00     0.022 C 
BRANCH  21  22
HETATM   22  C10 UNL     1      53.206  11.582  81.481  1.00  0.00     0.122 C 
BRANCH  22  23
HETATM   23  N6  UNL     1      51.953  10.925  81.746  1.00  0.00    -0.367 N 
HETATM   24  C11 UNL     1      50.858  11.510  81.467  1.00  0.00     0.196 C 
HETATM   25  N7  UNL     1      49.632  10.864  81.727  1.00  0.00    -0.067 NA
HETATM   26  N8  UNL     1      50.860  12.797  80.899  1.00  0.00    -0.067 NA
ATOM     27  H6  UNL     1      51.943   9.993  82.158  1.00  0.00     0.161 HD
ENDBRANCH  22  23
ENDBRANCH  21  22
ENDBRANCH  20  21
ENDBRANCH  14  20
ENDBRANCH   8  10
ENDBRANCH   7   8
ENDBRANCH   5   7
TORSDOF 9
ENDMDL
MODEL 2
REMARK VINA RESULT: -7.797486285      3.144      5.793
REMARK  9 active torsions:
REMARK  status: ('A' for Active; 'I' for Inactive)
REMARK    1  A    between atoms: C2_5  and  C3_7 
REMARK    2  A    between atoms: C3_7  and  N4_8 
REMARK    3  A    between atoms: N4_8  and  C4_10 
REMARK    4  A    between atoms: C5_13  and  C6_14 
REMARK    5  A    between atoms: C6_14  and  O1_15 
REMARK    6  A    between atoms: C7_17  and  C8_18 
REMARK    7  A    between atoms: C8_18  and  C9_19 
REMARK    8  A    between atoms: C9_19  and  C10_20 
REMARK    9  A    between atoms: C10_20  and  N6_21 
ROOT
HETATM    1  N1  UNL     1      49.544  10.840  81.660  1.00  0.00    -0.172 NA
HETATM    2  C1  UNL     1      50.574  11.348  81.622  1.00  0.00     0.183 C 
HETATM    3  N2  UNL     1      51.821  11.970  81.595  1.00  0.00    -0.284 N 
ATOM      4  H2  UNL     1      52.079  12.577  82.374  1.00  0.00     0.179 HD
HETATM    5  C2  UNL     1      52.661  11.815  80.635  1.00  0.00     0.119 C 
HETATM    6  N3  UNL     1      52.287  10.969  79.556  1.00  0.00    -0.085 NA
ENDROOT
BRANCH   5   7
HETATM    7  C3  UNL     1      53.969  12.495  80.654  1.00  0.00     0.196 C 
BRANCH   7   8
HETATM    8  N4  UNL     1      54.709  12.179  81.851  1.00  0.00    -0.356 N 
ATOM      9  H4  UNL     1      54.889  11.210  82.118  1.00  0.00     0.163 HD
BRANCH   8  10
HETATM   10  C4  UNL     1      55.185  13.267  82.652  1.00  0.00     0.172 C 
HETATM   11  N5  UNL     1      56.395  13.508  83.018  1.00  0.00    -0.354 N 
HETATM   12  C5  UNL     1      56.483  14.703  83.823  1.00  0.00     0.130 C 
ATOM     13  H5  UNL     1      57.195  12.926  82.770  1.00  0.00     0.163 HD
HETATM   14  C7  UNL     1      55.066  14.922  84.225  1.00  0.00     0.109 C 
HETATM   15  N9  UNL     1      54.336  14.280  83.174  1.00  0.00    -0.356 N 
ATOM     16  H9  UNL     1      53.392  14.505  82.861  1.00  0.00     0.163 HD
BRANCH  12  17
HETATM   17  C6  UNL     1      57.109  15.836  83.078  1.00  0.00     0.191 C 
BRANCH  17  18
HETATM   18  O1  UNL     1      58.093  16.495  83.769  1.00  0.00    -0.399 OA
ATOM     19  H1  UNL     1      58.648  17.050  83.232  1.00  0.00     0.209 HD
ENDBRANCH  17  18
ENDBRANCH  12  17
BRANCH  14  20
HETATM   20  C8  UNL     1      54.689  16.342  84.475  1.00  0.00     0.029 C 
BRANCH  20  21
HETATM   21  C9  UNL     1      53.230  16.496  84.088  1.00  0.00     0.022 C 
BRANCH  21  22
HETATM   22  C10 UNL     1      53.113  17.384  82.844  1.00  0.00     0.122 C 
BRANCH  22  23
HETATM   23  N6  UNL     1      52.270  16.686  81.909  1.00  0.00    -0.367 N 
HETATM   24  C11 UNL     1      52.783  16.120  80.892  1.00  0.00     0.196 C 
HETATM   25  N7  UNL     1      51.956  15.436  79.978  1.00  0.00    -0.067 NA
HETATM   26  N8  UNL     1      54.171  16.169  80.671  1.00  0.00    -0.067 NA
ATOM     27  H6  UNL     1      51.263  16.646  82.062  1.00  0.00     0.161 HD
ENDBRANCH  22  23
ENDBRANCH  21  22
ENDBRANCH  20  21
ENDBRANCH  14  20
ENDBRANCH   8  10
ENDBRANCH   7   8
ENDBRANCH   5   7
TORSDOF 9
ENDMDL
MODEL 3
REMARK VINA RESULT: -7.793983302      1.656      2.176
REMARK  9 active torsions:
REMARK  status: ('A' for Active; 'I' for Inactive)
REMARK    1  A    between atoms: C2_5  and  C3_7 
REMARK    2  A    between atoms: C3_7  and  N4_8 
REMARK    3  A    between atoms: N4_8  and  C4_10 
REMARK    4  A    between atoms: C5_13  and  C6_14 
REMARK    5  A    between atoms: C6_14  and  O1_15 
REMARK    6  A    between atoms: C7_17  and  C8_18 
REMARK    7  A    between atoms: C8_18  and  C9_19 
REMARK    8  A    between atoms: C9_19  and  C10_20 
REMARK    9  A    between atoms: C10_20  and  N6_21 
ROOT
HETATM    1  N1  UNL     1      63.035  13.069  79.917  1.00  0.00    -0.172 NA
HETATM    2  C1  UNL     1      62.410  13.097  80.880  1.00  0.00     0.183 C 
HETATM    3  N2  UNL     1      61.640  13.145  82.040  1.00  0.00    -0.284 N 
ATOM      4  H2  UNL     1      60.997  13.928  82.165  1.00  0.00     0.179 HD
HETATM    5  C2  UNL     1      61.702  12.251  82.961  1.00  0.00     0.119 C 
HETATM    6  N3  UNL     1      62.604  11.169  82.775  1.00  0.00    -0.085 NA
ENDROOT
BRANCH   5   7
HETATM    7  C3  UNL     1      60.865  12.348  84.171  1.00  0.00     0.196 C 
BRANCH   7   8
HETATM    8  N4  UNL     1      59.581  11.719  83.975  1.00  0.00    -0.356 N 
ATOM      9  H4  UNL     1      59.504  10.709  83.850  1.00  0.00     0.163 HD
BRANCH   8  10
HETATM   10  C4  UNL     1      58.420  12.557  83.962  1.00  0.00     0.172 C 
HETATM   11  N5  UNL     1      58.239  13.668  84.587  1.00  0.00    -0.354 N 
HETATM   12  C5  UNL     1      56.933  14.224  84.325  1.00  0.00     0.130 C 
ATOM     13  H5  UNL     1      58.935  14.102  85.194  1.00  0.00     0.163 HD
HETATM   14  C7  UNL     1      56.198  13.060  83.759  1.00  0.00     0.109 C 
HETATM   15  N9  UNL     1      57.250  12.255  83.213  1.00  0.00    -0.356 N 
ATOM     16  H9  UNL     1      57.174  11.596  82.439  1.00  0.00     0.163 HD
BRANCH  12  17
HETATM   17  C6  UNL     1      57.003  15.420  83.433  1.00  0.00     0.191 C 
BRANCH  17  18
HETATM   18  O1  UNL     1      57.844  16.409  83.874  1.00  0.00    -0.399 OA
ATOM     19  H1  UNL     1      57.439  17.039  84.458  1.00  0.00     0.209 HD
ENDBRANCH  17  18
ENDBRANCH  12  17
BRANCH  14  20
HETATM   20  C8  UNL     1      55.108  13.401  82.803  1.00  0.00     0.029 C 
BRANCH  20  21
HETATM   21  C9  UNL     1      53.953  12.456  83.080  1.00  0.00     0.022 C 
BRANCH  21  22
HETATM   22  C10 UNL     1      53.395  11.915  81.759  1.00  0.00     0.122 C 
BRANCH  22  23
HETATM   23  N6  UNL     1      52.153  11.257  82.067  1.00  0.00    -0.367 N 
HETATM   24  C11 UNL     1      51.087  11.596  81.461  1.00  0.00     0.196 C 
HETATM   25  N7  UNL     1      49.872  10.950  81.764  1.00  0.00    -0.067 NA
HETATM   26  N8  UNL     1      51.111  12.612  80.489  1.00  0.00    -0.067 NA
ATOM     27  H6  UNL     1      52.127  10.519  82.771  1.00  0.00     0.161 HD
ENDBRANCH  22  23
ENDBRANCH  21  22
ENDBRANCH  20  21
ENDBRANCH  14  20
ENDBRANCH   8  10
ENDBRANCH   7   8
ENDBRANCH   5   7
TORSDOF 9
ENDMDL
MODEL 4
REMARK VINA RESULT: -7.580359499      1.983      2.671
REMARK  9 active torsions:
REMARK  status: ('A' for Active; 'I' for Inactive)
REMARK    1  A    between atoms: C2_5  and  C3_7 
REMARK    2  A    between atoms: C3_7  and  N4_8 
REMARK    3  A    between atoms: N4_8  and  C4_10 
REMARK    4  A    between atoms: C5_13  and  C6_14 
REMARK    5  A    between atoms: C6_14  and  O1_15 
REMARK    6  A    between atoms: C7_17  and  C8_18 
REMARK    7  A    between atoms: C8_18  and  C9_19 
REMARK    8  A    between atoms: C9_19  and  C10_20 
REMARK    9  A    between atoms: C10_20  and  N6_21 
ROOT
HETATM    1  N1  UNL     1      63.130  13.118  79.920  1.00  0.00    -0.172 NA
HETATM    2  C1  UNL     1      62.460  13.119  80.854  1.00  0.00     0.183 C 
HETATM    3  N2  UNL     1      61.637  13.134  81.978  1.00  0.00    -0.284 N 
ATOM      4  H2  UNL     1      60.980  13.906  82.090  1.00  0.00     0.179 HD
HETATM    5  C2  UNL     1      61.667  12.220  82.882  1.00  0.00     0.119 C 
HETATM    6  N3  UNL     1      62.589  11.153  82.715  1.00  0.00    -0.085 NA
ENDROOT
BRANCH   5   7
HETATM    7  C3  UNL     1      60.775  12.283  84.053  1.00  0.00     0.196 C 
BRANCH   7   8
HETATM    8  N4  UNL     1      59.475  11.731  83.755  1.00  0.00    -0.356 N 
ATOM      9  H4  UNL     1      59.368  10.751  83.490  1.00  0.00     0.163 HD
BRANCH   8  10
HETATM   10  C4  UNL     1      58.341  12.601  83.844  1.00  0.00     0.172 C 
HETATM   11  N5  UNL     1      58.235  13.695  84.514  1.00  0.00    -0.354 N 
HETATM   12  C5  UNL     1      56.932  14.296  84.355  1.00  0.00     0.130 C 
ATOM     13  H5  UNL     1      58.981  14.089  85.088  1.00  0.00     0.163 HD
HETATM   14  C7  UNL     1      56.128  13.173  83.802  1.00  0.00     0.109 C 
HETATM   15  N9  UNL     1      57.117  12.358  83.163  1.00  0.00    -0.356 N 
ATOM     16  H9  UNL     1      56.972  11.727  82.376  1.00  0.00     0.163 HD
BRANCH  12  17
HETATM   17  C6  UNL     1      56.981  15.519  83.499  1.00  0.00     0.191 C 
BRANCH  17  18
HETATM   18  O1  UNL     1      57.904  16.453  83.895  1.00  0.00    -0.399 OA
ATOM     19  H1  UNL     1      57.557  17.333  83.990  1.00  0.00     0.209 HD
ENDBRANCH  17  18
ENDBRANCH  12  17
BRANCH  14  20
HETATM   20  C8  UNL     1      54.989  13.576  82.930  1.00  0.00     0.029 C 
BRANCH  20  21
HETATM   21  C9  UNL     1      53.925  12.502  83.052  1.00  0.00     0.022 C 
BRANCH  21  22
HETATM   22  C10 UNL     1      53.091  12.448  81.767  1.00  0.00     0.122 C 
BRANCH  22  23
HETATM   23  N6  UNL     1      53.021  13.791  81.256  1.00  0.00    -0.367 N 
HETATM   24  C11 UNL     1      52.035  14.145  80.533  1.00  0.00     0.196 C 
HETATM   25  N7  UNL     1      51.968  15.462  80.034  1.00  0.00    -0.067 NA
HETATM   26  N8  UNL     1      51.009  13.233  80.228  1.00  0.00    -0.067 NA
ATOM     27  H6  UNL     1      53.760  14.459  81.472  1.00  0.00     0.161 HD
ENDBRANCH  22  23
ENDBRANCH  21  22
ENDBRANCH  20  21
ENDBRANCH  14  20
ENDBRANCH   8  10
ENDBRANCH   7   8
ENDBRANCH   5   7
TORSDOF 9
ENDMDL
MODEL 5
REMARK VINA RESULT: -7.514468959      2.091      2.511
REMARK  9 active torsions:
REMARK  status: ('A' for Active; 'I' for Inactive)
REMARK    1  A    between atoms: C2_5  and  C3_7 
REMARK    2  A    between atoms: C3_7  and  N4_8 
REMARK    3  A    between atoms: N4_8  and  C4_10 
REMARK    4  A    between atoms: C5_13  and  C6_14 
REMARK    5  A    between atoms: C6_14  and  O1_15 
REMARK    6  A    between atoms: C7_17  and  C8_18 
REMARK    7  A    between atoms: C8_18  and  C9_19 
REMARK    8  A    between atoms: C9_19  and  C10_20 
REMARK    9  A    between atoms: C10_20  and  N6_21 
ROOT
HETATM    1  N1  UNL     1      63.076  11.202  82.487  1.00  0.00    -0.172 NA
HETATM    2  C1  UNL     1      62.097  11.762  82.705  1.00  0.00     0.183 C 
HETATM    3  N2  UNL     1      60.905  12.441  82.951  1.00  0.00    -0.284 N 
ATOM      4  H2  UNL     1      60.407  12.851  82.160  1.00  0.00     0.179 HD
HETATM    5  C2  UNL     1      60.404  12.575  84.127  1.00  0.00     0.119 C 
HETATM    6  N3  UNL     1      61.110  12.001  85.218  1.00  0.00    -0.085 NA
ENDROOT
BRANCH   5   7
HETATM    7  C3  UNL     1      59.139  13.304  84.333  1.00  0.00     0.196 C 
BRANCH   7   8
HETATM    8  N4  UNL     1      58.054  12.692  83.605  1.00  0.00    -0.356 N 
ATOM      9  H4  UNL     1      58.128  11.736  83.255  1.00  0.00     0.163 HD
BRANCH   8  10
HETATM   10  C4  UNL     1      56.871  13.469  83.388  1.00  0.00     0.172 C 
HETATM   11  N5  UNL     1      55.863  13.611  84.176  1.00  0.00    -0.354 N 
HETATM   12  C5  UNL     1      54.857  14.477  83.609  1.00  0.00     0.130 C 
ATOM     13  H5  UNL     1      55.785  13.166  85.091  1.00  0.00     0.163 HD
HETATM   14  C7  UNL     1      55.239  14.510  82.171  1.00  0.00     0.109 C 
HETATM   15  N9  UNL     1      56.643  14.229  82.208  1.00  0.00    -0.356 N 
ATOM     16  H9  UNL     1      57.341  14.517  81.524  1.00  0.00     0.163 HD
BRANCH  12  17
HETATM   17  C6  UNL     1      54.819  15.809  84.283  1.00  0.00     0.191 C 
BRANCH  17  18
HETATM   18  O1  UNL     1      56.004  16.185  84.863  1.00  0.00    -0.399 OA
ATOM     19  H1  UNL     1      56.085  17.118  85.023  1.00  0.00     0.209 HD
ENDBRANCH  17  18
ENDBRANCH  12  17
BRANCH  14  20
HETATM   20  C8  UNL     1      54.868  15.757  81.444  1.00  0.00     0.029 C 
BRANCH  20  21
HETATM   21  C9  UNL     1      54.039  15.348  80.241  1.00  0.00     0.022 C 
BRANCH  21  22
HETATM   22  C10 UNL     1      52.600  15.050  80.678  1.00  0.00     0.122 C 
BRANCH  22  23
HETATM   23  N6  UNL     1      52.319  13.692  80.295  1.00  0.00    -0.367 N 
HETATM   24  C11 UNL     1      51.242  13.134  80.678  1.00  0.00     0.196 C 
HETATM   25  N7  UNL     1      50.968  11.803  80.301  1.00  0.00    -0.067 NA
HETATM   26  N8  UNL     1      50.319  13.834  81.476  1.00  0.00    -0.067 NA
ATOM     27  H6  UNL     1      52.982  13.177  79.716  1.00  0.00     0.161 HD
ENDBRANCH  22  23
ENDBRANCH  21  22
ENDBRANCH  20  21
ENDBRANCH  14  20
ENDBRANCH   8  10
ENDBRANCH   7   8
ENDBRANCH   5   7
TORSDOF 9
ENDMDL
