MODEL 1
REMARK VINA RESULT: -7.027407783      0.000      0.000
REMARK  6 active torsions:
REMARK  status: ('A' for Active; 'I' for Inactive)
REMARK    1  A    between atoms: N1_1  and  S1_4 
REMARK    2  A    between atoms: S1_4  and  N2_7 
REMARK       I    between atoms: N2_7  and  C1_9 
REMARK       I    between atoms: C1_9  and  N3_11 
REMARK    3  A    between atoms: N3_11  and  N4_13 
REMARK    4  A    between atoms: N4_13  and  S2_15 
REMARK    5  A    between atoms: S2_15  and  N5_18 
REMARK    6  A    between atoms: N5_18  and  C2_20 
ROOT
HETATM    1  N4  UNL     1       3.891  23.410   2.120  1.00  0.00    -0.205 N 
ATOM      2  H4  UNL     1       3.581  23.489   1.152  1.00  0.00     0.202 HD
ENDROOT
BRANCH   1   3
HETATM    3  N3  UNL     1       4.253  22.200   2.678  1.00  0.00    -0.240 N 
HETATM    4  C1  UNL     1       5.226  21.407   2.029  1.00  0.00     0.350 C 
HETATM    5  N2  UNL     1       5.658  20.153   2.519  1.00  0.00    -0.218 N 
HETATM    6  O3  UNL     1       5.728  21.855   0.951  1.00  0.00    -0.244 OA
ATOM      7  H2  UNL     1       5.260  19.790   3.385  1.00  0.00     0.185 HD
ATOM      8  H3  UNL     1       3.824  21.884   3.548  1.00  0.00     0.192 HD
BRANCH   5   9
HETATM    9  S1  UNL     1       6.835  19.235   1.687  1.00  0.00     0.320 S 
HETATM   10  O1  UNL     1       6.198  18.489   0.521  1.00  0.00    -0.183 OA
HETATM   11  O2  UNL     1       7.507  18.232   2.545  1.00  0.00    -0.183 OA
BRANCH   9  12
HETATM   12  N1  UNL     1       8.039  20.284   1.014  1.00  0.00    -0.311 N 
ATOM     13  H12 UNL     1       7.930  21.283   0.838  1.00  0.00     0.170 HD
ATOM     14  H11 UNL     1       8.863  19.710   0.833  1.00  0.00     0.170 HD
ENDBRANCH   9  12
ENDBRANCH   5   9
ENDBRANCH   1   3
BRANCH   1  15
HETATM   15  S2  UNL     1       3.996  24.771   3.158  1.00  0.00     0.350 S 
HETATM   16  O4  UNL     1       5.414  25.090   3.452  1.00  0.00    -0.180 OA
HETATM   17  O5  UNL     1       3.282  25.920   2.437  1.00  0.00    -0.180 OA
BRANCH  15  18
HETATM   18  N5  UNL     1       3.090  24.350   4.592  1.00  0.00    -0.097 N 
ATOM     19  H5  UNL     1       2.116  24.641   4.674  1.00  0.00     0.199 HD
BRANCH  18  20
HETATM   20  C2  UNL     1       3.686  23.619   5.629  1.00  0.00     0.711 A 
HETATM   21  N6  UNL     1       4.982  23.365   5.845  1.00  0.00    -0.127 N 
HETATM   22  N7  UNL     1       5.093  22.642   6.968  1.00  0.00    -0.237 N 
ATOM     23  H6  UNL     1       5.755  23.670   5.255  1.00  0.00     0.205 HD
HETATM   24  C3  UNL     1       3.872  22.431   7.467  1.00  0.00     0.353 A 
ATOM     25  H7  UNL     1       5.966  22.307   7.375  1.00  0.00     0.192 HD
HETATM   26  O6  UNL     1       3.591  21.774   8.540  1.00  0.00    -0.245 OA
HETATM   27  N8  UNL     1       2.998  23.027   6.649  1.00  0.00    -0.138 N 
ATOM     28  H8  UNL     1       1.984  23.038   6.768  1.00  0.00     0.189 HD
ENDBRANCH  18  20
ENDBRANCH  15  18
ENDBRANCH   1  15
TORSDOF 6
ENDMDL
MODEL 2
REMARK VINA RESULT: -6.992675460      0.709      1.023
REMARK  6 active torsions:
REMARK  status: ('A' for Active; 'I' for Inactive)
REMARK    1  A    between atoms: N1_1  and  S1_4 
REMARK    2  A    between atoms: S1_4  and  N2_7 
REMARK       I    between atoms: N2_7  and  C1_9 
REMARK       I    between atoms: C1_9  and  N3_11 
REMARK    3  A    between atoms: N3_11  and  N4_13 
REMARK    4  A    between atoms: N4_13  and  S2_15 
REMARK    5  A    between atoms: S2_15  and  N5_18 
REMARK    6  A    between atoms: N5_18  and  C2_20 
ROOT
HETATM    1  N4  UNL     1       3.847  23.408   2.179  1.00  0.00    -0.205 N 
ATOM      2  H4  UNL     1       3.480  23.465   1.229  1.00  0.00     0.202 HD
ENDROOT
BRANCH   1   3
HETATM    3  N3  UNL     1       4.241  22.211   2.742  1.00  0.00    -0.240 N 
HETATM    4  C1  UNL     1       5.202  21.420   2.072  1.00  0.00     0.350 C 
HETATM    5  N2  UNL     1       5.665  20.178   2.566  1.00  0.00    -0.218 N 
HETATM    6  O3  UNL     1       5.663  21.858   0.972  1.00  0.00    -0.244 OA
ATOM      7  H2  UNL     1       5.300  19.823   3.449  1.00  0.00     0.185 HD
ATOM      8  H3  UNL     1       3.844  21.902   3.629  1.00  0.00     0.192 HD
BRANCH   5   9
HETATM    9  S1  UNL     1       6.825  19.262   1.709  1.00  0.00     0.320 S 
HETATM   10  O1  UNL     1       6.161  18.504   0.565  1.00  0.00    -0.183 OA
HETATM   11  O2  UNL     1       7.527  18.269   2.555  1.00  0.00    -0.183 OA
BRANCH   9  12
HETATM   12  N1  UNL     1       8.003  20.315   0.996  1.00  0.00    -0.311 N 
ATOM     13  H12 UNL     1       7.931  20.759   0.081  1.00  0.00     0.170 HD
ATOM     14  H11 UNL     1       8.769  20.396   1.664  1.00  0.00     0.170 HD
ENDBRANCH   9  12
ENDBRANCH   5   9
ENDBRANCH   1   3
BRANCH   1  15
HETATM   15  S2  UNL     1       4.013  24.792   3.178  1.00  0.00     0.350 S 
HETATM   16  O4  UNL     1       5.433  24.995   3.550  1.00  0.00    -0.180 OA
HETATM   17  O5  UNL     1       3.450  25.972   2.377  1.00  0.00    -0.180 OA
BRANCH  15  18
HETATM   18  N5  UNL     1       2.989  24.507   4.564  1.00  0.00    -0.097 N 
ATOM     19  H5  UNL     1       2.079  24.964   4.620  1.00  0.00     0.199 HD
BRANCH  18  20
HETATM   20  C2  UNL     1       3.402  23.658   5.601  1.00  0.00     0.711 A 
HETATM   21  N6  UNL     1       2.663  23.044   6.532  1.00  0.00    -0.127 N 
HETATM   22  N7  UNL     1       3.477  22.316   7.310  1.00  0.00    -0.237 N 
ATOM     23  H6  UNL     1       1.651  23.117   6.633  1.00  0.00     0.205 HD
HETATM   24  C3  UNL     1       4.733  22.467   6.879  1.00  0.00     0.353 A 
ATOM     25  H7  UNL     1       3.186  21.742   8.100  1.00  0.00     0.192 HD
HETATM   26  O6  UNL     1       5.783  21.916   7.385  1.00  0.00    -0.245 OA
HETATM   27  N8  UNL     1       4.698  23.293   5.828  1.00  0.00    -0.138 N 
ATOM     28  H8  UNL     1       5.506  23.599   5.285  1.00  0.00     0.189 HD
ENDBRANCH  18  20
ENDBRANCH  15  18
ENDBRANCH   1  15
TORSDOF 6
ENDMDL
MODEL 3
REMARK VINA RESULT: -6.958774960      2.463      7.311
REMARK  6 active torsions:
REMARK  status: ('A' for Active; 'I' for Inactive)
REMARK    1  A    between atoms: N1_1  and  S1_4 
REMARK    2  A    between atoms: S1_4  and  N2_7 
REMARK       I    between atoms: N2_7  and  C1_9 
REMARK       I    between atoms: C1_9  and  N3_11 
REMARK    3  A    between atoms: N3_11  and  N4_13 
REMARK    4  A    between atoms: N4_13  and  S2_15 
REMARK    5  A    between atoms: S2_15  and  N5_18 
REMARK    6  A    between atoms: N5_18  and  C2_20 
ROOT
HETATM    1  N4  UNL     1       4.248  19.778   3.136  1.00  0.00    -0.205 N 
ATOM      2  H4  UNL     1       3.681  19.574   3.959  1.00  0.00     0.202 HD
ENDROOT
BRANCH   1   3
HETATM    3  N3  UNL     1       4.042  20.904   2.365  1.00  0.00    -0.240 N 
HETATM    4  C1  UNL     1       4.027  22.172   2.990  1.00  0.00     0.350 C 
HETATM    5  N2  UNL     1       3.820  23.382   2.287  1.00  0.00    -0.218 N 
HETATM    6  O3  UNL     1       4.210  22.212   4.246  1.00  0.00    -0.244 OA
ATOM      7  H2  UNL     1       3.675  23.356   1.278  1.00  0.00     0.185 HD
ATOM      8  H3  UNL     1       3.903  20.822   1.358  1.00  0.00     0.192 HD
BRANCH   5   9
HETATM    9  S1  UNL     1       3.807  24.885   3.098  1.00  0.00     0.320 S 
HETATM   10  O1  UNL     1       3.357  25.993   2.152  1.00  0.00    -0.183 OA
HETATM   11  O2  UNL     1       5.133  25.270   3.636  1.00  0.00    -0.183 OA
BRANCH   9  12
HETATM   12  N1  UNL     1       2.668  24.847   4.403  1.00  0.00    -0.311 N 
ATOM     13  H12 UNL     1       1.675  25.067   4.336  1.00  0.00     0.170 HD
ATOM     14  H11 UNL     1       3.185  24.564   5.237  1.00  0.00     0.170 HD
ENDBRANCH   9  12
ENDBRANCH   5   9
ENDBRANCH   1   3
BRANCH   1  15
HETATM   15  S2  UNL     1       5.517  18.746   2.623  1.00  0.00     0.350 S 
HETATM   16  O4  UNL     1       6.115  18.044   3.784  1.00  0.00    -0.180 OA
HETATM   17  O5  UNL     1       4.900  17.772   1.613  1.00  0.00    -0.180 OA
BRANCH  15  18
HETATM   18  N5  UNL     1       6.664  19.772   1.795  1.00  0.00    -0.097 N 
ATOM     19  H5  UNL     1       6.595  20.784   1.893  1.00  0.00     0.199 HD
BRANCH  18  20
HETATM   20  C2  UNL     1       7.677  19.220   0.998  1.00  0.00     0.711 A 
HETATM   21  N6  UNL     1       8.218  17.997   1.050  1.00  0.00    -0.127 N 
HETATM   22  N7  UNL     1       9.142  17.899   0.085  1.00  0.00    -0.237 N 
ATOM     23  H6  UNL     1       7.968  17.263   1.712  1.00  0.00     0.205 HD
HETATM   24  C3  UNL     1       9.195  19.056  -0.581  1.00  0.00     0.353 A 
ATOM     25  H7  UNL     1       9.712  17.076  -0.110  1.00  0.00     0.192 HD
HETATM   26  O6  UNL     1       9.969  19.329  -1.575  1.00  0.00    -0.245 OA
HETATM   27  N8  UNL     1       8.297  19.877  -0.025  1.00  0.00    -0.138 N 
ATOM     28  H8  UNL     1       8.108  20.836  -0.317  1.00  0.00     0.189 HD
ENDBRANCH  18  20
ENDBRANCH  15  18
ENDBRANCH   1  15
TORSDOF 6
ENDMDL
MODEL 4
REMARK VINA RESULT: -6.954257669      2.497      7.143
REMARK  6 active torsions:
REMARK  status: ('A' for Active; 'I' for Inactive)
REMARK    1  A    between atoms: N1_1  and  S1_4 
REMARK    2  A    between atoms: S1_4  and  N2_7 
REMARK       I    between atoms: N2_7  and  C1_9 
REMARK       I    between atoms: C1_9  and  N3_11 
REMARK    3  A    between atoms: N3_11  and  N4_13 
REMARK    4  A    between atoms: N4_13  and  S2_15 
REMARK    5  A    between atoms: S2_15  and  N5_18 
REMARK    6  A    between atoms: N5_18  and  C2_20 
ROOT
HETATM    1  N4  UNL     1       3.943  19.825   1.848  1.00  0.00    -0.205 N 
ATOM      2  H4  UNL     1       3.501  19.722   0.934  1.00  0.00     0.202 HD
ENDROOT
BRANCH   1   3
HETATM    3  N3  UNL     1       3.495  20.738   2.780  1.00  0.00    -0.240 N 
HETATM    4  C1  UNL     1       4.053  22.037   2.793  1.00  0.00     0.350 C 
HETATM    5  N2  UNL     1       3.664  23.040   3.711  1.00  0.00    -0.218 N 
HETATM    6  O3  UNL     1       4.949  22.301   1.932  1.00  0.00    -0.244 OA
ATOM      7  H2  UNL     1       2.944  22.833   4.403  1.00  0.00     0.185 HD
ATOM      8  H3  UNL     1       2.771  20.480   3.450  1.00  0.00     0.192 HD
BRANCH   5   9
HETATM    9  S1  UNL     1       4.379  24.591   3.682  1.00  0.00     0.320 S 
HETATM   10  O1  UNL     1       3.981  25.381   4.924  1.00  0.00    -0.183 OA
HETATM   11  O2  UNL     1       3.988  25.392   2.499  1.00  0.00    -0.183 OA
BRANCH   9  12
HETATM   12  N1  UNL     1       6.106  24.450   3.710  1.00  0.00    -0.311 N 
ATOM     13  H12 UNL     1       6.734  24.659   2.935  1.00  0.00     0.170 HD
ATOM     14  H11 UNL     1       6.360  24.120   4.641  1.00  0.00     0.170 HD
ENDBRANCH   9  12
ENDBRANCH   5   9
ENDBRANCH   1   3
BRANCH   1  15
HETATM   15  S2  UNL     1       5.288  18.873   2.323  1.00  0.00     0.350 S 
HETATM   16  O4  UNL     1       5.232  18.585   3.776  1.00  0.00    -0.180 OA
HETATM   17  O5  UNL     1       5.234  17.596   1.477  1.00  0.00    -0.180 OA
BRANCH  15  18
HETATM   18  N5  UNL     1       6.706  19.791   1.874  1.00  0.00    -0.097 N 
ATOM     19  H5  UNL     1       6.815  20.747   2.214  1.00  0.00     0.199 HD
BRANCH  18  20
HETATM   20  C2  UNL     1       7.694  19.231   1.052  1.00  0.00     0.711 A 
HETATM   21  N6  UNL     1       8.230  18.005   1.095  1.00  0.00    -0.127 N 
HETATM   22  N7  UNL     1       9.128  17.899   0.106  1.00  0.00    -0.237 N 
ATOM     23  H6  UNL     1       7.995  17.275   1.766  1.00  0.00     0.205 HD
HETATM   24  C3  UNL     1       9.170  19.053  -0.565  1.00  0.00     0.353 A 
ATOM     25  H7  UNL     1       9.689  17.072  -0.100  1.00  0.00     0.192 HD
HETATM   26  O6  UNL     1       9.919  19.318  -1.580  1.00  0.00    -0.245 OA
HETATM   27  N8  UNL     1       8.291  19.881   0.011  1.00  0.00    -0.138 N 
ATOM     28  H8  UNL     1       8.099  20.840  -0.280  1.00  0.00     0.189 HD
ENDBRANCH  18  20
ENDBRANCH  15  18
ENDBRANCH   1  15
TORSDOF 6
ENDMDL
MODEL 5
REMARK VINA RESULT: -6.936426807      1.150      1.632
REMARK  6 active torsions:
REMARK  status: ('A' for Active; 'I' for Inactive)
REMARK    1  A    between atoms: N1_1  and  S1_4 
REMARK    2  A    between atoms: S1_4  and  N2_7 
REMARK       I    between atoms: N2_7  and  C1_9 
REMARK       I    between atoms: C1_9  and  N3_11 
REMARK    3  A    between atoms: N3_11  and  N4_13 
REMARK    4  A    between atoms: N4_13  and  S2_15 
REMARK    5  A    between atoms: S2_15  and  N5_18 
REMARK    6  A    between atoms: N5_18  and  C2_20 
ROOT
HETATM    1  N4  UNL     1       3.920  23.400   2.324  1.00  0.00    -0.205 N 
ATOM      2  H4  UNL     1       3.041  22.916   2.141  1.00  0.00     0.202 HD
ENDROOT
BRANCH   1   3
HETATM    3  N3  UNL     1       5.130  22.922   1.863  1.00  0.00    -0.240 N 
HETATM    4  C1  UNL     1       5.350  21.527   1.829  1.00  0.00     0.350 C 
HETATM    5  N2  UNL     1       6.557  20.942   1.377  1.00  0.00    -0.218 N 
HETATM    6  O3  UNL     1       4.409  20.772   2.227  1.00  0.00    -0.244 OA
ATOM      7  H2  UNL     1       7.314  21.543   1.054  1.00  0.00     0.185 HD
ATOM      8  H3  UNL     1       5.855  23.568   1.550  1.00  0.00     0.192 HD
BRANCH   5   9
HETATM    9  S1  UNL     1       6.767  19.247   1.364  1.00  0.00     0.320 S 
HETATM   10  O1  UNL     1       8.217  18.895   1.048  1.00  0.00    -0.183 OA
HETATM   11  O2  UNL     1       5.914  18.560   0.367  1.00  0.00    -0.183 OA
BRANCH   9  12
HETATM   12  N1  UNL     1       6.424  18.593   2.932  1.00  0.00    -0.311 N 
ATOM     13  H12 UNL     1       7.060  18.031   3.497  1.00  0.00     0.170 HD
ATOM     14  H11 UNL     1       5.474  18.880   3.169  1.00  0.00     0.170 HD
ENDBRANCH   9  12
ENDBRANCH   5   9
ENDBRANCH   1   3
BRANCH   1  15
HETATM   15  S2  UNL     1       3.989  24.857   3.226  1.00  0.00     0.350 S 
HETATM   16  O4  UNL     1       5.394  25.198   3.553  1.00  0.00    -0.180 OA
HETATM   17  O5  UNL     1       3.319  25.931   2.361  1.00  0.00    -0.180 OA
BRANCH  15  18
HETATM   18  N5  UNL     1       3.014  24.585   4.650  1.00  0.00    -0.097 N 
ATOM     19  H5  UNL     1       2.131  25.083   4.757  1.00  0.00     0.199 HD
BRANCH  18  20
HETATM   20  C2  UNL     1       3.431  23.691   5.647  1.00  0.00     0.711 A 
HETATM   21  N6  UNL     1       2.707  23.098   6.603  1.00  0.00    -0.127 N 
HETATM   22  N7  UNL     1       3.517  22.310   7.323  1.00  0.00    -0.237 N 
ATOM     23  H6  UNL     1       1.707  23.225   6.758  1.00  0.00     0.205 HD
HETATM   24  C3  UNL     1       4.756  22.400   6.831  1.00  0.00     0.353 A 
ATOM     25  H7  UNL     1       3.234  21.734   8.116  1.00  0.00     0.192 HD
HETATM   26  O6  UNL     1       5.797  21.781   7.271  1.00  0.00    -0.245 OA
HETATM   27  N8  UNL     1       4.714  23.250   5.799  1.00  0.00    -0.138 N 
ATOM     28  H8  UNL     1       5.510  23.524   5.221  1.00  0.00     0.189 HD
ENDBRANCH  18  20
ENDBRANCH  15  18
ENDBRANCH   1  15
TORSDOF 6
ENDMDL
