MODEL 1
REMARK VINA RESULT: -5.277483604      0.000      0.000
REMARK  2 active torsions:
REMARK  status: ('A' for Active; 'I' for Inactive)
REMARK    1  A    between atoms: C1_2  and  C2_3 
REMARK    2  A    between atoms: C2_3  and  C3_4 
ROOT
HETATM    1  C3  UNL     1      42.410  79.491  38.289  1.00  0.00     0.122 C 
HETATM    2  C4  UNL     1      43.271  80.260  37.328  1.00  0.00     0.032 C 
HETATM    3  C5  UNL     1      43.973  79.434  36.322  1.00  0.00     0.004 C 
HETATM    4  C6  UNL     1      43.963  77.969  36.544  1.00  0.00     0.026 C 
HETATM    5  C7  UNL     1      43.338  77.499  37.798  1.00  0.00     0.168 C 
HETATM    6  O1  UNL     1      43.191  78.445  38.785  1.00  0.00    -0.386 OA
ENDROOT
BRANCH   1   7
HETATM    7  C2  UNL     1      42.025  80.357  39.441  1.00  0.00     0.043 C 
BRANCH   7   8
HETATM    8  C1  UNL     1      41.908  79.600  40.744  1.00  0.00     0.088 C 
HETATM    9  S1  UNL     1      43.020  80.351  41.967  1.00  0.00    -0.098 SA
ENDBRANCH   7   8
ENDBRANCH   1   7
TORSDOF 2
ENDMDL
MODEL 2
REMARK VINA RESULT: -5.249282580      1.046      1.693
REMARK  2 active torsions:
REMARK  status: ('A' for Active; 'I' for Inactive)
REMARK    1  A    between atoms: C1_2  and  C2_3 
REMARK    2  A    between atoms: C2_3  and  C3_4 
ROOT
HETATM    1  C3  UNL     1      43.309  79.839  38.290  1.00  0.00     0.122 C 
HETATM    2  C4  UNL     1      42.993  78.374  38.376  1.00  0.00     0.032 C 
HETATM    3  C5  UNL     1      43.593  77.542  37.311  1.00  0.00     0.004 C 
HETATM    4  C6  UNL     1      44.191  78.266  36.164  1.00  0.00     0.026 C 
HETATM    5  C7  UNL     1      44.034  79.735  36.161  1.00  0.00     0.168 C 
HETATM    6  O1  UNL     1      43.046  80.233  36.976  1.00  0.00    -0.386 OA
ENDROOT
BRANCH   1   7
HETATM    7  C2  UNL     1      42.405  80.615  39.187  1.00  0.00     0.043 C 
BRANCH   7   8
HETATM    8  C1  UNL     1      41.928  79.823  40.383  1.00  0.00     0.088 C 
HETATM    9  S1  UNL     1      42.902  80.303  41.837  1.00  0.00    -0.098 SA
ENDBRANCH   7   8
ENDBRANCH   1   7
TORSDOF 2
ENDMDL
MODEL 3
REMARK VINA RESULT: -4.989557287      3.044      4.281
REMARK  2 active torsions:
REMARK  status: ('A' for Active; 'I' for Inactive)
REMARK    1  A    between atoms: C1_2  and  C2_3 
REMARK    2  A    between atoms: C2_3  and  C3_4 
ROOT
HETATM    1  C3  UNL     1      43.667  79.003  37.662  1.00  0.00     0.122 C 
HETATM    2  C4  UNL     1      43.119  80.350  37.285  1.00  0.00     0.032 C 
HETATM    3  C5  UNL     1      42.580  81.140  38.413  1.00  0.00     0.004 C 
HETATM    4  C6  UNL     1      42.399  80.424  39.698  1.00  0.00     0.026 C 
HETATM    5  C7  UNL     1      42.683  78.974  39.686  1.00  0.00     0.168 C 
HETATM    6  O1  UNL     1      42.698  78.377  38.449  1.00  0.00    -0.386 OA
ENDROOT
BRANCH   1   7
HETATM    7  C2  UNL     1      43.870  78.171  36.441  1.00  0.00     0.043 C 
BRANCH   7   8
HETATM    8  C1  UNL     1      44.458  78.943  35.282  1.00  0.00     0.088 C 
HETATM    9  S1  UNL     1      44.751  77.804  33.899  1.00  0.00    -0.098 SA
ENDBRANCH   7   8
ENDBRANCH   1   7
TORSDOF 2
ENDMDL
MODEL 4
REMARK VINA RESULT: -4.972685166      1.048      1.834
REMARK  2 active torsions:
REMARK  status: ('A' for Active; 'I' for Inactive)
REMARK    1  A    between atoms: C1_2  and  C2_3 
REMARK    2  A    between atoms: C2_3  and  C3_4 
ROOT
HETATM    1  C3  UNL     1      43.544  78.945  38.371  1.00  0.00     0.122 C 
HETATM    2  C4  UNL     1      43.454  77.702  37.533  1.00  0.00     0.032 C 
HETATM    3  C5  UNL     1      44.024  77.823  36.174  1.00  0.00     0.004 C 
HETATM    4  C6  UNL     1      44.359  79.192  35.716  1.00  0.00     0.026 C 
HETATM    5  C7  UNL     1      43.994  80.296  36.627  1.00  0.00     0.168 C 
HETATM    6  O1  UNL     1      43.059  79.996  37.588  1.00  0.00    -0.386 OA
ENDROOT
BRANCH   1   7
HETATM    7  C2  UNL     1      42.661  78.825  39.567  1.00  0.00     0.043 C 
BRANCH   7   8
HETATM    8  C1  UNL     1      42.227  80.160  40.127  1.00  0.00     0.088 C 
HETATM    9  S1  UNL     1      42.860  80.327  41.820  1.00  0.00    -0.098 SA
ENDBRANCH   7   8
ENDBRANCH   1   7
TORSDOF 2
ENDMDL
MODEL 5
REMARK VINA RESULT: -4.942509029      3.129      4.557
REMARK  2 active torsions:
REMARK  status: ('A' for Active; 'I' for Inactive)
REMARK    1  A    between atoms: C1_2  and  C2_3 
REMARK    2  A    between atoms: C2_3  and  C3_4 
ROOT
HETATM    1  C3  UNL     1      43.041  78.892  37.348  1.00  0.00     0.122 C 
HETATM    2  C4  UNL     1      43.090  78.271  38.715  1.00  0.00     0.032 C 
HETATM    3  C5  UNL     1      42.613  79.140  39.812  1.00  0.00     0.004 C 
HETATM    4  C6  UNL     1      42.408  80.571  39.483  1.00  0.00     0.026 C 
HETATM    5  C7  UNL     1      42.797  80.993  38.121  1.00  0.00     0.168 C 
HETATM    6  O1  UNL     1      43.647  80.146  37.451  1.00  0.00    -0.386 OA
ENDROOT
BRANCH   1   7
HETATM    7  C2  UNL     1      43.837  78.079  36.384  1.00  0.00     0.043 C 
BRANCH   7   8
HETATM    8  C1  UNL     1      44.471  78.905  35.287  1.00  0.00     0.088 C 
HETATM    9  S1  UNL     1      44.762  77.845  33.843  1.00  0.00    -0.098 SA
ENDBRANCH   7   8
ENDBRANCH   1   7
TORSDOF 2
ENDMDL
