MODEL 1
REMARK VINA RESULT: -6.494874433      0.000      0.000
REMARK  5 active torsions:
REMARK  status: ('A' for Active; 'I' for Inactive)
REMARK    1  A    between atoms: C2_2  and  O1_3 
REMARK    2  A    between atoms: O1_3  and  C3_4 
REMARK    3  A    between atoms: C5_6  and  C7_8 
REMARK       I    between atoms: N1_9  and  C8_11 
REMARK    4  A    between atoms: C8_11  and  C9_13 
REMARK    5  A    between atoms: C9_13  and  C10_14 
ROOT
HETATM    1  C7  UNL     1      23.361  15.132  12.223  1.00  0.00     0.073 C 
HETATM    2  N1  UNL     1      22.742  14.845  13.305  1.00  0.00    -0.340 N 
ATOM      3  H1  UNL     1      22.949  13.953  13.754  1.00  0.00     0.167 HD
HETATM    4  C8  UNL     1      21.782  15.695  13.919  1.00  0.00     0.225 C 
HETATM    5  O2  UNL     1      22.129  16.764  14.464  1.00  0.00    -0.273 OA
ENDROOT
BRANCH   1   6
HETATM    6  C5  UNL     1      24.341  14.220  11.631  1.00  0.00    -0.007 C 
HETATM    7  C4  UNL     1      25.107  14.738  10.454  1.00  0.00     0.047 C 
HETATM    8  C3  UNL     1      26.396  14.267  11.113  1.00  0.00     0.129 C 
HETATM    9  C11 UNL     1      25.639  14.139  12.409  1.00  0.00     0.047 C 
HETATM   10  C6  UNL     1      23.729  12.881  11.305  1.00  0.00     0.021 C 
BRANCH   8  11
HETATM   11  O1  UNL     1      27.424  15.210  11.099  1.00  0.00    -0.358 OA
BRANCH  11  12
HETATM   12  C2  UNL     1      28.661  14.928  10.569  1.00  0.00     0.125 C 
HETATM   13  C1  UNL     1      28.847  13.807   9.907  1.00  0.00     0.037 C 
ENDBRANCH  11  12
ENDBRANCH   8  11
ENDBRANCH   1   6
BRANCH   4  14
HETATM   14  C9  UNL     1      20.376  15.292  13.902  1.00  0.00     0.162 C 
BRANCH  14  15
HETATM   15  C10 UNL     1      19.442  16.418  13.525  1.00  0.00     0.196 C 
HETATM   16 CL1  UNL     1      19.986  17.317  12.115  1.00  0.00    -0.083 Cl
HETATM   17 CL2  UNL     1      19.146  17.502  14.905  1.00  0.00    -0.083 Cl
HETATM   18 CL3  UNL     1      17.866  15.649  13.116  1.00  0.00    -0.083 Cl
ENDBRANCH  14  15
ENDBRANCH   4  14
TORSDOF 5
ENDMDL
MODEL 2
REMARK VINA RESULT: -6.372137603      0.104      1.223
REMARK  5 active torsions:
REMARK  status: ('A' for Active; 'I' for Inactive)
REMARK    1  A    between atoms: C2_2  and  O1_3 
REMARK    2  A    between atoms: O1_3  and  C3_4 
REMARK    3  A    between atoms: C5_6  and  C7_8 
REMARK       I    between atoms: N1_9  and  C8_11 
REMARK    4  A    between atoms: C8_11  and  C9_13 
REMARK    5  A    between atoms: C9_13  and  C10_14 
ROOT
HETATM    1  C7  UNL     1      23.283  15.116  12.245  1.00  0.00     0.073 C 
HETATM    2  N1  UNL     1      22.698  14.852  13.353  1.00  0.00    -0.340 N 
ATOM      3  H1  UNL     1      22.946  13.987  13.833  1.00  0.00     0.167 HD
HETATM    4  C8  UNL     1      21.723  15.695  13.954  1.00  0.00     0.225 C 
HETATM    5  O2  UNL     1      22.045  16.797  14.447  1.00  0.00    -0.273 OA
ENDROOT
BRANCH   1   6
HETATM    6  C5  UNL     1      24.281  14.214  11.668  1.00  0.00    -0.007 C 
HETATM    7  C4  UNL     1      25.070  14.745  10.513  1.00  0.00     0.047 C 
HETATM    8  C3  UNL     1      26.347  14.275  11.197  1.00  0.00     0.129 C 
HETATM    9  C11 UNL     1      25.562  14.134  12.474  1.00  0.00     0.047 C 
HETATM   10  C6  UNL     1      23.683  12.873  11.319  1.00  0.00     0.021 C 
BRANCH   8  11
HETATM   11  O1  UNL     1      27.369  15.223  11.212  1.00  0.00    -0.358 OA
BRANCH  11  12
HETATM   12  C2  UNL     1      28.625  14.946  10.726  1.00  0.00     0.125 C 
HETATM   13  C1  UNL     1      28.816  13.876   9.985  1.00  0.00     0.037 C 
ENDBRANCH  11  12
ENDBRANCH   8  11
ENDBRANCH   1   6
BRANCH   4  14
HETATM   14  C9  UNL     1      20.332  15.245  13.986  1.00  0.00     0.162 C 
BRANCH  14  15
HETATM   15  C10 UNL     1      19.361  16.285  13.479  1.00  0.00     0.196 C 
HETATM   16 CL1  UNL     1      17.783  15.616  13.086  1.00  0.00    -0.083 Cl
HETATM   17 CL2  UNL     1      20.039  17.186  12.102  1.00  0.00    -0.083 Cl
HETATM   18 CL3  UNL     1      19.142  17.466  14.820  1.00  0.00    -0.083 Cl
ENDBRANCH  14  15
ENDBRANCH   4  14
TORSDOF 5
ENDMDL
MODEL 3
REMARK VINA RESULT: -6.359599395      0.092      1.206
REMARK  5 active torsions:
REMARK  status: ('A' for Active; 'I' for Inactive)
REMARK    1  A    between atoms: C2_2  and  O1_3 
REMARK    2  A    between atoms: O1_3  and  C3_4 
REMARK    3  A    between atoms: C5_6  and  C7_8 
REMARK       I    between atoms: N1_9  and  C8_11 
REMARK    4  A    between atoms: C8_11  and  C9_13 
REMARK    5  A    between atoms: C9_13  and  C10_14 
ROOT
HETATM    1  C7  UNL     1      23.300  15.118  12.232  1.00  0.00     0.073 C 
HETATM    2  N1  UNL     1      22.709  14.848  13.335  1.00  0.00    -0.340 N 
ATOM      3  H1  UNL     1      22.954  13.980  13.811  1.00  0.00     0.167 HD
HETATM    4  C8  UNL     1      21.732  15.687  13.936  1.00  0.00     0.225 C 
HETATM    5  O2  UNL     1      22.051  16.786  14.438  1.00  0.00    -0.273 OA
ENDROOT
BRANCH   1   6
HETATM    6  C5  UNL     1      24.301  14.219  11.655  1.00  0.00    -0.007 C 
HETATM    7  C4  UNL     1      25.087  14.753  10.499  1.00  0.00     0.047 C 
HETATM    8  C3  UNL     1      26.366  14.288  11.182  1.00  0.00     0.129 C 
HETATM    9  C11 UNL     1      25.582  14.144  12.460  1.00  0.00     0.047 C 
HETATM   10  C6  UNL     1      23.707  12.877  11.306  1.00  0.00     0.021 C 
BRANCH   8  11
HETATM   11  O1  UNL     1      27.386  15.240  11.197  1.00  0.00    -0.358 OA
BRANCH  11  12
HETATM   12  C2  UNL     1      28.634  14.976  10.684  1.00  0.00     0.125 C 
HETATM   13  C1  UNL     1      28.841  13.864  10.013  1.00  0.00     0.037 C 
ENDBRANCH  11  12
ENDBRANCH   8  11
ENDBRANCH   1   6
BRANCH   4  14
HETATM   14  C9  UNL     1      20.340  15.237  13.958  1.00  0.00     0.162 C 
BRANCH  14  15
HETATM   15  C10 UNL     1      19.359  16.327  13.595  1.00  0.00     0.196 C 
HETATM   16 CL1  UNL     1      19.175  17.533  14.862  1.00  0.00    -0.083 Cl
HETATM   17 CL2  UNL     1      17.784  15.647  13.120  1.00  0.00    -0.083 Cl
HETATM   18 CL3  UNL     1      20.034  17.150  12.143  1.00  0.00    -0.083 Cl
ENDBRANCH  14  15
ENDBRANCH   4  14
TORSDOF 5
ENDMDL
MODEL 4
REMARK VINA RESULT: -6.314927399      4.315      7.491
REMARK  5 active torsions:
REMARK  status: ('A' for Active; 'I' for Inactive)
REMARK    1  A    between atoms: C2_2  and  O1_3 
REMARK    2  A    between atoms: O1_3  and  C3_4 
REMARK    3  A    between atoms: C5_6  and  C7_8 
REMARK       I    between atoms: N1_9  and  C8_11 
REMARK    4  A    between atoms: C8_11  and  C9_13 
REMARK    5  A    between atoms: C9_13  and  C10_14 
ROOT
HETATM    1  C7  UNL     1      24.342  15.831  12.310  1.00  0.00     0.073 C 
HETATM    2  N1  UNL     1      25.143  15.171  11.561  1.00  0.00    -0.340 N 
ATOM      3  H1  UNL     1      24.938  14.186  11.390  1.00  0.00     0.167 HD
HETATM    4  C8  UNL     1      26.302  15.728  10.954  1.00  0.00     0.225 C 
HETATM    5  O2  UNL     1      26.203  16.557  10.026  1.00  0.00    -0.273 OA
ENDROOT
BRANCH   1   6
HETATM    6  C5  UNL     1      23.162  15.209  12.912  1.00  0.00    -0.007 C 
HETATM    7  C4  UNL     1      22.647  15.837  14.169  1.00  0.00     0.047 C 
HETATM    8  C3  UNL     1      21.245  15.827  13.575  1.00  0.00     0.129 C 
HETATM    9  C11 UNL     1      21.864  15.584  12.224  1.00  0.00     0.047 C 
HETATM   10  C6  UNL     1      23.354  13.726  13.109  1.00  0.00     0.021 C 
BRANCH   8  11
HETATM   11  O1  UNL     1      20.554  17.030  13.720  1.00  0.00    -0.358 OA
BRANCH  11  12
HETATM   12  C2  UNL     1      19.392  17.116  14.451  1.00  0.00     0.125 C 
HETATM   13  C1  UNL     1      19.397  17.728  15.615  1.00  0.00     0.037 C 
ENDBRANCH  11  12
ENDBRANCH   8  11
ENDBRANCH   1   6
BRANCH   4  14
HETATM   14  C9  UNL     1      27.617  15.308  11.438  1.00  0.00     0.162 C 
BRANCH  14  15
HETATM   15  C10 UNL     1      28.220  14.191  10.620  1.00  0.00     0.196 C 
HETATM   16 CL1  UNL     1      27.011  13.191   9.827  1.00  0.00    -0.083 Cl
HETATM   17 CL2  UNL     1      29.333  13.203  11.598  1.00  0.00    -0.083 Cl
HETATM   18 CL3  UNL     1      29.209  14.981   9.340  1.00  0.00    -0.083 Cl
ENDBRANCH  14  15
ENDBRANCH   4  14
TORSDOF 5
ENDMDL
MODEL 5
REMARK VINA RESULT: -6.251066027      5.042      7.826
REMARK  5 active torsions:
REMARK  status: ('A' for Active; 'I' for Inactive)
REMARK    1  A    between atoms: C2_2  and  O1_3 
REMARK    2  A    between atoms: O1_3  and  C3_4 
REMARK    3  A    between atoms: C5_6  and  C7_8 
REMARK       I    between atoms: N1_9  and  C8_11 
REMARK    4  A    between atoms: C8_11  and  C9_13 
REMARK    5  A    between atoms: C9_13  and  C10_14 
ROOT
HETATM    1  C7  UNL     1      26.128  14.834  11.899  1.00  0.00     0.073 C 
HETATM    2  N1  UNL     1      26.675  14.177  10.947  1.00  0.00    -0.340 N 
ATOM      3  H1  UNL     1      26.172  13.376  10.566  1.00  0.00     0.167 HD
HETATM    4  C8  UNL     1      27.943  14.498  10.390  1.00  0.00     0.225 C 
HETATM    5  O2  UNL     1      28.097  15.526   9.697  1.00  0.00    -0.273 OA
ENDROOT
BRANCH   1   6
HETATM    6  C5  UNL     1      24.819  14.462  12.438  1.00  0.00    -0.007 C 
HETATM    7  C4  UNL     1      24.112  15.503  13.248  1.00  0.00     0.047 C 
HETATM    8  C3  UNL     1      22.851  15.252  12.432  1.00  0.00     0.129 C 
HETATM    9  C11 UNL     1      23.701  14.534  11.417  1.00  0.00     0.047 C 
HETATM   10  C6  UNL     1      24.880  13.162  13.201  1.00  0.00     0.021 C 
BRANCH   8  11
HETATM   11  O1  UNL     1      22.218  16.411  11.985  1.00  0.00    -0.358 OA
BRANCH  11  12
HETATM   12  C2  UNL     1      20.906  16.687  12.291  1.00  0.00     0.125 C 
HETATM   13  C1  UNL     1      20.369  17.821  11.895  1.00  0.00     0.037 C 
ENDBRANCH  11  12
ENDBRANCH   8  11
ENDBRANCH   1   6
BRANCH   4  14
HETATM   14  C9  UNL     1      29.067  13.597  10.642  1.00  0.00     0.162 C 
BRANCH  14  15
HETATM   15  C10 UNL     1      29.329  12.642   9.500  1.00  0.00     0.196 C 
HETATM   16 CL1  UNL     1      30.442  13.293   8.304  1.00  0.00    -0.083 Cl
HETATM   17 CL2  UNL     1      27.809  12.109   8.743  1.00  0.00    -0.083 Cl
HETATM   18 CL3  UNL     1      30.091  11.183  10.228  1.00  0.00    -0.083 Cl
ENDBRANCH  14  15
ENDBRANCH   4  14
TORSDOF 5
ENDMDL
