MODEL 1
REMARK VINA RESULT: -5.712264026      0.000      0.000
REMARK  3 active torsions:
REMARK  status: ('A' for Active; 'I' for Inactive)
REMARK    1  A    between atoms: O1_2  and  C2_3 
REMARK    2  A    between atoms: C4_5  and  N1_6 
REMARK    3  A    between atoms: C5_8  and  N2_9 
ROOT
HETATM    1  C2  UNL     1      25.443  14.523  12.500  1.00  0.00     0.087 A 
HETATM    2  C3  UNL     1      24.320  14.845  13.232  1.00  0.00     0.070 A 
HETATM    3  C4  UNL     1      23.043  14.778  12.707  1.00  0.00     0.074 A 
HETATM    4  C8  UNL     1      22.875  14.373  11.400  1.00  0.00     0.144 A 
HETATM    5  F1  UNL     1      21.639  14.302  10.872  1.00  0.00    -0.204 F 
HETATM    6  C9  UNL     1      24.016  14.049  10.667  1.00  0.00     0.066 A 
HETATM    7  C10 UNL     1      25.283  14.124  11.212  1.00  0.00     0.047 A 
HETATM    8 BR1  UNL     1      26.828  13.666  10.160  1.00  0.00    -0.048 Br
ENDROOT
BRANCH   3   9
HETATM    9  N1  UNL     1      21.940  15.121  13.505  1.00  0.00    -0.350 N 
HETATM   10  C5  UNL     1      21.162  16.127  13.303  1.00  0.00     0.178 C 
ATOM     11  H1  UNL     1      21.739  14.525  14.308  1.00  0.00     0.166 HD
BRANCH  10  12
HETATM   12  N2  UNL     1      20.096  16.323  14.207  1.00  0.00    -0.386 N 
HETATM   13  C6  UNL     1      19.099  15.296  14.349  1.00  0.00     0.149 C 
HETATM   14  C7  UNL     1      20.021  17.534  14.967  1.00  0.00     0.149 C 
ENDBRANCH  10  12
ENDBRANCH   3   9
BRANCH   1  15
HETATM   15  O1  UNL     1      26.717  14.593  13.030  1.00  0.00    -0.355 OA
HETATM   16  C1  UNL     1      27.409  13.479  13.543  1.00  0.00     0.210 C 
ENDBRANCH   1  15
TORSDOF 3
ENDMDL
MODEL 2
REMARK VINA RESULT: -5.562731659      1.757      2.273
REMARK  3 active torsions:
REMARK  status: ('A' for Active; 'I' for Inactive)
REMARK    1  A    between atoms: O1_2  and  C2_3 
REMARK    2  A    between atoms: C4_5  and  N1_6 
REMARK    3  A    between atoms: C5_8  and  N2_9 
ROOT
HETATM    1  C2  UNL     1      25.359  15.835  11.933  1.00  0.00     0.087 A 
HETATM    2  C3  UNL     1      24.084  16.024  12.419  1.00  0.00     0.070 A 
HETATM    3  C4  UNL     1      23.315  14.990  12.920  1.00  0.00     0.074 A 
HETATM    4  C8  UNL     1      23.836  13.714  12.938  1.00  0.00     0.144 A 
HETATM    5  F1  UNL     1      23.102  12.695  13.422  1.00  0.00    -0.204 F 
HETATM    6  C9  UNL     1      25.128  13.531  12.445  1.00  0.00     0.066 A 
HETATM    7  C10 UNL     1      25.878  14.579  11.949  1.00  0.00     0.047 A 
HETATM    8 BR1  UNL     1      27.657  14.277  11.278  1.00  0.00    -0.048 Br
ENDROOT
BRANCH   3   9
HETATM    9  N1  UNL     1      22.021  15.249  13.399  1.00  0.00    -0.350 N 
HETATM   10  C5  UNL     1      21.296  16.260  13.070  1.00  0.00     0.178 C 
ATOM     11  H1  UNL     1      21.625  14.583  14.062  1.00  0.00     0.166 HD
BRANCH  10  12
HETATM   12  N2  UNL     1      20.013  16.364  13.649  1.00  0.00    -0.386 N 
HETATM   13  C6  UNL     1      19.843  17.164  14.833  1.00  0.00     0.149 C 
HETATM   14  C7  UNL     1      18.906  15.677  13.057  1.00  0.00     0.149 C 
ENDBRANCH  10  12
ENDBRANCH   3   9
BRANCH   1  15
HETATM   15  O1  UNL     1      26.124  16.872  11.433  1.00  0.00    -0.355 OA
HETATM   16  C1  UNL     1      25.791  18.231  11.591  1.00  0.00     0.210 C 
ENDBRANCH   1  15
TORSDOF 3
ENDMDL
MODEL 3
REMARK VINA RESULT: -5.337043511      2.085      2.787
REMARK  3 active torsions:
REMARK  status: ('A' for Active; 'I' for Inactive)
REMARK    1  A    between atoms: O1_2  and  C2_3 
REMARK    2  A    between atoms: C4_5  and  N1_6 
REMARK    3  A    between atoms: C5_8  and  N2_9 
ROOT
HETATM    1  C2  UNL     1      25.827  14.231  10.851  1.00  0.00     0.087 A 
HETATM    2  C3  UNL     1      24.507  14.625  10.811  1.00  0.00     0.070 A 
HETATM    3  C4  UNL     1      23.821  15.051  11.934  1.00  0.00     0.074 A 
HETATM    4  C8  UNL     1      24.476  15.085  13.147  1.00  0.00     0.144 A 
HETATM    5  F1  UNL     1      23.825  15.496  14.250  1.00  0.00    -0.204 F 
HETATM    6  C9  UNL     1      25.811  14.685  13.178  1.00  0.00     0.066 A 
HETATM    7  C10 UNL     1      26.476  14.263  12.043  1.00  0.00     0.047 A 
HETATM    8 BR1  UNL     1      28.321  13.720  12.136  1.00  0.00    -0.048 Br
ENDROOT
BRANCH   3   9
HETATM    9  N1  UNL     1      22.476  15.438  11.828  1.00  0.00    -0.350 N 
HETATM   10  C5  UNL     1      21.897  16.320  12.565  1.00  0.00     0.178 C 
ATOM     11  H1  UNL     1      21.913  14.985  11.108  1.00  0.00     0.166 HD
BRANCH  10  12
HETATM   12  N2  UNL     1      20.534  16.588  12.319  1.00  0.00    -0.386 N 
HETATM   13  C6  UNL     1      20.169  17.811  11.656  1.00  0.00     0.149 C 
HETATM   14  C7  UNL     1      19.537  15.646  12.729  1.00  0.00     0.149 C 
ENDBRANCH  10  12
ENDBRANCH   3   9
BRANCH   1  15
HETATM   15  O1  UNL     1      26.507  13.807   9.725  1.00  0.00    -0.355 OA
HETATM   16  C1  UNL     1      26.361  12.524   9.164  1.00  0.00     0.210 C 
ENDBRANCH   1  15
TORSDOF 3
ENDMDL
MODEL 4
REMARK VINA RESULT: -5.205646407      1.983      2.466
REMARK  3 active torsions:
REMARK  status: ('A' for Active; 'I' for Inactive)
REMARK    1  A    between atoms: O1_2  and  C2_3 
REMARK    2  A    between atoms: C4_5  and  N1_6 
REMARK    3  A    between atoms: C5_8  and  N2_9 
ROOT
HETATM    1  C2  UNL     1      26.206  15.314  11.675  1.00  0.00     0.087 A 
HETATM    2  C3  UNL     1      24.912  15.762  11.522  1.00  0.00     0.070 A 
HETATM    3  C4  UNL     1      23.833  15.150  12.134  1.00  0.00     0.074 A 
HETATM    4  C8  UNL     1      24.051  14.046  12.930  1.00  0.00     0.144 A 
HETATM    5  F1  UNL     1      23.013  13.437  13.533  1.00  0.00    -0.204 F 
HETATM    6  C9  UNL     1      25.363  13.600  13.079  1.00  0.00     0.066 A 
HETATM    7  C10 UNL     1      26.426  14.227  12.459  1.00  0.00     0.047 A 
HETATM    8 BR1  UNL     1      28.221  13.573  12.695  1.00  0.00    -0.048 Br
ENDROOT
BRANCH   3   9
HETATM    9  N1  UNL     1      22.538  15.655  11.937  1.00  0.00    -0.350 N 
HETATM   10  C5  UNL     1      21.785  16.146  12.858  1.00  0.00     0.178 C 
ATOM     11  H1  UNL     1      22.165  15.631  10.988  1.00  0.00     0.166 HD
BRANCH  10  12
HETATM   12  N2  UNL     1      20.507  16.611  12.481  1.00  0.00    -0.386 N 
HETATM   13  C6  UNL     1      20.395  17.860  11.777  1.00  0.00     0.149 C 
HETATM   14  C7  UNL     1      19.345  15.839  12.803  1.00  0.00     0.149 C 
ENDBRANCH  10  12
ENDBRANCH   3   9
BRANCH   1  15
HETATM   15  O1  UNL     1      27.281  15.930  11.062  1.00  0.00    -0.355 OA
HETATM   16  C1  UNL     1      28.081  15.307  10.086  1.00  0.00     0.210 C 
ENDBRANCH   1  15
TORSDOF 3
ENDMDL
MODEL 5
REMARK VINA RESULT: -5.014834402      1.425      1.649
REMARK  3 active torsions:
REMARK  status: ('A' for Active; 'I' for Inactive)
REMARK    1  A    between atoms: O1_2  and  C2_3 
REMARK    2  A    between atoms: C4_5  and  N1_6 
REMARK    3  A    between atoms: C5_8  and  N2_9 
ROOT
HETATM    1  C2  UNL     1      25.877  15.321  11.464  1.00  0.00     0.087 A 
HETATM    2  C3  UNL     1      24.708  15.632  12.125  1.00  0.00     0.070 A 
HETATM    3  C4  UNL     1      23.589  14.822  12.085  1.00  0.00     0.074 A 
HETATM    4  C8  UNL     1      23.633  13.653  11.355  1.00  0.00     0.144 A 
HETATM    5  F1  UNL     1      22.553  12.852  11.304  1.00  0.00    -0.204 F 
HETATM    6  C9  UNL     1      24.819  13.346  10.689  1.00  0.00     0.066 A 
HETATM    7  C10 UNL     1      25.925  14.170  10.744  1.00  0.00     0.047 A 
HETATM    8 BR1  UNL     1      27.540  13.703   9.808  1.00  0.00    -0.048 Br
ENDROOT
BRANCH   3   9
HETATM    9  N1  UNL     1      22.428  15.197  12.780  1.00  0.00    -0.350 N 
HETATM   10  C5  UNL     1      21.501  15.961  12.319  1.00  0.00     0.178 C 
ATOM     11  H1  UNL     1      22.311  14.834  13.726  1.00  0.00     0.166 HD
BRANCH  10  12
HETATM   12  N2  UNL     1      20.399  16.235  13.157  1.00  0.00    -0.386 N 
HETATM   13  C6  UNL     1      20.617  16.932  14.396  1.00  0.00     0.149 C 
HETATM   14  C7  UNL     1      19.086  15.818  12.767  1.00  0.00     0.149 C 
ENDBRANCH  10  12
ENDBRANCH   3   9
BRANCH   1  15
HETATM   15  O1  UNL     1      26.993  16.135  11.508  1.00  0.00    -0.355 OA
HETATM   16  C1  UNL     1      28.244  15.714  11.998  1.00  0.00     0.210 C 
ENDBRANCH   1  15
TORSDOF 3
ENDMDL
