MODEL 1
REMARK VINA RESULT: -4.559384933      0.000      0.000
REMARK  3 active torsions:
REMARK  status: ('A' for Active; 'I' for Inactive)
REMARK    1  A    between atoms: O1_2  and  C2_3 
REMARK    2  A    between atoms: C2_3  and  C3_5 
REMARK    3  A    between atoms: C6_8  and  C7_10 
ROOT
HETATM    1  C3  UNL     1      26.276  14.874  11.970  1.00  0.00     0.070 C 
HETATM    2  C4  UNL     1      26.442  14.237  13.316  1.00  0.00     0.031 C 
HETATM    3  C5  UNL     1      27.563  15.428  11.405  1.00  0.00     0.058 C 
HETATM    4  C6  UNL     1      28.127  14.226  10.698  1.00  0.00     0.098 C 
HETATM    5 CL1  UNL     1      29.115  13.212  11.758  1.00  0.00    -0.111 Cl
HETATM    6  C8  UNL     1      26.933  13.537  10.197  1.00  0.00     0.018 C 
HETATM    7 BR1  UNL     1      26.851  12.290   8.731  1.00  0.00    -0.053 Br
HETATM    8  C9  UNL     1      25.874  13.895  10.911  1.00  0.00    -0.050 C 
HETATM    9  C10 UNL     1      24.487  13.399  10.694  1.00  0.00     0.046 C 
ENDROOT
BRANCH   1  10
HETATM   10  C2  UNL     1      25.271  15.961  12.096  1.00  0.00     0.271 C 
HETATM   11  O2  UNL     1      25.387  16.964  11.347  1.00  0.00    -0.264 OA
BRANCH  10  12
HETATM   12  O1  UNL     1      24.235  15.919  12.983  1.00  0.00    -0.326 OA
HETATM   13  C1  UNL     1      22.870  15.847  12.636  1.00  0.00     0.213 C 
ENDBRANCH  10  12
ENDBRANCH   1  10
BRANCH   4  14
HETATM   14  C7  UNL     1      29.029  14.710   9.568  1.00  0.00     0.253 C 
HETATM   15  F1  UNL     1      29.916  13.677   9.321  1.00  0.00    -0.253 F 
ENDBRANCH   4  14
TORSDOF 3
ENDMDL
MODEL 2
REMARK VINA RESULT: -4.343975578      3.484      4.755
REMARK  3 active torsions:
REMARK  status: ('A' for Active; 'I' for Inactive)
REMARK    1  A    between atoms: O1_2  and  C2_3 
REMARK    2  A    between atoms: C2_3  and  C3_5 
REMARK    3  A    between atoms: C6_8  and  C7_10 
ROOT
HETATM    1  C3  UNL     1      27.774  14.387  10.899  1.00  0.00     0.070 C 
HETATM    2  C4  UNL     1      28.189  15.509   9.997  1.00  0.00     0.031 C 
HETATM    3  C5  UNL     1      27.373  14.844  12.282  1.00  0.00     0.058 C 
HETATM    4  C6  UNL     1      25.912  15.147  12.090  1.00  0.00     0.098 C 
HETATM    5 CL1  UNL     1      25.625  16.803  11.539  1.00  0.00    -0.111 Cl
HETATM    6  C8  UNL     1      25.483  14.138  11.117  1.00  0.00     0.018 C 
HETATM    7 BR1  UNL     1      23.685  13.506  10.828  1.00  0.00    -0.053 Br
HETATM    8  C9  UNL     1      26.530  13.697  10.433  1.00  0.00    -0.050 C 
HETATM    9  C10 UNL     1      26.480  12.668   9.358  1.00  0.00     0.046 C 
ENDROOT
BRANCH   1  10
HETATM   10  C2  UNL     1      28.906  13.430  10.993  1.00  0.00     0.271 C 
HETATM   11  O2  UNL     1      29.299  13.088  12.137  1.00  0.00    -0.264 OA
BRANCH  10  12
HETATM   12  O1  UNL     1      29.535  12.909   9.900  1.00  0.00    -0.326 OA
HETATM   13  C1  UNL     1      29.951  11.569   9.763  1.00  0.00     0.213 C 
ENDBRANCH  10  12
ENDBRANCH   1  10
BRANCH   4  14
HETATM   14  C7  UNL     1      25.206  14.990  13.432  1.00  0.00     0.253 C 
HETATM   15  F1  UNL     1      24.103  15.824  13.381  1.00  0.00    -0.253 F 
ENDBRANCH   4  14
TORSDOF 3
ENDMDL
MODEL 3
REMARK VINA RESULT: -3.961757850      9.424     10.391
REMARK  3 active torsions:
REMARK  status: ('A' for Active; 'I' for Inactive)
REMARK    1  A    between atoms: O1_2  and  C2_3 
REMARK    2  A    between atoms: C2_3  and  C3_5 
REMARK    3  A    between atoms: C6_8  and  C7_10 
ROOT
HETATM    1  C3  UNL     1      31.837  21.916   8.505  1.00  0.00     0.070 C 
HETATM    2  C4  UNL     1      31.706  20.579   7.842  1.00  0.00     0.031 C 
HETATM    3  C5  UNL     1      31.368  21.923   9.941  1.00  0.00     0.058 C 
HETATM    4  C6  UNL     1      32.617  21.508  10.670  1.00  0.00     0.098 C 
HETATM    5 CL1  UNL     1      32.776  19.752  10.808  1.00  0.00    -0.111 Cl
HETATM    6  C8  UNL     1      33.690  22.120   9.878  1.00  0.00     0.018 C 
HETATM    7 BR1  UNL     1      35.471  22.539  10.480  1.00  0.00    -0.053 Br
HETATM    8  C9  UNL     1      33.261  22.356   8.646  1.00  0.00    -0.050 C 
HETATM    9  C10 UNL     1      34.073  22.970   7.558  1.00  0.00     0.046 C 
ENDROOT
BRANCH   1  10
HETATM   10  C2  UNL     1      31.054  22.900   7.714  1.00  0.00     0.271 C 
HETATM   11  O2  UNL     1      30.775  24.003   8.249  1.00  0.00    -0.264 OA
BRANCH  10  12
HETATM   12  O1  UNL     1      30.626  22.662   6.440  1.00  0.00    -0.326 OA
HETATM   13  C1  UNL     1      29.653  23.418   5.754  1.00  0.00     0.213 C 
ENDBRANCH  10  12
ENDBRANCH   1  10
BRANCH   4  14
HETATM   14  C7  UNL     1      32.557  22.068  12.087  1.00  0.00     0.253 C 
HETATM   15  F1  UNL     1      31.793  21.174  12.816  1.00  0.00    -0.253 F 
ENDBRANCH   4  14
TORSDOF 3
ENDMDL
MODEL 4
REMARK VINA RESULT: -3.939093736      3.476      4.960
REMARK  3 active torsions:
REMARK  status: ('A' for Active; 'I' for Inactive)
REMARK    1  A    between atoms: O1_2  and  C2_3 
REMARK    2  A    between atoms: C2_3  and  C3_5 
REMARK    3  A    between atoms: C6_8  and  C7_10 
ROOT
HETATM    1  C3  UNL     1      28.691  13.813  10.161  1.00  0.00     0.070 C 
HETATM    2  C4  UNL     1      29.039  15.028   9.358  1.00  0.00     0.031 C 
HETATM    3  C5  UNL     1      28.637  14.071  11.649  1.00  0.00     0.058 C 
HETATM    4  C6  UNL     1      27.213  14.522  11.828  1.00  0.00     0.098 C 
HETATM    5 CL1  UNL     1      27.014  16.264  11.593  1.00  0.00    -0.111 Cl
HETATM    6  C8  UNL     1      26.480  13.724  10.841  1.00  0.00     0.018 C 
HETATM    7 BR1  UNL     1      24.600  13.299  10.870  1.00  0.00    -0.053 Br
HETATM    8  C9  UNL     1      27.306  13.315   9.888  1.00  0.00    -0.050 C 
HETATM    9  C10 UNL     1      26.918  12.482   8.716  1.00  0.00     0.046 C 
ENDROOT
BRANCH   1  10
HETATM   10  C2  UNL     1      29.700  12.763   9.868  1.00  0.00     0.271 C 
HETATM   11  O2  UNL     1      29.538  11.627  10.380  1.00  0.00    -0.264 OA
BRANCH  10  12
HETATM   12  O1  UNL     1      30.787  12.975   9.072  1.00  0.00    -0.326 OA
HETATM   13  C1  UNL     1      30.913  12.548   7.734  1.00  0.00     0.213 C 
ENDBRANCH  10  12
ENDBRANCH   1  10
BRANCH   4  14
HETATM   14  C7  UNL     1      26.784  14.208  13.257  1.00  0.00     0.253 C 
HETATM   15  F1  UNL     1      27.649  13.226  13.707  1.00  0.00    -0.253 F 
ENDBRANCH   4  14
TORSDOF 3
ENDMDL
MODEL 5
REMARK VINA RESULT: -3.797422728      9.546     11.105
REMARK  3 active torsions:
REMARK  status: ('A' for Active; 'I' for Inactive)
REMARK    1  A    between atoms: O1_2  and  C2_3 
REMARK    2  A    between atoms: C2_3  and  C3_5 
REMARK    3  A    between atoms: C6_8  and  C7_10 
ROOT
HETATM    1  C3  UNL     1      33.155  22.520   8.227  1.00  0.00     0.070 C 
HETATM    2  C4  UNL     1      34.405  22.562   7.403  1.00  0.00     0.031 C 
HETATM    3  C5  UNL     1      32.839  21.145   8.770  1.00  0.00     0.058 C 
HETATM    4  C6  UNL     1      33.614  21.143  10.059  1.00  0.00     0.098 C 
HETATM    5 CL1  UNL     1      35.284  20.597   9.851  1.00  0.00    -0.111 Cl
HETATM    6  C8  UNL     1      33.520  22.534  10.513  1.00  0.00     0.018 C 
HETATM    7 BR1  UNL     1      33.732  23.175  12.318  1.00  0.00    -0.053 Br
HETATM    8  C9  UNL     1      33.259  23.328   9.483  1.00  0.00    -0.050 C 
HETATM    9  C10 UNL     1      33.095  24.806   9.559  1.00  0.00     0.046 C 
ENDROOT
BRANCH   1  10
HETATM   10  C2  UNL     1      32.030  22.998   7.382  1.00  0.00     0.271 C 
HETATM   11  O2  UNL     1      30.877  22.561   7.627  1.00  0.00    -0.264 OA
BRANCH  10  12
HETATM   12  O1  UNL     1      32.192  23.884   6.357  1.00  0.00    -0.326 OA
HETATM   13  C1  UNL     1      31.276  24.897   6.005  1.00  0.00     0.213 C 
ENDBRANCH  10  12
ENDBRANCH   1  10
BRANCH   4  14
HETATM   14  C7  UNL     1      32.941  20.175  11.026  1.00  0.00     0.253 C 
HETATM   15  F1  UNL     1      31.789  20.809  11.458  1.00  0.00    -0.253 F 
ENDBRANCH   4  14
TORSDOF 3
ENDMDL
