MODEL 1
REMARK VINA RESULT: -4.119166233      0.000      0.000
REMARK  4 active torsions:
REMARK  status: ('A' for Active; 'I' for Inactive)
REMARK    1  A    between atoms: C2_2  and  C3_3 
REMARK    2  A    between atoms: C3_3  and  N1_4 
REMARK    3  A    between atoms: C4_6  and  C5_7 
REMARK    4  A    between atoms: C7_9  and  C8_10 
ROOT
HETATM    1  C5  UNL     1      29.987  23.363   8.959  1.00  0.00     0.052 A 
HETATM    2  C6  UNL     1      28.828  23.510   9.729  1.00  0.00     0.060 A 
HETATM    3  C7  UNL     1      27.615  23.796   9.164  1.00  0.00     0.067 A 
HETATM    4  N2  UNL     1      27.582  23.931   7.808  1.00  0.00    -0.346 N 
ATOM      5  H2  UNL     1      26.696  24.144   7.351  1.00  0.00     0.167 HD
HETATM    6  C9  UNL     1      28.684  23.790   7.060  1.00  0.00     0.079 A 
HETATM    7  C10 UNL     1      28.651  23.913   5.569  1.00  0.00     0.089 C 
HETATM    8  N3  UNL     1      29.895  23.505   7.631  1.00  0.00    -0.340 N 
HETATM    9  C11 UNL     1      31.050  23.360   6.803  1.00  0.00     0.158 C 
ENDROOT
BRANCH   1  10
HETATM   10  C4  UNL     1      31.258  23.060   9.593  1.00  0.00     0.113 C 
HETATM   11  N1  UNL     1      31.241  22.438  10.764  1.00  0.00    -0.397 N 
ATOM     12  H1  UNL     1      30.353  22.183  11.197  1.00  0.00     0.158 HD
BRANCH  11  13
HETATM   13  C3  UNL     1      32.504  22.121  11.429  1.00  0.00     0.118 C 
BRANCH  13  14
HETATM   14  C2  UNL     1      33.204  20.941  10.787  1.00  0.00     0.015 C 
HETATM   15  C1  UNL     1      32.508  19.642  11.156  1.00  0.00     0.006 C 
ENDBRANCH  13  14
ENDBRANCH  11  13
ENDBRANCH   1  10
BRANCH   3  16
HETATM   16  C8  UNL     1      26.376  23.953   9.963  1.00  0.00     0.231 C 
HETATM   17 CL1  UNL     1      25.174  24.905   9.026  1.00  0.00    -0.077 Cl
HETATM   18 CL2  UNL     1      26.578  24.691  11.532  1.00  0.00    -0.077 Cl
HETATM   19 CL3  UNL     1      25.736  22.274  10.177  1.00  0.00    -0.077 Cl
ENDBRANCH   3  16
TORSDOF 4
ENDMDL
MODEL 2
REMARK VINA RESULT: -4.030394613      0.193      1.228
REMARK  4 active torsions:
REMARK  status: ('A' for Active; 'I' for Inactive)
REMARK    1  A    between atoms: C2_2  and  C3_3 
REMARK    2  A    between atoms: C3_3  and  N1_4 
REMARK    3  A    between atoms: C4_6  and  C5_7 
REMARK    4  A    between atoms: C7_9  and  C8_10 
ROOT
HETATM    1  C5  UNL     1      30.140  23.313   8.947  1.00  0.00     0.052 A 
HETATM    2  C6  UNL     1      28.972  23.454   9.704  1.00  0.00     0.060 A 
HETATM    3  C7  UNL     1      27.773  23.779   9.132  1.00  0.00     0.067 A 
HETATM    4  N2  UNL     1      27.762  23.960   7.781  1.00  0.00    -0.346 N 
ATOM      5  H2  UNL     1      26.887  24.203   7.319  1.00  0.00     0.167 HD
HETATM    6  C9  UNL     1      28.873  23.827   7.045  1.00  0.00     0.079 A 
HETATM    7  C10 UNL     1      28.865  24.000   5.559  1.00  0.00     0.089 C 
HETATM    8  N3  UNL     1      30.070  23.502   7.624  1.00  0.00    -0.340 N 
HETATM    9  C11 UNL     1      31.235  23.366   6.808  1.00  0.00     0.158 C 
ENDROOT
BRANCH   1  10
HETATM   10  C4  UNL     1      31.397  22.968   9.589  1.00  0.00     0.113 C 
HETATM   11  N1  UNL     1      31.355  22.459  10.813  1.00  0.00    -0.397 N 
ATOM     12  H1  UNL     1      30.459  22.317  11.280  1.00  0.00     0.158 HD
BRANCH  11  13
HETATM   13  C3  UNL     1      32.602  22.103  11.487  1.00  0.00     0.118 C 
BRANCH  13  14
HETATM   14  C2  UNL     1      33.275  20.908  10.844  1.00  0.00     0.015 C 
HETATM   15  C1  UNL     1      32.535  19.628  11.190  1.00  0.00     0.006 C 
ENDBRANCH  13  14
ENDBRANCH  11  13
ENDBRANCH   1  10
BRANCH   3  16
HETATM   16  C8  UNL     1      26.525  23.929   9.918  1.00  0.00     0.231 C 
HETATM   17 CL1  UNL     1      25.846  22.305  10.282  1.00  0.00    -0.077 Cl
HETATM   18 CL2  UNL     1      25.281  24.905   9.180  1.00  0.00    -0.077 Cl
HETATM   19 CL3  UNL     1      27.035  24.698  11.474  1.00  0.00    -0.077 Cl
ENDBRANCH   3  16
TORSDOF 4
ENDMDL
MODEL 3
REMARK VINA RESULT: -3.977541243      3.594      5.713
REMARK  4 active torsions:
REMARK  status: ('A' for Active; 'I' for Inactive)
REMARK    1  A    between atoms: C2_2  and  C3_3 
REMARK    2  A    between atoms: C3_3  and  N1_4 
REMARK    3  A    between atoms: C4_6  and  C5_7 
REMARK    4  A    between atoms: C7_9  and  C8_10 
ROOT
HETATM    1  C5  UNL     1      30.102  23.487   9.330  1.00  0.00     0.052 A 
HETATM    2  C6  UNL     1      30.900  22.693  10.161  1.00  0.00     0.060 A 
HETATM    3  C7  UNL     1      32.226  22.480   9.902  1.00  0.00     0.067 A 
HETATM    4  N2  UNL     1      32.743  23.078   8.792  1.00  0.00    -0.346 N 
ATOM      5  H2  UNL     1      33.728  22.942   8.566  1.00  0.00     0.167 HD
HETATM    6  C9  UNL     1      31.989  23.841   7.989  1.00  0.00     0.079 A 
HETATM    7  C10 UNL     1      32.554  24.521   6.782  1.00  0.00     0.089 C 
HETATM    8  N3  UNL     1      30.663  24.050   8.253  1.00  0.00    -0.340 N 
HETATM    9  C11 UNL     1      29.889  24.871   7.377  1.00  0.00     0.158 C 
ENDROOT
BRANCH   1  10
HETATM   10  C4  UNL     1      28.697  23.691   9.636  1.00  0.00     0.113 C 
HETATM   11  N1  UNL     1      28.169  23.004  10.640  1.00  0.00    -0.397 N 
ATOM     12  H1  UNL     1      28.743  22.354  11.177  1.00  0.00     0.158 HD
BRANCH  11  13
HETATM   13  C3  UNL     1      26.756  23.186  10.971  1.00  0.00     0.118 C 
BRANCH  13  14
HETATM   14  C2  UNL     1      25.859  22.983   9.768  1.00  0.00     0.015 C 
HETATM   15  C1  UNL     1      24.851  24.113   9.657  1.00  0.00     0.006 C 
ENDBRANCH  13  14
ENDBRANCH  11  13
ENDBRANCH   1  10
BRANCH   3  16
HETATM   16  C8  UNL     1      33.089  21.645  10.773  1.00  0.00     0.231 C 
HETATM   17 CL1  UNL     1      34.724  21.505  10.042  1.00  0.00    -0.077 Cl
HETATM   18 CL2  UNL     1      32.488  20.043  11.117  1.00  0.00    -0.077 Cl
HETATM   19 CL3  UNL     1      33.231  22.569  12.322  1.00  0.00    -0.077 Cl
ENDBRANCH   3  16
TORSDOF 4
ENDMDL
MODEL 4
REMARK VINA RESULT: -3.898782499      3.392      5.838
REMARK  4 active torsions:
REMARK  status: ('A' for Active; 'I' for Inactive)
REMARK    1  A    between atoms: C2_2  and  C3_3 
REMARK    2  A    between atoms: C3_3  and  N1_4 
REMARK    3  A    between atoms: C4_6  and  C5_7 
REMARK    4  A    between atoms: C7_9  and  C8_10 
ROOT
HETATM    1  C5  UNL     1      28.079  23.920   7.433  1.00  0.00     0.052 A 
HETATM    2  C6  UNL     1      29.227  23.546   8.139  1.00  0.00     0.060 A 
HETATM    3  C7  UNL     1      30.360  23.116   7.504  1.00  0.00     0.067 A 
HETATM    4  N2  UNL     1      30.324  23.068   6.142  1.00  0.00    -0.346 N 
ATOM      5  H2  UNL     1      31.149  22.753   5.634  1.00  0.00     0.167 HD
HETATM    6  C9  UNL     1      29.231  23.425   5.455  1.00  0.00     0.079 A 
HETATM    7  C10 UNL     1      29.191  23.398   3.959  1.00  0.00     0.089 C 
HETATM    8  N3  UNL     1      28.101  23.853   6.096  1.00  0.00    -0.340 N 
HETATM    9  C11 UNL     1      26.953  24.228   5.331  1.00  0.00     0.158 C 
ENDROOT
BRANCH   1  10
HETATM   10  C4  UNL     1      26.893  24.371   8.141  1.00  0.00     0.113 C 
HETATM   11  N1  UNL     1      26.356  23.559   9.041  1.00  0.00    -0.397 N 
ATOM     12  H1  UNL     1      26.772  22.645   9.223  1.00  0.00     0.158 HD
BRANCH  11  13
HETATM   13  C3  UNL     1      25.161  23.983   9.769  1.00  0.00     0.118 C 
BRANCH  13  14
HETATM   14  C2  UNL     1      24.128  24.605   8.854  1.00  0.00     0.015 C 
HETATM   15  C1  UNL     1      22.759  24.603   9.512  1.00  0.00     0.006 C 
ENDBRANCH  13  14
ENDBRANCH  11  13
ENDBRANCH   1  10
BRANCH   3  16
HETATM   16  C8  UNL     1      31.587  22.719   8.235  1.00  0.00     0.231 C 
HETATM   17 CL1  UNL     1      31.756  20.930   8.198  1.00  0.00    -0.077 Cl
HETATM   18 CL2  UNL     1      31.686  23.258   9.892  1.00  0.00    -0.077 Cl
HETATM   19 CL3  UNL     1      32.953  23.443   7.295  1.00  0.00    -0.077 Cl
ENDBRANCH   3  16
TORSDOF 4
ENDMDL
MODEL 5
REMARK VINA RESULT: -3.889361147      3.582      5.657
REMARK  4 active torsions:
REMARK  status: ('A' for Active; 'I' for Inactive)
REMARK    1  A    between atoms: C2_2  and  C3_3 
REMARK    2  A    between atoms: C3_3  and  N1_4 
REMARK    3  A    between atoms: C4_6  and  C5_7 
REMARK    4  A    between atoms: C7_9  and  C8_10 
ROOT
HETATM    1  C5  UNL     1      30.161  23.477   9.294  1.00  0.00     0.052 A 
HETATM    2  C6  UNL     1      30.999  22.754  10.149  1.00  0.00     0.060 A 
HETATM    3  C7  UNL     1      32.342  22.638   9.919  1.00  0.00     0.067 A 
HETATM    4  N2  UNL     1      32.835  23.264   8.813  1.00  0.00    -0.346 N 
ATOM      5  H2  UNL     1      33.832  23.200   8.609  1.00  0.00     0.167 HD
HETATM    6  C9  UNL     1      32.044  23.961   7.988  1.00  0.00     0.079 A 
HETATM    7  C10 UNL     1      32.581  24.671   6.785  1.00  0.00     0.089 C 
HETATM    8  N3  UNL     1      30.700  24.072   8.224  1.00  0.00    -0.340 N 
HETATM    9  C11 UNL     1      29.885  24.825   7.323  1.00  0.00     0.158 C 
ENDROOT
BRANCH   1  10
HETATM   10  C4  UNL     1      28.738  23.578   9.570  1.00  0.00     0.113 C 
HETATM   11  N1  UNL     1      28.290  23.110  10.727  1.00  0.00    -0.397 N 
ATOM     12  H1  UNL     1      28.936  22.693  11.398  1.00  0.00     0.158 HD
BRANCH  11  13
HETATM   13  C3  UNL     1      26.863  23.194  11.033  1.00  0.00     0.118 C 
BRANCH  13  14
HETATM   14  C2  UNL     1      26.006  23.057   9.792  1.00  0.00     0.015 C 
HETATM   15  C1  UNL     1      24.964  24.161   9.737  1.00  0.00     0.006 C 
ENDBRANCH  13  14
ENDBRANCH  11  13
ENDBRANCH   1  10
BRANCH   3  16
HETATM   16  C8  UNL     1      33.246  21.878  10.816  1.00  0.00     0.231 C 
HETATM   17 CL1  UNL     1      33.338  22.699  12.412  1.00  0.00    -0.077 Cl
HETATM   18 CL2  UNL     1      34.867  21.629  10.219  1.00  0.00    -0.077 Cl
HETATM   19 CL3  UNL     1      32.446  20.272  11.043  1.00  0.00    -0.077 Cl
ENDBRANCH   3  16
TORSDOF 4
ENDMDL
