MODEL 1
REMARK VINA RESULT: -6.595925435      0.000      0.000
REMARK  7 active torsions:
REMARK  status: ('A' for Active; 'I' for Inactive)
REMARK    1  A    between atoms: C2_2  and  C4_4 
REMARK    2  A    between atoms: C4_4  and  O1_5 
REMARK    3  A    between atoms: C6_8  and  O2_9 
REMARK    4  A    between atoms: C9_14  and  C10_15 
REMARK       I    between atoms: N1_23  and  C18_24 
REMARK    5  A    between atoms: C18_24  and  C19_26 
REMARK    6  A    between atoms: C20_27  and  C21_28 
REMARK    7  A    between atoms: C21_28  and  O5_29 
ROOT
HETATM    1  C10 UNL     1      -7.889  12.846  55.239  1.00  0.00     0.006 C 
HETATM    2  C11 UNL     1      -8.164  11.545  54.533  1.00  0.00     0.008 C 
HETATM    3  C12 UNL     1      -9.263  11.484  53.579  1.00  0.00     0.026 C 
HETATM    4  C13 UNL     1      -9.485  12.602  52.642  1.00  0.00     0.088 C 
HETATM    5  C14 UNL     1      -8.260  13.357  52.223  1.00  0.00     0.027 C 
HETATM    6  C15 UNL     1      -8.354  14.614  53.064  1.00  0.00     0.027 C 
HETATM    7  C16 UNL     1      -9.474  14.395  54.025  1.00  0.00     0.088 C 
HETATM    8  C17 UNL     1      -9.181  13.607  55.246  1.00  0.00     0.031 C 
HETATM    9  N1  UNL     1     -10.392  13.620  53.173  1.00  0.00    -0.339 N 
HETATM   10  C18 UNL     1     -11.761  13.823  52.949  1.00  0.00     0.243 C 
HETATM   11  O4  UNL     1     -12.333  14.777  53.522  1.00  0.00    -0.268 OA
ENDROOT
BRANCH   1  12
HETATM   12  C9  UNL     1      -7.304  12.535  56.568  1.00  0.00     0.058 C 
HETATM   13  C4  UNL     1      -5.874  12.750  56.805  1.00  0.00     0.078 C 
HETATM   14  C5  UNL     1      -5.551  11.817  58.003  1.00  0.00     0.077 C 
HETATM   15  C6  UNL     1      -6.791  11.030  58.180  1.00  0.00     0.068 C 
HETATM   16  C7  UNL     1      -7.877  11.907  58.790  1.00  0.00     0.117 C 
HETATM   17  C22 UNL     1      -7.320  10.995  56.752  1.00  0.00     0.059 C 
HETATM   18  C8  UNL     1      -8.157  12.914  57.725  1.00  0.00     0.141 C 
HETATM   19  O3  UNL     1      -8.948  13.821  57.898  1.00  0.00    -0.297 OA
BRANCH  13  20
HETATM   20  C2  UNL     1      -5.270  14.052  57.025  1.00  0.00     0.013 C 
HETATM   21  C1  UNL     1      -6.033  15.273  56.603  1.00  0.00     0.012 C 
HETATM   22  C3  UNL     1      -5.171  14.202  58.576  1.00  0.00     0.012 C 
ENDBRANCH  13  20
BRANCH  13  23
HETATM   23  O1  UNL     1      -5.170  12.137  55.737  1.00  0.00    -0.388 OA
ATOM     24  H1  UNL     1      -5.567  11.286  55.592  1.00  0.00     0.210 HD
ENDBRANCH  13  23
BRANCH  15  25
HETATM   25  O2  UNL     1      -6.671   9.813  58.754  1.00  0.00    -0.389 OA
ATOM     26  H2  UNL     1      -7.297   9.148  58.493  1.00  0.00     0.210 HD
ENDBRANCH  15  25
ENDBRANCH   1  12
BRANCH  10  27
HETATM   27  C19 UNL     1     -12.508  12.940  52.066  1.00  0.00     0.072 C 
HETATM   28  C20 UNL     1     -13.754  13.246  51.703  1.00  0.00     0.004 C 
BRANCH  28  29
HETATM   29  C21 UNL     1     -14.554  12.395  50.816  1.00  0.00     0.191 C 
BRANCH  29  30
HETATM   30  O5  UNL     1     -14.051  11.086  50.920  1.00  0.00    -0.397 OA
ATOM     31  H5  UNL     1     -14.067  10.704  50.049  1.00  0.00     0.209 HD
ENDBRANCH  29  30
ENDBRANCH  28  29
ENDBRANCH  10  27
TORSDOF 7
ENDMDL
MODEL 2
REMARK VINA RESULT: -6.280895353     15.412     18.190
REMARK  7 active torsions:
REMARK  status: ('A' for Active; 'I' for Inactive)
REMARK    1  A    between atoms: C2_2  and  C4_4 
REMARK    2  A    between atoms: C4_4  and  O1_5 
REMARK    3  A    between atoms: C6_8  and  O2_9 
REMARK    4  A    between atoms: C9_14  and  C10_15 
REMARK       I    between atoms: N1_23  and  C18_24 
REMARK    5  A    between atoms: C18_24  and  C19_26 
REMARK    6  A    between atoms: C20_27  and  C21_28 
REMARK    7  A    between atoms: C21_28  and  O5_29 
ROOT
HETATM    1  C10 UNL     1     -18.738  -2.525  54.870  1.00  0.00     0.006 C 
HETATM    2  C11 UNL     1     -19.140  -2.522  53.419  1.00  0.00     0.008 C 
HETATM    3  C12 UNL     1     -18.258  -1.887  52.449  1.00  0.00     0.026 C 
HETATM    4  C13 UNL     1     -16.799  -2.075  52.550  1.00  0.00     0.088 C 
HETATM    5  C14 UNL     1     -16.347  -3.381  53.128  1.00  0.00     0.027 C 
HETATM    6  C15 UNL     1     -15.956  -2.991  54.539  1.00  0.00     0.027 C 
HETATM    7  C16 UNL     1     -16.400  -1.579  54.723  1.00  0.00     0.088 C 
HETATM    8  C17 UNL     1     -17.826  -1.351  55.061  1.00  0.00     0.031 C 
HETATM    9  N1  UNL     1     -16.146  -1.055  53.370  1.00  0.00    -0.339 N 
HETATM   10  C18 UNL     1     -15.463   0.111  52.997  1.00  0.00     0.243 C 
HETATM   11  O4  UNL     1     -14.980   0.843  53.891  1.00  0.00    -0.268 OA
ENDROOT
BRANCH   1  12
HETATM   12  C9  UNL     1     -19.977  -2.533  55.691  1.00  0.00     0.058 C 
HETATM   13  C4  UNL     1     -19.884  -2.530  57.154  1.00  0.00     0.078 C 
HETATM   14  C5  UNL     1     -21.248  -3.110  57.614  1.00  0.00     0.077 C 
HETATM   15  C6  UNL     1     -21.881  -3.561  56.355  1.00  0.00     0.068 C 
HETATM   16  C7  UNL     1     -22.344  -2.355  55.549  1.00  0.00     0.117 C 
HETATM   17  C22 UNL     1     -20.656  -3.917  55.524  1.00  0.00     0.059 C 
HETATM   18  C8  UNL     1     -21.072  -1.674  55.169  1.00  0.00     0.141 C 
HETATM   19  O3  UNL     1     -21.070  -0.625  54.554  1.00  0.00    -0.297 OA
BRANCH  13  20
HETATM   20  C2  UNL     1     -19.558  -1.360  57.949  1.00  0.00     0.013 C 
HETATM   21  C1  UNL     1     -20.647  -0.372  58.245  1.00  0.00     0.012 C 
HETATM   22  C3  UNL     1     -19.175  -1.915  59.357  1.00  0.00     0.012 C 
ENDBRANCH  13  20
BRANCH  13  23
HETATM   23  O1  UNL     1     -18.972  -3.554  57.522  1.00  0.00    -0.388 OA
ATOM     24  H1  UNL     1     -19.483  -4.339  57.683  1.00  0.00     0.210 HD
ENDBRANCH  13  23
BRANCH  15  25
HETATM   25  O2  UNL     1     -22.793  -4.553  56.447  1.00  0.00    -0.389 OA
ATOM     26  H2  UNL     1     -23.304  -4.599  57.246  1.00  0.00     0.210 HD
ENDBRANCH  15  25
ENDBRANCH   1  12
BRANCH  10  27
HETATM   27  C19 UNL     1     -15.316   0.469  51.594  1.00  0.00     0.072 C 
HETATM   28  C20 UNL     1     -15.346   1.748  51.218  1.00  0.00     0.004 C 
BRANCH  28  29
HETATM   29  C21 UNL     1     -15.203   2.168  49.820  1.00  0.00     0.191 C 
BRANCH  29  30
HETATM   30  O5  UNL     1     -14.904   1.020  49.063  1.00  0.00    -0.397 OA
ATOM     31  H5  UNL     1     -14.685   0.325  49.674  1.00  0.00     0.209 HD
ENDBRANCH  29  30
ENDBRANCH  28  29
ENDBRANCH  10  27
TORSDOF 7
ENDMDL
MODEL 3
REMARK VINA RESULT: -5.993450302      2.592      7.712
REMARK  7 active torsions:
REMARK  status: ('A' for Active; 'I' for Inactive)
REMARK    1  A    between atoms: C2_2  and  C4_4 
REMARK    2  A    between atoms: C4_4  and  O1_5 
REMARK    3  A    between atoms: C6_8  and  O2_9 
REMARK    4  A    between atoms: C9_14  and  C10_15 
REMARK       I    between atoms: N1_23  and  C18_24 
REMARK    5  A    between atoms: C18_24  and  C19_26 
REMARK    6  A    between atoms: C20_27  and  C21_28 
REMARK    7  A    between atoms: C21_28  and  O5_29 
ROOT
HETATM    1  C10 UNL     1      -9.590  13.269  51.827  1.00  0.00     0.006 C 
HETATM    2  C11 UNL     1     -10.518  13.653  52.949  1.00  0.00     0.008 C 
HETATM    3  C12 UNL     1     -10.047  13.525  54.322  1.00  0.00     0.026 C 
HETATM    4  C13 UNL     1      -8.672  13.931  54.667  1.00  0.00     0.088 C 
HETATM    5  C14 UNL     1      -8.095  15.047  53.851  1.00  0.00     0.027 C 
HETATM    6  C15 UNL     1      -7.175  14.308  52.901  1.00  0.00     0.027 C 
HETATM    7  C16 UNL     1      -7.446  12.854  53.098  1.00  0.00     0.088 C 
HETATM    8  C17 UNL     1      -8.620  12.279  52.398  1.00  0.00     0.031 C 
HETATM    9  N1  UNL     1      -7.706  12.838  54.547  1.00  0.00    -0.339 N 
HETATM   10  C18 UNL     1      -7.164  11.993  55.525  1.00  0.00     0.243 C 
HETATM   11  O4  UNL     1      -6.341  11.116  55.179  1.00  0.00    -0.268 OA
ENDROOT
BRANCH   1  12
HETATM   12  C9  UNL     1     -10.417  12.795  50.687  1.00  0.00     0.058 C 
HETATM   13  C4  UNL     1      -9.805  12.609  49.369  1.00  0.00     0.078 C 
HETATM   14  C5  UNL     1     -11.004  12.690  48.388  1.00  0.00     0.077 C 
HETATM   15  C6  UNL     1     -12.133  13.113  49.246  1.00  0.00     0.068 C 
HETATM   16  C7  UNL     1     -12.571  11.954  50.131  1.00  0.00     0.117 C 
HETATM   17  C22 UNL     1     -11.404  13.929  50.305  1.00  0.00     0.059 C 
HETATM   18  C8  UNL     1     -11.403  11.738  51.034  1.00  0.00     0.141 C 
HETATM   19  O3  UNL     1     -11.386  10.836  51.850  1.00  0.00    -0.297 OA
BRANCH  13  20
HETATM   20  C2  UNL     1      -8.960  11.483  49.014  1.00  0.00     0.013 C 
HETATM   21  C1  UNL     1      -9.180  10.814  47.689  1.00  0.00     0.012 C 
HETATM   22  C3  UNL     1      -7.521  12.075  48.888  1.00  0.00     0.012 C 
ENDBRANCH  13  20
BRANCH  13  23
HETATM   23  O1  UNL     1      -9.078  13.790  49.068  1.00  0.00    -0.388 OA
ATOM     24  H1  UNL     1      -9.656  14.524  49.237  1.00  0.00     0.210 HD
ENDBRANCH  13  23
BRANCH  15  25
HETATM   25  O2  UNL     1     -13.149  13.770  48.646  1.00  0.00    -0.389 OA
ATOM     26  H2  UNL     1     -13.046  14.706  48.522  1.00  0.00     0.210 HD
ENDBRANCH  15  25
ENDBRANCH   1  12
BRANCH  10  27
HETATM   27  C19 UNL     1      -7.551  12.129  56.921  1.00  0.00     0.072 C 
HETATM   28  C20 UNL     1      -7.393  11.109  57.766  1.00  0.00     0.004 C 
BRANCH  28  29
HETATM   29  C21 UNL     1      -7.764  11.189  59.184  1.00  0.00     0.191 C 
BRANCH  29  30
HETATM   30  O5  UNL     1      -7.760   9.878  59.695  1.00  0.00    -0.397 OA
ATOM     31  H5  UNL     1      -8.630   9.518  59.564  1.00  0.00     0.209 HD
ENDBRANCH  29  30
ENDBRANCH  28  29
ENDBRANCH  10  27
TORSDOF 7
ENDMDL
MODEL 4
REMARK VINA RESULT: -5.956732450      3.480      6.084
REMARK  7 active torsions:
REMARK  status: ('A' for Active; 'I' for Inactive)
REMARK    1  A    between atoms: C2_2  and  C4_4 
REMARK    2  A    between atoms: C4_4  and  O1_5 
REMARK    3  A    between atoms: C6_8  and  O2_9 
REMARK    4  A    between atoms: C9_14  and  C10_15 
REMARK       I    between atoms: N1_23  and  C18_24 
REMARK    5  A    between atoms: C18_24  and  C19_26 
REMARK    6  A    between atoms: C20_27  and  C21_28 
REMARK    7  A    between atoms: C21_28  and  O5_29 
ROOT
HETATM    1  C10 UNL     1     -11.091  12.594  50.910  1.00  0.00     0.006 C 
HETATM    2  C11 UNL     1     -10.259  11.351  50.740  1.00  0.00     0.008 C 
HETATM    3  C12 UNL     1     -10.857  10.191  50.093  1.00  0.00     0.026 C 
HETATM    4  C13 UNL     1     -11.711  10.373  48.904  1.00  0.00     0.088 C 
HETATM    5  C14 UNL     1     -11.373  11.541  48.029  1.00  0.00     0.027 C 
HETATM    6  C15 UNL     1     -12.440  12.547  48.411  1.00  0.00     0.027 C 
HETATM    7  C16 UNL     1     -13.154  11.976  49.590  1.00  0.00     0.088 C 
HETATM    8  C17 UNL     1     -12.523  12.150  50.920  1.00  0.00     0.031 C 
HETATM    9  N1  UNL     1     -13.125  10.547  49.236  1.00  0.00    -0.339 N 
HETATM   10  C18 UNL     1     -14.180   9.625  49.231  1.00  0.00     0.243 C 
HETATM   11  O4  UNL     1     -15.325  10.011  49.558  1.00  0.00    -0.268 OA
ENDROOT
BRANCH   1  12
HETATM   12  C9  UNL     1     -10.616  13.303  52.127  1.00  0.00     0.058 C 
HETATM   13  C4  UNL     1      -9.887  12.568  53.163  1.00  0.00     0.078 C 
HETATM   14  C5  UNL     1     -10.079  13.431  54.438  1.00  0.00     0.077 C 
HETATM   15  C6  UNL     1     -11.064  14.455  54.024  1.00  0.00     0.068 C 
HETATM   16  C7  UNL     1     -10.400  15.464  53.096  1.00  0.00     0.117 C 
HETATM   17  C22 UNL     1     -11.857  13.688  52.974  1.00  0.00     0.059 C 
HETATM   18  C8  UNL     1     -10.075  14.665  51.879  1.00  0.00     0.141 C 
HETATM   19  O3  UNL     1      -9.477  15.151  50.938  1.00  0.00    -0.297 OA
BRANCH  13  20
HETATM   20  C2  UNL     1      -8.496  12.165  53.052  1.00  0.00     0.013 C 
HETATM   21  C1  UNL     1      -7.434  13.209  53.235  1.00  0.00     0.012 C 
HETATM   22  C3  UNL     1      -8.256  11.188  54.245  1.00  0.00     0.012 C 
ENDBRANCH  13  20
BRANCH  13  23
HETATM   23  O1  UNL     1     -10.637  11.401  53.463  1.00  0.00    -0.388 OA
ATOM     24  H1  UNL     1     -11.407  11.413  52.907  1.00  0.00     0.210 HD
ENDBRANCH  13  23
BRANCH  15  25
HETATM   25  O2  UNL     1     -11.823  15.007  54.995  1.00  0.00    -0.389 OA
ATOM     26  H2  UNL     1     -12.134  15.893  54.851  1.00  0.00     0.210 HD
ENDBRANCH  15  25
ENDBRANCH   1  12
BRANCH  10  27
HETATM   27  C19 UNL     1     -13.953   8.238  48.851  1.00  0.00     0.072 C 
HETATM   28  C20 UNL     1     -14.276   7.813  47.629  1.00  0.00     0.004 C 
BRANCH  28  29
HETATM   29  C21 UNL     1     -14.070   6.428  47.190  1.00  0.00     0.191 C 
BRANCH  29  30
HETATM   30  O5  UNL     1     -12.683   6.223  47.080  1.00  0.00    -0.397 OA
ATOM     31  H5  UNL     1     -12.547   5.314  46.837  1.00  0.00     0.209 HD
ENDBRANCH  29  30
ENDBRANCH  28  29
ENDBRANCH  10  27
TORSDOF 7
ENDMDL
MODEL 5
REMARK VINA RESULT: -5.770147795      6.131     12.121
REMARK  7 active torsions:
REMARK  status: ('A' for Active; 'I' for Inactive)
REMARK    1  A    between atoms: C2_2  and  C4_4 
REMARK    2  A    between atoms: C4_4  and  O1_5 
REMARK    3  A    between atoms: C6_8  and  O2_9 
REMARK    4  A    between atoms: C9_14  and  C10_15 
REMARK       I    between atoms: N1_23  and  C18_24 
REMARK    5  A    between atoms: C18_24  and  C19_26 
REMARK    6  A    between atoms: C20_27  and  C21_28 
REMARK    7  A    between atoms: C21_28  and  O5_29 
ROOT
HETATM    1  C10 UNL     1     -14.154   8.860  46.937  1.00  0.00     0.006 C 
HETATM    2  C11 UNL     1     -14.691   8.768  48.340  1.00  0.00     0.008 C 
HETATM    3  C12 UNL     1     -13.900   9.322  49.431  1.00  0.00     0.026 C 
HETATM    4  C13 UNL     1     -13.213  10.616  49.257  1.00  0.00     0.088 C 
HETATM    5  C14 UNL     1     -13.881  11.591  48.336  1.00  0.00     0.027 C 
HETATM    6  C15 UNL     1     -13.044  11.471  47.079  1.00  0.00     0.027 C 
HETATM    7  C16 UNL     1     -12.122  10.318  47.295  1.00  0.00     0.088 C 
HETATM    8  C17 UNL     1     -12.663   8.959  47.058  1.00  0.00     0.031 C 
HETATM    9  N1  UNL     1     -11.853  10.475  48.734  1.00  0.00    -0.339 N 
HETATM   10  C18 UNL     1     -10.619  10.481  49.399  1.00  0.00     0.243 C 
HETATM   11  O4  UNL     1      -9.570  10.342  48.731  1.00  0.00    -0.268 OA
ENDROOT
BRANCH   1  12
HETATM   12  C9  UNL     1     -14.675   7.701  46.167  1.00  0.00     0.058 C 
HETATM   13  C4  UNL     1     -14.750   7.769  44.705  1.00  0.00     0.078 C 
HETATM   14  C5  UNL     1     -15.820   6.707  44.338  1.00  0.00     0.077 C 
HETATM   15  C6  UNL     1     -16.374   6.298  45.647  1.00  0.00     0.068 C 
HETATM   16  C7  UNL     1     -15.362   5.435  46.389  1.00  0.00     0.117 C 
HETATM   17  C22 UNL     1     -16.195   7.579  46.452  1.00  0.00     0.059 C 
HETATM   18  C8  UNL     1     -14.238   6.374  46.674  1.00  0.00     0.141 C 
HETATM   19  O3  UNL     1     -13.216   5.999  47.218  1.00  0.00    -0.297 OA
BRANCH  13  20
HETATM   20  C2  UNL     1     -13.604   7.634  43.823  1.00  0.00     0.013 C 
HETATM   21  C1  UNL     1     -13.795   6.936  42.509  1.00  0.00     0.012 C 
HETATM   22  C3  UNL     1     -13.231   9.092  43.410  1.00  0.00     0.012 C 
ENDBRANCH  13  20
BRANCH  13  23
HETATM   23  O1  UNL     1     -15.395   8.987  44.370  1.00  0.00    -0.388 OA
ATOM     24  H1  UNL     1     -15.397   9.527  45.151  1.00  0.00     0.210 HD
ENDBRANCH  13  23
BRANCH  15  25
HETATM   25  O2  UNL     1     -17.634   5.811  45.657  1.00  0.00    -0.389 OA
ATOM     26  H2  UNL     1     -17.787   5.018  46.156  1.00  0.00     0.210 HD
ENDBRANCH  15  25
ENDBRANCH   1  12
BRANCH  10  27
HETATM   27  C19 UNL     1     -10.555  10.646  50.844  1.00  0.00     0.072 C 
HETATM   28  C20 UNL     1      -9.590  11.383  51.395  1.00  0.00     0.004 C 
BRANCH  28  29
HETATM   29  C21 UNL     1      -9.475  11.585  52.844  1.00  0.00     0.191 C 
BRANCH  29  30
HETATM   30  O5  UNL     1     -10.728  11.289  53.412  1.00  0.00    -0.397 OA
ATOM     31  H5  UNL     1     -10.577  11.026  54.313  1.00  0.00     0.209 HD
ENDBRANCH  29  30
ENDBRANCH  28  29
ENDBRANCH  10  27
TORSDOF 7
ENDMDL
