MODEL 1
REMARK VINA RESULT: -5.957502410      0.000      0.000
REMARK  5 active torsions:
REMARK  status: ('A' for Active; 'I' for Inactive)
REMARK    1  A    between atoms: C9_9  and  C10_10 
REMARK    2  A    between atoms: C9_9  and  C14_17 
REMARK    3  A    between atoms: C10_10  and  C11_11 
REMARK    4  A    between atoms: C14_17  and  O1_18 
REMARK    5  A    between atoms: N2_20  and  O2_22 
ROOT
HETATM    1  C1  UNL     1      39.123  35.831  84.327  1.00  0.00     0.011 C 
HETATM    2  C2  UNL     1      40.452  36.542  84.202  1.00  0.00    -0.009 C 
HETATM    3  C3  UNL     1      40.458  37.876  84.904  1.00  0.00    -0.010 C 
HETATM    4  C4  UNL     1      40.137  37.777  86.357  1.00  0.00     0.009 C 
HETATM    5  C5  UNL     1      41.129  36.823  86.986  1.00  0.00    -0.013 C 
HETATM    6  C6  UNL     1      42.501  37.409  86.859  1.00  0.00     0.010 C 
HETATM    7  C7  UNL     1      42.880  37.526  85.416  1.00  0.00     0.003 C 
HETATM    8  C8  UNL     1      41.876  38.431  84.738  1.00  0.00     0.011 C 
HETATM    9  C9  UNL     1      42.895  36.187  84.699  1.00  0.00     0.035 C 
HETATM   10  C15 UNL     1      41.513  35.643  84.799  1.00  0.00     0.007 C 
HETATM   11  C16 UNL     1      41.144  35.484  86.257  1.00  0.00     0.011 C 
ENDROOT
BRANCH   9  12
HETATM   12  C10 UNL     1      43.851  35.204  85.254  1.00  0.00     0.026 C 
BRANCH  12  13
HETATM   13  C11 UNL     1      44.717  34.462  84.259  1.00  0.00     0.038 C 
HETATM   14  C12 UNL     1      46.180  34.751  84.630  1.00  0.00     0.238 C 
HETATM   15  N1  UNL     1      46.354  33.491  85.267  1.00  0.00    -0.074 N 
HETATM   16  C13 UNL     1      45.116  33.059  84.661  1.00  0.00     0.238 C 
ATOM     17  H12 UNL     1      47.212  32.955  85.136  1.00  0.00     0.277 HD
ATOM     18  H11 UNL     1      46.488  33.431  86.277  1.00  0.00     0.277 HD
ENDBRANCH  12  13
ENDBRANCH   9  12
BRANCH   9  19
HETATM   19  C14 UNL     1      43.298  36.523  83.305  1.00  0.00     0.145 C 
HETATM   20  N2  UNL     1      42.774  36.074  82.246  1.00  0.00    -0.250 N 
ATOM     21  H2  UNL     1      41.998  35.415  82.322  1.00  0.00     0.196 HD
BRANCH  19  22
HETATM   22  O1  UNL     1      44.366  37.425  83.164  1.00  0.00    -0.347 OA
ATOM     23  H1  UNL     1      45.215  37.046  82.970  1.00  0.00     0.219 HD
ENDBRANCH  19  22
BRANCH  20  24
HETATM   24  O2  UNL     1      43.212  36.439  81.000  1.00  0.00    -0.288 OA
ATOM     25  H2  UNL     1      43.865  35.940  80.524  1.00  0.00     0.244 HD
ENDBRANCH  20  24
ENDBRANCH   9  19
TORSDOF 5
ENDMDL
MODEL 2
REMARK VINA RESULT: -5.446130726      2.751      4.151
REMARK  5 active torsions:
REMARK  status: ('A' for Active; 'I' for Inactive)
REMARK    1  A    between atoms: C9_9  and  C10_10 
REMARK    2  A    between atoms: C9_9  and  C14_17 
REMARK    3  A    between atoms: C10_10  and  C11_11 
REMARK    4  A    between atoms: C14_17  and  O1_18 
REMARK    5  A    between atoms: N2_20  and  O2_22 
ROOT
HETATM    1  C1  UNL     1      40.810  34.581  86.585  1.00  0.00     0.011 C 
HETATM    2  C2  UNL     1      42.113  34.959  85.916  1.00  0.00    -0.009 C 
HETATM    3  C3  UNL     1      41.945  35.228  84.443  1.00  0.00    -0.010 C 
HETATM    4  C4  UNL     1      40.960  36.310  84.151  1.00  0.00     0.009 C 
HETATM    5  C5  UNL     1      41.407  37.554  84.887  1.00  0.00    -0.013 C 
HETATM    6  C6  UNL     1      42.732  37.983  84.339  1.00  0.00     0.010 C 
HETATM    7  C7  UNL     1      43.766  36.935  84.611  1.00  0.00     0.003 C 
HETATM    8  C8  UNL     1      43.326  35.655  83.935  1.00  0.00     0.011 C 
HETATM    9  C9  UNL     1      43.958  36.664  86.093  1.00  0.00     0.035 C 
HETATM   10  C15 UNL     1      42.642  36.198  86.608  1.00  0.00     0.007 C 
HETATM   11  C16 UNL     1      41.604  37.274  86.373  1.00  0.00     0.011 C 
ENDROOT
BRANCH   9  12
HETATM   12  C10 UNL     1      44.405  37.836  86.877  1.00  0.00     0.026 C 
BRANCH  12  13
HETATM   13  C11 UNL     1      44.708  37.599  88.341  1.00  0.00     0.038 C 
HETATM   14  C12 UNL     1      45.655  38.722  88.793  1.00  0.00     0.238 C 
HETATM   15  N1  UNL     1      44.616  39.452  89.436  1.00  0.00    -0.074 N 
HETATM   16  C13 UNL     1      43.777  38.282  89.318  1.00  0.00     0.238 C 
ATOM     17  H12 UNL     1      44.773  39.892  90.343  1.00  0.00     0.277 HD
ATOM     18  H11 UNL     1      44.309  40.352  89.069  1.00  0.00     0.277 HD
ENDBRANCH  12  13
ENDBRANCH   9  12
BRANCH   9  19
HETATM   19  C14 UNL     1      45.015  35.617  86.140  1.00  0.00     0.145 C 
HETATM   20  N2  UNL     1      44.916  34.478  86.678  1.00  0.00    -0.250 N 
ATOM     21  H2  UNL     1      44.038  34.222  87.132  1.00  0.00     0.196 HD
BRANCH  19  22
HETATM   22  O1  UNL     1      46.238  35.936  85.526  1.00  0.00    -0.347 OA
ATOM     23  H1  UNL     1      46.913  35.269  85.559  1.00  0.00     0.219 HD
ENDBRANCH  19  22
BRANCH  20  24
HETATM   24  O2  UNL     1      45.945  33.573  86.674  1.00  0.00    -0.288 OA
ATOM     25  H2  UNL     1      46.814  33.790  86.991  1.00  0.00     0.244 HD
ENDBRANCH  20  24
ENDBRANCH   9  19
TORSDOF 5
ENDMDL
MODEL 3
REMARK VINA RESULT: -5.240810812      1.696      2.238
REMARK  5 active torsions:
REMARK  status: ('A' for Active; 'I' for Inactive)
REMARK    1  A    between atoms: C9_9  and  C10_10 
REMARK    2  A    between atoms: C9_9  and  C14_17 
REMARK    3  A    between atoms: C10_10  and  C11_11 
REMARK    4  A    between atoms: C14_17  and  O1_18 
REMARK    5  A    between atoms: N2_20  and  O2_22 
ROOT
HETATM    1  C1  UNL     1      39.109  38.113  83.831  1.00  0.00     0.011 C 
HETATM    2  C2  UNL     1      40.330  38.016  84.719  1.00  0.00    -0.009 C 
HETATM    3  C3  UNL     1      39.971  37.812  86.168  1.00  0.00    -0.010 C 
HETATM    4  C4  UNL     1      39.148  36.590  86.403  1.00  0.00     0.009 C 
HETATM    5  C5  UNL     1      39.912  35.404  85.856  1.00  0.00    -0.013 C 
HETATM    6  C6  UNL     1      41.183  35.256  86.633  1.00  0.00     0.010 C 
HETATM    7  C7  UNL     1      42.055  36.455  86.428  1.00  0.00     0.003 C 
HETATM    8  C8  UNL     1      41.302  37.673  86.914  1.00  0.00     0.011 C 
HETATM    9  C9  UNL     1      42.439  36.665  84.973  1.00  0.00     0.035 C 
HETATM   10  C15 UNL     1      41.166  36.854  84.227  1.00  0.00     0.007 C 
HETATM   11  C16 UNL     1      40.300  35.625  84.398  1.00  0.00     0.011 C 
ENDROOT
BRANCH   9  12
HETATM   12  C10 UNL     1      43.199  35.548  84.372  1.00  0.00     0.026 C 
BRANCH  12  13
HETATM   13  C11 UNL     1      44.343  34.986  85.190  1.00  0.00     0.038 C 
HETATM   14  C12 UNL     1      44.537  33.526  84.751  1.00  0.00     0.238 C 
HETATM   15  N1  UNL     1      45.665  33.834  83.940  1.00  0.00    -0.074 N 
HETATM   16  C13 UNL     1      45.717  35.130  84.575  1.00  0.00     0.238 C 
ATOM     17  H12 UNL     1      46.483  33.224  83.932  1.00  0.00     0.277 HD
ATOM     18  H11 UNL     1      45.613  33.753  82.924  1.00  0.00     0.277 HD
ENDBRANCH  12  13
ENDBRANCH   9  12
BRANCH   9  19
HETATM   19  C14 UNL     1      43.298  37.881  84.994  1.00  0.00     0.145 C 
HETATM   20  N2  UNL     1      43.337  38.784  84.110  1.00  0.00    -0.250 N 
ATOM     21  H2  UNL     1      42.732  38.700  83.293  1.00  0.00     0.196 HD
BRANCH  19  22
HETATM   22  O1  UNL     1      44.145  38.029  86.105  1.00  0.00    -0.347 OA
ATOM     23  H1  UNL     1      44.669  38.821  86.133  1.00  0.00     0.219 HD
ENDBRANCH  19  22
BRANCH  20  24
HETATM   24  O2  UNL     1      44.162  39.874  84.212  1.00  0.00    -0.288 OA
ATOM     25  H2  UNL     1      45.092  39.792  84.383  1.00  0.00     0.244 HD
ENDBRANCH  20  24
ENDBRANCH   9  19
TORSDOF 5
ENDMDL
MODEL 4
REMARK VINA RESULT: -5.125179221      1.842      2.907
REMARK  5 active torsions:
REMARK  status: ('A' for Active; 'I' for Inactive)
REMARK    1  A    between atoms: C9_9  and  C10_10 
REMARK    2  A    between atoms: C9_9  and  C14_17 
REMARK    3  A    between atoms: C10_10  and  C11_11 
REMARK    4  A    between atoms: C14_17  and  O1_18 
REMARK    5  A    between atoms: N2_20  and  O2_22 
ROOT
HETATM    1  C1  UNL     1      40.147  38.896  84.315  1.00  0.00     0.011 C 
HETATM    2  C2  UNL     1      41.040  38.232  85.341  1.00  0.00    -0.009 C 
HETATM    3  C3  UNL     1      40.256  37.623  86.474  1.00  0.00    -0.010 C 
HETATM    4  C4  UNL     1      39.261  36.607  86.022  1.00  0.00     0.009 C 
HETATM    5  C5  UNL     1      40.004  35.548  85.238  1.00  0.00    -0.013 C 
HETATM    6  C6  UNL     1      40.970  34.865  86.156  1.00  0.00     0.010 C 
HETATM    7  C7  UNL     1      42.000  35.838  86.637  1.00  0.00     0.003 C 
HETATM    8  C8  UNL     1      41.289  36.946  87.381  1.00  0.00     0.011 C 
HETATM    9  C9  UNL     1      42.810  36.449  85.506  1.00  0.00     0.035 C 
HETATM   10  C15 UNL     1      41.838  37.159  84.631  1.00  0.00     0.007 C 
HETATM   11  C16 UNL     1      40.820  36.169  84.109  1.00  0.00     0.011 C 
ENDROOT
BRANCH   9  12
HETATM   12  C10 UNL     1      43.572  35.471  84.700  1.00  0.00     0.026 C 
BRANCH  12  13
HETATM   13  C11 UNL     1      44.681  34.724  85.410  1.00  0.00     0.038 C 
HETATM   14  C12 UNL     1      44.792  33.343  84.743  1.00  0.00     0.238 C 
HETATM   15  N1  UNL     1      45.936  33.711  83.981  1.00  0.00    -0.074 N 
HETATM   16  C13 UNL     1      46.062  34.886  84.813  1.00  0.00     0.238 C 
ATOM     17  H12 UNL     1      46.718  33.065  83.871  1.00  0.00     0.277 HD
ATOM     18  H11 UNL     1      45.880  33.795  82.966  1.00  0.00     0.277 HD
ENDBRANCH  12  13
ENDBRANCH   9  12
BRANCH   9  19
HETATM   19  C14 UNL     1      43.764  37.363  86.192  1.00  0.00     0.145 C 
HETATM   20  N2  UNL     1      44.316  37.165  87.311  1.00  0.00    -0.250 N 
ATOM     21  H2  UNL     1      44.108  36.304  87.817  1.00  0.00     0.196 HD
BRANCH  19  22
HETATM   22  O1  UNL     1      44.072  38.560  85.524  1.00  0.00    -0.347 OA
ATOM     23  H1  UNL     1      44.276  38.487  84.599  1.00  0.00     0.219 HD
ENDBRANCH  19  22
BRANCH  20  24
HETATM   24  O2  UNL     1      45.186  38.066  87.869  1.00  0.00    -0.288 OA
ATOM     25  H2  UNL     1      46.126  37.932  87.870  1.00  0.00     0.244 HD
ENDBRANCH  20  24
ENDBRANCH   9  19
TORSDOF 5
ENDMDL
MODEL 5
REMARK VINA RESULT: -5.069976160      2.798      4.949
REMARK  5 active torsions:
REMARK  status: ('A' for Active; 'I' for Inactive)
REMARK    1  A    between atoms: C9_9  and  C10_10 
REMARK    2  A    between atoms: C9_9  and  C14_17 
REMARK    3  A    between atoms: C10_10  and  C11_11 
REMARK    4  A    between atoms: C14_17  and  O1_18 
REMARK    5  A    between atoms: N2_20  and  O2_22 
ROOT
HETATM    1  C1  UNL     1      44.638  34.343  84.222  1.00  0.00     0.011 C 
HETATM    2  C2  UNL     1      44.292  35.747  84.666  1.00  0.00    -0.009 C 
HETATM    3  C3  UNL     1      43.814  36.608  83.525  1.00  0.00    -0.010 C 
HETATM    4  C4  UNL     1      42.619  36.051  82.828  1.00  0.00     0.009 C 
HETATM    5  C5  UNL     1      41.530  35.855  83.860  1.00  0.00    -0.013 C 
HETATM    6  C6  UNL     1      41.153  37.194  84.415  1.00  0.00     0.010 C 
HETATM    7  C7  UNL     1      42.316  37.800  85.135  1.00  0.00     0.003 C 
HETATM    8  C8  UNL     1      43.449  37.961  84.145  1.00  0.00     0.011 C 
HETATM    9  C9  UNL     1      42.799  36.951  86.298  1.00  0.00     0.035 C 
HETATM   10  C15 UNL     1      43.210  35.643  85.720  1.00  0.00     0.007 C 
HETATM   11  C16 UNL     1      42.023  35.009  85.028  1.00  0.00     0.011 C 
ENDROOT
BRANCH   9  12
HETATM   12  C10 UNL     1      41.788  36.726  87.354  1.00  0.00     0.026 C 
BRANCH  12  13
HETATM   13  C11 UNL     1      41.325  37.945  88.122  1.00  0.00     0.038 C 
HETATM   14  C12 UNL     1      39.834  37.740  88.436  1.00  0.00     0.238 C 
HETATM   15  N1  UNL     1      40.086  37.359  89.783  1.00  0.00    -0.074 N 
HETATM   16  C13 UNL     1      41.436  37.848  89.627  1.00  0.00     0.238 C 
ATOM     17  H12 UNL     1      39.492  37.699  90.541  1.00  0.00     0.277 HD
ATOM     18  H11 UNL     1      39.911  36.403  90.095  1.00  0.00     0.277 HD
ENDBRANCH  12  13
ENDBRANCH   9  12
BRANCH   9  19
HETATM   19  C14 UNL     1      43.935  37.726  86.870  1.00  0.00     0.145 C 
HETATM   20  N2  UNL     1      44.763  37.315  87.731  1.00  0.00    -0.250 N 
ATOM     21  H2  UNL     1      44.671  36.363  88.087  1.00  0.00     0.196 HD
BRANCH  19  22
HETATM   22  O1  UNL     1      44.090  39.043  86.404  1.00  0.00    -0.347 OA
ATOM     23  H1  UNL     1      43.343  39.620  86.514  1.00  0.00     0.219 HD
ENDBRANCH  19  22
BRANCH  20  24
HETATM   24  O2  UNL     1      45.781  38.101  88.203  1.00  0.00    -0.288 OA
ATOM     25  H2  UNL     1      46.306  38.650  87.633  1.00  0.00     0.244 HD
ENDBRANCH  20  24
ENDBRANCH   9  19
TORSDOF 5
ENDMDL
