MODEL 1
REMARK VINA RESULT: -5.136174593      0.000      0.000
REMARK  6 active torsions:
REMARK  status: ('A' for Active; 'I' for Inactive)
REMARK    1  A    between atoms: C2_2  and  N1_5 
REMARK       I    between atoms: N1_5  and  C4_7 
REMARK    2  A    between atoms: C4_7  and  C5_9 
REMARK    3  A    between atoms: C7_11  and  C8_12 
REMARK    4  A    between atoms: C8_12  and  O2_13 
REMARK    5  A    between atoms: C8_12  and  C9_15 
REMARK    6  A    between atoms: C9_15  and  O3_16 
ROOT
HETATM    1  C5  UNL     1      42.866  35.628  85.262  1.00  0.00     0.050 C 
HETATM    2  C6  UNL     1      43.756  34.427  84.975  1.00  0.00     0.027 C 
HETATM    3  C7  UNL     1      41.492  35.043  85.473  1.00  0.00     0.035 C 
HETATM    4  C10 UNL     1      40.532  35.944  84.716  1.00  0.00     0.009 C 
HETATM    5  C11 UNL     1      41.342  36.694  83.706  1.00  0.00     0.010 C 
HETATM    6  C12 UNL     1      42.805  36.387  83.974  1.00  0.00    -0.031 C 
HETATM    7  C13 UNL     1      43.547  37.688  83.968  1.00  0.00     0.016 C 
HETATM    8  C14 UNL     1      43.314  35.597  82.785  1.00  0.00     0.016 C 
ENDROOT
BRANCH   1   9
HETATM    9  C4  UNL     1      43.405  36.339  86.402  1.00  0.00     0.228 C 
HETATM   10  N1  UNL     1      42.918  37.580  86.920  1.00  0.00    -0.339 N 
ATOM     11  H1  UNL     1      42.120  38.009  86.451  1.00  0.00     0.164 HD
HETATM   12  O1  UNL     1      44.393  35.868  87.030  1.00  0.00    -0.273 OA
BRANCH  10  13
HETATM   13  C2  UNL     1      43.467  38.258  88.042  1.00  0.00     0.102 C 
HETATM   14  C1  UNL     1      43.453  39.760  87.848  1.00  0.00     0.056 C 
HETATM   15  C3  UNL     1      42.753  37.985  89.344  1.00  0.00     0.056 C 
HETATM   16 CL1  UNL     1      45.188  37.822  88.323  1.00  0.00    -0.096 Cl
ENDBRANCH  10  13
ENDBRANCH   1   9
BRANCH   3  17
HETATM   17  C8  UNL     1      41.042  34.962  86.883  1.00  0.00     0.147 C 
BRANCH  17  18
HETATM   18  O2  UNL     1      40.688  33.695  87.306  1.00  0.00    -0.393 OA
ATOM     19  H2  UNL     1      39.798  33.617  87.627  1.00  0.00     0.210 HD
ENDBRANCH  17  18
BRANCH  17  20
HETATM   20  C9  UNL     1      39.740  35.772  86.960  1.00  0.00     0.196 C 
BRANCH  20  21
HETATM   21  O3  UNL     1      39.878  36.793  87.901  1.00  0.00    -0.398 OA
ATOM     22  H3  UNL     1      39.023  37.038  88.234  1.00  0.00     0.209 HD
ENDBRANCH  20  21
ENDBRANCH  17  20
ENDBRANCH   3  17
TORSDOF 6
ENDMDL
MODEL 2
REMARK VINA RESULT: -5.124862925      2.288      3.561
REMARK  6 active torsions:
REMARK  status: ('A' for Active; 'I' for Inactive)
REMARK    1  A    between atoms: C2_2  and  N1_5 
REMARK       I    between atoms: N1_5  and  C4_7 
REMARK    2  A    between atoms: C4_7  and  C5_9 
REMARK    3  A    between atoms: C7_11  and  C8_12 
REMARK    4  A    between atoms: C8_12  and  O2_13 
REMARK    5  A    between atoms: C8_12  and  C9_15 
REMARK    6  A    between atoms: C9_15  and  O3_16 
ROOT
HETATM    1  C5  UNL     1      43.205  36.679  84.870  1.00  0.00     0.050 C 
HETATM    2  C6  UNL     1      43.408  37.355  83.521  1.00  0.00     0.027 C 
HETATM    3  C7  UNL     1      44.034  35.421  84.794  1.00  0.00     0.035 C 
HETATM    4  C10 UNL     1      43.174  34.318  85.388  1.00  0.00     0.009 C 
HETATM    5  C11 UNL     1      41.755  34.790  85.328  1.00  0.00     0.010 C 
HETATM    6  C12 UNL     1      41.775  36.240  84.876  1.00  0.00    -0.031 C 
HETATM    7  C13 UNL     1      40.878  37.011  85.795  1.00  0.00     0.016 C 
HETATM    8  C14 UNL     1      41.126  36.282  83.507  1.00  0.00     0.016 C 
ENDROOT
BRANCH   1   9
HETATM    9  C4  UNL     1      43.598  37.604  85.912  1.00  0.00     0.228 C 
HETATM   10  N1  UNL     1      43.434  37.398  87.317  1.00  0.00    -0.339 N 
ATOM     11  H1  UNL     1      43.004  36.524  87.621  1.00  0.00     0.164 HD
HETATM   12  O1  UNL     1      44.136  38.705  85.609  1.00  0.00    -0.273 OA
BRANCH  10  13
HETATM   13  C2  UNL     1      43.828  38.324  88.321  1.00  0.00     0.102 C 
HETATM   14  C1  UNL     1      43.045  38.125  89.602  1.00  0.00     0.056 C 
HETATM   15  C3  UNL     1      45.290  38.251  88.694  1.00  0.00     0.056 C 
HETATM   16 CL1  UNL     1      43.529  40.027  87.829  1.00  0.00    -0.096 Cl
ENDBRANCH  10  13
ENDBRANCH   1   9
BRANCH   3  17
HETATM   17  C8  UNL     1      45.319  35.458  85.532  1.00  0.00     0.147 C 
BRANCH  17  18
HETATM   18  O2  UNL     1      46.442  35.297  84.743  1.00  0.00    -0.393 OA
ATOM     19  H2  UNL     1      46.758  34.403  84.680  1.00  0.00     0.210 HD
ENDBRANCH  17  18
BRANCH  17  20
HETATM   20  C9  UNL     1      45.315  34.230  86.454  1.00  0.00     0.196 C 
BRANCH  20  21
HETATM   21  O3  UNL     1      46.337  33.358  86.076  1.00  0.00    -0.398 OA
ATOM     22  H3  UNL     1      45.996  32.711  85.470  1.00  0.00     0.209 HD
ENDBRANCH  20  21
ENDBRANCH  17  20
ENDBRANCH   3  17
TORSDOF 6
ENDMDL
MODEL 3
REMARK VINA RESULT: -5.049210284      1.800      3.594
REMARK  6 active torsions:
REMARK  status: ('A' for Active; 'I' for Inactive)
REMARK    1  A    between atoms: C2_2  and  N1_5 
REMARK       I    between atoms: N1_5  and  C4_7 
REMARK    2  A    between atoms: C4_7  and  C5_9 
REMARK    3  A    between atoms: C7_11  and  C8_12 
REMARK    4  A    between atoms: C8_12  and  O2_13 
REMARK    5  A    between atoms: C8_12  and  C9_15 
REMARK    6  A    between atoms: C9_15  and  O3_16 
ROOT
HETATM    1  C5  UNL     1      43.225  36.554  85.136  1.00  0.00     0.050 C 
HETATM    2  C6  UNL     1      43.287  37.509  83.953  1.00  0.00     0.027 C 
HETATM    3  C7  UNL     1      44.077  35.380  84.724  1.00  0.00     0.035 C 
HETATM    4  C10 UNL     1      43.305  34.139  85.136  1.00  0.00     0.009 C 
HETATM    5  C11 UNL     1      41.875  34.547  85.297  1.00  0.00     0.010 C 
HETATM    6  C12 UNL     1      41.814  36.058  85.167  1.00  0.00    -0.031 C 
HETATM    7  C13 UNL     1      40.984  36.575  86.302  1.00  0.00     0.016 C 
HETATM    8  C14 UNL     1      41.042  36.360  83.898  1.00  0.00     0.016 C 
ENDROOT
BRANCH   1   9
HETATM    9  C4  UNL     1      43.686  37.254  86.316  1.00  0.00     0.228 C 
HETATM   10  N1  UNL     1      43.841  38.670  86.442  1.00  0.00    -0.339 N 
ATOM     11  H1  UNL     1      43.607  39.246  85.632  1.00  0.00     0.164 HD
HETATM   12  O1  UNL     1      43.993  36.607  87.356  1.00  0.00    -0.273 OA
BRANCH  10  13
HETATM   13  C2  UNL     1      44.296  39.334  87.614  1.00  0.00     0.102 C 
HETATM   14  C1  UNL     1      44.739  40.751  87.317  1.00  0.00     0.056 C 
HETATM   15  C3  UNL     1      43.267  39.425  88.716  1.00  0.00     0.056 C 
HETATM   16 CL1  UNL     1      45.726  38.521  88.341  1.00  0.00    -0.096 Cl
ENDBRANCH  10  13
ENDBRANCH   1   9
BRANCH   3  17
HETATM   17  C8  UNL     1      45.423  35.319  85.342  1.00  0.00     0.147 C 
BRANCH  17  18
HETATM   18  O2  UNL     1      46.471  35.542  84.469  1.00  0.00    -0.393 OA
ATOM     19  H2  UNL     1      47.303  35.731  84.887  1.00  0.00     0.210 HD
ENDBRANCH  17  18
BRANCH  17  20
HETATM   20  C9  UNL     1      45.611  33.868  85.808  1.00  0.00     0.196 C 
BRANCH  20  21
HETATM   21  O3  UNL     1      46.781  33.346  85.255  1.00  0.00    -0.398 OA
ATOM     22  H3  UNL     1      46.669  32.417  85.092  1.00  0.00     0.209 HD
ENDBRANCH  20  21
ENDBRANCH  17  20
ENDBRANCH   3  17
TORSDOF 6
ENDMDL
MODEL 4
REMARK VINA RESULT: -4.949407793      0.717      1.002
REMARK  6 active torsions:
REMARK  status: ('A' for Active; 'I' for Inactive)
REMARK    1  A    between atoms: C2_2  and  N1_5 
REMARK       I    between atoms: N1_5  and  C4_7 
REMARK    2  A    between atoms: C4_7  and  C5_9 
REMARK    3  A    between atoms: C7_11  and  C8_12 
REMARK    4  A    between atoms: C8_12  and  O2_13 
REMARK    5  A    between atoms: C8_12  and  C9_15 
REMARK    6  A    between atoms: C9_15  and  O3_16 
ROOT
HETATM    1  C5  UNL     1      42.912  35.610  85.240  1.00  0.00     0.050 C 
HETATM    2  C6  UNL     1      43.787  34.402  84.940  1.00  0.00     0.027 C 
HETATM    3  C7  UNL     1      41.537  35.036  85.477  1.00  0.00     0.035 C 
HETATM    4  C10 UNL     1      40.571  35.944  84.736  1.00  0.00     0.009 C 
HETATM    5  C11 UNL     1      41.368  36.685  83.710  1.00  0.00     0.010 C 
HETATM    6  C12 UNL     1      42.833  36.368  83.952  1.00  0.00    -0.031 C 
HETATM    7  C13 UNL     1      43.585  37.663  83.931  1.00  0.00     0.016 C 
HETATM    8  C14 UNL     1      43.314  35.571  82.755  1.00  0.00     0.016 C 
ENDROOT
BRANCH   1   9
HETATM    9  C4  UNL     1      43.477  36.319  86.368  1.00  0.00     0.228 C 
HETATM   10  N1  UNL     1      43.085  37.618  86.821  1.00  0.00    -0.339 N 
ATOM     11  H1  UNL     1      42.342  38.094  86.310  1.00  0.00     0.164 HD
HETATM   12  O1  UNL     1      44.400  35.791  87.048  1.00  0.00    -0.273 OA
BRANCH  10  13
HETATM   13  C2  UNL     1      43.658  38.293  87.934  1.00  0.00     0.102 C 
HETATM   14  C1  UNL     1      45.127  37.962  88.092  1.00  0.00     0.056 C 
HETATM   15  C3  UNL     1      43.560  39.798  87.865  1.00  0.00     0.056 C 
HETATM   16 CL1  UNL     1      42.884  37.820  89.486  1.00  0.00    -0.096 Cl
ENDBRANCH  10  13
ENDBRANCH   1   9
BRANCH   3  17
HETATM   17  C8  UNL     1      41.113  34.961  86.895  1.00  0.00     0.147 C 
BRANCH  17  18
HETATM   18  O2  UNL     1      40.688  33.711  87.306  1.00  0.00    -0.393 OA
ATOM     19  H2  UNL     1      40.282  33.693  88.165  1.00  0.00     0.210 HD
ENDBRANCH  17  18
BRANCH  17  20
HETATM   20  C9  UNL     1      39.865  35.850  87.012  1.00  0.00     0.196 C 
BRANCH  20  21
HETATM   21  O3  UNL     1      40.099  36.864  87.942  1.00  0.00    -0.398 OA
ATOM     22  H3  UNL     1      39.749  37.684  87.613  1.00  0.00     0.209 HD
ENDBRANCH  20  21
ENDBRANCH  17  20
ENDBRANCH   3  17
TORSDOF 6
ENDMDL
MODEL 5
REMARK VINA RESULT: -4.935704830      0.752      1.032
REMARK  6 active torsions:
REMARK  status: ('A' for Active; 'I' for Inactive)
REMARK    1  A    between atoms: C2_2  and  N1_5 
REMARK       I    between atoms: N1_5  and  C4_7 
REMARK    2  A    between atoms: C4_7  and  C5_9 
REMARK    3  A    between atoms: C7_11  and  C8_12 
REMARK    4  A    between atoms: C8_12  and  O2_13 
REMARK    5  A    between atoms: C8_12  and  C9_15 
REMARK    6  A    between atoms: C9_15  and  O3_16 
ROOT
HETATM    1  C5  UNL     1      42.893  35.611  85.246  1.00  0.00     0.050 C 
HETATM    2  C6  UNL     1      43.770  34.402  84.953  1.00  0.00     0.027 C 
HETATM    3  C7  UNL     1      41.516  35.038  85.472  1.00  0.00     0.035 C 
HETATM    4  C10 UNL     1      40.557  35.947  84.722  1.00  0.00     0.009 C 
HETATM    5  C11 UNL     1      41.364  36.686  83.702  1.00  0.00     0.010 C 
HETATM    6  C12 UNL     1      42.826  36.367  83.957  1.00  0.00    -0.031 C 
HETATM    7  C13 UNL     1      43.580  37.662  83.940  1.00  0.00     0.016 C 
HETATM    8  C14 UNL     1      43.316  35.570  82.764  1.00  0.00     0.016 C 
ENDROOT
BRANCH   1   9
HETATM    9  C4  UNL     1      43.450  36.320  86.378  1.00  0.00     0.228 C 
HETATM   10  N1  UNL     1      43.011  37.589  86.868  1.00  0.00    -0.339 N 
ATOM     11  H1  UNL     1      42.237  38.043  86.382  1.00  0.00     0.164 HD
HETATM   12  O1  UNL     1      44.410  35.819  87.027  1.00  0.00    -0.273 OA
BRANCH  10  13
HETATM   13  C2  UNL     1      43.577  38.265  87.984  1.00  0.00     0.102 C 
HETATM   14  C1  UNL     1      42.830  37.951  89.263  1.00  0.00     0.056 C 
HETATM   15  C3  UNL     1      45.028  37.936  88.239  1.00  0.00     0.056 C 
HETATM   16 CL1  UNL     1      43.501  40.052  87.804  1.00  0.00    -0.096 Cl
ENDBRANCH  10  13
ENDBRANCH   1   9
BRANCH   3  17
HETATM   17  C8  UNL     1      41.080  34.965  86.887  1.00  0.00     0.147 C 
BRANCH  17  18
HETATM   18  O2  UNL     1      40.688  33.708  87.306  1.00  0.00    -0.393 OA
ATOM     19  H2  UNL     1      40.553  33.626  88.243  1.00  0.00     0.210 HD
ENDBRANCH  17  18
BRANCH  17  20
HETATM   20  C9  UNL     1      39.806  35.818  86.982  1.00  0.00     0.196 C 
BRANCH  20  21
HETATM   21  O3  UNL     1      39.997  36.841  87.911  1.00  0.00    -0.398 OA
ATOM     22  H3  UNL     1      40.824  37.276  87.741  1.00  0.00     0.209 HD
ENDBRANCH  20  21
ENDBRANCH  17  20
ENDBRANCH   3  17
TORSDOF 6
ENDMDL
