MODEL 1
REMARK VINA RESULT: -7.910856847      0.000      0.000
REMARK  10 active torsions:
REMARK  status: ('A' for Active; 'I' for Inactive)
REMARK    1  A    between atoms: C2_2  and  C3_3 
REMARK    2  A    between atoms: C3_3  and  O2_5 
REMARK    3  A    between atoms: O2_5  and  C4_6 
REMARK    4  A    between atoms: C7_9  and  C8_10 
REMARK    5  A    between atoms: C8_10  and  O3_11 
REMARK    6  A    between atoms: O3_11  and  C9_12 
REMARK    7  A    between atoms: C9_12  and  C10_14 
REMARK       I    between atoms: C10_14  and  N1_16 
REMARK    8  A    between atoms: C22_29  and  O6_30 
REMARK    9  A    between atoms: O6_30  and  C23_31 
REMARK   10  A    between atoms: C23_31  and  C24_33 
ROOT
HETATM    1  C4  UNL     1      20.990  12.418  77.224  1.00  0.00     0.169 C 
HETATM    2  C5  UNL     1      19.879  11.776  76.483  1.00  0.00     0.041 C 
HETATM    3  C6  UNL     1      18.534  11.897  77.084  1.00  0.00     0.006 C 
HETATM    4  C7  UNL     1      18.479  11.350  78.458  1.00  0.00     0.015 C 
HETATM    5  C14 UNL     1      18.237  12.532  79.370  1.00  0.00     0.013 C 
HETATM    6  C15 UNL     1      17.830  13.713  78.543  1.00  0.00     0.005 C 
HETATM    7  C16 UNL     1      16.442  14.117  78.861  1.00  0.00    -0.043 C 
HETATM    8  C17 UNL     1      15.817  13.499  80.089  1.00  0.00     0.015 C 
HETATM    9  C18 UNL     1      16.320  15.620  79.111  1.00  0.00     0.015 C 
HETATM   10  C19 UNL     1      15.610  13.703  77.688  1.00  0.00     0.010 C 
HETATM   11  C20 UNL     1      16.530  13.148  76.669  1.00  0.00     0.014 C 
HETATM   12  C21 UNL     1      17.967  13.317  77.116  1.00  0.00    -0.003 C 
HETATM   13  C22 UNL     1      18.621  14.246  76.203  1.00  0.00     0.173 C 
HETATM   14  C26 UNL     1      20.058  14.634  76.417  1.00  0.00     0.190 A 
HETATM   15  O9  UNL     1      20.599  14.802  77.675  1.00  0.00    -0.364 OA
HETATM   16  C27 UNL     1      21.086  13.839  76.768  1.00  0.00     0.113 A 
HETATM   17  C28 UNL     1      22.528  14.203  76.355  1.00  0.00     0.051 C 
ENDROOT
BRANCH   4  18
HETATM   18  C8  UNL     1      17.401  10.294  78.643  1.00  0.00     0.184 C 
BRANCH  18  19
HETATM   19  O3  UNL     1      16.920   9.792  77.441  1.00  0.00    -0.313 OA
BRANCH  19  20
HETATM   20  C9  UNL     1      15.803   8.948  77.493  1.00  0.00     0.351 C 
HETATM   21  O4  UNL     1      15.927   7.796  78.016  1.00  0.00    -0.254 OA
BRANCH  20  22
HETATM   22  C10 UNL     1      14.522   9.367  76.964  1.00  0.00     0.321 C 
HETATM   23  O5  UNL     1      13.974   8.752  76.020  1.00  0.00    -0.261 OA
HETATM   24  N1  UNL     1      13.870  10.489  77.516  1.00  0.00    -0.327 N 
HETATM   25  C11 UNL     1      13.321  10.547  78.663  1.00  0.00    -0.018 C 
ATOM     26  H1  UNL     1      13.835  11.333  76.943  1.00  0.00     0.168 HD
HETATM   27  C12 UNL     1      12.667  11.791  79.129  1.00  0.00     0.062 C 
HETATM   28  C13 UNL     1      13.316   9.373  79.573  1.00  0.00     0.062 C 
ENDBRANCH  20  22
ENDBRANCH  19  20
ENDBRANCH  18  19
ENDBRANCH   4  18
BRANCH   1  29
HETATM   29  O2  UNL     1      22.171  11.658  76.915  1.00  0.00    -0.313 OA
BRANCH  29  30
HETATM   30  C3  UNL     1      22.970  11.083  77.865  1.00  0.00     0.258 C 
HETATM   31  O1  UNL     1      22.458  10.258  78.658  1.00  0.00    -0.265 OA
BRANCH  30  32
HETATM   32  C2  UNL     1      24.425  11.393  77.999  1.00  0.00     0.106 C 
HETATM   33  C1  UNL     1      25.027  10.356  78.932  1.00  0.00     0.015 C 
ENDBRANCH  30  32
ENDBRANCH  29  30
ENDBRANCH   1  29
BRANCH  13  34
HETATM   34  O6  UNL     1      17.822  15.391  75.983  1.00  0.00    -0.306 OA
BRANCH  34  35
HETATM   35  C23 UNL     1      18.158  16.330  75.047  1.00  0.00     0.329 C 
HETATM   36  O7  UNL     1      18.136  15.986  73.861  1.00  0.00    -0.256 OA
BRANCH  35  37
HETATM   37  C24 UNL     1      18.537  17.696  75.344  1.00  0.00     0.220 C 
HETATM   38  C25 UNL     1      17.727  18.615  76.173  1.00  0.00     0.103 C 
HETATM   39  O8  UNL     1      19.614  18.125  74.871  1.00  0.00    -0.287 OA
ENDBRANCH  35  37
ENDBRANCH  34  35
ENDBRANCH  13  34
TORSDOF 10
ENDMDL
MODEL 2
REMARK VINA RESULT: -7.799660156      1.294      1.923
REMARK  10 active torsions:
REMARK  status: ('A' for Active; 'I' for Inactive)
REMARK    1  A    between atoms: C2_2  and  C3_3 
REMARK    2  A    between atoms: C3_3  and  O2_5 
REMARK    3  A    between atoms: O2_5  and  C4_6 
REMARK    4  A    between atoms: C7_9  and  C8_10 
REMARK    5  A    between atoms: C8_10  and  O3_11 
REMARK    6  A    between atoms: O3_11  and  C9_12 
REMARK    7  A    between atoms: C9_12  and  C10_14 
REMARK       I    between atoms: C10_14  and  N1_16 
REMARK    8  A    between atoms: C22_29  and  O6_30 
REMARK    9  A    between atoms: O6_30  and  C23_31 
REMARK   10  A    between atoms: C23_31  and  C24_33 
ROOT
HETATM    1  C4  UNL     1      20.652  11.942  77.394  1.00  0.00     0.169 C 
HETATM    2  C5  UNL     1      19.462  11.400  76.697  1.00  0.00     0.041 C 
HETATM    3  C6  UNL     1      18.152  11.696  77.312  1.00  0.00     0.006 C 
HETATM    4  C7  UNL     1      18.062  11.212  78.708  1.00  0.00     0.015 C 
HETATM    5  C14 UNL     1      17.971  12.448  79.574  1.00  0.00     0.013 C 
HETATM    6  C15 UNL     1      17.683  13.635  78.705  1.00  0.00     0.005 C 
HETATM    7  C16 UNL     1      16.354  14.205  79.026  1.00  0.00    -0.043 C 
HETATM    8  C17 UNL     1      15.688  13.709  80.288  1.00  0.00     0.015 C 
HETATM    9  C18 UNL     1      16.406  15.721  79.216  1.00  0.00     0.015 C 
HETATM   10  C19 UNL     1      15.459  13.841  77.883  1.00  0.00     0.010 C 
HETATM   11  C20 UNL     1      16.292  13.146  76.875  1.00  0.00     0.014 C 
HETATM   12  C21 UNL     1      17.747  13.170  77.294  1.00  0.00    -0.003 C 
HETATM   13  C22 UNL     1      18.484  13.984  76.334  1.00  0.00     0.173 C 
HETATM   14  C26 UNL     1      19.958  14.216  76.511  1.00  0.00     0.190 A 
HETATM   15  O9  UNL     1      20.539  14.371  77.753  1.00  0.00    -0.364 OA
HETATM   16  C27 UNL     1      20.898  13.324  76.879  1.00  0.00     0.113 A 
HETATM   17  C28 UNL     1      22.363  13.508  76.431  1.00  0.00     0.051 C 
ENDROOT
BRANCH   4  18
HETATM   18  C8  UNL     1      16.877  10.292  78.951  1.00  0.00     0.184 C 
BRANCH  18  19
HETATM   19  O3  UNL     1      16.722   9.331  77.962  1.00  0.00    -0.313 OA
BRANCH  19  20
HETATM   20  C9  UNL     1      15.422   8.879  77.695  1.00  0.00     0.351 C 
HETATM   21  O4  UNL     1      14.766   8.313  78.626  1.00  0.00    -0.254 OA
BRANCH  20  22
HETATM   22  C10 UNL     1      14.825   9.047  76.388  1.00  0.00     0.321 C 
HETATM   23  O5  UNL     1      14.991  10.099  75.727  1.00  0.00    -0.261 OA
HETATM   24  N1  UNL     1      14.038   8.014  75.839  1.00  0.00    -0.327 N 
HETATM   25  C11 UNL     1      14.467   6.896  75.406  1.00  0.00    -0.018 C 
ATOM     26  H1  UNL     1      13.033   8.177  75.783  1.00  0.00     0.168 HD
HETATM   27  C12 UNL     1      13.534   5.889  74.851  1.00  0.00     0.062 C 
HETATM   28  C13 UNL     1      15.914   6.562  75.441  1.00  0.00     0.062 C 
ENDBRANCH  20  22
ENDBRANCH  19  20
ENDBRANCH  18  19
ENDBRANCH   4  18
BRANCH   1  29
HETATM   29  O2  UNL     1      21.735  11.043  77.100  1.00  0.00    -0.313 OA
BRANCH  29  30
HETATM   30  C3  UNL     1      22.143  10.048  77.945  1.00  0.00     0.258 C 
HETATM   31  O1  UNL     1      21.283   9.477  78.656  1.00  0.00    -0.265 OA
BRANCH  30  32
HETATM   32  C2  UNL     1      23.567   9.611  78.057  1.00  0.00     0.106 C 
HETATM   33  C1  UNL     1      24.410  10.859  78.263  1.00  0.00     0.015 C 
ENDBRANCH  30  32
ENDBRANCH  29  30
ENDBRANCH   1  29
BRANCH  13  34
HETATM   34  O6  UNL     1      17.814  15.202  76.078  1.00  0.00    -0.306 OA
BRANCH  34  35
HETATM   35  C23 UNL     1      18.243  16.067  75.110  1.00  0.00     0.329 C 
HETATM   36  O7  UNL     1      18.221  15.670  73.942  1.00  0.00    -0.256 OA
BRANCH  35  37
HETATM   37  C24 UNL     1      18.721  17.412  75.355  1.00  0.00     0.220 C 
HETATM   38  C25 UNL     1      17.840  18.596  75.449  1.00  0.00     0.103 C 
HETATM   39  O8  UNL     1      19.953  17.583  75.496  1.00  0.00    -0.287 OA
ENDBRANCH  35  37
ENDBRANCH  34  35
ENDBRANCH  13  34
TORSDOF 10
ENDMDL
MODEL 3
REMARK VINA RESULT: -7.730904707      1.373      2.144
REMARK  10 active torsions:
REMARK  status: ('A' for Active; 'I' for Inactive)
REMARK    1  A    between atoms: C2_2  and  C3_3 
REMARK    2  A    between atoms: C3_3  and  O2_5 
REMARK    3  A    between atoms: O2_5  and  C4_6 
REMARK    4  A    between atoms: C7_9  and  C8_10 
REMARK    5  A    between atoms: C8_10  and  O3_11 
REMARK    6  A    between atoms: O3_11  and  C9_12 
REMARK    7  A    between atoms: C9_12  and  C10_14 
REMARK       I    between atoms: C10_14  and  N1_16 
REMARK    8  A    between atoms: C22_29  and  O6_30 
REMARK    9  A    between atoms: O6_30  and  C23_31 
REMARK   10  A    between atoms: C23_31  and  C24_33 
ROOT
HETATM    1  C4  UNL     1      20.726  12.050  77.302  1.00  0.00     0.169 C 
HETATM    2  C5  UNL     1      19.570  11.488  76.566  1.00  0.00     0.041 C 
HETATM    3  C6  UNL     1      18.240  11.702  77.174  1.00  0.00     0.006 C 
HETATM    4  C7  UNL     1      18.154  11.158  78.548  1.00  0.00     0.015 C 
HETATM    5  C14 UNL     1      17.999  12.353  79.462  1.00  0.00     0.013 C 
HETATM    6  C15 UNL     1      17.672  13.561  78.638  1.00  0.00     0.005 C 
HETATM    7  C16 UNL     1      16.316  14.061  78.963  1.00  0.00    -0.043 C 
HETATM    8  C17 UNL     1      15.656  13.486  80.194  1.00  0.00     0.015 C 
HETATM    9  C18 UNL     1      16.300  15.568  79.214  1.00  0.00     0.015 C 
HETATM   10  C19 UNL     1      15.452  13.707  77.794  1.00  0.00     0.010 C 
HETATM   11  C20 UNL     1      16.326  13.089  76.770  1.00  0.00     0.014 C 
HETATM   12  C21 UNL     1      17.773  13.157  77.210  1.00  0.00    -0.003 C 
HETATM   13  C22 UNL     1      18.486  14.040  76.294  1.00  0.00     0.173 C 
HETATM   14  C26 UNL     1      19.947  14.327  76.501  1.00  0.00     0.190 A 
HETATM   15  O9  UNL     1      20.505  14.455  77.757  1.00  0.00    -0.364 OA
HETATM   16  C27 UNL     1      20.919  13.461  76.846  1.00  0.00     0.113 A 
HETATM   17  C28 UNL     1      22.381  13.725  76.427  1.00  0.00     0.051 C 
ENDROOT
BRANCH   4  18
HETATM   18  C8  UNL     1      17.006  10.180  78.737  1.00  0.00     0.184 C 
BRANCH  18  19
HETATM   19  O3  UNL     1      16.587   9.597  77.550  1.00  0.00    -0.313 OA
BRANCH  19  20
HETATM   20  C9  UNL     1      15.251   9.179  77.468  1.00  0.00     0.351 C 
HETATM   21  O4  UNL     1      14.344  10.055  77.305  1.00  0.00    -0.254 OA
BRANCH  20  22
HETATM   22  C10 UNL     1      14.897   7.779  77.565  1.00  0.00     0.321 C 
HETATM   23  O5  UNL     1      13.940   7.398  78.278  1.00  0.00    -0.261 OA
HETATM   24  N1  UNL     1      15.638   6.818  76.848  1.00  0.00    -0.327 N 
HETATM   25  C11 UNL     1      15.621   6.648  75.586  1.00  0.00    -0.018 C 
ATOM     26  H1  UNL     1      16.243   6.201  77.390  1.00  0.00     0.168 HD
HETATM   27  C12 UNL     1      16.450   5.599  74.951  1.00  0.00     0.062 C 
HETATM   28  C13 UNL     1      14.771   7.492  74.709  1.00  0.00     0.062 C 
ENDBRANCH  20  22
ENDBRANCH  19  20
ENDBRANCH  18  19
ENDBRANCH   4  18
BRANCH   1  29
HETATM   29  O2  UNL     1      21.851  11.210  76.987  1.00  0.00    -0.313 OA
BRANCH  29  30
HETATM   30  C3  UNL     1      22.277  10.186  77.786  1.00  0.00     0.258 C 
HETATM   31  O1  UNL     1      21.462   9.676  78.591  1.00  0.00    -0.265 OA
BRANCH  30  32
HETATM   32  C2  UNL     1      23.671   9.648  77.743  1.00  0.00     0.106 C 
HETATM   33  C1  UNL     1      24.580  10.694  78.366  1.00  0.00     0.015 C 
ENDBRANCH  30  32
ENDBRANCH  29  30
ENDBRANCH   1  29
BRANCH  13  34
HETATM   34  O6  UNL     1      17.768  15.238  76.079  1.00  0.00    -0.306 OA
BRANCH  34  35
HETATM   35  C23 UNL     1      18.178  16.165  75.160  1.00  0.00     0.329 C 
HETATM   36  O7  UNL     1      18.197  15.822  73.975  1.00  0.00    -0.256 OA
BRANCH  35  37
HETATM   37  C24 UNL     1      18.591  17.516  75.477  1.00  0.00     0.220 C 
HETATM   38  C25 UNL     1      17.828  18.427  76.357  1.00  0.00     0.103 C 
HETATM   39  O8  UNL     1      19.658  17.939  74.975  1.00  0.00    -0.287 OA
ENDBRANCH  35  37
ENDBRANCH  34  35
ENDBRANCH  13  34
TORSDOF 10
ENDMDL
MODEL 4
REMARK VINA RESULT: -7.708853710      1.442      1.673
REMARK  10 active torsions:
REMARK  status: ('A' for Active; 'I' for Inactive)
REMARK    1  A    between atoms: C2_2  and  C3_3 
REMARK    2  A    between atoms: C3_3  and  O2_5 
REMARK    3  A    between atoms: O2_5  and  C4_6 
REMARK    4  A    between atoms: C7_9  and  C8_10 
REMARK    5  A    between atoms: C8_10  and  O3_11 
REMARK    6  A    between atoms: O3_11  and  C9_12 
REMARK    7  A    between atoms: C9_12  and  C10_14 
REMARK       I    between atoms: C10_14  and  N1_16 
REMARK    8  A    between atoms: C22_29  and  O6_30 
REMARK    9  A    between atoms: O6_30  and  C23_31 
REMARK   10  A    between atoms: C23_31  and  C24_33 
ROOT
HETATM    1  C4  UNL     1      20.842  11.873  77.297  1.00  0.00     0.169 C 
HETATM    2  C5  UNL     1      19.692  11.366  76.512  1.00  0.00     0.041 C 
HETATM    3  C6  UNL     1      18.353  11.581  77.098  1.00  0.00     0.006 C 
HETATM    4  C7  UNL     1      18.224  10.981  78.445  1.00  0.00     0.015 C 
HETATM    5  C14 UNL     1      18.071  12.139  79.406  1.00  0.00     0.013 C 
HETATM    6  C15 UNL     1      17.786  13.387  78.627  1.00  0.00     0.005 C 
HETATM    7  C16 UNL     1      16.433  13.900  78.942  1.00  0.00    -0.043 C 
HETATM    8  C17 UNL     1      15.734  13.287  80.133  1.00  0.00     0.015 C 
HETATM    9  C18 UNL     1      16.440  15.396  79.258  1.00  0.00     0.015 C 
HETATM   10  C19 UNL     1      15.590  13.614  77.740  1.00  0.00     0.010 C 
HETATM   11  C20 UNL     1      16.476  13.023  76.711  1.00  0.00     0.014 C 
HETATM   12  C21 UNL     1      17.913  13.043  77.186  1.00  0.00    -0.003 C 
HETATM   13  C22 UNL     1      18.664  13.949  76.325  1.00  0.00     0.173 C 
HETATM   14  C26 UNL     1      20.125  14.197  76.578  1.00  0.00     0.190 A 
HETATM   15  O9  UNL     1      20.656  14.261  77.849  1.00  0.00    -0.364 OA
HETATM   16  C27 UNL     1      21.072  13.299  76.907  1.00  0.00     0.113 A 
HETATM   17  C28 UNL     1      22.548  13.550  76.532  1.00  0.00     0.051 C 
ENDROOT
BRANCH   4  18
HETATM   18  C8  UNL     1      17.053  10.020  78.566  1.00  0.00     0.184 C 
BRANCH  18  19
HETATM   19  O3  UNL     1      17.168   9.157  79.648  1.00  0.00    -0.313 OA
BRANCH  19  20
HETATM   20  C9  UNL     1      16.982   7.789  79.408  1.00  0.00     0.351 C 
HETATM   21  O4  UNL     1      17.814   6.961  79.898  1.00  0.00    -0.254 OA
BRANCH  20  22
HETATM   22  C10 UNL     1      15.866   7.311  78.619  1.00  0.00     0.321 C 
HETATM   23  O5  UNL     1      16.042   6.568  77.626  1.00  0.00    -0.261 OA
HETATM   24  N1  UNL     1      14.552   7.686  78.966  1.00  0.00    -0.327 N 
HETATM   25  C11 UNL     1      13.900   7.277  79.981  1.00  0.00    -0.018 C 
ATOM     26  H1  UNL     1      14.080   8.345  78.346  1.00  0.00     0.168 HD
HETATM   27  C12 UNL     1      12.520   7.749  80.236  1.00  0.00     0.062 C 
HETATM   28  C13 UNL     1      14.498   6.316  80.941  1.00  0.00     0.062 C 
ENDBRANCH  20  22
ENDBRANCH  19  20
ENDBRANCH  18  19
ENDBRANCH   4  18
BRANCH   1  29
HETATM   29  O2  UNL     1      21.957  11.025  76.971  1.00  0.00    -0.313 OA
BRANCH  29  30
HETATM   30  C3  UNL     1      22.385  10.000  77.769  1.00  0.00     0.258 C 
HETATM   31  O1  UNL     1      21.552   9.433  78.515  1.00  0.00    -0.265 OA
BRANCH  30  32
HETATM   32  C2  UNL     1      23.802   9.527  77.791  1.00  0.00     0.106 C 
HETATM   33  C1  UNL     1      24.622  10.583  78.513  1.00  0.00     0.015 C 
ENDBRANCH  30  32
ENDBRANCH  29  30
ENDBRANCH   1  29
BRANCH  13  34
HETATM   34  O6  UNL     1      17.974  15.170  76.145  1.00  0.00    -0.306 OA
BRANCH  34  35
HETATM   35  C23 UNL     1      18.321  16.050  75.158  1.00  0.00     0.329 C 
HETATM   36  O7  UNL     1      18.214  15.666  73.989  1.00  0.00    -0.256 OA
BRANCH  35  37
HETATM   37  C24 UNL     1      18.802  17.397  75.382  1.00  0.00     0.220 C 
HETATM   38  C25 UNL     1      17.931  18.592  75.400  1.00  0.00     0.103 C 
HETATM   39  O8  UNL     1      20.029  17.561  75.572  1.00  0.00    -0.287 OA
ENDBRANCH  35  37
ENDBRANCH  34  35
ENDBRANCH  13  34
TORSDOF 10
ENDMDL
MODEL 5
REMARK VINA RESULT: -7.686419908      2.833      6.628
REMARK  10 active torsions:
REMARK  status: ('A' for Active; 'I' for Inactive)
REMARK    1  A    between atoms: C2_2  and  C3_3 
REMARK    2  A    between atoms: C3_3  and  O2_5 
REMARK    3  A    between atoms: O2_5  and  C4_6 
REMARK    4  A    between atoms: C7_9  and  C8_10 
REMARK    5  A    between atoms: C8_10  and  O3_11 
REMARK    6  A    between atoms: O3_11  and  C9_12 
REMARK    7  A    between atoms: C9_12  and  C10_14 
REMARK       I    between atoms: C10_14  and  N1_16 
REMARK    8  A    between atoms: C22_29  and  O6_30 
REMARK    9  A    between atoms: O6_30  and  C23_31 
REMARK   10  A    between atoms: C23_31  and  C24_33 
ROOT
HETATM    1  C4  UNL     1      16.456  12.553  78.630  1.00  0.00     0.169 C 
HETATM    2  C5  UNL     1      17.851  12.940  78.947  1.00  0.00     0.041 C 
HETATM    3  C6  UNL     1      18.513  13.848  77.988  1.00  0.00     0.006 C 
HETATM    4  C7  UNL     1      18.544  13.294  76.616  1.00  0.00     0.015 C 
HETATM    5  C14 UNL     1      17.651  14.186  75.783  1.00  0.00     0.013 C 
HETATM    6  C15 UNL     1      17.348  15.434  76.555  1.00  0.00     0.005 C 
HETATM    7  C16 UNL     1      17.925  16.618  75.878  1.00  0.00    -0.043 C 
HETATM    8  C17 UNL     1      18.431  16.416  74.469  1.00  0.00     0.015 C 
HETATM    9  C18 UNL     1      16.914  17.755  75.740  1.00  0.00     0.015 C 
HETATM   10  C19 UNL     1      19.095  17.043  76.710  1.00  0.00     0.010 C 
HETATM   11  C20 UNL     1      19.132  16.164  77.901  1.00  0.00     0.014 C 
HETATM   12  C21 UNL     1      17.920  15.256  77.917  1.00  0.00    -0.003 C 
HETATM   13  C22 UNL     1      17.095  15.619  79.063  1.00  0.00     0.173 C 
HETATM   14  C26 UNL     1      15.798  14.903  79.320  1.00  0.00     0.190 A 
HETATM   15  O9  UNL     1      14.970  14.482  78.300  1.00  0.00    -0.364 OA
HETATM   16  C27 UNL     1      15.547  13.584  79.220  1.00  0.00     0.113 A 
HETATM   17  C28 UNL     1      14.437  12.935  80.073  1.00  0.00     0.051 C 
ENDROOT
BRANCH   4  18
HETATM   18  C8  UNL     1      19.943  13.228  76.025  1.00  0.00     0.184 C 
BRANCH  18  19
HETATM   19  O3  UNL     1      20.934  13.573  76.934  1.00  0.00    -0.313 OA
BRANCH  19  20
HETATM   20  C9  UNL     1      22.231  13.764  76.438  1.00  0.00     0.351 C 
HETATM   21  O4  UNL     1      22.382  14.379  75.335  1.00  0.00    -0.254 OA
BRANCH  20  22
HETATM   22  C10 UNL     1      23.388  13.277  77.158  1.00  0.00     0.321 C 
HETATM   23  O5  UNL     1      24.056  14.031  77.904  1.00  0.00    -0.261 OA
HETATM   24  N1  UNL     1      23.779  11.929  77.025  1.00  0.00    -0.327 N 
HETATM   25  C11 UNL     1      23.164  10.920  77.499  1.00  0.00    -0.018 C 
ATOM     26  H1  UNL     1      24.635  11.746  76.500  1.00  0.00     0.168 HD
HETATM   27  C12 UNL     1      23.681   9.549  77.287  1.00  0.00     0.062 C 
HETATM   28  C13 UNL     1      21.911  11.082  78.279  1.00  0.00     0.062 C 
ENDBRANCH  20  22
ENDBRANCH  19  20
ENDBRANCH  18  19
ENDBRANCH   4  18
BRANCH   1  29
HETATM   29  O2  UNL     1      16.259  11.250  79.205  1.00  0.00    -0.313 OA
BRANCH  29  30
HETATM   30  C3  UNL     1      16.706  10.093  78.628  1.00  0.00     0.258 C 
HETATM   31  O1  UNL     1      16.545   9.938  77.395  1.00  0.00    -0.265 OA
BRANCH  30  32
HETATM   32  C2  UNL     1      17.377   9.005  79.403  1.00  0.00     0.106 C 
HETATM   33  C1  UNL     1      18.762   9.504  79.779  1.00  0.00     0.015 C 
ENDBRANCH  30  32
ENDBRANCH  29  30
ENDBRANCH   1  29
BRANCH  13  34
HETATM   34  O6  UNL     1      16.916  17.019  79.139  1.00  0.00    -0.306 OA
BRANCH  34  35
HETATM   35  C23 UNL     1      16.621  17.641  80.321  1.00  0.00     0.329 C 
HETATM   36  O7  UNL     1      17.367  17.425  81.280  1.00  0.00    -0.256 OA
BRANCH  35  37
HETATM   37  C24 UNL     1      15.499  18.533  80.529  1.00  0.00     0.220 C 
HETATM   38  C25 UNL     1      14.087  18.144  80.324  1.00  0.00     0.103 C 
HETATM   39  O8  UNL     1      15.738  19.703  80.904  1.00  0.00    -0.287 OA
ENDBRANCH  35  37
ENDBRANCH  34  35
ENDBRANCH  13  34
TORSDOF 10
ENDMDL
