MODEL 1
REMARK VINA RESULT: -8.009717337      0.000      0.000
REMARK  9 active torsions:
REMARK  status: ('A' for Active; 'I' for Inactive)
REMARK    1  A    between atoms: C2_2  and  C5_5 
REMARK    2  A    between atoms: C5_5  and  C6_6 
REMARK    3  A    between atoms: C6_6  and  C7_7 
REMARK    4  A    between atoms: C7_7  and  N1_8 
REMARK    5  A    between atoms: N1_8  and  C8_10 
REMARK    6  A    between atoms: C15_22  and  N4_23 
REMARK    7  A    between atoms: N4_23  and  C16_25 
REMARK    8  A    between atoms: C16_25  and  C17_26 
REMARK    9  A    between atoms: C17_26  and  N5_27 
ROOT
HETATM    1  C8  UNL     1      25.229 163.974 147.569  1.00  0.00     0.146 A 
HETATM    2  N2  UNL     1      24.165 163.351 147.030  1.00  0.00    -0.338 N 
ATOM      3  H2  UNL     1      23.255 163.809 147.084  1.00  0.00     0.167 HD
HETATM    4  C9  UNL     1      24.245 162.160 146.426  1.00  0.00     0.060 A 
HETATM    5  C10 UNL     1      23.092 161.592 145.898  1.00  0.00     0.033 A 
HETATM    6  C11 UNL     1      23.162 160.349 145.266  1.00  0.00     0.026 A 
HETATM    7  C12 UNL     1      24.376 159.689 145.169  1.00  0.00     0.036 A 
HETATM    8 CL1  UNL     1      24.460 158.127 144.374  1.00  0.00    -0.084 Cl
HETATM    9  C13 UNL     1      25.497 160.298 145.712  1.00  0.00     0.055 A 
HETATM   10  C14 UNL     1      25.457 161.512 146.335  1.00  0.00     0.062 A 
HETATM   11  N3  UNL     1      26.556 162.118 146.872  1.00  0.00    -0.338 N 
ATOM     12  H3  UNL     1      27.463 161.653 146.814  1.00  0.00     0.167 HD
HETATM   13  C15 UNL     1      26.466 163.315 147.476  1.00  0.00     0.146 A 
ENDROOT
BRANCH  13  14
HETATM   14  N4  UNL     1      27.493 163.894 147.988  1.00  0.00    -0.371 N 
ATOM     15  H4  UNL     1      27.871 164.698 147.486  1.00  0.00     0.161 HD
BRANCH  14  16
HETATM   16  C16 UNL     1      28.158 163.509 149.207  1.00  0.00     0.151 C 
BRANCH  16  17
HETATM   17  C17 UNL     1      29.070 164.559 149.741  1.00  0.00     0.292 C 
BRANCH  17  18
HETATM   18  N5  UNL     1      28.954 164.739 151.153  1.00  0.00     0.092 N 
HETATM   19  C18 UNL     1      27.729 164.128 151.660  1.00  0.00     0.274 C 
HETATM   20  C19 UNL     1      27.693 164.336 153.152  1.00  0.00     0.056 C 
HETATM   21  C20 UNL     1      28.100 165.711 153.573  1.00  0.00     0.169 C 
HETATM   22  O1  UNL     1      29.341 166.112 153.156  1.00  0.00    -0.389 OA
HETATM   23  C21 UNL     1      30.287 165.117 153.094  1.00  0.00     0.198 C 
HETATM   24  C22 UNL     1      30.027 164.167 151.922  1.00  0.00     0.298 C 
ENDBRANCH  17  18
ENDBRANCH  16  17
ENDBRANCH  14  16
ENDBRANCH  13  14
BRANCH   1  25
HETATM   25  N1  UNL     1      25.162 165.124 148.150  1.00  0.00    -0.373 N 
ATOM     26  H1  UNL     1      25.137 165.180 149.168  1.00  0.00     0.161 HD
BRANCH  25  27
HETATM   27  C7  UNL     1      25.122 166.319 147.368  1.00  0.00     0.121 C 
BRANCH  27  28
HETATM   28  C6  UNL     1      25.615 167.533 148.125  1.00  0.00     0.020 C 
BRANCH  28  29
HETATM   29  C5  UNL     1      26.539 167.148 149.255  1.00  0.00     0.010 C 
BRANCH  29  30
HETATM   30  C2  UNL     1      26.345 168.017 150.471  1.00  0.00    -0.051 C 
HETATM   31  C1  UNL     1      25.463 167.321 151.488  1.00  0.00     0.014 C 
HETATM   32  C3  UNL     1      27.623 168.387 151.144  1.00  0.00     0.014 C 
HETATM   33  C4  UNL     1      25.620 169.299 150.080  1.00  0.00     0.014 C 
ENDBRANCH  29  30
ENDBRANCH  28  29
ENDBRANCH  27  28
ENDBRANCH  25  27
ENDBRANCH   1  25
TORSDOF 9
ENDMDL
MODEL 2
REMARK VINA RESULT: -7.809265265      0.656      1.218
REMARK  9 active torsions:
REMARK  status: ('A' for Active; 'I' for Inactive)
REMARK    1  A    between atoms: C2_2  and  C5_5 
REMARK    2  A    between atoms: C5_5  and  C6_6 
REMARK    3  A    between atoms: C6_6  and  C7_7 
REMARK    4  A    between atoms: C7_7  and  N1_8 
REMARK    5  A    between atoms: N1_8  and  C8_10 
REMARK    6  A    between atoms: C15_22  and  N4_23 
REMARK    7  A    between atoms: N4_23  and  C16_25 
REMARK    8  A    between atoms: C16_25  and  C17_26 
REMARK    9  A    between atoms: C17_26  and  N5_27 
ROOT
HETATM    1  C8  UNL     1      25.260 163.895 147.625  1.00  0.00     0.146 A 
HETATM    2  N2  UNL     1      24.237 163.327 146.962  1.00  0.00    -0.338 N 
ATOM      3  H2  UNL     1      23.355 163.835 146.903  1.00  0.00     0.167 HD
HETATM    4  C9  UNL     1      24.323 162.128 146.375  1.00  0.00     0.060 A 
HETATM    5  C10 UNL     1      23.213 161.620 145.711  1.00  0.00     0.033 A 
HETATM    6  C11 UNL     1      23.291 160.369 145.095  1.00  0.00     0.026 A 
HETATM    7  C12 UNL     1      24.468 159.642 145.149  1.00  0.00     0.036 A 
HETATM    8 CL1  UNL     1      24.561 158.071 144.374  1.00  0.00    -0.084 Cl
HETATM    9  C13 UNL     1      25.547 160.193 145.824  1.00  0.00     0.055 A 
HETATM   10  C14 UNL     1      25.499 161.414 146.435  1.00  0.00     0.062 A 
HETATM   11  N3  UNL     1      26.557 161.962 147.101  1.00  0.00    -0.338 N 
ATOM     12  H3  UNL     1      27.436 161.448 147.155  1.00  0.00     0.167 HD
HETATM   13  C15 UNL     1      26.460 163.168 147.687  1.00  0.00     0.146 A 
ENDROOT
BRANCH  13  14
HETATM   14  N4  UNL     1      27.448 163.694 148.320  1.00  0.00    -0.371 N 
ATOM     15  H4  UNL     1      27.326 164.648 148.661  1.00  0.00     0.161 HD
BRANCH  14  16
HETATM   16  C16 UNL     1      28.711 163.057 148.589  1.00  0.00     0.151 C 
BRANCH  16  17
HETATM   17  C17 UNL     1      28.839 162.565 149.989  1.00  0.00     0.292 C 
BRANCH  17  18
HETATM   18  N5  UNL     1      28.965 163.618 150.946  1.00  0.00     0.092 N 
HETATM   19  C18 UNL     1      29.915 164.629 150.491  1.00  0.00     0.274 C 
HETATM   20  C19 UNL     1      29.971 165.713 151.536  1.00  0.00     0.056 C 
HETATM   21  C20 UNL     1      30.013 165.191 152.935  1.00  0.00     0.169 C 
HETATM   22  O1  UNL     1      28.979 164.367 153.288  1.00  0.00    -0.389 OA
HETATM   23  C21 UNL     1      27.766 164.672 152.718  1.00  0.00     0.198 C 
HETATM   24  C22 UNL     1      27.743 164.324 151.227  1.00  0.00     0.298 C 
ENDBRANCH  17  18
ENDBRANCH  16  17
ENDBRANCH  14  16
ENDBRANCH  13  14
BRANCH   1  25
HETATM   25  N1  UNL     1      25.187 165.053 148.191  1.00  0.00    -0.373 N 
ATOM     26  H1  UNL     1      25.149 165.121 149.208  1.00  0.00     0.161 HD
BRANCH  25  27
HETATM   27  C7  UNL     1      25.158 166.237 147.394  1.00  0.00     0.121 C 
BRANCH  27  28
HETATM   28  C6  UNL     1      25.604 167.468 148.154  1.00  0.00     0.020 C 
BRANCH  28  29
HETATM   29  C5  UNL     1      26.549 167.117 149.278  1.00  0.00     0.010 C 
BRANCH  29  30
HETATM   30  C2  UNL     1      26.280 167.924 150.522  1.00  0.00    -0.051 C 
HETATM   31  C1  UNL     1      25.275 167.216 151.409  1.00  0.00     0.014 C 
HETATM   32  C3  UNL     1      27.503 168.190 151.332  1.00  0.00     0.014 C 
HETATM   33  C4  UNL     1      25.652 169.260 150.146  1.00  0.00     0.014 C 
ENDBRANCH  29  30
ENDBRANCH  28  29
ENDBRANCH  27  28
ENDBRANCH  25  27
ENDBRANCH   1  25
TORSDOF 9
ENDMDL
MODEL 3
REMARK VINA RESULT: -7.324956614      3.681      7.637
REMARK  9 active torsions:
REMARK  status: ('A' for Active; 'I' for Inactive)
REMARK    1  A    between atoms: C2_2  and  C5_5 
REMARK    2  A    between atoms: C5_5  and  C6_6 
REMARK    3  A    between atoms: C6_6  and  C7_7 
REMARK    4  A    between atoms: C7_7  and  N1_8 
REMARK    5  A    between atoms: N1_8  and  C8_10 
REMARK    6  A    between atoms: C15_22  and  N4_23 
REMARK    7  A    between atoms: N4_23  and  C16_25 
REMARK    8  A    between atoms: C16_25  and  C17_26 
REMARK    9  A    between atoms: C17_26  and  N5_27 
ROOT
HETATM    1  C8  UNL     1      28.788 165.520 153.180  1.00  0.00     0.146 A 
HETATM    2  N2  UNL     1      28.697 165.834 154.485  1.00  0.00    -0.338 N 
ATOM      3  H2  UNL     1      29.265 166.604 154.839  1.00  0.00     0.167 HD
HETATM    4  C9  UNL     1      27.897 165.186 155.338  1.00  0.00     0.060 A 
HETATM    5  C10 UNL     1      27.868 165.581 156.671  1.00  0.00     0.033 A 
HETATM    6  C11 UNL     1      27.038 164.912 157.571  1.00  0.00     0.026 A 
HETATM    7  C12 UNL     1      26.248 163.860 157.135  1.00  0.00     0.036 A 
HETATM    8 CL1  UNL     1      25.206 163.022 158.271  1.00  0.00    -0.084 Cl
HETATM    9  C13 UNL     1      26.314 163.505 155.797  1.00  0.00     0.055 A 
HETATM   10  C14 UNL     1      27.116 164.142 154.894  1.00  0.00     0.062 A 
HETATM   11  N3  UNL     1      27.186 163.797 153.575  1.00  0.00    -0.338 N 
ATOM     12  H3  UNL     1      26.615 163.026 153.228  1.00  0.00     0.167 HD
HETATM   13  C15 UNL     1      27.993 164.455 152.726  1.00  0.00     0.146 A 
ENDROOT
BRANCH  13  14
HETATM   14  N4  UNL     1      28.069 164.138 151.482  1.00  0.00    -0.371 N 
ATOM     15  H4  UNL     1      28.848 163.543 151.200  1.00  0.00     0.161 HD
BRANCH  14  16
HETATM   16  C16 UNL     1      27.151 164.549 150.450  1.00  0.00     0.151 C 
BRANCH  16  17
HETATM   17  C17 UNL     1      27.683 164.354 149.073  1.00  0.00     0.292 C 
BRANCH  17  18
HETATM   18  N5  UNL     1      26.749 163.726 148.193  1.00  0.00     0.092 N 
HETATM   19  C18 UNL     1      26.222 164.680 147.220  1.00  0.00     0.274 C 
HETATM   20  C19 UNL     1      25.270 163.939 146.317  1.00  0.00     0.056 C 
HETATM   21  C20 UNL     1      24.364 163.002 147.045  1.00  0.00     0.169 C 
HETATM   22  O1  UNL     1      24.988 162.053 147.810  1.00  0.00    -0.389 OA
HETATM   23  C21 UNL     1      26.178 161.586 147.307  1.00  0.00     0.198 C 
HETATM   24  C22 UNL     1      27.287 162.636 147.423  1.00  0.00     0.298 C 
ENDBRANCH  17  18
ENDBRANCH  16  17
ENDBRANCH  14  16
ENDBRANCH  13  14
BRANCH   1  25
HETATM   25  N1  UNL     1      29.555 166.142 152.349  1.00  0.00    -0.373 N 
ATOM     26  H1  UNL     1      30.103 165.615 151.669  1.00  0.00     0.161 HD
BRANCH  25  27
HETATM   27  C7  UNL     1      29.636 167.568 152.381  1.00  0.00     0.121 C 
BRANCH  27  28
HETATM   28  C6  UNL     1      28.311 168.239 152.086  1.00  0.00     0.020 C 
BRANCH  28  29
HETATM   29  C5  UNL     1      27.926 168.096 150.633  1.00  0.00     0.010 C 
BRANCH  29  30
HETATM   30  C2  UNL     1      26.470 168.406 150.397  1.00  0.00    -0.051 C 
HETATM   31  C1  UNL     1      26.177 169.859 150.711  1.00  0.00     0.014 C 
HETATM   32  C3  UNL     1      26.028 168.138 148.999  1.00  0.00     0.014 C 
HETATM   33  C4  UNL     1      25.606 167.580 151.341  1.00  0.00     0.014 C 
ENDBRANCH  29  30
ENDBRANCH  28  29
ENDBRANCH  27  28
ENDBRANCH  25  27
ENDBRANCH   1  25
TORSDOF 9
ENDMDL
MODEL 4
REMARK VINA RESULT: -7.313334865      1.931      4.079
REMARK  9 active torsions:
REMARK  status: ('A' for Active; 'I' for Inactive)
REMARK    1  A    between atoms: C2_2  and  C5_5 
REMARK    2  A    between atoms: C5_5  and  C6_6 
REMARK    3  A    between atoms: C6_6  and  C7_7 
REMARK    4  A    between atoms: C7_7  and  N1_8 
REMARK    5  A    between atoms: N1_8  and  C8_10 
REMARK    6  A    between atoms: C15_22  and  N4_23 
REMARK    7  A    between atoms: N4_23  and  C16_25 
REMARK    8  A    between atoms: C16_25  and  C17_26 
REMARK    9  A    between atoms: C17_26  and  N5_27 
ROOT
HETATM    1  C8  UNL     1      26.046 162.793 147.224  1.00  0.00     0.146 A 
HETATM    2  N2  UNL     1      25.476 162.091 146.228  1.00  0.00    -0.338 N 
ATOM      3  H2  UNL     1      26.065 161.474 145.670  1.00  0.00     0.167 HD
HETATM    4  C9  UNL     1      24.172 162.164 145.936  1.00  0.00     0.060 A 
HETATM    5  C10 UNL     1      23.670 161.402 144.889  1.00  0.00     0.033 A 
HETATM    6  C11 UNL     1      22.312 161.470 144.574  1.00  0.00     0.026 A 
HETATM    7  C12 UNL     1      21.473 162.295 145.305  1.00  0.00     0.036 A 
HETATM    8 CL1  UNL     1      19.766 162.377 144.906  1.00  0.00    -0.084 Cl
HETATM    9  C13 UNL     1      22.022 163.035 146.340  1.00  0.00     0.055 A 
HETATM   10  C14 UNL     1      23.346 162.988 146.669  1.00  0.00     0.062 A 
HETATM   11  N3  UNL     1      23.894 163.714 147.687  1.00  0.00    -0.338 N 
ATOM     12  H3  UNL     1      23.298 164.330 148.241  1.00  0.00     0.167 HD
HETATM   13  C15 UNL     1      25.205 163.633 147.972  1.00  0.00     0.146 A 
ENDROOT
BRANCH  13  14
HETATM   14  N4  UNL     1      25.733 164.314 148.927  1.00  0.00    -0.371 N 
ATOM     15  H4  UNL     1      26.539 163.904 149.399  1.00  0.00     0.161 HD
BRANCH  14  16
HETATM   16  C16 UNL     1      25.289 165.605 149.388  1.00  0.00     0.151 C 
BRANCH  16  17
HETATM   17  C17 UNL     1      26.155 166.727 148.930  1.00  0.00     0.292 C 
BRANCH  17  18
HETATM   18  N5  UNL     1      26.599 167.566 149.997  1.00  0.00     0.092 N 
HETATM   19  C18 UNL     1      25.793 168.781 150.079  1.00  0.00     0.274 C 
HETATM   20  C19 UNL     1      26.302 169.596 151.239  1.00  0.00     0.056 C 
HETATM   21  C20 UNL     1      27.793 169.653 151.318  1.00  0.00     0.169 C 
HETATM   22  O1  UNL     1      28.427 168.442 151.389  1.00  0.00    -0.389 OA
HETATM   23  C21 UNL     1      27.751 167.467 152.083  1.00  0.00     0.198 C 
HETATM   24  C22 UNL     1      26.534 166.963 151.302  1.00  0.00     0.298 C 
ENDBRANCH  17  18
ENDBRANCH  16  17
ENDBRANCH  14  16
ENDBRANCH  13  14
BRANCH   1  25
HETATM   25  N1  UNL     1      27.301 162.726 147.514  1.00  0.00    -0.373 N 
ATOM     26  H1  UNL     1      27.692 161.861 147.888  1.00  0.00     0.161 HD
BRANCH  25  27
HETATM   27  C7  UNL     1      28.144 163.861 147.312  1.00  0.00     0.121 C 
BRANCH  27  28
HETATM   28  C6  UNL     1      29.295 163.921 148.294  1.00  0.00     0.020 C 
BRANCH  28  29
HETATM   29  C5  UNL     1      28.911 164.652 149.558  1.00  0.00     0.010 C 
BRANCH  29  30
HETATM   30  C2  UNL     1      29.175 163.830 150.794  1.00  0.00    -0.051 C 
HETATM   31  C1  UNL     1      30.388 164.356 151.534  1.00  0.00     0.014 C 
HETATM   32  C3  UNL     1      28.027 163.806 151.745  1.00  0.00     0.014 C 
HETATM   33  C4  UNL     1      29.502 162.395 150.400  1.00  0.00     0.014 C 
ENDBRANCH  29  30
ENDBRANCH  28  29
ENDBRANCH  27  28
ENDBRANCH  25  27
ENDBRANCH   1  25
TORSDOF 9
ENDMDL
MODEL 5
REMARK VINA RESULT: -7.177244436      1.594      4.058
REMARK  9 active torsions:
REMARK  status: ('A' for Active; 'I' for Inactive)
REMARK    1  A    between atoms: C2_2  and  C5_5 
REMARK    2  A    between atoms: C5_5  and  C6_6 
REMARK    3  A    between atoms: C6_6  and  C7_7 
REMARK    4  A    between atoms: C7_7  and  N1_8 
REMARK    5  A    between atoms: N1_8  and  C8_10 
REMARK    6  A    between atoms: C15_22  and  N4_23 
REMARK    7  A    between atoms: N4_23  and  C16_25 
REMARK    8  A    between atoms: C16_25  and  C17_26 
REMARK    9  A    between atoms: C17_26  and  N5_27 
ROOT
HETATM    1  C8  UNL     1      27.551 162.774 147.764  1.00  0.00     0.146 A 
HETATM    2  N2  UNL     1      27.186 161.711 147.025  1.00  0.00    -0.338 N 
ATOM      3  H2  UNL     1      27.904 161.041 146.750  1.00  0.00     0.167 HD
HETATM    4  C9  UNL     1      25.925 161.490 146.636  1.00  0.00     0.060 A 
HETATM    5  C10 UNL     1      25.640 160.363 145.874  1.00  0.00     0.033 A 
HETATM    6  C11 UNL     1      24.328 160.123 145.462  1.00  0.00     0.026 A 
HETATM    7  C12 UNL     1      23.320 161.005 145.811  1.00  0.00     0.036 A 
HETATM    8 CL1  UNL     1      21.672 160.699 145.290  1.00  0.00    -0.084 Cl
HETATM    9  C13 UNL     1      23.656 162.115 146.572  1.00  0.00     0.055 A 
HETATM   10  C14 UNL     1      24.929 162.374 146.989  1.00  0.00     0.062 A 
HETATM   11  N3  UNL     1      25.268 163.464 147.738  1.00  0.00    -0.338 N 
ATOM     12  H3  UNL     1      24.544 164.130 148.010  1.00  0.00     0.167 HD
HETATM   13  C15 UNL     1      26.537 163.676 148.125  1.00  0.00     0.146 A 
ENDROOT
BRANCH  13  14
HETATM   14  N4  UNL     1      26.869 164.700 148.828  1.00  0.00    -0.371 N 
ATOM     15  H4  UNL     1      27.866 164.856 148.980  1.00  0.00     0.161 HD
BRANCH  14  16
HETATM   16  C16 UNL     1      25.958 165.646 149.420  1.00  0.00     0.151 C 
BRANCH  16  17
HETATM   17  C17 UNL     1      26.208 167.053 148.998  1.00  0.00     0.292 C 
BRANCH  17  18
HETATM   18  N5  UNL     1      26.549 167.914 150.084  1.00  0.00     0.092 N 
HETATM   19  C18 UNL     1      25.707 169.108 150.091  1.00  0.00     0.274 C 
HETATM   20  C19 UNL     1      26.108 169.948 151.276  1.00  0.00     0.056 C 
HETATM   21  C20 UNL     1      27.586 170.047 151.464  1.00  0.00     0.169 C 
HETATM   22  O1  UNL     1      28.245 168.854 151.596  1.00  0.00    -0.389 OA
HETATM   23  C21 UNL     1      27.546 167.869 152.251  1.00  0.00     0.198 C 
HETATM   24  C22 UNL     1      26.404 167.324 151.388  1.00  0.00     0.298 C 
ENDBRANCH  17  18
ENDBRANCH  16  17
ENDBRANCH  14  16
ENDBRANCH  13  14
BRANCH   1  25
HETATM   25  N1  UNL     1      28.764 162.992 148.146  1.00  0.00    -0.373 N 
ATOM     26  H1  UNL     1      29.263 163.818 147.813  1.00  0.00     0.161 HD
BRANCH  25  27
HETATM   27  C7  UNL     1      29.409 162.079 149.035  1.00  0.00     0.121 C 
BRANCH  27  28
HETATM   28  C6  UNL     1      29.159 162.401 150.493  1.00  0.00     0.020 C 
BRANCH  28  29
HETATM   29  C5  UNL     1      30.226 163.311 151.053  1.00  0.00     0.010 C 
BRANCH  29  30
HETATM   30  C2  UNL     1      29.642 164.506 151.761  1.00  0.00    -0.051 C 
HETATM   31  C1  UNL     1      28.183 164.268 152.093  1.00  0.00     0.014 C 
HETATM   32  C3  UNL     1      30.353 164.851 153.025  1.00  0.00     0.014 C 
HETATM   33  C4  UNL     1      29.680 165.721 150.842  1.00  0.00     0.014 C 
ENDBRANCH  29  30
ENDBRANCH  28  29
ENDBRANCH  27  28
ENDBRANCH  25  27
ENDBRANCH   1  25
TORSDOF 9
ENDMDL
