MODEL 1
REMARK VINA RESULT: -8.865836549      0.000      0.000
REMARK  8 active torsions:
REMARK  status: ('A' for Active; 'I' for Inactive)
REMARK    1  A    between atoms: C2_2  and  N1_4 
REMARK    2  A    between atoms: N2_7  and  C5_8 
REMARK    3  A    between atoms: C5_8  and  C6_9 
REMARK    4  A    between atoms: C6_9  and  C7_10 
REMARK    5  A    between atoms: C7_10  and  C8_11 
REMARK       I    between atoms: C8_11  and  N3_13 
REMARK    6  A    between atoms: N3_13  and  C9_15 
REMARK    7  A    between atoms: C9_15  and  N4_17 
REMARK    8  A    between atoms: N4_17  and  C10_19 
ROOT
HETATM    1  C8  UNL     1      25.546 166.091 150.130  1.00  0.00     0.223 C 
HETATM    2  O1  UNL     1      24.791 165.280 150.710  1.00  0.00    -0.273 OA
HETATM    3  N3  UNL     1      25.912 166.028 148.764  1.00  0.00    -0.304 N 
ATOM      4  H3  UNL     1      26.536 166.756 148.417  1.00  0.00     0.171 HD
ENDROOT
BRANCH   3   5
HETATM    5  C9  UNL     1      25.499 165.069 147.855  1.00  0.00     0.174 C 
HETATM    6  S1  UNL     1      26.010 165.255 146.286  1.00  0.00    -0.041 SA
BRANCH   5   7
HETATM    7  N4  UNL     1      24.689 163.977 148.134  1.00  0.00    -0.362 N 
ATOM      8  H4  UNL     1      24.271 163.900 149.062  1.00  0.00     0.162 HD
BRANCH   7   9
HETATM    9  C10 UNL     1      24.408 162.923 147.139  1.00  0.00     0.083 C 
HETATM   10  C11 UNL     1      25.294 161.751 147.473  1.00  0.00     0.025 C 
HETATM   11  C12 UNL     1      25.960 161.153 146.250  1.00  0.00     0.002 C 
HETATM   12  C13 UNL     1      25.451 159.757 146.063  1.00  0.00     0.000 C 
HETATM   13  C14 UNL     1      24.559 159.553 144.890  1.00  0.00     0.000 C 
HETATM   14  C15 UNL     1      23.613 160.671 144.601  1.00  0.00     0.000 C 
HETATM   15  C16 UNL     1      22.516 160.824 145.628  1.00  0.00     0.000 C 
HETATM   16  C17 UNL     1      22.312 162.307 145.904  1.00  0.00     0.002 C 
HETATM   17  C18 UNL     1      22.944 162.583 147.250  1.00  0.00     0.025 C 
ENDBRANCH   7   9
ENDBRANCH   5   7
ENDBRANCH   3   5
BRANCH   1  18
HETATM   18  C7  UNL     1      26.070 167.192 151.010  1.00  0.00     0.105 C 
BRANCH  18  19
HETATM   19  C6  UNL     1      27.537 167.221 151.168  1.00  0.00     0.029 C 
BRANCH  19  20
HETATM   20  C5  UNL     1      28.248 165.918 151.006  1.00  0.00     0.117 C 
BRANCH  20  21
HETATM   21  N2  UNL     1      28.470 165.239 152.259  1.00  0.00    -0.409 N 
HETATM   22  C4  UNL     1      27.809 163.987 152.396  1.00  0.00     0.147 C 
HETATM   23  C3  UNL     1      26.694 163.957 153.413  1.00  0.00     0.293 C 
HETATM   24  N1  UNL     1      27.096 164.441 154.702  1.00  0.00     0.109 N 
HETATM   25  C20 UNL     1      28.298 165.232 154.670  1.00  0.00     0.293 C 
HETATM   26  C19 UNL     1      28.403 166.066 153.417  1.00  0.00     0.147 C 
BRANCH  24  27
HETATM   27  C2  UNL     1      27.058 163.473 155.741  1.00  0.00     0.314 C 
HETATM   28  C1  UNL     1      25.955 163.642 156.737  1.00  0.00     0.060 C 
HETATM   29 CL1  UNL     1      28.667 163.400 156.506  1.00  0.00    -0.092 Cl
ENDBRANCH  24  27
ENDBRANCH  20  21
ENDBRANCH  19  20
ENDBRANCH  18  19
ENDBRANCH   1  18
TORSDOF 8
ENDMDL
MODEL 2
REMARK VINA RESULT: -8.697079660      1.599      2.114
REMARK  8 active torsions:
REMARK  status: ('A' for Active; 'I' for Inactive)
REMARK    1  A    between atoms: C2_2  and  N1_4 
REMARK    2  A    between atoms: N2_7  and  C5_8 
REMARK    3  A    between atoms: C5_8  and  C6_9 
REMARK    4  A    between atoms: C6_9  and  C7_10 
REMARK    5  A    between atoms: C7_10  and  C8_11 
REMARK       I    between atoms: C8_11  and  N3_13 
REMARK    6  A    between atoms: N3_13  and  C9_15 
REMARK    7  A    between atoms: C9_15  and  N4_17 
REMARK    8  A    between atoms: N4_17  and  C10_19 
ROOT
HETATM    1  C8  UNL     1      27.876 164.241 147.912  1.00  0.00     0.223 C 
HETATM    2  O1  UNL     1      27.905 163.861 146.721  1.00  0.00    -0.273 OA
HETATM    3  N3  UNL     1      26.728 164.723 148.584  1.00  0.00    -0.304 N 
ATOM      4  H3  UNL     1      26.844 165.000 149.559  1.00  0.00     0.171 HD
ENDROOT
BRANCH   3   5
HETATM    5  C9  UNL     1      25.462 164.854 148.040  1.00  0.00     0.174 C 
HETATM    6  S1  UNL     1      25.132 166.273 147.244  1.00  0.00    -0.041 SA
BRANCH   5   7
HETATM    7  N4  UNL     1      24.443 163.913 148.111  1.00  0.00    -0.362 N 
ATOM      8  H4  UNL     1      23.800 163.946 148.902  1.00  0.00     0.162 HD
BRANCH   7   9
HETATM    9  C10 UNL     1      24.256 162.869 147.085  1.00  0.00     0.083 C 
HETATM   10  C11 UNL     1      25.128 161.703 147.473  1.00  0.00     0.025 C 
HETATM   11  C12 UNL     1      25.895 161.129 146.300  1.00  0.00     0.002 C 
HETATM   12  C13 UNL     1      25.420 159.730 146.057  1.00  0.00     0.000 C 
HETATM   13  C14 UNL     1      24.627 159.529 144.815  1.00  0.00     0.000 C 
HETATM   14  C15 UNL     1      23.692 160.640 144.466  1.00  0.00     0.000 C 
HETATM   15  C16 UNL     1      22.515 160.767 145.405  1.00  0.00     0.000 C 
HETATM   16  C17 UNL     1      22.271 162.243 145.681  1.00  0.00     0.002 C 
HETATM   17  C18 UNL     1      22.791 162.510 147.076  1.00  0.00     0.025 C 
ENDBRANCH   7   9
ENDBRANCH   5   7
ENDBRANCH   3   5
BRANCH   1  18
HETATM   18  C7  UNL     1      29.197 164.152 148.626  1.00  0.00     0.105 C 
BRANCH  18  19
HETATM   19  C6  UNL     1      29.108 163.978 150.088  1.00  0.00     0.029 C 
BRANCH  19  20
HETATM   20  C5  UNL     1      29.250 165.215 150.914  1.00  0.00     0.117 C 
BRANCH  20  21
HETATM   21  N2  UNL     1      28.352 165.243 152.041  1.00  0.00    -0.409 N 
HETATM   22  C4  UNL     1      28.879 165.833 153.224  1.00  0.00     0.147 C 
HETATM   23  C3  UNL     1      29.117 164.878 154.367  1.00  0.00     0.293 C 
HETATM   24  N1  UNL     1      27.963 164.087 154.687  1.00  0.00     0.109 N 
HETATM   25  C20 UNL     1      26.985 164.043 153.634  1.00  0.00     0.293 C 
HETATM   26  C19 UNL     1      27.618 164.042 152.263  1.00  0.00     0.147 C 
BRANCH  24  27
HETATM   27  C2  UNL     1      27.423 164.319 155.981  1.00  0.00     0.314 C 
HETATM   28  C1  UNL     1      27.754 165.645 156.588  1.00  0.00     0.060 C 
HETATM   29 CL1  UNL     1      27.871 162.952 157.035  1.00  0.00    -0.092 Cl
ENDBRANCH  24  27
ENDBRANCH  20  21
ENDBRANCH  19  20
ENDBRANCH  18  19
ENDBRANCH   1  18
TORSDOF 8
ENDMDL
MODEL 3
REMARK VINA RESULT: -8.625268138      0.793      1.255
REMARK  8 active torsions:
REMARK  status: ('A' for Active; 'I' for Inactive)
REMARK    1  A    between atoms: C2_2  and  N1_4 
REMARK    2  A    between atoms: N2_7  and  C5_8 
REMARK    3  A    between atoms: C5_8  and  C6_9 
REMARK    4  A    between atoms: C6_9  and  C7_10 
REMARK    5  A    between atoms: C7_10  and  C8_11 
REMARK       I    between atoms: C8_11  and  N3_13 
REMARK    6  A    between atoms: N3_13  and  C9_15 
REMARK    7  A    between atoms: C9_15  and  N4_17 
REMARK    8  A    between atoms: N4_17  and  C10_19 
ROOT
HETATM    1  C8  UNL     1      25.736 165.911 150.194  1.00  0.00     0.223 C 
HETATM    2  O1  UNL     1      24.765 165.307 150.700  1.00  0.00    -0.273 OA
HETATM    3  N3  UNL     1      26.184 165.756 148.860  1.00  0.00    -0.304 N 
ATOM      4  H3  UNL     1      26.990 166.312 148.575  1.00  0.00     0.171 HD
ENDROOT
BRANCH   3   5
HETATM    5  C9  UNL     1      25.628 164.920 147.907  1.00  0.00     0.174 C 
HETATM    6  S1  UNL     1      26.000 165.240 146.321  1.00  0.00    -0.041 SA
BRANCH   5   7
HETATM    7  N4  UNL     1      24.779 163.851 148.157  1.00  0.00    -0.362 N 
ATOM      8  H4  UNL     1      24.351 163.769 149.080  1.00  0.00     0.162 HD
BRANCH   7   9
HETATM    9  C10 UNL     1      24.473 162.827 147.139  1.00  0.00     0.083 C 
HETATM   10  C11 UNL     1      25.324 161.623 147.450  1.00  0.00     0.025 C 
HETATM   11  C12 UNL     1      25.977 161.032 146.218  1.00  0.00     0.002 C 
HETATM   12  C13 UNL     1      25.430 159.656 145.999  1.00  0.00     0.000 C 
HETATM   13  C14 UNL     1      24.538 159.502 144.819  1.00  0.00     0.000 C 
HETATM   14  C15 UNL     1      23.625 160.653 144.550  1.00  0.00     0.000 C 
HETATM   15  C16 UNL     1      22.528 160.815 145.576  1.00  0.00     0.000 C 
HETATM   16  C17 UNL     1      22.366 162.297 145.883  1.00  0.00     0.002 C 
HETATM   17  C18 UNL     1      22.999 162.526 147.237  1.00  0.00     0.025 C 
ENDBRANCH   7   9
ENDBRANCH   5   7
ENDBRANCH   3   5
BRANCH   1  18
HETATM   18  C7  UNL     1      26.436 166.858 151.129  1.00  0.00     0.105 C 
BRANCH  18  19
HETATM   19  C6  UNL     1      27.852 166.541 151.396  1.00  0.00     0.029 C 
BRANCH  19  20
HETATM   20  C5  UNL     1      28.130 165.202 151.998  1.00  0.00     0.117 C 
BRANCH  20  21
HETATM   21  N2  UNL     1      27.451 165.000 153.254  1.00  0.00    -0.409 N 
HETATM   22  C4  UNL     1      28.166 165.425 154.407  1.00  0.00     0.147 C 
HETATM   23  C3  UNL     1      28.636 164.316 155.317  1.00  0.00     0.293 C 
HETATM   24  N1  UNL     1      27.583 163.418 155.698  1.00  0.00     0.109 N 
HETATM   25  C20 UNL     1      26.431 163.485 154.838  1.00  0.00     0.293 C 
HETATM   26  C19 UNL     1      26.805 163.738 153.398  1.00  0.00     0.147 C 
BRANCH  24  27
HETATM   27  C2  UNL     1      27.280 163.411 157.086  1.00  0.00     0.314 C 
HETATM   28  C1  UNL     1      26.802 164.712 157.647  1.00  0.00     0.060 C 
HETATM   29 CL1  UNL     1      28.685 162.759 157.968  1.00  0.00    -0.092 Cl
ENDBRANCH  24  27
ENDBRANCH  20  21
ENDBRANCH  19  20
ENDBRANCH  18  19
ENDBRANCH   1  18
TORSDOF 8
ENDMDL
MODEL 4
REMARK VINA RESULT: -8.530774893      1.742      2.088
REMARK  8 active torsions:
REMARK  status: ('A' for Active; 'I' for Inactive)
REMARK    1  A    between atoms: C2_2  and  N1_4 
REMARK    2  A    between atoms: N2_7  and  C5_8 
REMARK    3  A    between atoms: C5_8  and  C6_9 
REMARK    4  A    between atoms: C6_9  and  C7_10 
REMARK    5  A    between atoms: C7_10  and  C8_11 
REMARK       I    between atoms: C8_11  and  N3_13 
REMARK    6  A    between atoms: N3_13  and  C9_15 
REMARK    7  A    between atoms: C9_15  and  N4_17 
REMARK    8  A    between atoms: N4_17  and  C10_19 
ROOT
HETATM    1  C8  UNL     1      27.673 163.900 147.962  1.00  0.00     0.223 C 
HETATM    2  O1  UNL     1      27.804 163.945 146.719  1.00  0.00    -0.273 OA
HETATM    3  N3  UNL     1      26.497 164.250 148.668  1.00  0.00    -0.304 N 
ATOM      4  H3  UNL     1      26.525 164.166 149.684  1.00  0.00     0.171 HD
ENDROOT
BRANCH   3   5
HETATM    5  C9  UNL     1      25.313 164.696 148.107  1.00  0.00     0.174 C 
HETATM    6  S1  UNL     1      25.281 166.270 147.579  1.00  0.00    -0.041 SA
BRANCH   5   7
HETATM    7  N4  UNL     1      24.151 163.952 147.958  1.00  0.00    -0.362 N 
ATOM      8  H4  UNL     1      23.359 164.151 148.570  1.00  0.00     0.162 HD
BRANCH   7   9
HETATM    9  C10 UNL     1      24.017 162.884 146.947  1.00  0.00     0.083 C 
HETATM   10  C11 UNL     1      24.882 161.736 147.397  1.00  0.00     0.025 C 
HETATM   11  C12 UNL     1      25.704 161.145 146.270  1.00  0.00     0.002 C 
HETATM   12  C13 UNL     1      25.254 159.736 146.038  1.00  0.00     0.000 C 
HETATM   13  C14 UNL     1      24.515 159.502 144.768  1.00  0.00     0.000 C 
HETATM   14  C15 UNL     1      23.586 160.594 144.355  1.00  0.00     0.000 C 
HETATM   15  C16 UNL     1      22.369 160.729 145.241  1.00  0.00     0.000 C 
HETATM   16  C17 UNL     1      22.100 162.208 145.475  1.00  0.00     0.002 C 
HETATM   17  C18 UNL     1      22.557 162.510 146.884  1.00  0.00     0.025 C 
ENDBRANCH   7   9
ENDBRANCH   5   7
ENDBRANCH   3   5
BRANCH   1  18
HETATM   18  C7  UNL     1      28.895 163.430 148.700  1.00  0.00     0.105 C 
BRANCH  18  19
HETATM   19  C6  UNL     1      29.708 164.500 149.309  1.00  0.00     0.029 C 
BRANCH  19  20
HETATM   20  C5  UNL     1      29.042 165.318 150.368  1.00  0.00     0.117 C 
BRANCH  20  21
HETATM   21  N2  UNL     1      29.034 164.671 151.656  1.00  0.00    -0.409 N 
HETATM   22  C4  UNL     1      27.785 164.114 152.049  1.00  0.00     0.147 C 
HETATM   23  C3  UNL     1      27.109 164.807 153.206  1.00  0.00     0.293 C 
HETATM   24  N1  UNL     1      27.962 164.950 154.351  1.00  0.00     0.109 N 
HETATM   25  C20 UNL     1      29.361 164.808 154.047  1.00  0.00     0.293 C 
HETATM   26  C19 UNL     1      29.714 165.373 152.692  1.00  0.00     0.147 C 
BRANCH  24  27
HETATM   27  C2  UNL     1      27.536 164.237 155.504  1.00  0.00     0.314 C 
HETATM   28  C1  UNL     1      28.624 163.585 156.295  1.00  0.00     0.060 C 
HETATM   29 CL1  UNL     1      26.259 163.091 155.020  1.00  0.00    -0.092 Cl
ENDBRANCH  24  27
ENDBRANCH  20  21
ENDBRANCH  19  20
ENDBRANCH  18  19
ENDBRANCH   1  18
TORSDOF 8
ENDMDL
MODEL 5
REMARK VINA RESULT: -8.379711255      2.344      3.160
REMARK  8 active torsions:
REMARK  status: ('A' for Active; 'I' for Inactive)
REMARK    1  A    between atoms: C2_2  and  N1_4 
REMARK    2  A    between atoms: N2_7  and  C5_8 
REMARK    3  A    between atoms: C5_8  and  C6_9 
REMARK    4  A    between atoms: C6_9  and  C7_10 
REMARK    5  A    between atoms: C7_10  and  C8_11 
REMARK       I    between atoms: C8_11  and  N3_13 
REMARK    6  A    between atoms: N3_13  and  C9_15 
REMARK    7  A    between atoms: C9_15  and  N4_17 
REMARK    8  A    between atoms: N4_17  and  C10_19 
ROOT
HETATM    1  C8  UNL     1      27.834 164.266 148.007  1.00  0.00     0.223 C 
HETATM    2  O1  UNL     1      27.925 163.860 146.829  1.00  0.00    -0.273 OA
HETATM    3  N3  UNL     1      26.653 164.768 148.606  1.00  0.00    -0.304 N 
ATOM      4  H3  UNL     1      26.717 165.066 149.579  1.00  0.00     0.171 HD
ENDROOT
BRANCH   3   5
HETATM    5  C9  UNL     1      25.419 164.889 147.991  1.00  0.00     0.174 C 
HETATM    6  S1  UNL     1      25.169 166.253 147.078  1.00  0.00    -0.041 SA
BRANCH   5   7
HETATM    7  N4  UNL     1      24.371 163.983 148.080  1.00  0.00    -0.362 N 
ATOM      8  H4  UNL     1      23.730 164.051 148.872  1.00  0.00     0.162 HD
BRANCH   7   9
HETATM    9  C10 UNL     1      24.148 162.927 147.074  1.00  0.00     0.083 C 
HETATM   10  C11 UNL     1      25.074 161.788 147.413  1.00  0.00     0.025 C 
HETATM   11  C12 UNL     1      25.782 161.226 146.198  1.00  0.00     0.002 C 
HETATM   12  C13 UNL     1      25.331 159.813 145.993  1.00  0.00     0.000 C 
HETATM   13  C14 UNL     1      24.467 159.582 144.804  1.00  0.00     0.000 C 
HETATM   14  C15 UNL     1      23.483 160.664 144.507  1.00  0.00     0.000 C 
HETATM   15  C16 UNL     1      22.364 160.767 145.518  1.00  0.00     0.000 C 
HETATM   16  C17 UNL     1      22.097 162.238 145.800  1.00  0.00     0.002 C 
HETATM   17  C18 UNL     1      22.696 162.529 147.158  1.00  0.00     0.025 C 
ENDBRANCH   7   9
ENDBRANCH   5   7
ENDBRANCH   3   5
BRANCH   1  18
HETATM   18  C7  UNL     1      29.114 164.190 148.793  1.00  0.00     0.105 C 
BRANCH  18  19
HETATM   19  C6  UNL     1      29.036 163.406 150.040  1.00  0.00     0.029 C 
BRANCH  19  20
HETATM   20  C5  UNL     1      28.440 164.098 151.223  1.00  0.00     0.117 C 
BRANCH  20  21
HETATM   21  N2  UNL     1      29.045 165.380 151.486  1.00  0.00    -0.409 N 
HETATM   22  C4  UNL     1      29.992 165.398 152.548  1.00  0.00     0.147 C 
HETATM   23  C3  UNL     1      29.566 166.163 153.776  1.00  0.00     0.293 C 
HETATM   24  N1  UNL     1      29.134 167.500 153.483  1.00  0.00     0.109 N 
HETATM   25  C20 UNL     1      28.791 167.704 152.101  1.00  0.00     0.293 C 
HETATM   26  C19 UNL     1      28.147 166.487 151.484  1.00  0.00     0.147 C 
BRANCH  24  27
HETATM   27  C2  UNL     1      29.943 168.524 154.045  1.00  0.00     0.314 C 
HETATM   28  C1  UNL     1      31.388 168.486 153.660  1.00  0.00     0.060 C 
HETATM   29 CL1  UNL     1      29.704 168.529 155.812  1.00  0.00    -0.092 Cl
ENDBRANCH  24  27
ENDBRANCH  20  21
ENDBRANCH  19  20
ENDBRANCH  18  19
ENDBRANCH   1  18
TORSDOF 8
ENDMDL
