MODEL 1
REMARK VINA RESULT: -9.788761298      0.000      0.000
REMARK  7 active torsions:
REMARK  status: ('A' for Active; 'I' for Inactive)
REMARK    1  A    between atoms: O1_2  and  C2_3 
REMARK    2  A    between atoms: N3_10  and  N4_11 
REMARK    3  A    between atoms: N10_30  and  C12_31 
REMARK    4  A    between atoms: C12_31  and  C13_32 
REMARK    5  A    between atoms: C13_32  and  C14_33 
REMARK    6  A    between atoms: C14_33  and  C15_34 
REMARK    7  A    between atoms: C15_34  and  N11_35 
ROOT
HETATM    1  N4  UNL     1     -20.208   2.280  61.987  1.00  0.00    -0.269 N 
ATOM      2  H4  UNL     1     -20.130   1.376  61.522  1.00  0.00     0.189 HD
HETATM    3  C5  UNL     1     -21.175   2.335  62.783  1.00  0.00     0.124 C 
HETATM    4  C6  UNL     1     -21.407   3.487  63.483  1.00  0.00     0.132 C 
HETATM    5  N5  UNL     1     -20.456   4.329  63.639  1.00  0.00    -0.383 N 
ATOM      6  H51 UNL     1     -20.629   5.188  64.160  1.00  0.00     0.157 HD
ATOM      7  H52 UNL     1     -19.572   4.057  63.209  1.00  0.00     0.157 HD
HETATM    8  N6  UNL     1     -22.593   3.852  64.060  1.00  0.00    -0.318 N 
ATOM      9  H6  UNL     1     -22.843   4.840  64.010  1.00  0.00     0.169 HD
HETATM   10  C7  UNL     1     -23.476   3.026  64.696  1.00  0.00     0.191 C 
HETATM   11  C8  UNL     1     -24.448   3.667  65.529  1.00  0.00     0.137 C 
HETATM   12  N7  UNL     1     -25.239   4.197  66.198  1.00  0.00    -0.188 NA
HETATM   13  N8  UNL     1     -23.538   1.663  64.629  1.00  0.00    -0.318 N 
ATOM     14  H8  UNL     1     -24.059   1.199  65.373  1.00  0.00     0.169 HD
HETATM   15  C9  UNL     1     -23.000   0.876  63.712  1.00  0.00     0.140 A 
HETATM   16  C10 UNL     1     -21.946   1.165  62.878  1.00  0.00     0.110 A 
HETATM   17  N9  UNL     1     -21.766   0.061  62.123  1.00  0.00    -0.347 N 
ATOM     18  H9  UNL     1     -21.060  -0.059  61.398  1.00  0.00     0.167 HD
HETATM   19  C11 UNL     1     -22.688  -0.862  62.496  1.00  0.00     0.185 A 
HETATM   20  N10 UNL     1     -23.468  -0.385  63.481  1.00  0.00    -0.327 N 
ENDROOT
BRANCH  20  21
HETATM   21  C12 UNL     1     -24.564  -1.042  64.165  1.00  0.00     0.131 C 
BRANCH  21  22
HETATM   22  C13 UNL     1     -25.923  -0.593  63.667  1.00  0.00     0.022 C 
BRANCH  22  23
HETATM   23  C14 UNL     1     -26.988  -0.824  64.723  1.00  0.00     0.032 C 
BRANCH  23  24
HETATM   24  C15 UNL     1     -27.431   0.505  65.270  1.00  0.00     0.272 C 
BRANCH  24  25
HETATM   25  N11 UNL     1     -27.933   0.448  66.597  1.00  0.00     0.091 N 
HETATM   26  C16 UNL     1     -28.292   1.694  67.175  1.00  0.00     0.300 C 
HETATM   27  C17 UNL     1     -28.748   1.501  68.595  1.00  0.00     0.262 C 
HETATM   28  N12 UNL     1     -28.513   0.142  69.000  1.00  0.00    -0.072 N 
HETATM   29  C18 UNL     1     -29.324  -0.760  68.183  1.00  0.00     0.262 C 
ATOM     30 2H12 UNL     1     -27.523  -0.102  68.974  1.00  0.00     0.277 HD
ATOM     31 1H12 UNL     1     -28.671   0.005  69.999  1.00  0.00     0.277 HD
HETATM   32  C19 UNL     1     -28.971  -0.564  66.714  1.00  0.00     0.300 C 
ENDBRANCH  24  25
ENDBRANCH  23  24
ENDBRANCH  22  23
ENDBRANCH  21  22
ENDBRANCH  20  21
BRANCH   1  33
HETATM   33  N3  UNL     1     -19.240   3.153  61.605  1.00  0.00    -0.140 N 
HETATM   34  N2  UNL     1     -17.961   2.844  61.822  1.00  0.00    -0.217 N 
HETATM   35  N1  UNL     1     -16.957   3.630  61.500  1.00  0.00    -0.282 N 
ATOM     36  H2  UNL     1     -17.749   1.949  62.264  1.00  0.00     0.210 HD
HETATM   37  C4  UNL     1     -17.215   4.804  60.922  1.00  0.00     0.086 A 
ATOM     38  H1  UNL     1     -15.996   3.345  61.688  1.00  0.00     0.188 HD
HETATM   39  C3  UNL     1     -16.394   5.825  60.475  1.00  0.00     0.089 A 
HETATM   40  C21 UNL     1     -18.520   5.179  60.671  1.00  0.00     0.135 A 
HETATM   41  C2  UNL     1     -17.209   6.809  59.958  1.00  0.00     0.144 A 
HETATM   42  N13 UNL     1     -18.480   6.411  60.081  1.00  0.00    -0.331 N 
ATOM     43  H13 UNL     1     -19.295   6.945  59.781  1.00  0.00     0.168 HD
HETATM   44  C20 UNL     1     -19.543   4.334  61.022  1.00  0.00     0.311 A 
HETATM   45  O2  UNL     1     -20.723   4.674  60.796  1.00  0.00    -0.262 OA
BRANCH  41  46
HETATM   46  O1  UNL     1     -16.831   8.006  59.403  1.00  0.00    -0.341 OA
HETATM   47  C1  UNL     1     -17.687   8.881  58.722  1.00  0.00     0.211 C 
ENDBRANCH  41  46
ENDBRANCH   1  33
TORSDOF 7
ENDMDL
MODEL 2
REMARK VINA RESULT: -9.770335877      1.414      1.895
REMARK  7 active torsions:
REMARK  status: ('A' for Active; 'I' for Inactive)
REMARK    1  A    between atoms: O1_2  and  C2_3 
REMARK    2  A    between atoms: N3_10  and  N4_11 
REMARK    3  A    between atoms: N10_30  and  C12_31 
REMARK    4  A    between atoms: C12_31  and  C13_32 
REMARK    5  A    between atoms: C13_32  and  C14_33 
REMARK    6  A    between atoms: C14_33  and  C15_34 
REMARK    7  A    between atoms: C15_34  and  N11_35 
ROOT
HETATM    1  N4  UNL     1     -19.529   3.595  61.391  1.00  0.00    -0.269 N 
ATOM      2  H4  UNL     1     -19.265   2.716  60.945  1.00  0.00     0.189 HD
HETATM    3  C5  UNL     1     -20.418   3.449  62.261  1.00  0.00     0.124 C 
HETATM    4  C6  UNL     1     -20.875   4.542  62.948  1.00  0.00     0.132 C 
HETATM    5  N5  UNL     1     -20.152   5.595  63.002  1.00  0.00    -0.383 N 
ATOM      6  H51 UNL     1     -20.492   6.409  63.513  1.00  0.00     0.157 HD
ATOM      7  H52 UNL     1     -19.262   5.527  62.509  1.00  0.00     0.157 HD
HETATM    8  N6  UNL     1     -22.070   4.633  63.610  1.00  0.00    -0.318 N 
ATOM      9  H6  UNL     1     -22.558   5.527  63.554  1.00  0.00     0.169 HD
HETATM   10  C7  UNL     1     -22.673   3.647  64.337  1.00  0.00     0.191 C 
HETATM   11  C8  UNL     1     -23.710   4.070  65.230  1.00  0.00     0.137 C 
HETATM   12  N7  UNL     1     -24.556   4.422  65.947  1.00  0.00    -0.188 NA
HETATM   13  N8  UNL     1     -22.403   2.309  64.312  1.00  0.00    -0.318 N 
ATOM     14  H8  UNL     1     -22.738   1.766  65.108  1.00  0.00     0.169 HD
HETATM   15  C9  UNL     1     -21.756   1.634  63.375  1.00  0.00     0.140 A 
HETATM   16  C10 UNL     1     -20.869   2.133  62.450  1.00  0.00     0.110 A 
HETATM   17  N9  UNL     1     -20.479   1.072  61.713  1.00  0.00    -0.347 N 
ATOM     18  H9  UNL     1     -19.819   1.095  60.936  1.00  0.00     0.167 HD
HETATM   19  C11 UNL     1     -21.115  -0.029  62.184  1.00  0.00     0.185 A 
HETATM   20  N10 UNL     1     -21.916   0.289  63.216  1.00  0.00    -0.327 N 
ENDROOT
BRANCH  20  21
HETATM   21  C12 UNL     1     -22.763  -0.583  64.005  1.00  0.00     0.131 C 
BRANCH  21  22
HETATM   22  C13 UNL     1     -24.120  -0.815  63.373  1.00  0.00     0.022 C 
BRANCH  22  23
HETATM   23  C14 UNL     1     -25.143  -1.215  64.419  1.00  0.00     0.032 C 
BRANCH  23  24
HETATM   24  C15 UNL     1     -26.484  -0.654  64.033  1.00  0.00     0.272 C 
BRANCH  24  25
HETATM   25  N11 UNL     1     -27.000   0.300  64.948  1.00  0.00     0.091 N 
HETATM   26  C16 UNL     1     -27.439   1.525  64.381  1.00  0.00     0.300 C 
HETATM   27  C17 UNL     1     -27.903   2.465  65.460  1.00  0.00     0.262 C 
HETATM   28  N12 UNL     1     -27.595   1.913  66.751  1.00  0.00    -0.072 N 
HETATM   29  C18 UNL     1     -28.341   0.670  66.942  1.00  0.00     0.262 C 
ATOM     30 2H12 UNL     1     -26.592   1.785  66.885  1.00  0.00     0.277 HD
ATOM     31 1H12 UNL     1     -27.759   2.582  67.504  1.00  0.00     0.277 HD
HETATM   32  C19 UNL     1     -27.980  -0.311  65.834  1.00  0.00     0.300 C 
ENDBRANCH  24  25
ENDBRANCH  23  24
ENDBRANCH  22  23
ENDBRANCH  21  22
ENDBRANCH  20  21
BRANCH   1  33
HETATM   33  N3  UNL     1     -18.836   4.658  60.907  1.00  0.00    -0.140 N 
HETATM   34  N2  UNL     1     -17.553   4.806  61.240  1.00  0.00    -0.217 N 
HETATM   35  N1  UNL     1     -16.805   5.809  60.833  1.00  0.00    -0.282 N 
ATOM     36  H2  UNL     1     -17.127   4.103  61.845  1.00  0.00     0.210 HD
HETATM   37  C4  UNL     1     -17.345   6.738  60.042  1.00  0.00     0.086 A 
ATOM     38  H1  UNL     1     -15.828   5.875  61.117  1.00  0.00     0.188 HD
HETATM   39  C3  UNL     1     -16.830   7.883  59.462  1.00  0.00     0.089 A 
HETATM   40  C21 UNL     1     -18.669   6.638  59.664  1.00  0.00     0.135 A 
HETATM   41  C2  UNL     1     -17.846   8.469  58.737  1.00  0.00     0.144 A 
HETATM   42  N13 UNL     1     -18.943   7.714  58.866  1.00  0.00    -0.331 N 
ATOM     43  H13 UNL     1     -19.846   7.911  58.435  1.00  0.00     0.168 HD
HETATM   44  C20 UNL     1     -19.420   5.579  60.109  1.00  0.00     0.311 A 
HETATM   45  O2  UNL     1     -20.617   5.491  59.766  1.00  0.00    -0.262 OA
BRANCH  41  46
HETATM   46  O1  UNL     1     -17.792   9.623  57.997  1.00  0.00    -0.341 OA
HETATM   47  C1  UNL     1     -18.681   9.959  56.968  1.00  0.00     0.211 C 
ENDBRANCH  41  46
ENDBRANCH   1  33
TORSDOF 7
ENDMDL
MODEL 3
REMARK VINA RESULT: -9.247636911      4.012     11.727
REMARK  7 active torsions:
REMARK  status: ('A' for Active; 'I' for Inactive)
REMARK    1  A    between atoms: O1_2  and  C2_3 
REMARK    2  A    between atoms: N3_10  and  N4_11 
REMARK    3  A    between atoms: N10_30  and  C12_31 
REMARK    4  A    between atoms: C12_31  and  C13_32 
REMARK    5  A    between atoms: C13_32  and  C14_33 
REMARK    6  A    between atoms: C14_33  and  C15_34 
REMARK    7  A    between atoms: C15_34  and  N11_35 
ROOT
HETATM    1  N4  UNL     1     -18.438   5.380  61.450  1.00  0.00    -0.269 N 
ATOM      2  H4  UNL     1     -17.604   5.342  62.037  1.00  0.00     0.189 HD
HETATM    3  C5  UNL     1     -18.330   6.196  60.505  1.00  0.00     0.124 C 
HETATM    4  C6  UNL     1     -19.371   6.356  59.631  1.00  0.00     0.132 C 
HETATM    5  N5  UNL     1     -20.249   5.433  59.525  1.00  0.00    -0.383 N 
ATOM      6  H51 UNL     1     -21.024   5.552  58.874  1.00  0.00     0.157 HD
ATOM      7  H52 UNL     1     -20.091   4.625  60.127  1.00  0.00     0.157 HD
HETATM    8  N6  UNL     1     -19.582   7.441  58.823  1.00  0.00    -0.318 N 
ATOM      9  H6  UNL     1     -20.549   7.741  58.701  1.00  0.00     0.169 HD
HETATM   10  C7  UNL     1     -18.627   8.163  58.165  1.00  0.00     0.191 C 
HETATM   11  C8  UNL     1     -19.095   9.005  57.105  1.00  0.00     0.137 C 
HETATM   12  N7  UNL     1     -19.485   9.692  56.252  1.00  0.00    -0.188 NA
HETATM   13  N8  UNL     1     -17.281   8.173  58.398  1.00  0.00    -0.318 N 
ATOM     14  H8  UNL     1     -16.696   8.536  57.646  1.00  0.00     0.169 HD
HETATM   15  C9  UNL     1     -16.649   7.766  59.487  1.00  0.00     0.140 A 
HETATM   16  C10 UNL     1     -17.108   6.885  60.439  1.00  0.00     0.110 A 
HETATM   17  N9  UNL     1     -16.119   6.788  61.351  1.00  0.00    -0.347 N 
ATOM     18  H9  UNL     1     -16.136   6.212  62.192  1.00  0.00     0.167 HD
HETATM   19  C11 UNL     1     -15.097   7.589  60.956  1.00  0.00     0.185 A 
HETATM   20  N10 UNL     1     -15.398   8.209  59.802  1.00  0.00    -0.327 N 
ENDROOT
BRANCH  20  21
HETATM   21  C12 UNL     1     -14.590   9.139  59.039  1.00  0.00     0.131 C 
BRANCH  21  22
HETATM   22  C13 UNL     1     -14.262  10.403  59.807  1.00  0.00     0.022 C 
BRANCH  22  23
HETATM   23  C14 UNL     1     -15.357  11.439  59.637  1.00  0.00     0.032 C 
BRANCH  23  24
HETATM   24  C15 UNL     1     -15.783  11.468  58.195  1.00  0.00     0.272 C 
BRANCH  24  25
HETATM   25  N11 UNL     1     -17.094  11.971  57.988  1.00  0.00     0.091 N 
HETATM   26  C16 UNL     1     -17.968  11.894  59.104  1.00  0.00     0.300 C 
HETATM   27  C17 UNL     1     -19.336  12.400  58.734  1.00  0.00     0.262 C 
HETATM   28  N12 UNL     1     -19.399  12.640  57.319  1.00  0.00    -0.072 N 
HETATM   29  C18 UNL     1     -18.459  13.700  56.959  1.00  0.00     0.262 C 
ATOM     30 2H12 UNL     1     -19.245  11.789  56.777  1.00  0.00     0.277 HD
ATOM     31 1H12 UNL     1     -20.348  12.843  57.005  1.00  0.00     0.277 HD
HETATM   32  C19 UNL     1     -17.052  13.291  57.376  1.00  0.00     0.300 C 
ENDBRANCH  24  25
ENDBRANCH  23  24
ENDBRANCH  22  23
ENDBRANCH  21  22
ENDBRANCH  20  21
BRANCH   1  33
HETATM   33  N3  UNL     1     -19.414   4.533  61.869  1.00  0.00    -0.140 N 
HETATM   34  N2  UNL     1     -20.533   5.036  62.390  1.00  0.00    -0.217 N 
HETATM   35  N1  UNL     1     -21.526   4.296  62.835  1.00  0.00    -0.282 N 
ATOM     36  H2  UNL     1     -20.625   6.050  62.447  1.00  0.00     0.210 HD
HETATM   37  C4  UNL     1     -21.423   2.968  62.768  1.00  0.00     0.086 A 
ATOM     38  H1  UNL     1     -22.362   4.732  63.224  1.00  0.00     0.188 HD
HETATM   39  C3  UNL     1     -22.276   1.946  63.143  1.00  0.00     0.089 A 
HETATM   40  C21 UNL     1     -20.287   2.389  62.238  1.00  0.00     0.135 A 
HETATM   41  C2  UNL     1     -21.651   0.756  62.838  1.00  0.00     0.144 A 
HETATM   42  N13 UNL     1     -20.459   1.035  62.297  1.00  0.00    -0.331 N 
ATOM     43  H13 UNL     1     -19.782   0.342  61.977  1.00  0.00     0.168 HD
HETATM   44  C20 UNL     1     -19.270   3.192  61.784  1.00  0.00     0.311 A 
HETATM   45  O2  UNL     1     -18.243   2.667  61.307  1.00  0.00    -0.262 OA
BRANCH  41  46
HETATM   46  O1  UNL     1     -22.124  -0.517  63.037  1.00  0.00    -0.341 OA
HETATM   47  C1  UNL     1     -23.464  -0.846  63.277  1.00  0.00     0.211 C 
ENDBRANCH  41  46
ENDBRANCH   1  33
TORSDOF 7
ENDMDL
MODEL 4
REMARK VINA RESULT: -9.148072583      1.352      1.870
REMARK  7 active torsions:
REMARK  status: ('A' for Active; 'I' for Inactive)
REMARK    1  A    between atoms: O1_2  and  C2_3 
REMARK    2  A    between atoms: N3_10  and  N4_11 
REMARK    3  A    between atoms: N10_30  and  C12_31 
REMARK    4  A    between atoms: C12_31  and  C13_32 
REMARK    5  A    between atoms: C13_32  and  C14_33 
REMARK    6  A    between atoms: C14_33  and  C15_34 
REMARK    7  A    between atoms: C15_34  and  N11_35 
ROOT
HETATM    1  N4  UNL     1     -20.199   3.059  61.596  1.00  0.00    -0.269 N 
ATOM      2  H4  UNL     1     -19.983   2.165  61.153  1.00  0.00     0.189 HD
HETATM    3  C5  UNL     1     -21.079   2.960  62.482  1.00  0.00     0.124 C 
HETATM    4  C6  UNL     1     -21.474   4.078  63.167  1.00  0.00     0.132 C 
HETATM    5  N5  UNL     1     -20.703   5.097  63.201  1.00  0.00    -0.383 N 
ATOM      6  H51 UNL     1     -20.996   5.930  63.711  1.00  0.00     0.157 HD
ATOM      7  H52 UNL     1     -19.825   4.984  62.694  1.00  0.00     0.157 HD
HETATM    8  N6  UNL     1     -22.652   4.229  63.848  1.00  0.00    -0.318 N 
ATOM      9  H6  UNL     1     -23.099   5.144  63.794  1.00  0.00     0.169 HD
HETATM   10  C7  UNL     1     -23.288   3.277  64.593  1.00  0.00     0.191 C 
HETATM   11  C8  UNL     1     -24.289   3.754  65.500  1.00  0.00     0.137 C 
HETATM   12  N7  UNL     1     -25.105   4.149  66.227  1.00  0.00    -0.188 NA
HETATM   13  N8  UNL     1     -23.080   1.927  64.575  1.00  0.00    -0.318 N 
ATOM     14  H8  UNL     1     -23.426   1.407  65.381  1.00  0.00     0.169 HD
HETATM   15  C9  UNL     1     -22.480   1.217  63.633  1.00  0.00     0.140 A 
HETATM   16  C10 UNL     1     -21.587   1.667  62.689  1.00  0.00     0.110 A 
HETATM   17  N9  UNL     1     -21.258   0.585  61.954  1.00  0.00    -0.347 N 
ATOM     18  H9  UNL     1     -20.611   0.571  61.167  1.00  0.00     0.167 HD
HETATM   19  C11 UNL     1     -21.936  -0.483  62.445  1.00  0.00     0.185 A 
HETATM   20  N10 UNL     1     -22.704  -0.121  63.488  1.00  0.00    -0.327 N 
ENDROOT
BRANCH  20  21
HETATM   21  C12 UNL     1     -23.577  -0.947  64.297  1.00  0.00     0.131 C 
BRANCH  21  22
HETATM   22  C13 UNL     1     -24.758  -1.493  63.521  1.00  0.00     0.022 C 
BRANCH  22  23
HETATM   23  C14 UNL     1     -25.924  -0.523  63.558  1.00  0.00     0.032 C 
BRANCH  23  24
HETATM   24  C15 UNL     1     -26.792  -0.846  64.743  1.00  0.00     0.272 C 
BRANCH  24  25
HETATM   25  N11 UNL     1     -27.229   0.293  65.469  1.00  0.00     0.091 N 
HETATM   26  C16 UNL     1     -27.579   1.426  64.688  1.00  0.00     0.300 C 
HETATM   27  C17 UNL     1     -27.964   2.576  65.578  1.00  0.00     0.262 C 
HETATM   28  N12 UNL     1     -27.690   2.243  66.949  1.00  0.00    -0.072 N 
HETATM   29  C18 UNL     1     -28.525   1.114  67.355  1.00  0.00     0.262 C 
ATOM     30 2H12 UNL     1     -26.698   2.066  67.111  1.00  0.00     0.277 HD
ATOM     31 1H12 UNL     1     -27.798   3.046  67.569  1.00  0.00     0.277 HD
HETATM   32  C19 UNL     1     -28.246  -0.074  66.443  1.00  0.00     0.300 C 
ENDBRANCH  24  25
ENDBRANCH  23  24
ENDBRANCH  22  23
ENDBRANCH  21  22
ENDBRANCH  20  21
BRANCH   1  33
HETATM   33  N3  UNL     1     -19.466   4.085  61.093  1.00  0.00    -0.140 N 
HETATM   34  N2  UNL     1     -20.093   5.130  60.553  1.00  0.00    -0.217 N 
HETATM   35  N1  UNL     1     -19.470   6.163  60.028  1.00  0.00    -0.282 N 
ATOM     36  H2  UNL     1     -21.114   5.129  60.545  1.00  0.00     0.210 HD
HETATM   37  C4  UNL     1     -18.136   6.182  60.030  1.00  0.00     0.086 A 
ATOM     38  H1  UNL     1     -19.998   6.938  59.628  1.00  0.00     0.188 HD
HETATM   39  C3  UNL     1     -17.215   7.105  59.566  1.00  0.00     0.089 A 
HETATM   40  C21 UNL     1     -17.431   5.127  60.575  1.00  0.00     0.135 A 
HETATM   41  C2  UNL     1     -15.960   6.602  59.834  1.00  0.00     0.144 A 
HETATM   42  N13 UNL     1     -16.102   5.416  60.438  1.00  0.00    -0.331 N 
ATOM     43  H13 UNL     1     -15.336   4.819  60.749  1.00  0.00     0.168 HD
HETATM   44  C20 UNL     1     -18.115   4.065  61.113  1.00  0.00     0.311 A 
HETATM   45  O2  UNL     1     -17.476   3.113  61.605  1.00  0.00    -0.262 OA
BRANCH  41  46
HETATM   46  O1  UNL     1     -14.747   7.177  59.549  1.00  0.00    -0.341 OA
HETATM   47  C1  UNL     1     -14.359   8.466  59.936  1.00  0.00     0.211 C 
ENDBRANCH  41  46
ENDBRANCH   1  33
TORSDOF 7
ENDMDL
MODEL 5
REMARK VINA RESULT: -9.009562558      2.341      3.347
REMARK  7 active torsions:
REMARK  status: ('A' for Active; 'I' for Inactive)
REMARK    1  A    between atoms: O1_2  and  C2_3 
REMARK    2  A    between atoms: N3_10  and  N4_11 
REMARK    3  A    between atoms: N10_30  and  C12_31 
REMARK    4  A    between atoms: C12_31  and  C13_32 
REMARK    5  A    between atoms: C13_32  and  C14_33 
REMARK    6  A    between atoms: C14_33  and  C15_34 
REMARK    7  A    between atoms: C15_34  and  N11_35 
ROOT
HETATM    1  N4  UNL     1     -20.200   2.254  61.955  1.00  0.00    -0.269 N 
ATOM      2  H4  UNL     1     -20.130   1.360  61.470  1.00  0.00     0.189 HD
HETATM    3  C5  UNL     1     -21.172   2.303  62.745  1.00  0.00     0.124 C 
HETATM    4  C6  UNL     1     -21.395   3.443  63.469  1.00  0.00     0.132 C 
HETATM    5  N5  UNL     1     -20.436   4.269  63.650  1.00  0.00    -0.383 N 
ATOM      6  H51 UNL     1     -20.602   5.118  64.189  1.00  0.00     0.157 HD
ATOM      7  H52 UNL     1     -19.552   3.996  63.220  1.00  0.00     0.157 HD
HETATM    8  N6  UNL     1     -22.582   3.809  64.045  1.00  0.00    -0.318 N 
ATOM      9  H6  UNL     1     -22.819   4.801  64.015  1.00  0.00     0.169 HD
HETATM   10  C7  UNL     1     -23.479   2.980  64.655  1.00  0.00     0.191 C 
HETATM   11  C8  UNL     1     -24.450   3.615  65.496  1.00  0.00     0.137 C 
HETATM   12  N7  UNL     1     -25.239   4.139  66.170  1.00  0.00    -0.188 NA
HETATM   13  N8  UNL     1     -23.557   1.620  64.559  1.00  0.00    -0.318 N 
ATOM     14  H8  UNL     1     -24.089   1.146  65.288  1.00  0.00     0.169 HD
HETATM   15  C9  UNL     1     -23.022   0.847  63.628  1.00  0.00     0.140 A 
HETATM   16  C10 UNL     1     -21.958   1.141  62.808  1.00  0.00     0.110 A 
HETATM   17  N9  UNL     1     -21.786   0.052  62.030  1.00  0.00    -0.347 N 
ATOM     18  H9  UNL     1     -21.075  -0.060  61.308  1.00  0.00     0.167 HD
HETATM   19  C11 UNL     1     -22.721  -0.868  62.376  1.00  0.00     0.185 A 
HETATM   20  N10 UNL     1     -23.504  -0.403  63.365  1.00  0.00    -0.327 N 
ENDROOT
BRANCH  20  21
HETATM   21  C12 UNL     1     -24.612  -1.061  64.027  1.00  0.00     0.131 C 
BRANCH  21  22
HETATM   22  C13 UNL     1     -24.937  -2.414  63.425  1.00  0.00     0.022 C 
BRANCH  22  23
HETATM   23  C14 UNL     1     -26.417  -2.721  63.553  1.00  0.00     0.032 C 
BRANCH  23  24
HETATM   24  C15 UNL     1     -27.176  -1.903  62.546  1.00  0.00     0.272 C 
BRANCH  24  25
HETATM   25  N11 UNL     1     -28.055  -2.659  61.727  1.00  0.00     0.091 N 
HETATM   26  C16 UNL     1     -29.040  -3.416  62.414  1.00  0.00     0.300 C 
HETATM   27  C17 UNL     1     -29.861  -4.215  61.439  1.00  0.00     0.262 C 
HETATM   28  N12 UNL     1     -29.288  -4.114  60.124  1.00  0.00    -0.072 N 
HETATM   29  C18 UNL     1     -29.348  -2.725  59.670  1.00  0.00     0.262 C 
ATOM     30 2H12 UNL     1     -28.341  -4.490  60.087  1.00  0.00     0.277 HD
ATOM     31 1H12 UNL     1     -29.726  -4.756  59.463  1.00  0.00     0.277 HD
HETATM   32  C19 UNL     1     -28.599  -1.838  60.656  1.00  0.00     0.300 C 
ENDBRANCH  24  25
ENDBRANCH  23  24
ENDBRANCH  22  23
ENDBRANCH  21  22
ENDBRANCH  20  21
BRANCH   1  33
HETATM   33  N3  UNL     1     -19.219   3.123  61.599  1.00  0.00    -0.140 N 
HETATM   34  N2  UNL     1     -17.946   2.801  61.833  1.00  0.00    -0.217 N 
HETATM   35  N1  UNL     1     -16.930   3.582  61.536  1.00  0.00    -0.282 N 
ATOM     36  H2  UNL     1     -17.749   1.898  62.266  1.00  0.00     0.210 HD
HETATM   37  C4  UNL     1     -17.168   4.766  60.969  1.00  0.00     0.086 A 
ATOM     38  H1  UNL     1     -15.974   3.287  61.736  1.00  0.00     0.188 HD
HETATM   39  C3  UNL     1     -16.332   5.784  60.549  1.00  0.00     0.089 A 
HETATM   40  C21 UNL     1     -18.467   5.155  60.703  1.00  0.00     0.135 A 
HETATM   41  C2  UNL     1     -17.130   6.782  60.031  1.00  0.00     0.144 A 
HETATM   42  N13 UNL     1     -18.407   6.394  60.130  1.00  0.00    -0.331 N 
ATOM     43  H13 UNL     1     -19.213   6.939  59.824  1.00  0.00     0.168 HD
HETATM   44  C20 UNL     1     -19.503   4.314  61.027  1.00  0.00     0.311 A 
HETATM   45  O2  UNL     1     -20.675   4.668  60.786  1.00  0.00    -0.262 OA
BRANCH  41  46
HETATM   46  O1  UNL     1     -16.733   7.983  59.498  1.00  0.00    -0.341 OA
HETATM   47  C1  UNL     1     -17.519   8.791  58.667  1.00  0.00     0.211 C 
ENDBRANCH  41  46
ENDBRANCH   1  33
TORSDOF 7
ENDMDL
