MODEL 1
REMARK VINA RESULT: -7.587743647      0.000      0.000
REMARK  15 active torsions:
REMARK  status: ('A' for Active; 'I' for Inactive)
REMARK    1  A    between atoms: O1_2  and  C2_3 
REMARK    2  A    between atoms: C4_6  and  O3_7 
REMARK    3  A    between atoms: O3_7  and  C5_8 
REMARK    4  A    between atoms: C6_10  and  C7_11 
REMARK    5  A    between atoms: C7_11  and  C8_12 
REMARK    6  A    between atoms: C7_11  and  O6_15 
REMARK    7  A    between atoms: C8_12  and  O5_13 
REMARK    8  A    between atoms: O6_15  and  C9_16 
REMARK    9  A    between atoms: C11_19  and  O8_20 
REMARK   10  A    between atoms: O8_20  and  C12_21 
REMARK   11  A    between atoms: C12_21  and  O10_23 
REMARK   12  A    between atoms: O10_23  and  C13_24 
REMARK   13  A    between atoms: C17_28  and  O11_29 
REMARK   14  A    between atoms: C18_31  and  C19_32 
REMARK   15  A    between atoms: C19_32  and  O12_33 
ROOT
HETATM    1  C5  UNL     1     -24.389  -1.378  63.096  1.00  0.00     0.269 C 
HETATM    2  O4  UNL     1     -25.142  -0.359  63.716  1.00  0.00    -0.350 OA
HETATM    3  C6  UNL     1     -26.496  -0.635  63.718  1.00  0.00     0.188 C 
HETATM    4  C11 UNL     1     -26.924  -2.001  63.367  1.00  0.00     0.195 C 
HETATM    5  C17 UNL     1     -25.938  -3.116  63.597  1.00  0.00     0.161 C 
HETATM    6  C18 UNL     1     -24.568  -2.557  63.974  1.00  0.00     0.096 C 
ENDROOT
BRANCH   1   7
HETATM    7  O3  UNL     1     -23.095  -1.025  62.904  1.00  0.00    -0.351 OA
BRANCH   7   8
HETATM    8  C4  UNL     1     -22.806   0.283  63.149  1.00  0.00     0.177 C 
HETATM    9  C3  UNL     1     -21.831   0.276  64.359  1.00  0.00     0.208 C 
HETATM   10  O2  UNL     1     -21.496   1.589  64.682  1.00  0.00    -0.336 OA
HETATM   11  C2  UNL     1     -20.824   2.117  63.573  1.00  0.00     0.413 C 
HETATM   12  O13 UNL     1     -21.808   2.368  62.602  1.00  0.00    -0.331 OA
HETATM   13  C20 UNL     1     -22.206   1.118  62.093  1.00  0.00     0.154 C 
HETATM   14  C21 UNL     1     -20.973   0.555  61.430  1.00  0.00     0.042 C 
BRANCH  11  15
HETATM   15  O1  UNL     1     -20.220   3.283  63.989  1.00  0.00    -0.344 OA
HETATM   16  C1  UNL     1     -20.858   4.361  63.420  1.00  0.00     0.207 C 
ENDBRANCH  11  15
ENDBRANCH   7   8
ENDBRANCH   1   7
BRANCH   6  17
HETATM   17  C19 UNL     1     -23.482  -3.555  63.871  1.00  0.00     0.176 C 
BRANCH  17  18
HETATM   18  O12 UNL     1     -24.015  -4.759  63.428  1.00  0.00    -0.400 OA
ATOM     19  H12 UNL     1     -24.199  -5.311  64.179  1.00  0.00     0.209 HD
ENDBRANCH  17  18
ENDBRANCH   6  17
BRANCH   3  20
HETATM   20  C7  UNL     1     -27.007  -0.151  65.059  1.00  0.00     0.187 C 
BRANCH  20  21
HETATM   21  C8  UNL     1     -28.122  -0.997  65.633  1.00  0.00     0.199 C 
BRANCH  21  22
HETATM   22  O5  UNL     1     -28.257  -0.587  66.989  1.00  0.00    -0.398 OA
ATOM     23  H5  UNL     1     -29.158  -0.301  67.082  1.00  0.00     0.209 HD
ENDBRANCH  21  22
ENDBRANCH  20  21
BRANCH  20  24
HETATM   24  O6  UNL     1     -27.635   1.147  64.871  1.00  0.00    -0.311 OA
BRANCH  24  25
HETATM   25  C9  UNL     1     -27.135   2.267  65.517  1.00  0.00     0.255 C 
HETATM   26  C10 UNL     1     -27.825   2.917  66.660  1.00  0.00     0.126 C 
HETATM   27  O7  UNL     1     -26.060   2.746  65.117  1.00  0.00    -0.266 OA
ENDBRANCH  24  25
ENDBRANCH  20  24
ENDBRANCH   3  20
BRANCH   5  28
HETATM   28  O11 UNL     1     -26.402  -3.999  64.566  1.00  0.00    -0.392 OA
ATOM     29  H11 UNL     1     -25.777  -4.084  65.277  1.00  0.00     0.210 HD
ENDBRANCH   5  28
BRANCH   4  30
HETATM   30  O8  UNL     1     -27.327  -2.094  62.003  1.00  0.00    -0.287 OA
BRANCH  30  31
HETATM   31  C12 UNL     1     -28.375  -2.920  61.664  1.00  0.00     0.407 C 
HETATM   32  O9  UNL     1     -29.224  -3.207  62.542  1.00  0.00    -0.229 OA
BRANCH  31  33
HETATM   33  O10 UNL     1     -28.559  -3.459  60.411  1.00  0.00    -0.288 OA
BRANCH  33  34
HETATM   34  C13 UNL     1     -29.508  -2.896  59.499  1.00  0.00     0.062 C 
HETATM   35  C14 UNL     1     -29.446  -1.375  59.531  1.00  0.00     0.046 C 
HETATM   36  C15 UNL     1     -29.187  -3.426  58.127  1.00  0.00     0.046 C 
HETATM   37  C16 UNL     1     -30.912  -3.302  59.871  1.00  0.00     0.046 C 
ENDBRANCH  33  34
ENDBRANCH  31  33
ENDBRANCH  30  31
ENDBRANCH   4  30
TORSDOF 15
ENDMDL
MODEL 2
REMARK VINA RESULT: -6.675093853      2.891      6.197
REMARK  15 active torsions:
REMARK  status: ('A' for Active; 'I' for Inactive)
REMARK    1  A    between atoms: O1_2  and  C2_3 
REMARK    2  A    between atoms: C4_6  and  O3_7 
REMARK    3  A    between atoms: O3_7  and  C5_8 
REMARK    4  A    between atoms: C6_10  and  C7_11 
REMARK    5  A    between atoms: C7_11  and  C8_12 
REMARK    6  A    between atoms: C7_11  and  O6_15 
REMARK    7  A    between atoms: C8_12  and  O5_13 
REMARK    8  A    between atoms: O6_15  and  C9_16 
REMARK    9  A    between atoms: C11_19  and  O8_20 
REMARK   10  A    between atoms: O8_20  and  C12_21 
REMARK   11  A    between atoms: C12_21  and  O10_23 
REMARK   12  A    between atoms: O10_23  and  C13_24 
REMARK   13  A    between atoms: C17_28  and  O11_29 
REMARK   14  A    between atoms: C18_31  and  C19_32 
REMARK   15  A    between atoms: C19_32  and  O12_33 
ROOT
HETATM    1  C5  UNL     1     -28.921  -3.196  61.553  1.00  0.00     0.269 C 
HETATM    2  O4  UNL     1     -28.990  -2.113  60.652  1.00  0.00    -0.350 OA
HETATM    3  C6  UNL     1     -29.428  -2.500  59.400  1.00  0.00     0.188 C 
HETATM    4  C11 UNL     1     -30.013  -3.845  59.256  1.00  0.00     0.195 C 
HETATM    5  C17 UNL     1     -30.627  -4.467  60.482  1.00  0.00     0.161 C 
HETATM    6  C18 UNL     1     -30.328  -3.628  61.722  1.00  0.00     0.096 C 
ENDROOT
BRANCH   1   7
HETATM    7  O3  UNL     1     -28.301  -2.870  62.713  1.00  0.00    -0.351 OA
BRANCH   7   8
HETATM    8  C4  UNL     1     -27.203  -2.076  62.582  1.00  0.00     0.177 C 
HETATM    9  C3  UNL     1     -27.329  -1.002  63.697  1.00  0.00     0.208 C 
HETATM   10  O2  UNL     1     -26.241  -0.135  63.621  1.00  0.00    -0.336 OA
HETATM   11  C2  UNL     1     -25.096  -0.904  63.871  1.00  0.00     0.413 C 
HETATM   12  O13 UNL     1     -24.868  -1.656  62.706  1.00  0.00    -0.331 OA
HETATM   13  C20 UNL     1     -25.853  -2.661  62.671  1.00  0.00     0.154 C 
HETATM   14  C21 UNL     1     -25.585  -3.514  63.886  1.00  0.00     0.042 C 
BRANCH  11  15
HETATM   15  O1  UNL     1     -24.067  -0.022  64.109  1.00  0.00    -0.344 OA
HETATM   16  C1  UNL     1     -24.522   1.268  63.964  1.00  0.00     0.207 C 
ENDBRANCH  11  15
ENDBRANCH   7   8
ENDBRANCH   1   7
BRANCH   6  17
HETATM   17  C19 UNL     1     -30.590  -4.344  62.989  1.00  0.00     0.176 C 
BRANCH  17  18
HETATM   18  O12 UNL     1     -30.633  -3.423  64.028  1.00  0.00    -0.400 OA
ATOM     19  H12 UNL     1     -30.541  -3.884  64.853  1.00  0.00     0.209 HD
ENDBRANCH  17  18
ENDBRANCH   6  17
BRANCH   3  20
HETATM   20  C7  UNL     1     -30.326  -1.380  58.920  1.00  0.00     0.187 C 
BRANCH  20  21
HETATM   21  C8  UNL     1     -30.409  -1.261  57.413  1.00  0.00     0.199 C 
BRANCH  21  22
HETATM   22  O5  UNL     1     -31.767  -1.523  57.081  1.00  0.00    -0.398 OA
ATOM     23  H5  UNL     1     -31.835  -1.379  56.145  1.00  0.00     0.209 HD
ENDBRANCH  21  22
ENDBRANCH  20  21
BRANCH  20  24
HETATM   24  O6  UNL     1     -29.736  -0.112  59.321  1.00  0.00    -0.311 OA
BRANCH  24  25
HETATM   25  C9  UNL     1     -30.544   0.941  59.721  1.00  0.00     0.255 C 
HETATM   26  C10 UNL     1     -31.817   1.289  59.039  1.00  0.00     0.126 C 
HETATM   27  O7  UNL     1     -30.184   1.623  60.696  1.00  0.00    -0.266 OA
ENDBRANCH  24  25
ENDBRANCH  20  24
ENDBRANCH   3  20
BRANCH   5  28
HETATM   28  O11 UNL     1     -31.996  -4.646  60.317  1.00  0.00    -0.392 OA
ATOM     29  H11 UNL     1     -32.487  -4.065  60.887  1.00  0.00     0.210 HD
ENDBRANCH   5  28
BRANCH   4  30
HETATM   30  O8  UNL     1     -29.062  -4.784  58.761  1.00  0.00    -0.287 OA
BRANCH  30  31
HETATM   31  C12 UNL     1     -29.271  -5.372  57.533  1.00  0.00     0.407 C 
HETATM   32  O9  UNL     1     -30.091  -4.844  56.744  1.00  0.00    -0.229 OA
BRANCH  31  33
HETATM   33  O10 UNL     1     -28.633  -6.515  57.106  1.00  0.00    -0.288 OA
BRANCH  33  34
HETATM   34  C13 UNL     1     -29.176  -7.810  57.386  1.00  0.00     0.062 C 
HETATM   35  C14 UNL     1     -28.084  -8.757  57.866  1.00  0.00     0.046 C 
HETATM   36  C15 UNL     1     -30.246  -7.636  58.431  1.00  0.00     0.046 C 
HETATM   37  C16 UNL     1     -29.786  -8.413  56.146  1.00  0.00     0.046 C 
ENDBRANCH  33  34
ENDBRANCH  31  33
ENDBRANCH  30  31
ENDBRANCH   4  30
TORSDOF 15
ENDMDL
MODEL 3
REMARK VINA RESULT: -6.672039780      0.932      1.855
REMARK  15 active torsions:
REMARK  status: ('A' for Active; 'I' for Inactive)
REMARK    1  A    between atoms: O1_2  and  C2_3 
REMARK    2  A    between atoms: C4_6  and  O3_7 
REMARK    3  A    between atoms: O3_7  and  C5_8 
REMARK    4  A    between atoms: C6_10  and  C7_11 
REMARK    5  A    between atoms: C7_11  and  C8_12 
REMARK    6  A    between atoms: C7_11  and  O6_15 
REMARK    7  A    between atoms: C8_12  and  O5_13 
REMARK    8  A    between atoms: O6_15  and  C9_16 
REMARK    9  A    between atoms: C11_19  and  O8_20 
REMARK   10  A    between atoms: O8_20  and  C12_21 
REMARK   11  A    between atoms: C12_21  and  O10_23 
REMARK   12  A    between atoms: O10_23  and  C13_24 
REMARK   13  A    between atoms: C17_28  and  O11_29 
REMARK   14  A    between atoms: C18_31  and  C19_32 
REMARK   15  A    between atoms: C19_32  and  O12_33 
ROOT
HETATM    1  C5  UNL     1     -24.496  -1.633  62.909  1.00  0.00     0.269 C 
HETATM    2  O4  UNL     1     -25.339  -0.573  63.303  1.00  0.00    -0.350 OA
HETATM    3  C6  UNL     1     -26.676  -0.916  63.241  1.00  0.00     0.188 C 
HETATM    4  C11 UNL     1     -27.018  -2.340  63.072  1.00  0.00     0.195 C 
HETATM    5  C17 UNL     1     -26.013  -3.354  63.549  1.00  0.00     0.161 C 
HETATM    6  C18 UNL     1     -24.704  -2.674  63.942  1.00  0.00     0.096 C 
ENDROOT
BRANCH   1   7
HETATM    7  O3  UNL     1     -23.205  -1.247  62.768  1.00  0.00    -0.351 OA
BRANCH   7   8
HETATM    8  C4  UNL     1     -22.954   0.059  63.061  1.00  0.00     0.177 C 
HETATM    9  C3  UNL     1     -22.047   0.038  64.322  1.00  0.00     0.208 C 
HETATM   10  O2  UNL     1     -21.753   1.347  64.696  1.00  0.00    -0.336 OA
HETATM   11  C2  UNL     1     -21.031   1.915  63.638  1.00  0.00     0.413 C 
HETATM   12  O13 UNL     1     -21.964   2.174  62.621  1.00  0.00    -0.331 OA
HETATM   13  C20 UNL     1     -22.312   0.931  62.060  1.00  0.00     0.154 C 
HETATM   14  C21 UNL     1     -21.033   0.405  61.453  1.00  0.00     0.042 C 
BRANCH  11  15
HETATM   15  O1  UNL     1     -20.472   3.079  64.116  1.00  0.00    -0.344 OA
HETATM   16  C1  UNL     1     -21.084   4.160  63.525  1.00  0.00     0.207 C 
ENDBRANCH  11  15
ENDBRANCH   7   8
ENDBRANCH   1   7
BRANCH   6  17
HETATM   17  C19 UNL     1     -23.574  -3.619  64.080  1.00  0.00     0.176 C 
BRANCH  17  18
HETATM   18  O12 UNL     1     -23.912  -4.820  63.469  1.00  0.00    -0.400 OA
ATOM     19  H12 UNL     1     -24.102  -5.465  64.139  1.00  0.00     0.209 HD
ENDBRANCH  17  18
ENDBRANCH   6  17
BRANCH   3  20
HETATM   20  C7  UNL     1     -27.319  -0.263  64.446  1.00  0.00     0.187 C 
BRANCH  20  21
HETATM   21  C8  UNL     1     -26.411   0.698  65.183  1.00  0.00     0.199 C 
BRANCH  21  22
HETATM   22  O5  UNL     1     -26.199   1.786  64.292  1.00  0.00    -0.398 OA
ATOM     23  H5  UNL     1     -26.642   2.529  64.684  1.00  0.00     0.209 HD
ENDBRANCH  21  22
ENDBRANCH  20  21
BRANCH  20  24
HETATM   24  O6  UNL     1     -27.589  -1.292  65.438  1.00  0.00    -0.311 OA
BRANCH  24  25
HETATM   25  C9  UNL     1     -28.768  -1.269  66.168  1.00  0.00     0.255 C 
HETATM   26  C10 UNL     1     -28.984  -0.365  67.326  1.00  0.00     0.126 C 
HETATM   27  O7  UNL     1     -29.682  -2.042  65.835  1.00  0.00    -0.266 OA
ENDBRANCH  24  25
ENDBRANCH  20  24
ENDBRANCH   3  20
BRANCH   5  28
HETATM   28  O11 UNL     1     -26.523  -4.105  64.602  1.00  0.00    -0.392 OA
ATOM     29  H11 UNL     1     -25.828  -4.553  65.069  1.00  0.00     0.210 HD
ENDBRANCH   5  28
BRANCH   4  30
HETATM   30  O8  UNL     1     -27.298  -2.657  61.711  1.00  0.00    -0.287 OA
BRANCH  30  31
HETATM   31  C12 UNL     1     -28.607  -2.785  61.304  1.00  0.00     0.407 C 
HETATM   32  O9  UNL     1     -29.348  -3.602  61.904  1.00  0.00    -0.229 OA
BRANCH  31  33
HETATM   33  O10 UNL     1     -29.169  -2.069  60.271  1.00  0.00    -0.288 OA
BRANCH  33  34
HETATM   34  C13 UNL     1     -29.852  -2.731  59.201  1.00  0.00     0.062 C 
HETATM   35  C14 UNL     1     -31.105  -3.427  59.714  1.00  0.00     0.046 C 
HETATM   36  C15 UNL     1     -30.189  -1.691  58.167  1.00  0.00     0.046 C 
HETATM   37  C16 UNL     1     -28.971  -3.784  58.576  1.00  0.00     0.046 C 
ENDBRANCH  33  34
ENDBRANCH  31  33
ENDBRANCH  30  31
ENDBRANCH   4  30
TORSDOF 15
ENDMDL
MODEL 4
REMARK VINA RESULT: -6.136807239      2.708      4.064
REMARK  15 active torsions:
REMARK  status: ('A' for Active; 'I' for Inactive)
REMARK    1  A    between atoms: O1_2  and  C2_3 
REMARK    2  A    between atoms: C4_6  and  O3_7 
REMARK    3  A    between atoms: O3_7  and  C5_8 
REMARK    4  A    between atoms: C6_10  and  C7_11 
REMARK    5  A    between atoms: C7_11  and  C8_12 
REMARK    6  A    between atoms: C7_11  and  O6_15 
REMARK    7  A    between atoms: C8_12  and  O5_13 
REMARK    8  A    between atoms: O6_15  and  C9_16 
REMARK    9  A    between atoms: C11_19  and  O8_20 
REMARK   10  A    between atoms: O8_20  and  C12_21 
REMARK   11  A    between atoms: C12_21  and  O10_23 
REMARK   12  A    between atoms: O10_23  and  C13_24 
REMARK   13  A    between atoms: C17_28  and  O11_29 
REMARK   14  A    between atoms: C18_31  and  C19_32 
REMARK   15  A    between atoms: C19_32  and  O12_33 
ROOT
HETATM    1  C5  UNL     1     -25.294   1.732  64.435  1.00  0.00     0.269 C 
HETATM    2  O4  UNL     1     -26.081   2.405  65.392  1.00  0.00    -0.350 OA
HETATM    3  C6  UNL     1     -27.420   2.418  65.056  1.00  0.00     0.188 C 
HETATM    4  C11 UNL     1     -27.869   1.529  63.968  1.00  0.00     0.195 C 
HETATM    5  C17 UNL     1     -27.046   0.297  63.699  1.00  0.00     0.161 C 
HETATM    6  C18 UNL     1     -25.751   0.324  64.505  1.00  0.00     0.096 C 
ENDROOT
BRANCH   1   7
HETATM    7  O3  UNL     1     -23.966   1.892  64.647  1.00  0.00    -0.351 OA
BRANCH   7   8
HETATM    8  C4  UNL     1     -23.355   2.808  63.846  1.00  0.00     0.177 C 
HETATM    9  C3  UNL     1     -22.990   3.999  64.775  1.00  0.00     0.208 C 
HETATM   10  O2  UNL     1     -22.369   4.992  64.022  1.00  0.00    -0.336 OA
HETATM   11  C2  UNL     1     -21.183   4.436  63.525  1.00  0.00     0.413 C 
HETATM   12  O13 UNL     1     -21.562   3.569  62.486  1.00  0.00    -0.331 OA
HETATM   13  C20 UNL     1     -22.144   2.439  63.091  1.00  0.00     0.154 C 
HETATM   14  C21 UNL     1     -21.033   1.811  63.896  1.00  0.00     0.042 C 
BRANCH  11  15
HETATM   15  O1  UNL     1     -20.420   5.481  63.054  1.00  0.00    -0.344 OA
HETATM   16  C1  UNL     1     -19.766   5.094  61.907  1.00  0.00     0.207 C 
ENDBRANCH  11  15
ENDBRANCH   7   8
ENDBRANCH   1   7
BRANCH   6  17
HETATM   17  C19 UNL     1     -24.750  -0.657  64.035  1.00  0.00     0.176 C 
BRANCH  17  18
HETATM   18  O12 UNL     1     -25.283  -1.372  62.969  1.00  0.00    -0.400 OA
ATOM     19  H12 UNL     1     -24.709  -1.279  62.218  1.00  0.00     0.209 HD
ENDBRANCH  17  18
ENDBRANCH   6  17
BRANCH   3  20
HETATM   20  C7  UNL     1     -28.169   2.229  66.358  1.00  0.00     0.187 C 
BRANCH  20  21
HETATM   21  C8  UNL     1     -27.885   3.298  67.391  1.00  0.00     0.199 C 
BRANCH  21  22
HETATM   22  O5  UNL     1     -27.573   4.473  66.653  1.00  0.00    -0.398 OA
ATOM     23  H5  UNL     1     -27.813   5.201  67.214  1.00  0.00     0.209 HD
ENDBRANCH  21  22
ENDBRANCH  20  21
BRANCH  20  24
HETATM   24  O6  UNL     1     -27.685   1.014  66.996  1.00  0.00    -0.311 OA
BRANCH  24  25
HETATM   25  C9  UNL     1     -28.580   0.052  67.439  1.00  0.00     0.255 C 
HETATM   26  C10 UNL     1     -29.265   0.129  68.754  1.00  0.00     0.126 C 
HETATM   27  O7  UNL     1     -28.816  -0.918  66.698  1.00  0.00    -0.266 OA
ENDBRANCH  24  25
ENDBRANCH  20  24
ENDBRANCH   3  20
BRANCH   5  28
HETATM   28  O11 UNL     1     -27.776  -0.857  63.963  1.00  0.00    -0.392 OA
ATOM     29  H11 UNL     1     -27.537  -1.556  63.365  1.00  0.00     0.210 HD
ENDBRANCH   5  28
BRANCH   4  30
HETATM   30  O8  UNL     1     -27.974   2.224  62.729  1.00  0.00    -0.287 OA
BRANCH  30  31
HETATM   31  C12 UNL     1     -29.214   2.620  62.281  1.00  0.00     0.407 C 
HETATM   32  O9  UNL     1     -29.709   3.680  62.737  1.00  0.00    -0.229 OA
BRANCH  31  33
HETATM   33  O10 UNL     1     -29.959   1.926  61.354  1.00  0.00    -0.288 OA
BRANCH  33  34
HETATM   34  C13 UNL     1     -31.039   2.555  60.656  1.00  0.00     0.062 C 
HETATM   35  C14 UNL     1     -30.548   3.785  59.905  1.00  0.00     0.046 C 
HETATM   36  C15 UNL     1     -31.624   1.536  59.715  1.00  0.00     0.046 C 
HETATM   37  C16 UNL     1     -32.106   3.009  61.621  1.00  0.00     0.046 C 
ENDBRANCH  33  34
ENDBRANCH  31  33
ENDBRANCH  30  31
ENDBRANCH   4  30
TORSDOF 15
ENDMDL
MODEL 5
REMARK VINA RESULT: -6.074438228      5.533      9.247
REMARK  15 active torsions:
REMARK  status: ('A' for Active; 'I' for Inactive)
REMARK    1  A    between atoms: O1_2  and  C2_3 
REMARK    2  A    between atoms: C4_6  and  O3_7 
REMARK    3  A    between atoms: O3_7  and  C5_8 
REMARK    4  A    between atoms: C6_10  and  C7_11 
REMARK    5  A    between atoms: C7_11  and  C8_12 
REMARK    6  A    between atoms: C7_11  and  O6_15 
REMARK    7  A    between atoms: C8_12  and  O5_13 
REMARK    8  A    between atoms: O6_15  and  C9_16 
REMARK    9  A    between atoms: C11_19  and  O8_20 
REMARK   10  A    between atoms: O8_20  and  C12_21 
REMARK   11  A    between atoms: C12_21  and  O10_23 
REMARK   12  A    between atoms: O10_23  and  C13_24 
REMARK   13  A    between atoms: C17_28  and  O11_29 
REMARK   14  A    between atoms: C18_31  and  C19_32 
REMARK   15  A    between atoms: C19_32  and  O12_33 
ROOT
HETATM    1  C5  UNL     1     -18.778   5.440  60.177  1.00  0.00     0.269 C 
HETATM    2  O4  UNL     1     -19.586   5.828  61.266  1.00  0.00    -0.350 OA
HETATM    3  C6  UNL     1     -20.101   4.743  61.949  1.00  0.00     0.188 C 
HETATM    4  C11 UNL     1     -19.538   3.412  61.659  1.00  0.00     0.195 C 
HETATM    5  C17 UNL     1     -18.129   3.357  61.130  1.00  0.00     0.161 C 
HETATM    6  C18 UNL     1     -17.620   4.757  60.800  1.00  0.00     0.096 C 
ENDROOT
BRANCH   1   7
HETATM    7  O3  UNL     1     -18.440   6.484  59.382  1.00  0.00    -0.351 OA
BRANCH   7   8
HETATM    8  C4  UNL     1     -19.355   7.491  59.325  1.00  0.00     0.177 C 
HETATM    9  C3  UNL     1     -18.624   8.681  58.643  1.00  0.00     0.208 C 
HETATM   10  O2  UNL     1     -19.496   9.764  58.559  1.00  0.00    -0.336 OA
HETATM   11  C2  UNL     1     -20.557   9.363  57.736  1.00  0.00     0.413 C 
HETATM   12  O13 UNL     1     -21.347   8.496  58.509  1.00  0.00    -0.331 OA
HETATM   13  C20 UNL     1     -20.635   7.288  58.622  1.00  0.00     0.154 C 
HETATM   14  C21 UNL     1     -20.535   6.759  57.212  1.00  0.00     0.042 C 
BRANCH  11  15
HETATM   15  O1  UNL     1     -21.249  10.502  57.393  1.00  0.00    -0.344 OA
HETATM   16  C1  UNL     1     -22.601  10.256  57.453  1.00  0.00     0.207 C 
ENDBRANCH  11  15
ENDBRANCH   7   8
ENDBRANCH   1   7
BRANCH   6  17
HETATM   17  C19 UNL     1     -16.402   4.753  59.962  1.00  0.00     0.176 C 
BRANCH  17  18
HETATM   18  O12 UNL     1     -16.763   4.528  58.640  1.00  0.00    -0.400 OA
ATOM     19  H12 UNL     1     -16.162   3.899  58.258  1.00  0.00     0.209 HD
ENDBRANCH  17  18
ENDBRANCH   6  17
BRANCH   3  20
HETATM   20  C7  UNL     1     -20.058   5.127  63.413  1.00  0.00     0.187 C 
BRANCH  20  21
HETATM   21  C8  UNL     1     -20.425   4.002  64.355  1.00  0.00     0.199 C 
BRANCH  21  22
HETATM   22  O5  UNL     1     -19.347   3.076  64.288  1.00  0.00    -0.398 OA
ATOM     23  H5  UNL     1     -18.581   3.590  64.060  1.00  0.00     0.209 HD
ENDBRANCH  21  22
ENDBRANCH  20  21
BRANCH  20  24
HETATM   24  O6  UNL     1     -21.093   6.119  63.660  1.00  0.00    -0.311 OA
BRANCH  24  25
HETATM   25  C9  UNL     1     -21.699   6.204  64.904  1.00  0.00     0.255 C 
HETATM   26  C10 UNL     1     -23.080   5.726  65.166  1.00  0.00     0.126 C 
HETATM   27  O7  UNL     1     -21.053   6.705  65.840  1.00  0.00    -0.266 OA
ENDBRANCH  24  25
ENDBRANCH  20  24
ENDBRANCH   3  20
BRANCH   5  28
HETATM   28  O11 UNL     1     -17.284   2.717  62.031  1.00  0.00    -0.392 OA
ATOM     29  H11 UNL     1     -17.725   1.990  62.454  1.00  0.00     0.210 HD
ENDBRANCH   5  28
BRANCH   4  30
HETATM   30  O8  UNL     1     -20.345   2.689  60.733  1.00  0.00    -0.287 OA
BRANCH  30  31
HETATM   31  C12 UNL     1     -20.780   1.425  61.062  1.00  0.00     0.407 C 
HETATM   32  O9  UNL     1     -21.249   0.694  60.155  1.00  0.00    -0.229 OA
BRANCH  31  33
HETATM   33  O10 UNL     1     -20.736   0.898  62.334  1.00  0.00    -0.288 OA
BRANCH  33  34
HETATM   34  C13 UNL     1     -21.929   0.738  63.107  1.00  0.00     0.062 C 
HETATM   35  C14 UNL     1     -21.591   0.424  64.558  1.00  0.00     0.046 C 
HETATM   36  C15 UNL     1     -22.717   2.016  62.993  1.00  0.00     0.046 C 
HETATM   37  C16 UNL     1     -22.759  -0.404  62.577  1.00  0.00     0.046 C 
ENDBRANCH  33  34
ENDBRANCH  31  33
ENDBRANCH  30  31
ENDBRANCH   4  30
TORSDOF 15
ENDMDL
