MODEL 1
REMARK VINA RESULT: -7.310617095      0.000      0.000
REMARK  9 active torsions:
REMARK  status: ('A' for Active; 'I' for Inactive)
REMARK    1  A    between atoms: O1_2  and  C2_3 
REMARK    2  A    between atoms: C2_3  and  C3_4 
REMARK    3  A    between atoms: C5_8  and  C6_9 
REMARK    4  A    between atoms: C7_11  and  C8_12 
REMARK    5  A    between atoms: C10_15  and  C11_17 
REMARK    6  A    between atoms: C16_25  and  O7_26 
REMARK    7  A    between atoms: O7_26  and  C17_27 
REMARK    8  A    between atoms: C17_27  and  C18_29 
REMARK    9  A    between atoms: C18_29  and  O9_32 
ROOT
HETATM    1  C3  UNL     1      20.463   4.085   9.420  1.00  0.00     0.164 C 
HETATM    2  O2  UNL     1      20.036   5.430   9.521  1.00  0.00    -0.310 OA
HETATM    3  C4  UNL     1      19.537   5.551  10.806  1.00  0.00     0.303 C 
HETATM    4  O3  UNL     1      19.504   6.602  11.471  1.00  0.00    -0.261 OA
HETATM    5  C5  UNL     1      19.045   4.236  11.278  1.00  0.00     0.227 C 
HETATM    6  O5  UNL     1      17.663   4.162  11.398  1.00  0.00    -0.212 OA
HETATM    7  O6  UNL     1      17.282   2.934  11.524  1.00  0.00    -0.228 OA
HETATM    8  C13 UNL     1      17.343   2.183  10.340  1.00  0.00     0.099 C 
HETATM    9  C14 UNL     1      18.026   0.878  10.692  1.00  0.00     0.050 C 
HETATM   10  C15 UNL     1      15.988   1.857   9.814  1.00  0.00     0.074 C 
HETATM   11  C16 UNL     1      15.303   3.208   9.563  1.00  0.00     0.135 C 
HETATM   12  C21 UNL     1      16.019   3.803   8.390  1.00  0.00     0.033 C 
HETATM   13  C22 UNL     1      17.472   4.053   8.659  1.00  0.00     0.011 C 
HETATM   14  C23 UNL     1      18.201   2.972   9.338  1.00  0.00     0.033 C 
HETATM   15  C24 UNL     1      19.416   3.335  10.115  1.00  0.00     0.078 C 
ENDROOT
BRANCH   5  16
HETATM   16  C6  UNL     1      19.685   3.876  12.549  1.00  0.00     0.057 C 
HETATM   17 CL1  UNL     1      20.668   2.415  12.719  1.00  0.00    -0.085 Cl
HETATM   18  C7  UNL     1      19.533   4.679  13.593  1.00  0.00     0.011 C 
BRANCH  18  19
HETATM   19  C8  UNL     1      20.135   4.415  14.929  1.00  0.00     0.114 A 
HETATM   20  C9  UNL     1      19.618   5.071  16.128  1.00  0.00     0.163 A 
HETATM   21  O4  UNL     1      19.429   5.978  16.932  1.00  0.00    -0.295 OA
HETATM   22  C10 UNL     1      19.294   3.625  15.864  1.00  0.00     0.128 A 
HETATM   23 CL2  UNL     1      17.613   3.245  15.489  1.00  0.00    -0.108 Cl
BRANCH  22  24
HETATM   24  C11 UNL     1      19.948   2.696  16.870  1.00  0.00     0.110 C 
HETATM   25  C12 UNL     1      19.009   1.545  17.166  1.00  0.00     0.029 C 
HETATM   26 CL3  UNL     1      21.391   2.007  16.061  1.00  0.00    -0.123 Cl
ENDBRANCH  22  24
ENDBRANCH  18  19
ENDBRANCH   5  16
BRANCH   1  27
HETATM   27  C2  UNL     1      20.894   3.647   8.080  1.00  0.00     0.200 C 
BRANCH  27  28
HETATM   28  O1  UNL     1      20.071   4.302   7.133  1.00  0.00    -0.393 OA
HETATM   29  C1  UNL     1      19.950   3.427   6.045  1.00  0.00     0.201 C 
ENDBRANCH  27  28
ENDBRANCH   1  27
BRANCH  11  30
HETATM   30  O7  UNL     1      13.965   2.952   9.284  1.00  0.00    -0.314 OA
BRANCH  30  31
HETATM   31  C17 UNL     1      13.067   2.817  10.333  1.00  0.00     0.293 C 
HETATM   32  O8  UNL     1      13.187   3.475  11.399  1.00  0.00    -0.262 OA
BRANCH  31  33
HETATM   33  C18 UNL     1      11.912   1.884  10.252  1.00  0.00     0.138 C 
HETATM   34  C19 UNL     1      11.746   1.505   8.791  1.00  0.00     0.056 C 
HETATM   35  C20 UNL     1      10.668   2.653  10.663  1.00  0.00     0.056 C 
BRANCH  33  36
HETATM   36  O9  UNL     1      12.103   0.759  11.051  1.00  0.00    -0.380 OA
ATOM     37  H9  UNL     1      11.299   0.498  11.484  1.00  0.00     0.211 HD
ENDBRANCH  33  36
ENDBRANCH  31  33
ENDBRANCH  30  31
ENDBRANCH  11  30
TORSDOF 9
ENDMDL
MODEL 2
REMARK VINA RESULT: -7.216088115      4.201      8.667
REMARK  9 active torsions:
REMARK  status: ('A' for Active; 'I' for Inactive)
REMARK    1  A    between atoms: O1_2  and  C2_3 
REMARK    2  A    between atoms: C2_3  and  C3_4 
REMARK    3  A    between atoms: C5_8  and  C6_9 
REMARK    4  A    between atoms: C7_11  and  C8_12 
REMARK    5  A    between atoms: C10_15  and  C11_17 
REMARK    6  A    between atoms: C16_25  and  O7_26 
REMARK    7  A    between atoms: O7_26  and  C17_27 
REMARK    8  A    between atoms: C17_27  and  C18_29 
REMARK    9  A    between atoms: C18_29  and  O9_32 
ROOT
HETATM    1  C3  UNL     1      19.914   3.742  16.274  1.00  0.00     0.164 C 
HETATM    2  O2  UNL     1      20.813   2.701  16.608  1.00  0.00    -0.310 OA
HETATM    3  C4  UNL     1      20.316   1.581  15.966  1.00  0.00     0.303 C 
HETATM    4  O3  UNL     1      20.992   0.606  15.589  1.00  0.00    -0.261 OA
HETATM    5  C5  UNL     1      18.851   1.711  15.793  1.00  0.00     0.227 C 
HETATM    6  O5  UNL     1      18.111   0.842  16.584  1.00  0.00    -0.212 OA
HETATM    7  O6  UNL     1      16.869   1.197  16.609  1.00  0.00    -0.228 OA
HETATM    8  C13 UNL     1      16.604   2.330  17.392  1.00  0.00     0.099 C 
HETATM    9  C14 UNL     1      15.730   3.240  16.553  1.00  0.00     0.050 C 
HETATM   10  C15 UNL     1      15.849   1.992  18.630  1.00  0.00     0.074 C 
HETATM   11  C16 UNL     1      16.732   0.998  19.398  1.00  0.00     0.135 C 
HETATM   12  C21 UNL     1      17.898   1.800  19.887  1.00  0.00     0.033 C 
HETATM   13  C22 UNL     1      18.708   2.390  18.773  1.00  0.00     0.011 C 
HETATM   14  C23 UNL     1      17.950   3.015  17.679  1.00  0.00     0.033 C 
HETATM   15  C24 UNL     1      18.601   3.102  16.345  1.00  0.00     0.078 C 
ENDROOT
BRANCH   5  16
HETATM   16  C6  UNL     1      18.487   1.547  14.380  1.00  0.00     0.057 C 
HETATM   17 CL1  UNL     1      17.647   0.105  13.793  1.00  0.00    -0.085 Cl
HETATM   18  C7  UNL     1      18.784   2.516  13.525  1.00  0.00     0.011 C 
BRANCH  18  19
HETATM   19  C8  UNL     1      18.463   2.458  12.071  1.00  0.00     0.114 A 
HETATM   20  C9  UNL     1      17.353   3.229  11.518  1.00  0.00     0.163 A 
HETATM   21  O4  UNL     1      16.187   3.520  11.268  1.00  0.00    -0.295 OA
HETATM   22  C10 UNL     1      18.768   3.689  11.300  1.00  0.00     0.128 A 
HETATM   23 CL2  UNL     1      19.251   5.181  12.105  1.00  0.00    -0.108 Cl
BRANCH  22  24
HETATM   24  C11 UNL     1      19.189   3.585   9.845  1.00  0.00     0.110 C 
HETATM   25  C12 UNL     1      20.007   4.806   9.477  1.00  0.00     0.029 C 
HETATM   26 CL3  UNL     1      20.277   2.166   9.731  1.00  0.00    -0.123 Cl
ENDBRANCH  22  24
ENDBRANCH  18  19
ENDBRANCH   5  16
BRANCH   1  27
HETATM   27  C2  UNL     1      20.130   5.024  16.968  1.00  0.00     0.200 C 
BRANCH  27  28
HETATM   28  O1  UNL     1      19.312   5.992  16.339  1.00  0.00    -0.393 OA
HETATM   29  C1  UNL     1      20.115   7.125  16.152  1.00  0.00     0.201 C 
ENDBRANCH  27  28
ENDBRANCH   1  27
BRANCH  11  30
HETATM   30  O7  UNL     1      15.972   0.487  20.445  1.00  0.00    -0.314 OA
BRANCH  30  31
HETATM   31  C17 UNL     1      16.414  -0.644  21.115  1.00  0.00     0.293 C 
HETATM   32  O8  UNL     1      17.123  -1.517  20.549  1.00  0.00    -0.262 OA
BRANCH  31  33
HETATM   33  C18 UNL     1      16.073  -0.884  22.542  1.00  0.00     0.138 C 
HETATM   34  C19 UNL     1      15.239   0.296  23.007  1.00  0.00     0.056 C 
HETATM   35  C20 UNL     1      17.367  -0.865  23.337  1.00  0.00     0.056 C 
BRANCH  33  36
HETATM   36  O9  UNL     1      15.390  -2.087  22.711  1.00  0.00    -0.380 OA
ATOM     37  H9  UNL     1      14.809  -2.057  23.461  1.00  0.00     0.211 HD
ENDBRANCH  33  36
ENDBRANCH  31  33
ENDBRANCH  30  31
ENDBRANCH  11  30
TORSDOF 9
ENDMDL
MODEL 3
REMARK VINA RESULT: -6.922832507      0.986      1.150
REMARK  9 active torsions:
REMARK  status: ('A' for Active; 'I' for Inactive)
REMARK    1  A    between atoms: O1_2  and  C2_3 
REMARK    2  A    between atoms: C2_3  and  C3_4 
REMARK    3  A    between atoms: C5_8  and  C6_9 
REMARK    4  A    between atoms: C7_11  and  C8_12 
REMARK    5  A    between atoms: C10_15  and  C11_17 
REMARK    6  A    between atoms: C16_25  and  O7_26 
REMARK    7  A    between atoms: O7_26  and  C17_27 
REMARK    8  A    between atoms: C17_27  and  C18_29 
REMARK    9  A    between atoms: C18_29  and  O9_32 
ROOT
HETATM    1  C3  UNL     1      20.251   3.641   8.002  1.00  0.00     0.164 C 
HETATM    2  O2  UNL     1      19.889   5.008   7.967  1.00  0.00    -0.310 OA
HETATM    3  C4  UNL     1      19.599   5.334   9.281  1.00  0.00     0.303 C 
HETATM    4  O3  UNL     1      19.703   6.469   9.782  1.00  0.00    -0.261 OA
HETATM    5  C5  UNL     1      19.144   4.127  10.008  1.00  0.00     0.227 C 
HETATM    6  O5  UNL     1      17.795   4.146  10.341  1.00  0.00    -0.212 OA
HETATM    7  O6  UNL     1      17.399   2.970  10.701  1.00  0.00    -0.228 OA
HETATM    8  C13 UNL     1      17.251   2.059   9.645  1.00  0.00     0.099 C 
HETATM    9  C14 UNL     1      17.938   0.780  10.079  1.00  0.00     0.050 C 
HETATM   10  C15 UNL     1      15.822   1.737   9.379  1.00  0.00     0.074 C 
HETATM   11  C16 UNL     1      15.150   3.074   9.038  1.00  0.00     0.135 C 
HETATM   12  C21 UNL     1      15.694   3.460   7.697  1.00  0.00     0.033 C 
HETATM   13  C22 UNL     1      17.178   3.665   7.708  1.00  0.00     0.011 C 
HETATM   14  C23 UNL     1      17.968   2.652   8.422  1.00  0.00     0.033 C 
HETATM   15  C24 UNL     1      19.301   3.054   8.948  1.00  0.00     0.078 C 
ENDROOT
BRANCH   5  16
HETATM   16  C6  UNL     1      19.961   3.915  11.209  1.00  0.00     0.057 C 
HETATM   17 CL1  UNL     1      21.391   2.874  11.193  1.00  0.00    -0.085 Cl
HETATM   18  C7  UNL     1      19.623   4.535  12.331  1.00  0.00     0.011 C 
BRANCH  18  19
HETATM   19  C8  UNL     1      20.378   4.394  13.608  1.00  0.00     0.114 A 
HETATM   20  C9  UNL     1      19.878   4.989  14.844  1.00  0.00     0.163 A 
HETATM   21  O4  UNL     1      19.626   5.874  15.655  1.00  0.00    -0.295 OA
HETATM   22  C10 UNL     1      19.756   3.506  14.623  1.00  0.00     0.128 A 
HETATM   23 CL2  UNL     1      18.127   2.867  14.409  1.00  0.00    -0.108 Cl
BRANCH  22  24
HETATM   24  C11 UNL     1      20.634   2.709  15.570  1.00  0.00     0.110 C 
HETATM   25  C12 UNL     1      19.759   2.034  16.607  1.00  0.00     0.029 C 
HETATM   26 CL3  UNL     1      21.391   1.413  14.592  1.00  0.00    -0.123 Cl
ENDBRANCH  22  24
ENDBRANCH  18  19
ENDBRANCH   5  16
BRANCH   1  27
HETATM   27  C2  UNL     1      20.455   2.997   6.692  1.00  0.00     0.200 C 
BRANCH  27  28
HETATM   28  O1  UNL     1      20.041   3.915   5.698  1.00  0.00    -0.393 OA
HETATM   29  C1  UNL     1      19.345   3.168   4.738  1.00  0.00     0.201 C 
ENDBRANCH  27  28
ENDBRANCH   1  27
BRANCH  11  30
HETATM   30  O7  UNL     1      13.777   2.854   9.002  1.00  0.00    -0.314 OA
BRANCH  30  31
HETATM   31  C17 UNL     1      13.077   2.738  10.194  1.00  0.00     0.293 C 
HETATM   32  O8  UNL     1      13.441   3.337  11.239  1.00  0.00    -0.262 OA
BRANCH  31  33
HETATM   33  C18 UNL     1      11.856   1.897  10.298  1.00  0.00     0.138 C 
HETATM   34  C19 UNL     1      11.439   1.536   8.884  1.00  0.00     0.056 C 
HETATM   35  C20 UNL     1      10.752   2.756  10.890  1.00  0.00     0.056 C 
BRANCH  33  36
HETATM   36  O9  UNL     1      12.081   0.757  11.067  1.00  0.00    -0.380 OA
ATOM     37  H9  UNL     1      11.382   0.614  11.694  1.00  0.00     0.211 HD
ENDBRANCH  33  36
ENDBRANCH  31  33
ENDBRANCH  30  31
ENDBRANCH  11  30
TORSDOF 9
ENDMDL
MODEL 4
REMARK VINA RESULT: -6.868820185      3.629      6.877
REMARK  9 active torsions:
REMARK  status: ('A' for Active; 'I' for Inactive)
REMARK    1  A    between atoms: O1_2  and  C2_3 
REMARK    2  A    between atoms: C2_3  and  C3_4 
REMARK    3  A    between atoms: C5_8  and  C6_9 
REMARK    4  A    between atoms: C7_11  and  C8_12 
REMARK    5  A    between atoms: C10_15  and  C11_17 
REMARK    6  A    between atoms: C16_25  and  O7_26 
REMARK    7  A    between atoms: O7_26  and  C17_27 
REMARK    8  A    between atoms: C17_27  and  C18_29 
REMARK    9  A    between atoms: C18_29  and  O9_32 
ROOT
HETATM    1  C3  UNL     1      18.735   3.687  17.126  1.00  0.00     0.164 C 
HETATM    2  O2  UNL     1      17.435   4.138  16.797  1.00  0.00    -0.310 OA
HETATM    3  C4  UNL     1      16.642   3.005  16.844  1.00  0.00     0.303 C 
HETATM    4  O3  UNL     1      15.422   2.988  17.092  1.00  0.00    -0.261 OA
HETATM    5  C5  UNL     1      17.462   1.807  16.553  1.00  0.00     0.227 C 
HETATM    6  O5  UNL     1      17.181   1.216  15.328  1.00  0.00    -0.212 OA
HETATM    7  O6  UNL     1      18.107   0.374  15.006  1.00  0.00    -0.228 OA
HETATM    8  C13 UNL     1      19.308   0.965  14.585  1.00  0.00     0.099 C 
HETATM    9  C14 UNL     1      20.422   0.257  15.329  1.00  0.00     0.050 C 
HETATM   10  C15 UNL     1      19.545   0.774  13.127  1.00  0.00     0.074 C 
HETATM   11  C16 UNL     1      18.346   1.423  12.421  1.00  0.00     0.135 C 
HETATM   12  C21 UNL     1      18.513   2.896  12.630  1.00  0.00     0.033 C 
HETATM   13  C22 UNL     1      18.480   3.288  14.076  1.00  0.00     0.011 C 
HETATM   14  C23 UNL     1      19.260   2.445  14.994  1.00  0.00     0.033 C 
HETATM   15  C24 UNL     1      18.848   2.409  16.423  1.00  0.00     0.078 C 
ENDROOT
BRANCH   5  16
HETATM   16  C6  UNL     1      17.330   0.822  17.634  1.00  0.00     0.057 C 
HETATM   17 CL1  UNL     1      17.611  -0.904  17.365  1.00  0.00    -0.085 Cl
HETATM   18  C7  UNL     1      17.007   1.244  18.849  1.00  0.00     0.011 C 
BRANCH  18  19
HETATM   19  C8  UNL     1      16.846   0.335  20.019  1.00  0.00     0.114 A 
HETATM   20  C9  UNL     1      17.997  -0.052  20.830  1.00  0.00     0.163 A 
HETATM   21  O4  UNL     1      19.027  -0.649  21.124  1.00  0.00    -0.295 OA
HETATM   22  C10 UNL     1      17.023   0.971  21.349  1.00  0.00     0.128 A 
HETATM   23 CL2  UNL     1      17.617   2.623  21.506  1.00  0.00    -0.108 Cl
BRANCH  22  24
HETATM   24  C11 UNL     1      16.235   0.461  22.542  1.00  0.00     0.110 C 
HETATM   25  C12 UNL     1      16.426   1.412  23.705  1.00  0.00     0.029 C 
HETATM   26 CL3  UNL     1      14.506   0.534  22.077  1.00  0.00    -0.123 Cl
ENDBRANCH  22  24
ENDBRANCH  18  19
ENDBRANCH   5  16
BRANCH   1  27
HETATM   27  C2  UNL     1      19.813   4.683  16.990  1.00  0.00     0.200 C 
BRANCH  27  28
HETATM   28  O1  UNL     1      19.205   5.954  16.861  1.00  0.00    -0.393 OA
HETATM   29  C1  UNL     1      19.813   6.572  15.761  1.00  0.00     0.201 C 
ENDBRANCH  27  28
ENDBRANCH   1  27
BRANCH  11  30
HETATM   30  O7  UNL     1      18.413   1.074  11.077  1.00  0.00    -0.314 OA
BRANCH  30  31
HETATM   31  C17 UNL     1      18.019   1.993  10.116  1.00  0.00     0.293 C 
HETATM   32  O8  UNL     1      16.867   2.499  10.114  1.00  0.00    -0.262 OA
BRANCH  31  33
HETATM   33  C18 UNL     1      18.941   2.431   9.035  1.00  0.00     0.138 C 
HETATM   34  C19 UNL     1      19.059   3.941   9.132  1.00  0.00     0.056 C 
HETATM   35  C20 UNL     1      18.279   2.113   7.706  1.00  0.00     0.056 C 
BRANCH  33  36
HETATM   36  O9  UNL     1      20.187   1.816   9.142  1.00  0.00    -0.380 OA
ATOM     37  H9  UNL     1      20.796   2.345   9.645  1.00  0.00     0.211 HD
ENDBRANCH  33  36
ENDBRANCH  31  33
ENDBRANCH  30  31
ENDBRANCH  11  30
TORSDOF 9
ENDMDL
MODEL 5
REMARK VINA RESULT: -6.852428573      2.539      3.298
REMARK  9 active torsions:
REMARK  status: ('A' for Active; 'I' for Inactive)
REMARK    1  A    between atoms: O1_2  and  C2_3 
REMARK    2  A    between atoms: C2_3  and  C3_4 
REMARK    3  A    between atoms: C5_8  and  C6_9 
REMARK    4  A    between atoms: C7_11  and  C8_12 
REMARK    5  A    between atoms: C10_15  and  C11_17 
REMARK    6  A    between atoms: C16_25  and  O7_26 
REMARK    7  A    between atoms: O7_26  and  C17_27 
REMARK    8  A    between atoms: C17_27  and  C18_29 
REMARK    9  A    between atoms: C18_29  and  O9_32 
ROOT
HETATM    1  C3  UNL     1      20.062   3.194   7.752  1.00  0.00     0.164 C 
HETATM    2  O2  UNL     1      19.694   4.547   7.945  1.00  0.00    -0.310 OA
HETATM    3  C4  UNL     1      18.893   4.541   9.073  1.00  0.00     0.303 C 
HETATM    4  O3  UNL     1      18.746   5.496   9.858  1.00  0.00    -0.261 OA
HETATM    5  C5  UNL     1      18.230   3.225   9.210  1.00  0.00     0.227 C 
HETATM    6  O5  UNL     1      16.860   3.257   8.977  1.00  0.00    -0.212 OA
HETATM    7  O6  UNL     1      16.397   2.061   8.823  1.00  0.00    -0.228 OA
HETATM    8  C13 UNL     1      16.716   1.468   7.592  1.00  0.00     0.099 C 
HETATM    9  C14 UNL     1      17.220   0.073   7.902  1.00  0.00     0.050 C 
HETATM   10  C15 UNL     1      15.524   1.334   6.709  1.00  0.00     0.074 C 
HETATM   11  C16 UNL     1      14.996   2.760   6.502  1.00  0.00     0.135 C 
HETATM   12  C21 UNL     1      16.016   3.439   5.641  1.00  0.00     0.033 C 
HETATM   13  C22 UNL     1      17.364   3.523   6.290  1.00  0.00     0.011 C 
HETATM   14  C23 UNL     1      17.840   2.303   6.958  1.00  0.00     0.033 C 
HETATM   15  C24 UNL     1      18.836   2.454   8.052  1.00  0.00     0.078 C 
ENDROOT
BRANCH   5  16
HETATM   16  C6  UNL     1      18.507   2.647  10.531  1.00  0.00     0.057 C 
HETATM   17 CL1  UNL     1      18.685   0.903  10.770  1.00  0.00    -0.085 Cl
HETATM   18  C7  UNL     1      18.643   3.460  11.570  1.00  0.00     0.011 C 
BRANCH  18  19
HETATM   19  C8  UNL     1      18.925   2.986  12.953  1.00  0.00     0.114 A 
HETATM   20  C9  UNL     1      20.294   2.737  13.395  1.00  0.00     0.163 A 
HETATM   21  O4  UNL     1      21.363   2.144  13.495  1.00  0.00    -0.295 OA
HETATM   22  C10 UNL     1      19.574   3.978  13.848  1.00  0.00     0.128 A 
HETATM   23 CL2  UNL     1      20.177   5.515  13.231  1.00  0.00    -0.108 Cl
BRANCH  22  24
HETATM   24  C11 UNL     1      19.279   3.961  15.336  1.00  0.00     0.110 C 
HETATM   25  C12 UNL     1      19.243   5.385  15.852  1.00  0.00     0.029 C 
HETATM   26 CL3  UNL     1      17.626   3.291  15.519  1.00  0.00    -0.123 Cl
ENDBRANCH  22  24
ENDBRANCH  18  19
ENDBRANCH   5  16
BRANCH   1  27
HETATM   27  C2  UNL     1      20.795   2.899   6.508  1.00  0.00     0.200 C 
BRANCH  27  28
HETATM   28  O1  UNL     1      20.679   4.031   5.667  1.00  0.00    -0.393 OA
HETATM   29  C1  UNL     1      20.395   3.542   4.385  1.00  0.00     0.201 C 
ENDBRANCH  27  28
ENDBRANCH   1  27
BRANCH  11  30
HETATM   30  O7  UNL     1      13.761   2.660   5.871  1.00  0.00    -0.314 OA
BRANCH  30  31
HETATM   31  C17 UNL     1      12.808   1.790   6.379  1.00  0.00     0.293 C 
HETATM   32  O8  UNL     1      12.504   1.776   7.600  1.00  0.00    -0.262 OA
BRANCH  31  33
HETATM   33  C18 UNL     1      12.093   0.824   5.503  1.00  0.00     0.138 C 
HETATM   34  C19 UNL     1      12.696   0.949   4.116  1.00  0.00     0.056 C 
HETATM   35  C20 UNL     1      10.644   1.269   5.409  1.00  0.00     0.056 C 
BRANCH  33  36
HETATM   36  O9  UNL     1      12.195  -0.479   5.986  1.00  0.00    -0.380 OA
ATOM     37  H9  UNL     1      13.048  -0.854   5.804  1.00  0.00     0.211 HD
ENDBRANCH  33  36
ENDBRANCH  31  33
ENDBRANCH  30  31
ENDBRANCH  11  30
TORSDOF 9
ENDMDL
