MODEL 1
REMARK VINA RESULT: -7.536611372      0.000      0.000
REMARK  8 active torsions:
REMARK  status: ('A' for Active; 'I' for Inactive)
REMARK    1  A    between atoms: C3_3  and  C4_4 
REMARK    2  A    between atoms: C4_4  and  N1_5 
REMARK    3  A    between atoms: C5_6  and  C6_7 
REMARK    4  A    between atoms: C6_7  and  O1_8 
REMARK    5  A    between atoms: C6_7  and  C7_10 
REMARK    6  A    between atoms: C6_7  and  C8_13 
REMARK    7  A    between atoms: C11_16  and  O2_17 
REMARK    8  A    between atoms: C12_19  and  N2_20 
ROOT
HETATM    1  C1  UNL     1      17.755   1.974   6.358  1.00  0.00     0.050 C 
HETATM    2  C2  UNL     1      16.739   2.040   7.490  1.00  0.00    -0.040 A 
HETATM    3  C3  UNL     1      17.157   2.063   8.773  1.00  0.00     0.008 A 
HETATM    4  S1  UNL     1      15.619   2.133   9.621  1.00  0.00    -0.096 SA
HETATM    5  C21 UNL     1      14.560   2.127   8.302  1.00  0.00    -0.009 A 
HETATM    6  C22 UNL     1      15.416   2.072   7.232  1.00  0.00    -0.038 A 
HETATM    7  C23 UNL     1      14.656   2.054   5.910  1.00  0.00     0.041 C 
HETATM    8  C24 UNL     1      13.697   0.874   6.054  1.00  0.00     0.024 C 
HETATM    9  C25 UNL     1      12.613   1.213   7.042  1.00  0.00     0.098 C 
HETATM   10  C26 UNL     1      11.447   1.737   6.301  1.00  0.00     0.064 C 
HETATM   11  N4  UNL     1      10.543   2.153   5.703  1.00  0.00    -0.197 NA
HETATM   12  C27 UNL     1      13.060   2.165   8.098  1.00  0.00     0.066 C 
ENDROOT
BRANCH   3  13
HETATM   13  C4  UNL     1      18.460   2.068   9.486  1.00  0.00     0.179 C 
BRANCH  13  14
HETATM   14  N1  UNL     1      18.472   2.421  10.857  1.00  0.00    -0.306 N 
HETATM   15  C5  UNL     1      18.804   3.646  11.315  1.00  0.00     0.091 A 
HETATM   16  C11 UNL     1      18.868   3.751  12.727  1.00  0.00     0.120 A 
HETATM   17  C12 UNL     1      18.609   2.694  13.567  1.00  0.00     0.093 A 
HETATM   18  C19 UNL     1      18.270   1.465  13.056  1.00  0.00     0.131 A 
HETATM   19 CL1  UNL     1      17.937   0.114  14.114  1.00  0.00    -0.076 Cl
HETATM   20  C20 UNL     1      18.211   1.369  11.698  1.00  0.00     0.272 A 
HETATM   21  O3  UNL     1      17.904   0.267  11.191  1.00  0.00    -0.266 OA
BRANCH  15  22
HETATM   22  C6  UNL     1      18.969   4.871  10.603  1.00  0.00     0.165 C 
BRANCH  22  23
HETATM   23  O1  UNL     1      18.670   6.081  11.192  1.00  0.00    -0.377 OA
ATOM     24  H1  UNL     1      19.309   6.783  11.220  1.00  0.00     0.211 HD
ENDBRANCH  22  23
BRANCH  22  25
HETATM   25  C7  UNL     1      18.427   4.908   9.199  1.00  0.00     0.393 C 
HETATM   26  F1  UNL     1      17.068   4.987   9.078  1.00  0.00    -0.211 F 
HETATM   27  F2  UNL     1      18.821   6.203   8.642  1.00  0.00    -0.211 F 
ENDBRANCH  22  25
BRANCH  22  28
HETATM   28  C8  UNL     1      20.510   5.122  10.345  1.00  0.00     0.032 A 
HETATM   29  C9  UNL     1      21.391   3.909  10.545  1.00  0.00     0.009 A 
HETATM   30  C10 UNL     1      21.248   4.616   9.226  1.00  0.00     0.009 A 
ENDBRANCH  22  28
ENDBRANCH  15  22
BRANCH  16  31
HETATM   31  O2  UNL     1      19.196   4.923  13.385  1.00  0.00    -0.357 OA
ATOM     32  H2  UNL     1      19.280   4.983  14.328  1.00  0.00     0.218 HD
ENDBRANCH  16  31
BRANCH  17  33
HETATM   33  N2  UNL     1      18.692   2.840  14.985  1.00  0.00    -0.375 N 
HETATM   34  C13 UNL     1      20.069   2.612  15.439  1.00  0.00     0.125 C 
HETATM   35  C14 UNL     1      20.165   2.517  16.926  1.00  0.00     0.050 C 
HETATM   36  C15 UNL     1      19.584   3.767  17.523  1.00  0.00     0.273 C 
HETATM   37  N3  UNL     1      18.237   3.554  17.952  1.00  0.00     0.085 N 
HETATM   38  C16 UNL     1      18.284   3.093  19.330  1.00  0.00     0.309 C 
HETATM   39  C17 UNL     1      17.479   2.657  17.115  1.00  0.00     0.291 C 
HETATM   40  C18 UNL     1      17.493   3.165  15.703  1.00  0.00     0.153 C 
ENDBRANCH  17  33
ENDBRANCH  13  14
ENDBRANCH   3  13
TORSDOF 8
ENDMDL
MODEL 2
REMARK VINA RESULT: -7.476594996      5.206     11.069
REMARK  8 active torsions:
REMARK  status: ('A' for Active; 'I' for Inactive)
REMARK    1  A    between atoms: C3_3  and  C4_4 
REMARK    2  A    between atoms: C4_4  and  N1_5 
REMARK    3  A    between atoms: C5_6  and  C6_7 
REMARK    4  A    between atoms: C6_7  and  O1_8 
REMARK    5  A    between atoms: C6_7  and  C7_10 
REMARK    6  A    between atoms: C6_7  and  C8_13 
REMARK    7  A    between atoms: C11_16  and  O2_17 
REMARK    8  A    between atoms: C12_19  and  N2_20 
ROOT
HETATM    1  C1  UNL     1      16.331   0.527   7.063  1.00  0.00     0.050 C 
HETATM    2  C2  UNL     1      16.305   1.863   7.794  1.00  0.00    -0.040 A 
HETATM    3  C3  UNL     1      15.488   2.850   7.371  1.00  0.00     0.008 A 
HETATM    4  S1  UNL     1      15.864   4.113   8.534  1.00  0.00    -0.096 SA
HETATM    5  C21 UNL     1      17.024   3.310   9.469  1.00  0.00    -0.009 A 
HETATM    6  C22 UNL     1      17.096   2.082   8.864  1.00  0.00    -0.038 A 
HETATM    7  C23 UNL     1      18.108   1.177   9.558  1.00  0.00     0.041 C 
HETATM    8  C24 UNL     1      19.397   1.996   9.554  1.00  0.00     0.024 C 
HETATM    9  C25 UNL     1      19.278   3.144  10.520  1.00  0.00     0.098 C 
HETATM   10  C26 UNL     1      19.850   2.729  11.818  1.00  0.00     0.064 C 
HETATM   11  N4  UNL     1      20.298   2.384  12.832  1.00  0.00    -0.197 NA
HETATM   12  C27 UNL     1      17.879   3.637  10.675  1.00  0.00     0.066 C 
ENDROOT
BRANCH   3  13
HETATM   13  C4  UNL     1      14.475   3.031   6.299  1.00  0.00     0.179 C 
BRANCH  13  14
HETATM   14  N1  UNL     1      14.665   2.347   5.075  1.00  0.00    -0.306 N 
HETATM   15  C5  UNL     1      13.807   1.427   4.587  1.00  0.00     0.091 A 
HETATM   16  C11 UNL     1      14.248   0.776   3.408  1.00  0.00     0.120 A 
HETATM   17  C12 UNL     1      15.451   1.058   2.804  1.00  0.00     0.093 A 
HETATM   18  C19 UNL     1      16.292   2.006   3.335  1.00  0.00     0.131 A 
HETATM   19 CL1  UNL     1      17.822   2.375   2.574  1.00  0.00    -0.076 Cl
HETATM   20  C20 UNL     1      15.863   2.628   4.469  1.00  0.00     0.272 A 
HETATM   21  O3  UNL     1      16.598   3.500   4.984  1.00  0.00    -0.266 OA
BRANCH  15  22
HETATM   22  C6  UNL     1      12.480   1.109   5.000  1.00  0.00     0.165 C 
BRANCH  22  23
HETATM   23  O1  UNL     1      12.127  -0.183   5.322  1.00  0.00    -0.377 OA
ATOM     24  H1  UNL     1      11.630  -0.374   6.110  1.00  0.00     0.211 HD
ENDBRANCH  22  23
BRANCH  22  25
HETATM   25  C7  UNL     1      11.365   1.687   4.171  1.00  0.00     0.393 C 
HETATM   26  F1  UNL     1      11.665   1.976   2.870  1.00  0.00    -0.211 F 
HETATM   27  F2  UNL     1      10.391   0.609   3.987  1.00  0.00    -0.211 F 
ENDBRANCH  22  25
BRANCH  22  28
HETATM   28  C8  UNL     1      12.197   1.777   6.406  1.00  0.00     0.032 A 
HETATM   29  C9  UNL     1      10.763   1.675   6.879  1.00  0.00     0.009 A 
HETATM   30  C10 UNL     1      11.920   1.060   7.615  1.00  0.00     0.009 A 
ENDBRANCH  22  28
ENDBRANCH  15  22
BRANCH  16  31
HETATM   31  O2  UNL     1      13.512  -0.200   2.761  1.00  0.00    -0.357 OA
ATOM     32  H2  UNL     1      13.904  -0.869   2.213  1.00  0.00     0.218 HD
ENDBRANCH  16  31
BRANCH  17  33
HETATM   33  N2  UNL     1      15.862   0.374   1.620  1.00  0.00    -0.375 N 
HETATM   34  C13 UNL     1      15.914   1.307   0.487  1.00  0.00     0.125 C 
HETATM   35  C14 UNL     1      16.106   0.602  -0.815  1.00  0.00     0.050 C 
HETATM   36  C15 UNL     1      17.352  -0.233  -0.728  1.00  0.00     0.273 C 
HETATM   37  N3  UNL     1      17.037  -1.597  -0.443  1.00  0.00     0.085 N 
HETATM   38  C16 UNL     1      16.845  -2.278  -1.714  1.00  0.00     0.309 C 
HETATM   39  C17 UNL     1      15.905  -1.778   0.434  1.00  0.00     0.291 C 
HETATM   40  C18 UNL     1      16.144  -1.029   1.712  1.00  0.00     0.153 C 
ENDBRANCH  17  33
ENDBRANCH  13  14
ENDBRANCH   3  13
TORSDOF 8
ENDMDL
MODEL 3
REMARK VINA RESULT: -7.427090648      1.403      1.856
REMARK  8 active torsions:
REMARK  status: ('A' for Active; 'I' for Inactive)
REMARK    1  A    between atoms: C3_3  and  C4_4 
REMARK    2  A    between atoms: C4_4  and  N1_5 
REMARK    3  A    between atoms: C5_6  and  C6_7 
REMARK    4  A    between atoms: C6_7  and  O1_8 
REMARK    5  A    between atoms: C6_7  and  C7_10 
REMARK    6  A    between atoms: C6_7  and  C8_13 
REMARK    7  A    between atoms: C11_16  and  O2_17 
REMARK    8  A    between atoms: C12_19  and  N2_20 
ROOT
HETATM    1  C1  UNL     1      16.334   3.577  10.553  1.00  0.00     0.050 C 
HETATM    2  C2  UNL     1      16.652   2.578   9.448  1.00  0.00    -0.040 A 
HETATM    3  C3  UNL     1      17.884   2.034   9.362  1.00  0.00     0.008 A 
HETATM    4  S1  UNL     1      17.692   0.999   7.955  1.00  0.00    -0.096 SA
HETATM    5  C21 UNL     1      16.076   1.324   7.575  1.00  0.00    -0.009 A 
HETATM    6  C22 UNL     1      15.717   2.226   8.543  1.00  0.00    -0.038 A 
HETATM    7  C23 UNL     1      14.266   2.667   8.384  1.00  0.00     0.041 C 
HETATM    8  C24 UNL     1      14.192   3.174   6.945  1.00  0.00     0.024 C 
HETATM    9  C25 UNL     1      14.281   2.015   5.989  1.00  0.00     0.098 C 
HETATM   10  C26 UNL     1      12.910   1.588   5.636  1.00  0.00     0.064 C 
HETATM   11  N4  UNL     1      11.827   1.262   5.376  1.00  0.00    -0.197 NA
HETATM   12  C27 UNL     1      15.086   0.878   6.520  1.00  0.00     0.066 C 
ENDROOT
BRANCH   3  13
HETATM   13  C4  UNL     1      19.156   2.112  10.125  1.00  0.00     0.179 C 
BRANCH  13  14
HETATM   14  N1  UNL     1      19.091   2.405  11.508  1.00  0.00    -0.306 N 
HETATM   15  C5  UNL     1      19.649   3.496  12.073  1.00  0.00     0.091 A 
HETATM   16  C11 UNL     1      19.570   3.534  13.487  1.00  0.00     0.120 A 
HETATM   17  C12 UNL     1      18.971   2.544  14.229  1.00  0.00     0.093 A 
HETATM   18  C19 UNL     1      18.412   1.452  13.611  1.00  0.00     0.131 A 
HETATM   19 CL1  UNL     1      17.645   0.187  14.543  1.00  0.00    -0.076 Cl
HETATM   20  C20 UNL     1      18.492   1.420  12.251  1.00  0.00     0.272 A 
HETATM   21  O3  UNL     1      17.993   0.443  11.648  1.00  0.00    -0.266 OA
BRANCH  15  22
HETATM   22  C6  UNL     1      20.183   4.667  11.459  1.00  0.00     0.165 C 
BRANCH  22  23
HETATM   23  O1  UNL     1      21.391   5.193  11.862  1.00  0.00    -0.377 OA
ATOM     24  H1  UNL     1      22.209   4.884  11.489  1.00  0.00     0.211 HD
ENDBRANCH  22  23
BRANCH  22  25
HETATM   25  C7  UNL     1      19.231   5.819  11.274  1.00  0.00     0.393 C 
HETATM   26  F1  UNL     1      17.933   5.595  11.635  1.00  0.00    -0.211 F 
HETATM   27  F2  UNL     1      19.613   6.828  12.264  1.00  0.00    -0.211 F 
ENDBRANCH  22  25
BRANCH  22  28
HETATM   28  C8  UNL     1      20.568   4.342   9.959  1.00  0.00     0.032 A 
HETATM   29  C9  UNL     1      19.902   5.225   8.928  1.00  0.00     0.009 A 
HETATM   30  C10 UNL     1      21.391   5.167   9.125  1.00  0.00     0.009 A 
ENDBRANCH  22  28
ENDBRANCH  15  22
BRANCH  16  31
HETATM   31  O2  UNL     1      20.088   4.568  14.247  1.00  0.00    -0.357 OA
ATOM     32  H2  UNL     1      19.547   5.216  14.681  1.00  0.00     0.218 HD
ENDBRANCH  16  31
BRANCH  17  33
HETATM   33  N2  UNL     1      18.919   2.616  15.654  1.00  0.00    -0.375 N 
HETATM   34  C13 UNL     1      20.114   1.995  16.238  1.00  0.00     0.125 C 
HETATM   35  C14 UNL     1      19.999   1.831  17.718  1.00  0.00     0.050 C 
HETATM   36  C15 UNL     1      19.721   3.176  18.327  1.00  0.00     0.273 C 
HETATM   37  N3  UNL     1      18.326   3.339  18.594  1.00  0.00     0.085 N 
HETATM   38  C16 UNL     1      18.076   2.841  19.938  1.00  0.00     0.309 C 
HETATM   39  C17 UNL     1      17.455   2.719  17.626  1.00  0.00     0.291 C 
HETATM   40  C18 UNL     1      17.780   3.245  16.259  1.00  0.00     0.153 C 
ENDBRANCH  17  33
ENDBRANCH  13  14
ENDBRANCH   3  13
TORSDOF 8
ENDMDL
MODEL 4
REMARK VINA RESULT: -7.173468034      4.962      8.303
REMARK  8 active torsions:
REMARK  status: ('A' for Active; 'I' for Inactive)
REMARK    1  A    between atoms: C3_3  and  C4_4 
REMARK    2  A    between atoms: C4_4  and  N1_5 
REMARK    3  A    between atoms: C5_6  and  C6_7 
REMARK    4  A    between atoms: C6_7  and  O1_8 
REMARK    5  A    between atoms: C6_7  and  C7_10 
REMARK    6  A    between atoms: C6_7  and  C8_13 
REMARK    7  A    between atoms: C11_16  and  O2_17 
REMARK    8  A    between atoms: C12_19  and  N2_20 
ROOT
HETATM    1  C1  UNL     1      11.070  -0.513  11.159  1.00  0.00     0.050 C 
HETATM    2  C2  UNL     1      10.755   0.977  11.189  1.00  0.00    -0.040 A 
HETATM    3  C3  UNL     1      10.982   1.738  10.098  1.00  0.00     0.008 A 
HETATM    4  S1  UNL     1      10.463   3.314  10.680  1.00  0.00    -0.096 SA
HETATM    5  C21 UNL     1       9.998   2.902  12.254  1.00  0.00    -0.009 A 
HETATM    6  C22 UNL     1      10.253   1.556  12.299  1.00  0.00    -0.038 A 
HETATM    7  C23 UNL     1       9.902   0.966  13.661  1.00  0.00     0.041 C 
HETATM    8  C24 UNL     1      10.692   1.824  14.647  1.00  0.00     0.024 C 
HETATM    9  C25 UNL     1      10.087   3.200  14.728  1.00  0.00     0.098 C 
HETATM   10  C26 UNL     1       9.138   3.232  15.859  1.00  0.00     0.064 C 
HETATM   11  N4  UNL     1       8.391   3.236  16.748  1.00  0.00    -0.197 NA
HETATM   12  C27 UNL     1       9.435   3.629  13.457  1.00  0.00     0.066 C 
ENDROOT
BRANCH   3  13
HETATM   13  C4  UNL     1      11.480   1.526   8.715  1.00  0.00     0.179 C 
BRANCH  13  14
HETATM   14  N1  UNL     1      12.836   1.822   8.439  1.00  0.00    -0.306 N 
HETATM   15  C5  UNL     1      13.472   1.448   7.309  1.00  0.00     0.091 A 
HETATM   16  C11 UNL     1      14.858   1.742   7.288  1.00  0.00     0.120 A 
HETATM   17  C12 UNL     1      15.507   2.361   8.329  1.00  0.00     0.093 A 
HETATM   18  C19 UNL     1      14.817   2.729   9.460  1.00  0.00     0.131 A 
HETATM   19 CL1  UNL     1      15.631   3.519  10.791  1.00  0.00    -0.076 Cl
HETATM   20  C20 UNL     1      13.485   2.443   9.475  1.00  0.00     0.272 A 
HETATM   21  O3  UNL     1      12.819   2.762  10.486  1.00  0.00    -0.266 OA
BRANCH  15  22
HETATM   22  C6  UNL     1      12.939   0.927   6.093  1.00  0.00     0.165 C 
BRANCH  22  23
HETATM   23  O1  UNL     1      12.259  -0.271   6.072  1.00  0.00    -0.377 OA
ATOM     24  H1  UNL     1      12.374  -0.888   5.358  1.00  0.00     0.211 HD
ENDBRANCH  22  23
BRANCH  22  25
HETATM   25  C7  UNL     1      13.855   0.946   4.899  1.00  0.00     0.393 C 
HETATM   26  F1  UNL     1      13.536   0.094   3.879  1.00  0.00    -0.211 F 
HETATM   27  F2  UNL     1      13.646   2.238   4.243  1.00  0.00    -0.211 F 
ENDBRANCH  22  25
BRANCH  22  28
HETATM   28  C8  UNL     1      11.763   1.861   5.595  1.00  0.00     0.032 A 
HETATM   29  C9  UNL     1      10.885   1.257   4.523  1.00  0.00     0.009 A 
HETATM   30  C10 UNL     1      10.375   1.656   5.879  1.00  0.00     0.009 A 
ENDBRANCH  22  28
ENDBRANCH  15  22
BRANCH  16  31
HETATM   31  O2  UNL     1      15.682   1.431   6.220  1.00  0.00    -0.357 OA
ATOM     32  H2  UNL     1      16.170   0.619   6.160  1.00  0.00     0.218 HD
ENDBRANCH  16  31
BRANCH  17  33
HETATM   33  N2  UNL     1      16.908   2.633   8.272  1.00  0.00    -0.375 N 
HETATM   34  C13 UNL     1      17.668   1.488   8.788  1.00  0.00     0.125 C 
HETATM   35  C14 UNL     1      19.115   1.809   8.972  1.00  0.00     0.050 C 
HETATM   36  C15 UNL     1      19.667   2.295   7.661  1.00  0.00     0.273 C 
HETATM   37  N3  UNL     1      19.721   3.723   7.625  1.00  0.00     0.085 N 
HETATM   38  C16 UNL     1      21.015   4.125   8.153  1.00  0.00     0.309 C 
HETATM   39  C17 UNL     1      18.636   4.379   8.314  1.00  0.00     0.291 C 
HETATM   40  C18 UNL     1      17.331   3.901   7.751  1.00  0.00     0.153 C 
ENDBRANCH  17  33
ENDBRANCH  13  14
ENDBRANCH   3  13
TORSDOF 8
ENDMDL
MODEL 5
REMARK VINA RESULT: -6.769500244      3.291      4.997
REMARK  8 active torsions:
REMARK  status: ('A' for Active; 'I' for Inactive)
REMARK    1  A    between atoms: C3_3  and  C4_4 
REMARK    2  A    between atoms: C4_4  and  N1_5 
REMARK    3  A    between atoms: C5_6  and  C6_7 
REMARK    4  A    between atoms: C6_7  and  O1_8 
REMARK    5  A    between atoms: C6_7  and  C7_10 
REMARK    6  A    between atoms: C6_7  and  C8_13 
REMARK    7  A    between atoms: C11_16  and  O2_17 
REMARK    8  A    between atoms: C12_19  and  N2_20 
ROOT
HETATM    1  C1  UNL     1      18.403   1.392  12.813  1.00  0.00     0.050 C 
HETATM    2  C2  UNL     1      19.430   2.007  11.871  1.00  0.00    -0.040 A 
HETATM    3  C3  UNL     1      20.606   2.459  12.354  1.00  0.00     0.008 A 
HETATM    4  S1  UNL     1      21.365   3.047  10.882  1.00  0.00    -0.096 SA
HETATM    5  C21 UNL     1      20.149   2.682   9.764  1.00  0.00    -0.009 A 
HETATM    6  C22 UNL     1      19.181   2.114  10.550  1.00  0.00    -0.038 A 
HETATM    7  C23 UNL     1      17.964   1.704   9.728  1.00  0.00     0.041 C 
HETATM    8  C24 UNL     1      17.561   2.987   9.003  1.00  0.00     0.024 C 
HETATM    9  C25 UNL     1      18.573   3.312   7.938  1.00  0.00     0.098 C 
HETATM   10  C26 UNL     1      18.105   2.747   6.655  1.00  0.00     0.064 C 
HETATM   11  N4  UNL     1      17.725   2.291   5.658  1.00  0.00    -0.197 NA
HETATM   12  C27 UNL     1      19.948   2.841   8.271  1.00  0.00     0.066 C 
ENDROOT
BRANCH   3  13
HETATM   13  C4  UNL     1      21.281   2.519  13.676  1.00  0.00     0.179 C 
BRANCH  13  14
HETATM   14  N1  UNL     1      20.477   2.492  14.841  1.00  0.00    -0.306 N 
HETATM   15  C5  UNL     1      19.936   3.590  15.407  1.00  0.00     0.091 A 
HETATM   16  C11 UNL     1      19.267   3.353  16.634  1.00  0.00     0.120 A 
HETATM   17  C12 UNL     1      19.171   2.106  17.204  1.00  0.00     0.093 A 
HETATM   18  C19 UNL     1      19.733   1.014  16.588  1.00  0.00     0.131 A 
HETATM   19 CL1  UNL     1      19.615  -0.578  17.302  1.00  0.00    -0.076 Cl
HETATM   20  C20 UNL     1      20.376   1.248  15.410  1.00  0.00     0.272 A 
HETATM   21  O3  UNL     1      20.901   0.279  14.815  1.00  0.00    -0.266 OA
BRANCH  15  22
HETATM   22  C6  UNL     1      19.825   4.917  14.897  1.00  0.00     0.165 C 
BRANCH  22  23
HETATM   23  O1  UNL     1      18.796   5.745  15.291  1.00  0.00    -0.377 OA
ATOM     24  H1  UNL     1      18.670   6.596  14.887  1.00  0.00     0.211 HD
ENDBRANCH  22  23
BRANCH  22  25
HETATM   25  C7  UNL     1      19.986   5.078  13.409  1.00  0.00     0.393 C 
HETATM   26  F1  UNL     1      18.833   5.155  12.680  1.00  0.00    -0.211 F 
HETATM   27  F2  UNL     1      20.526   6.423  13.199  1.00  0.00    -0.211 F 
ENDBRANCH  22  25
BRANCH  22  28
HETATM   28  C8  UNL     1      21.032   5.788  15.434  1.00  0.00     0.032 A 
HETATM   29  C9  UNL     1      20.628   7.050  16.163  1.00  0.00     0.009 A 
HETATM   30  C10 UNL     1      21.391   5.930  16.813  1.00  0.00     0.009 A 
ENDBRANCH  22  28
ENDBRANCH  15  22
BRANCH  16  31
HETATM   31  O2  UNL     1      18.655   4.353  17.368  1.00  0.00    -0.357 OA
ATOM     32  H2  UNL     1      18.326   4.224  18.249  1.00  0.00     0.218 HD
ENDBRANCH  16  31
BRANCH  17  33
HETATM   33  N2  UNL     1      18.494   1.910  18.446  1.00  0.00    -0.375 N 
HETATM   34  C13 UNL     1      19.421   2.113  19.566  1.00  0.00     0.125 C 
HETATM   35  C14 UNL     1      18.831   1.690  20.871  1.00  0.00     0.050 C 
HETATM   36  C15 UNL     1      17.543   2.437  21.076  1.00  0.00     0.273 C 
HETATM   37  N3  UNL     1      16.419   1.631  20.712  1.00  0.00     0.085 N 
HETATM   38  C16 UNL     1      16.010   0.891  21.896  1.00  0.00     0.309 C 
HETATM   39  C17 UNL     1      16.651   0.755  19.589  1.00  0.00     0.291 C 
HETATM   40  C18 UNL     1      17.101   1.568  18.412  1.00  0.00     0.153 C 
ENDBRANCH  17  33
ENDBRANCH  13  14
ENDBRANCH   3  13
TORSDOF 8
ENDMDL
