MODEL 1
REMARK VINA RESULT: -5.056654470      0.000      0.000
REMARK  1 active torsions:
REMARK  status: ('A' for Active; 'I' for Inactive)
REMARK    1  A    between atoms: C1_4  and  C2_6 
ROOT
HETATM    1  N1  UNL     1      -6.384  40.303  11.539  1.00  0.00    -0.389 N 
ATOM      2  H11 UNL     1      -6.859  39.511  11.972  1.00  0.00     0.157 HD
ATOM      3  H12 UNL     1      -6.570  40.676  10.608  1.00  0.00     0.157 HD
HETATM    4  C1  UNL     1      -5.467  40.884  12.236  1.00  0.00     0.116 C 
HETATM    5  N2  UNL     1      -4.816  41.969  11.643  1.00  0.00    -0.085 NA
ENDROOT
BRANCH   4   6
HETATM    6  C2  UNL     1      -5.199  40.347  13.576  1.00  0.00     0.187 C 
HETATM    7  C3  UNL     1      -6.331  39.539  14.195  1.00  0.00     0.065 C 
HETATM    8  C4  UNL     1      -5.081  38.955  14.860  1.00  0.00     0.171 C 
HETATM    9  O1  UNL     1      -4.466  39.151  13.614  1.00  0.00    -0.379 OA
ENDBRANCH   4   6
TORSDOF 1
ENDMDL
MODEL 2
REMARK VINA RESULT: -4.904162380      1.140      1.266
REMARK  1 active torsions:
REMARK  status: ('A' for Active; 'I' for Inactive)
REMARK    1  A    between atoms: C1_4  and  C2_6 
ROOT
HETATM    1  N1  UNL     1      -6.422  40.245  11.512  1.00  0.00    -0.389 N 
ATOM      2  H11 UNL     1      -6.870  39.328  11.535  1.00  0.00     0.157 HD
ATOM      3  H12 UNL     1      -6.511  40.935  10.767  1.00  0.00     0.157 HD
HETATM    4  C1  UNL     1      -5.678  40.554  12.520  1.00  0.00     0.116 C 
HETATM    5  N2  UNL     1      -5.065  41.809  12.488  1.00  0.00    -0.085 NA
ENDROOT
BRANCH   4   6
HETATM    6  C2  UNL     1      -5.551  39.560  13.593  1.00  0.00     0.187 C 
HETATM    7  C3  UNL     1      -4.639  39.955  14.745  1.00  0.00     0.065 C 
HETATM    8  C4  UNL     1      -5.629  38.987  15.399  1.00  0.00     0.171 C 
HETATM    9  O1  UNL     1      -6.581  39.563  14.546  1.00  0.00    -0.379 OA
ENDBRANCH   4   6
TORSDOF 1
ENDMDL
MODEL 3
REMARK VINA RESULT: -4.717505933      1.398      1.648
REMARK  1 active torsions:
REMARK  status: ('A' for Active; 'I' for Inactive)
REMARK    1  A    between atoms: C1_4  and  C2_6 
ROOT
HETATM    1  N1  UNL     1      -3.623  40.113  11.909  1.00  0.00    -0.389 N 
ATOM      2  H11 UNL     1      -3.169  39.226  12.126  1.00  0.00     0.157 HD
ATOM      3  H12 UNL     1      -3.345  40.763  11.174  1.00  0.00     0.157 HD
HETATM    4  C1  UNL     1      -4.640  40.440  12.633  1.00  0.00     0.116 C 
HETATM    5  N2  UNL     1      -5.261  41.656  12.336  1.00  0.00    -0.085 NA
ENDROOT
BRANCH   4   6
HETATM    6  C2  UNL     1      -5.040  39.504  13.691  1.00  0.00     0.187 C 
HETATM    7  C3  UNL     1      -4.707  39.941  15.110  1.00  0.00     0.065 C 
HETATM    8  C4  UNL     1      -5.926  39.034  15.302  1.00  0.00     0.171 C 
HETATM    9  O1  UNL     1      -6.382  39.585  14.095  1.00  0.00    -0.379 OA
ENDBRANCH   4   6
TORSDOF 1
ENDMDL
MODEL 4
REMARK VINA RESULT: -4.702647446      1.819      2.168
REMARK  1 active torsions:
REMARK  status: ('A' for Active; 'I' for Inactive)
REMARK    1  A    between atoms: C1_4  and  C2_6 
ROOT
HETATM    1  N1  UNL     1      -3.961  40.707  11.914  1.00  0.00    -0.389 N 
ATOM      2  H11 UNL     1      -4.812  40.709  11.351  1.00  0.00     0.157 HD
ATOM      3  H12 UNL     1      -3.080  41.156  11.666  1.00  0.00     0.157 HD
HETATM    4  C1  UNL     1      -4.010  40.080  13.040  1.00  0.00     0.116 C 
HETATM    5  N2  UNL     1      -2.844  40.077  13.811  1.00  0.00    -0.085 NA
ENDROOT
BRANCH   4   6
HETATM    6  C2  UNL     1      -5.279  39.434  13.397  1.00  0.00     0.187 C 
HETATM    7  C3  UNL     1      -5.576  39.355  14.888  1.00  0.00     0.065 C 
HETATM    8  C4  UNL     1      -6.970  39.362  14.253  1.00  0.00     0.171 C 
HETATM    9  O1  UNL     1      -6.417  40.252  13.321  1.00  0.00    -0.379 OA
ENDBRANCH   4   6
TORSDOF 1
ENDMDL
MODEL 5
REMARK VINA RESULT: -4.692161890      1.088      1.197
REMARK  1 active torsions:
REMARK  status: ('A' for Active; 'I' for Inactive)
REMARK    1  A    between atoms: C1_4  and  C2_6 
ROOT
HETATM    1  N1  UNL     1      -3.692  39.843  11.961  1.00  0.00    -0.389 N 
ATOM      2  H11 UNL     1      -3.460  39.006  12.495  1.00  0.00     0.157 HD
ATOM      3  H12 UNL     1      -3.326  40.085  11.040  1.00  0.00     0.157 HD
HETATM    4  C1  UNL     1      -4.523  40.668  12.502  1.00  0.00     0.116 C 
HETATM    5  N2  UNL     1      -4.840  41.815  11.770  1.00  0.00    -0.085 NA
ENDROOT
BRANCH   4   6
HETATM    6  C2  UNL     1      -5.050  40.320  13.828  1.00  0.00     0.187 C 
HETATM    7  C3  UNL     1      -6.367  39.559  13.829  1.00  0.00     0.065 C 
HETATM    8  C4  UNL     1      -5.705  39.112  15.135  1.00  0.00     0.171 C 
HETATM    9  O1  UNL     1      -4.504  39.166  14.412  1.00  0.00    -0.379 OA
ENDBRANCH   4   6
TORSDOF 1
ENDMDL
