MODEL 1
REMARK VINA RESULT: -5.295623439      0.000      0.000
REMARK  7 active torsions:
REMARK  status: ('A' for Active; 'I' for Inactive)
REMARK    1  A    between atoms: N1_2  and  C3_4 
REMARK    2  A    between atoms: C3_4  and  C4_5 
REMARK    3  A    between atoms: C5_8  and  N3_9 
REMARK    4  A    between atoms: N3_9  and  C6_11 
REMARK    5  A    between atoms: C6_11  and  C7_12 
REMARK    6  A    between atoms: C7_12  and  C8_13 
REMARK    7  A    between atoms: C8_13  and  N4_14 
ROOT
HETATM    1  C4  UNL     1     -49.637 -36.239  26.603  1.00  0.00     0.140 A 
HETATM    2  N2  UNL     1     -49.008 -37.340  27.039  1.00  0.00    -0.176 N 
ATOM      3  H2  UNL     1     -48.555 -38.031  26.441  1.00  0.00     0.185 HD
HETATM    4  C5  UNL     1     -49.062 -37.398  28.396  1.00  0.00     0.694 A 
HETATM    5  N5  UNL     1     -49.742 -36.302  28.767  1.00  0.00    -0.131 N 
ATOM      6  H5  UNL     1     -49.961 -36.041  29.729  1.00  0.00     0.205 HD
HETATM    7  N6  UNL     1     -50.085 -35.609  27.683  1.00  0.00    -0.273 N 
ATOM      8  H6  UNL     1     -50.608 -34.733  27.682  1.00  0.00     0.189 HD
ENDROOT
BRANCH   4   9
HETATM    9  N3  UNL     1     -48.564 -38.340  29.143  1.00  0.00    -0.225 N 
ATOM     10  H3  UNL     1     -49.158 -38.884  29.768  1.00  0.00     0.177 HD
BRANCH   9  11
HETATM   11  C6  UNL     1     -47.145 -38.592  29.060  1.00  0.00     0.140 C 
BRANCH  11  12
HETATM   12  C7  UNL     1     -46.469 -37.444  29.800  1.00  0.00     0.047 C 
BRANCH  12  13
HETATM   13  C8  UNL     1     -45.278 -37.949  30.581  1.00  0.00     0.231 C 
BRANCH  13  14
HETATM   14  N4  UNL     1     -44.415 -38.779  29.756  1.00  0.00    -0.079 N 
ATOM     15  H43 UNL     1     -44.925 -39.568  29.358  1.00  0.00     0.274 HD
ATOM     16  H42 UNL     1     -44.156 -38.305  28.890  1.00  0.00     0.274 HD
ATOM     17  H41 UNL     1     -43.593 -39.089  30.273  1.00  0.00     0.274 HD
ENDBRANCH  13  14
ENDBRANCH  12  13
ENDBRANCH  11  12
ENDBRANCH   9  11
ENDBRANCH   4   9
BRANCH   1  18
HETATM   18  C3  UNL     1     -49.831 -35.756  25.214  1.00  0.00     0.349 C 
BRANCH  18  19
HETATM   19  N1  UNL     1     -50.132 -36.838  24.299  1.00  0.00     0.086 N 
HETATM   20  C1  UNL     1     -51.581 -37.047  24.365  1.00  0.00     0.309 C 
HETATM   21  C2  UNL     1     -49.785 -36.509  22.932  1.00  0.00     0.309 C 
ENDBRANCH  18  19
ENDBRANCH   1  18
TORSDOF 7
ENDMDL
MODEL 2
REMARK VINA RESULT: -5.211517558      1.362      5.845
REMARK  7 active torsions:
REMARK  status: ('A' for Active; 'I' for Inactive)
REMARK    1  A    between atoms: N1_2  and  C3_4 
REMARK    2  A    between atoms: C3_4  and  C4_5 
REMARK    3  A    between atoms: C5_8  and  N3_9 
REMARK    4  A    between atoms: N3_9  and  C6_11 
REMARK    5  A    between atoms: C6_11  and  C7_12 
REMARK    6  A    between atoms: C7_12  and  C8_13 
REMARK    7  A    between atoms: C8_13  and  N4_14 
ROOT
HETATM    1  C4  UNL     1     -48.595 -37.428  28.410  1.00  0.00     0.140 A 
HETATM    2  N2  UNL     1     -48.806 -37.433  27.086  1.00  0.00    -0.176 N 
ATOM      3  H2  UNL     1     -48.438 -38.128  26.437  1.00  0.00     0.185 HD
HETATM    4  C5  UNL     1     -49.584 -36.374  26.737  1.00  0.00     0.694 A 
HETATM    5  N5  UNL     1     -49.837 -35.730  27.887  1.00  0.00    -0.131 N 
ATOM      6  H5  UNL     1     -50.399 -34.884  27.978  1.00  0.00     0.205 HD
HETATM    7  N6  UNL     1     -49.238 -36.370  28.891  1.00  0.00    -0.273 N 
ATOM      8  H6  UNL     1     -49.269 -36.092  29.872  1.00  0.00     0.189 HD
ENDROOT
BRANCH   4   9
HETATM    9  N3  UNL     1     -49.969 -36.071  25.532  1.00  0.00    -0.225 N 
ATOM     10  H3  UNL     1     -49.299 -36.021  24.764  1.00  0.00     0.177 HD
BRANCH   9  11
HETATM   11  C6  UNL     1     -51.371 -35.808  25.313  1.00  0.00     0.140 C 
BRANCH  11  12
HETATM   12  C7  UNL     1     -52.089 -37.133  25.534  1.00  0.00     0.047 C 
BRANCH  12  13
HETATM   13  C8  UNL     1     -51.950 -38.018  24.316  1.00  0.00     0.231 C 
BRANCH  13  14
HETATM   14  N4  UNL     1     -51.346 -39.296  24.656  1.00  0.00    -0.079 N 
ATOM     15  H43 UNL     1     -51.336 -39.929  23.857  1.00  0.00     0.274 HD
ATOM     16  H42 UNL     1     -50.340 -39.208  24.801  1.00  0.00     0.274 HD
ATOM     17  H41 UNL     1     -51.804 -39.720  25.463  1.00  0.00     0.274 HD
ENDBRANCH  13  14
ENDBRANCH  12  13
ENDBRANCH  11  12
ENDBRANCH   9  11
ENDBRANCH   4   9
BRANCH   1  18
HETATM   18  C3  UNL     1     -47.817 -38.379  29.241  1.00  0.00     0.349 C 
BRANCH  18  19
HETATM   19  N1  UNL     1     -46.390 -38.156  29.130  1.00  0.00     0.086 N 
HETATM   20  C1  UNL     1     -45.995 -37.393  30.317  1.00  0.00     0.309 C 
HETATM   21  C2  UNL     1     -45.643 -39.397  29.122  1.00  0.00     0.309 C 
ENDBRANCH  18  19
ENDBRANCH   1  18
TORSDOF 7
ENDMDL
MODEL 3
REMARK VINA RESULT: -5.205735599      0.953      1.015
REMARK  7 active torsions:
REMARK  status: ('A' for Active; 'I' for Inactive)
REMARK    1  A    between atoms: N1_2  and  C3_4 
REMARK    2  A    between atoms: C3_4  and  C4_5 
REMARK    3  A    between atoms: C5_8  and  N3_9 
REMARK    4  A    between atoms: N3_9  and  C6_11 
REMARK    5  A    between atoms: C6_11  and  C7_12 
REMARK    6  A    between atoms: C7_12  and  C8_13 
REMARK    7  A    between atoms: C8_13  and  N4_14 
ROOT
HETATM    1  C4  UNL     1     -49.563 -36.397  26.881  1.00  0.00     0.140 A 
HETATM    2  N2  UNL     1     -48.506 -37.128  27.264  1.00  0.00    -0.176 N 
ATOM      3  H2  UNL     1     -47.907 -37.665  26.638  1.00  0.00     0.185 HD
HETATM    4  C5  UNL     1     -48.350 -37.045  28.612  1.00  0.00     0.694 A 
HETATM    5  N5  UNL     1     -49.342 -36.244  29.032  1.00  0.00    -0.131 N 
ATOM      6  H5  UNL     1     -49.513 -35.974  30.000  1.00  0.00     0.205 HD
HETATM    7  N6  UNL     1     -50.069 -35.858  27.984  1.00  0.00    -0.273 N 
ATOM      8  H6  UNL     1     -50.884 -35.245  28.022  1.00  0.00     0.189 HD
ENDROOT
BRANCH   4   9
HETATM    9  N3  UNL     1     -47.432 -37.642  29.315  1.00  0.00    -0.225 N 
ATOM     10  H3  UNL     1     -46.876 -37.127  29.998  1.00  0.00     0.177 HD
BRANCH   9  11
HETATM   11  C6  UNL     1     -47.224 -39.054  29.100  1.00  0.00     0.140 C 
BRANCH  11  12
HETATM   12  C7  UNL     1     -45.714 -39.261  29.086  1.00  0.00     0.047 C 
BRANCH  12  13
HETATM   13  C8  UNL     1     -45.028 -38.199  29.915  1.00  0.00     0.231 C 
BRANCH  13  14
HETATM   14  N4  UNL     1     -44.452 -38.762  31.125  1.00  0.00    -0.079 N 
ATOM     15  H43 UNL     1     -44.936 -38.430  31.959  1.00  0.00     0.274 HD
ATOM     16  H42 UNL     1     -44.658 -39.757  31.210  1.00  0.00     0.274 HD
ATOM     17  H41 UNL     1     -43.450 -38.581  31.178  1.00  0.00     0.274 HD
ENDBRANCH  13  14
ENDBRANCH  12  13
ENDBRANCH  11  12
ENDBRANCH   9  11
ENDBRANCH   4   9
BRANCH   1  18
HETATM   18  C3  UNL     1     -50.112 -36.184  25.520  1.00  0.00     0.349 C 
BRANCH  18  19
HETATM   19  N1  UNL     1     -50.644 -37.406  24.950  1.00  0.00     0.086 N 
HETATM   20  C1  UNL     1     -52.093 -37.367  25.162  1.00  0.00     0.309 C 
HETATM   21  C2  UNL     1     -50.398 -37.496  23.525  1.00  0.00     0.309 C 
ENDBRANCH  18  19
ENDBRANCH   1  18
TORSDOF 7
ENDMDL
MODEL 4
REMARK VINA RESULT: -5.172971883      1.291      1.582
REMARK  7 active torsions:
REMARK  status: ('A' for Active; 'I' for Inactive)
REMARK    1  A    between atoms: N1_2  and  C3_4 
REMARK    2  A    between atoms: C3_4  and  C4_5 
REMARK    3  A    between atoms: C5_8  and  N3_9 
REMARK    4  A    between atoms: N3_9  and  C6_11 
REMARK    5  A    between atoms: C6_11  and  C7_12 
REMARK    6  A    between atoms: C7_12  and  C8_13 
REMARK    7  A    between atoms: C8_13  and  N4_14 
ROOT
HETATM    1  C4  UNL     1     -50.158 -36.973  26.350  1.00  0.00     0.140 A 
HETATM    2  N2  UNL     1     -48.979 -37.007  26.988  1.00  0.00    -0.176 N 
ATOM      3  H2  UNL     1     -48.103 -37.333  26.581  1.00  0.00     0.185 HD
HETATM    4  C5  UNL     1     -49.126 -36.544  28.258  1.00  0.00     0.694 A 
HETATM    5  N5  UNL     1     -50.426 -36.228  28.368  1.00  0.00    -0.131 N 
ATOM      6  H5  UNL     1     -50.872 -35.848  29.203  1.00  0.00     0.205 HD
HETATM    7  N6  UNL     1     -51.042 -36.489  27.216  1.00  0.00    -0.273 N 
ATOM      8  H6  UNL     1     -52.033 -36.341  27.028  1.00  0.00     0.189 HD
ENDROOT
BRANCH   4   9
HETATM    9  N3  UNL     1     -48.186 -36.454  29.153  1.00  0.00    -0.225 N 
ATOM     10  H3  UNL     1     -48.164 -35.678  29.815  1.00  0.00     0.177 HD
BRANCH   9  11
HETATM   11  C6  UNL     1     -47.177 -37.485  29.183  1.00  0.00     0.140 C 
BRANCH  11  12
HETATM   12  C7  UNL     1     -46.006 -36.907  29.968  1.00  0.00     0.047 C 
BRANCH  12  13
HETATM   13  C8  UNL     1     -45.229 -38.011  30.648  1.00  0.00     0.231 C 
BRANCH  13  14
HETATM   14  N4  UNL     1     -44.520 -38.833  29.681  1.00  0.00    -0.079 N 
ATOM     15  H43 UNL     1     -44.913 -39.772  29.629  1.00  0.00     0.274 HD
ATOM     16  H42 UNL     1     -44.706 -38.531  28.724  1.00  0.00     0.274 HD
ATOM     17  H41 UNL     1     -43.519 -38.856  29.877  1.00  0.00     0.274 HD
ENDBRANCH  13  14
ENDBRANCH  12  13
ENDBRANCH  11  12
ENDBRANCH   9  11
ENDBRANCH   4   9
BRANCH   1  18
HETATM   18  C3  UNL     1     -50.485 -37.372  24.960  1.00  0.00     0.349 C 
BRANCH  18  19
HETATM   19  N1  UNL     1     -51.666 -38.210  24.897  1.00  0.00     0.086 N 
HETATM   20  C1  UNL     1     -52.354 -37.865  23.651  1.00  0.00     0.309 C 
HETATM   21  C2  UNL     1     -51.334 -39.619  24.855  1.00  0.00     0.309 C 
ENDBRANCH  18  19
ENDBRANCH   1  18
TORSDOF 7
ENDMDL
MODEL 5
REMARK VINA RESULT: -5.129254179      1.766      2.515
REMARK  7 active torsions:
REMARK  status: ('A' for Active; 'I' for Inactive)
REMARK    1  A    between atoms: N1_2  and  C3_4 
REMARK    2  A    between atoms: C3_4  and  C4_5 
REMARK    3  A    between atoms: C5_8  and  N3_9 
REMARK    4  A    between atoms: N3_9  and  C6_11 
REMARK    5  A    between atoms: C6_11  and  C7_12 
REMARK    6  A    between atoms: C7_12  and  C8_13 
REMARK    7  A    between atoms: C8_13  and  N4_14 
ROOT
HETATM    1  C4  UNL     1     -49.762 -37.392  28.001  1.00  0.00     0.140 A 
HETATM    2  N2  UNL     1     -49.281 -36.505  28.884  1.00  0.00    -0.176 N 
ATOM      3  H2  UNL     1     -49.831 -35.779  29.342  1.00  0.00     0.185 HD
HETATM    4  C5  UNL     1     -47.952 -36.717  29.077  1.00  0.00     0.694 A 
HETATM    5  N5  UNL     1     -47.645 -37.758  28.286  1.00  0.00    -0.131 N 
ATOM      6  H5  UNL     1     -46.719 -38.175  28.194  1.00  0.00     0.205 HD
HETATM    7  N6  UNL     1     -48.739 -38.159  27.641  1.00  0.00    -0.273 N 
ATOM      8  H6  UNL     1     -48.784 -38.932  26.977  1.00  0.00     0.189 HD
ENDROOT
BRANCH   4   9
HETATM    9  N3  UNL     1     -47.173 -36.029  29.858  1.00  0.00    -0.225 N 
ATOM     10  H3  UNL     1     -47.529 -35.231  30.385  1.00  0.00     0.177 HD
BRANCH   9  11
HETATM   11  C6  UNL     1     -45.789 -36.427  29.958  1.00  0.00     0.140 C 
BRANCH  11  12
HETATM   12  C7  UNL     1     -45.665 -37.201  31.264  1.00  0.00     0.047 C 
BRANCH  12  13
HETATM   13  C8  UNL     1     -44.744 -38.386  31.090  1.00  0.00     0.231 C 
BRANCH  13  14
HETATM   14  N4  UNL     1     -44.471 -38.644  29.685  1.00  0.00    -0.079 N 
ATOM     15  H43 UNL     1     -45.201 -38.258  29.086  1.00  0.00     0.274 HD
ATOM     16  H42 UNL     1     -43.682 -38.090  29.350  1.00  0.00     0.274 HD
ATOM     17  H41 UNL     1     -44.330 -39.638  29.511  1.00  0.00     0.274 HD
ENDBRANCH  13  14
ENDBRANCH  12  13
ENDBRANCH  11  12
ENDBRANCH   9  11
ENDBRANCH   4   9
BRANCH   1  18
HETATM   18  C3  UNL     1     -51.144 -37.549  27.485  1.00  0.00     0.349 C 
BRANCH  18  19
HETATM   19  N1  UNL     1     -51.520 -36.468  26.597  1.00  0.00     0.086 N 
HETATM   20  C1  UNL     1     -52.071 -37.092  25.392  1.00  0.00     0.309 C 
HETATM   21  C2  UNL     1     -52.542 -35.618  27.173  1.00  0.00     0.309 C 
ENDBRANCH  18  19
ENDBRANCH   1  18
TORSDOF 7
ENDMDL
