MODEL 1
REMARK VINA RESULT: -5.353815974      0.000      0.000
REMARK  6 active torsions:
REMARK  status: ('A' for Active; 'I' for Inactive)
REMARK    1  A    between atoms: C5_10  and  N3_11 
REMARK    2  A    between atoms: N3_11  and  C6_13 
REMARK    3  A    between atoms: C6_13  and  C7_14 
REMARK    4  A    between atoms: C7_14  and  C8_15 
REMARK    5  A    between atoms: C8_15  and  O1_16 
REMARK    6  A    between atoms: O1_16  and  N4_17 
ROOT
HETATM    1  C1  UNL     1     -51.316 -38.635  25.486  1.00  0.00     0.014 C 
HETATM    2  C2  UNL     1     -51.263 -37.698  26.700  1.00  0.00     0.029 C 
HETATM    3  C3  UNL     1     -52.102 -36.481  26.438  1.00  0.00     0.127 C 
HETATM    4  N1  UNL     1     -51.313 -35.865  25.407  1.00  0.00    -0.378 N 
ATOM      5  H1  UNL     1     -51.677 -35.190  24.734  1.00  0.00     0.160 HD
HETATM    6  C4  UNL     1     -49.976 -36.308  25.441  1.00  0.00     0.093 C 
HETATM    7  N2  UNL     1     -49.010 -36.078  24.639  1.00  0.00    -0.387 N 
ATOM      8  H21 UNL     1     -48.042 -36.399  24.664  1.00  0.00     0.157 HD
ATOM      9  H22 UNL     1     -49.081 -35.504  23.799  1.00  0.00     0.157 HD
HETATM   10  C5  UNL     1     -49.868 -37.177  26.711  1.00  0.00     0.149 C 
ENDROOT
BRANCH  10  11
HETATM   11  N3  UNL     1     -49.385 -36.413  27.746  1.00  0.00    -0.410 N 
ATOM     12  H3  UNL     1     -49.132 -35.439  27.581  1.00  0.00     0.154 HD
BRANCH  11  13
HETATM   13  C6  UNL     1     -49.230 -36.995  29.103  1.00  0.00     0.116 C 
BRANCH  13  14
HETATM   14  C7  UNL     1     -47.940 -37.784  28.960  1.00  0.00     0.048 C 
BRANCH  14  15
HETATM   15  C8  UNL     1     -46.767 -37.119  29.617  1.00  0.00     0.202 C 
BRANCH  15  16
HETATM   16  O1  UNL     1     -47.423 -35.909  30.038  1.00  0.00    -0.287 OA
BRANCH  16  17
HETATM   17  N4  UNL     1     -46.414 -34.965  30.099  1.00  0.00    -0.311 N 
ATOM     18  H42 UNL     1     -46.412 -34.041  29.667  1.00  0.00     0.184 HD
ATOM     19  H41 UNL     1     -45.685 -35.400  30.665  1.00  0.00     0.184 HD
ENDBRANCH  16  17
ENDBRANCH  15  16
ENDBRANCH  14  15
ENDBRANCH  13  14
ENDBRANCH  11  13
ENDBRANCH  10  11
TORSDOF 6
ENDMDL
MODEL 2
REMARK VINA RESULT: -5.280578167      1.708      1.708
REMARK  6 active torsions:
REMARK  status: ('A' for Active; 'I' for Inactive)
REMARK    1  A    between atoms: C5_10  and  N3_11 
REMARK    2  A    between atoms: N3_11  and  C6_13 
REMARK    3  A    between atoms: C6_13  and  C7_14 
REMARK    4  A    between atoms: C7_14  and  C8_15 
REMARK    5  A    between atoms: C8_15  and  O1_16 
REMARK    6  A    between atoms: O1_16  and  N4_17 
ROOT
HETATM    1  C1  UNL     1     -51.358 -38.665  25.340  1.00  0.00     0.014 C 
HETATM    2  C2  UNL     1     -51.228 -37.873  26.647  1.00  0.00     0.029 C 
HETATM    3  C3  UNL     1     -52.045 -36.617  26.563  1.00  0.00     0.127 C 
HETATM    4  N1  UNL     1     -51.287 -35.905  25.572  1.00  0.00    -0.378 N 
ATOM      5  H1  UNL     1     -51.662 -35.150  24.996  1.00  0.00     0.160 HD
HETATM    6  C4  UNL     1     -49.961 -36.377  25.494  1.00  0.00     0.093 C 
HETATM    7  N2  UNL     1     -49.026 -36.078  24.679  1.00  0.00    -0.387 N 
ATOM      8  H21 UNL     1     -48.066 -36.419  24.623  1.00  0.00     0.157 HD
ATOM      9  H22 UNL     1     -49.118 -35.411  23.913  1.00  0.00     0.157 HD
HETATM   10  C5  UNL     1     -49.820 -37.386  26.652  1.00  0.00     0.149 C 
ENDROOT
BRANCH  10  11
HETATM   11  N3  UNL     1     -49.274 -36.755  27.743  1.00  0.00    -0.410 N 
ATOM     12  H3  UNL     1     -48.864 -35.826  27.638  1.00  0.00     0.154 HD
BRANCH  11  13
HETATM   13  C6  UNL     1     -49.273 -37.413  29.073  1.00  0.00     0.116 C 
BRANCH  13  14
HETATM   14  C7  UNL     1     -48.255 -38.522  28.875  1.00  0.00     0.048 C 
BRANCH  14  15
HETATM   15  C8  UNL     1     -46.853 -38.099  29.199  1.00  0.00     0.202 C 
BRANCH  15  16
HETATM   16  O1  UNL     1     -46.327 -39.387  29.568  1.00  0.00    -0.287 OA
BRANCH  16  17
HETATM   17  N4  UNL     1     -45.004 -39.355  29.164  1.00  0.00    -0.311 N 
ATOM     18  H42 UNL     1     -44.601 -38.770  28.433  1.00  0.00     0.184 HD
ATOM     19  H41 UNL     1     -44.535 -40.041  29.757  1.00  0.00     0.184 HD
ENDBRANCH  16  17
ENDBRANCH  15  16
ENDBRANCH  14  15
ENDBRANCH  13  14
ENDBRANCH  11  13
ENDBRANCH  10  11
TORSDOF 6
ENDMDL
MODEL 3
REMARK VINA RESULT: -5.244561789      2.234      2.579
REMARK  6 active torsions:
REMARK  status: ('A' for Active; 'I' for Inactive)
REMARK    1  A    between atoms: C5_10  and  N3_11 
REMARK    2  A    between atoms: N3_11  and  C6_13 
REMARK    3  A    between atoms: C6_13  and  C7_14 
REMARK    4  A    between atoms: C7_14  and  C8_15 
REMARK    5  A    between atoms: C8_15  and  O1_16 
REMARK    6  A    between atoms: O1_16  and  N4_17 
ROOT
HETATM    1  C1  UNL     1     -52.207 -36.281  27.443  1.00  0.00     0.014 C 
HETATM    2  C2  UNL     1     -50.691 -36.398  27.644  1.00  0.00     0.029 C 
HETATM    3  C3  UNL     1     -49.975 -35.775  26.482  1.00  0.00     0.127 C 
HETATM    4  N1  UNL     1     -50.328 -36.713  25.453  1.00  0.00    -0.378 N 
ATOM      5  H1  UNL     1     -50.313 -36.502  24.455  1.00  0.00     0.160 HD
HETATM    6  C4  UNL     1     -50.696 -37.962  25.993  1.00  0.00     0.093 C 
HETATM    7  N2  UNL     1     -51.166 -39.001  25.422  1.00  0.00    -0.387 N 
ATOM      8  H21 UNL     1     -51.432 -39.906  25.813  1.00  0.00     0.157 HD
ATOM      9  H22 UNL     1     -51.358 -39.074  24.423  1.00  0.00     0.157 HD
HETATM   10  C5  UNL     1     -50.405 -37.853  27.504  1.00  0.00     0.149 C 
ENDROOT
BRANCH  10  11
HETATM   11  N3  UNL     1     -49.163 -38.378  27.768  1.00  0.00    -0.410 N 
ATOM     12  H3  UNL     1     -48.591 -38.734  27.003  1.00  0.00     0.154 HD
BRANCH  11  13
HETATM   13  C6  UNL     1     -48.648 -38.432  29.159  1.00  0.00     0.116 C 
BRANCH  13  14
HETATM   14  C7  UNL     1     -47.486 -37.456  29.102  1.00  0.00     0.048 C 
BRANCH  14  15
HETATM   15  C8  UNL     1     -46.230 -37.999  29.715  1.00  0.00     0.202 C 
BRANCH  15  16
HETATM   16  O1  UNL     1     -46.492 -39.401  29.521  1.00  0.00    -0.287 OA
BRANCH  16  17
HETATM   17  N4  UNL     1     -45.322 -39.907  28.984  1.00  0.00    -0.311 N 
ATOM     18  H42 UNL     1     -44.905 -40.818  29.174  1.00  0.00     0.184 HD
ATOM     19  H41 UNL     1     -44.980 -39.171  28.365  1.00  0.00     0.184 HD
ENDBRANCH  16  17
ENDBRANCH  15  16
ENDBRANCH  14  15
ENDBRANCH  13  14
ENDBRANCH  11  13
ENDBRANCH  10  11
TORSDOF 6
ENDMDL
MODEL 4
REMARK VINA RESULT: -5.120375696      3.827      6.229
REMARK  6 active torsions:
REMARK  status: ('A' for Active; 'I' for Inactive)
REMARK    1  A    between atoms: C5_10  and  N3_11 
REMARK    2  A    between atoms: N3_11  and  C6_13 
REMARK    3  A    between atoms: C6_13  and  C7_14 
REMARK    4  A    between atoms: C7_14  and  C8_15 
REMARK    5  A    between atoms: C8_15  and  O1_16 
REMARK    6  A    between atoms: O1_16  and  N4_17 
ROOT
HETATM    1  C1  UNL     1     -51.614 -36.293  27.719  1.00  0.00     0.014 C 
HETATM    2  C2  UNL     1     -51.300 -37.739  27.314  1.00  0.00     0.029 C 
HETATM    3  C3  UNL     1     -49.955 -38.135  27.850  1.00  0.00     0.127 C 
HETATM    4  N1  UNL     1     -49.119 -37.291  27.043  1.00  0.00    -0.378 N 
ATOM      5  H1  UNL     1     -48.170 -37.014  27.296  1.00  0.00     0.160 HD
HETATM    6  C4  UNL     1     -49.772 -36.891  25.859  1.00  0.00     0.093 C 
HETATM    7  N2  UNL     1     -49.407 -36.070  24.953  1.00  0.00    -0.387 N 
ATOM      8  H21 UNL     1     -49.879 -35.782  24.096  1.00  0.00     0.157 HD
ATOM      9  H22 UNL     1     -48.531 -35.548  24.966  1.00  0.00     0.157 HD
HETATM   10  C5  UNL     1     -51.097 -37.680  25.840  1.00  0.00     0.149 C 
ENDROOT
BRANCH  10  11
HETATM   11  N3  UNL     1     -50.941 -38.816  25.082  1.00  0.00    -0.410 N 
ATOM     12  H3  UNL     1     -50.637 -39.682  25.526  1.00  0.00     0.154 HD
BRANCH  11  13
HETATM   13  C6  UNL     1     -51.210 -38.791  23.623  1.00  0.00     0.116 C 
BRANCH  13  14
HETATM   14  C7  UNL     1     -52.453 -37.921  23.547  1.00  0.00     0.048 C 
BRANCH  14  15
HETATM   15  C8  UNL     1     -52.996 -37.791  22.156  1.00  0.00     0.202 C 
BRANCH  15  16
HETATM   16  O1  UNL     1     -53.356 -39.169  21.943  1.00  0.00    -0.287 OA
BRANCH  16  17
HETATM   17  N4  UNL     1     -54.464 -39.120  21.115  1.00  0.00    -0.311 N 
ATOM     18  H42 UNL     1     -55.139 -38.359  21.041  1.00  0.00     0.184 HD
ATOM     19  H41 UNL     1     -54.447 -40.004  20.607  1.00  0.00     0.184 HD
ENDBRANCH  16  17
ENDBRANCH  15  16
ENDBRANCH  14  15
ENDBRANCH  13  14
ENDBRANCH  11  13
ENDBRANCH  10  11
TORSDOF 6
ENDMDL
MODEL 5
REMARK VINA RESULT: -5.105956948      2.250      2.546
REMARK  6 active torsions:
REMARK  status: ('A' for Active; 'I' for Inactive)
REMARK    1  A    between atoms: C5_10  and  N3_11 
REMARK    2  A    between atoms: N3_11  and  C6_13 
REMARK    3  A    between atoms: C6_13  and  C7_14 
REMARK    4  A    between atoms: C7_14  and  C8_15 
REMARK    5  A    between atoms: C8_15  and  O1_16 
REMARK    6  A    between atoms: O1_16  and  N4_17 
ROOT
HETATM    1  C1  UNL     1     -49.889 -35.896  24.937  1.00  0.00     0.014 C 
HETATM    2  C2  UNL     1     -50.350 -37.224  25.552  1.00  0.00     0.029 C 
HETATM    3  C3  UNL     1     -51.849 -37.306  25.517  1.00  0.00     0.127 C 
HETATM    4  N1  UNL     1     -52.166 -36.278  26.470  1.00  0.00    -0.378 N 
ATOM      5  H1  UNL     1     -53.062 -35.793  26.513  1.00  0.00     0.160 HD
HETATM    6  C4  UNL     1     -51.085 -36.022  27.338  1.00  0.00     0.093 C 
HETATM    7  N2  UNL     1     -50.941 -35.126  28.234  1.00  0.00    -0.387 N 
ATOM      8  H21 UNL     1     -50.159 -34.941  28.862  1.00  0.00     0.157 HD
ATOM      9  H22 UNL     1     -51.638 -34.415  28.457  1.00  0.00     0.157 HD
HETATM   10  C5  UNL     1     -50.030 -37.097  27.001  1.00  0.00     0.149 C 
ENDROOT
BRANCH  10  11
HETATM   11  N3  UNL     1     -50.162 -38.153  27.869  1.00  0.00    -0.410 N 
ATOM     12  H3  UNL     1     -50.879 -38.859  27.702  1.00  0.00     0.154 HD
BRANCH  11  13
HETATM   13  C6  UNL     1     -49.270 -38.275  29.050  1.00  0.00     0.116 C 
BRANCH  13  14
HETATM   14  C7  UNL     1     -47.923 -37.888  28.466  1.00  0.00     0.048 C 
BRANCH  14  15
HETATM   15  C8  UNL     1     -46.789 -38.075  29.429  1.00  0.00     0.202 C 
BRANCH  15  16
HETATM   16  O1  UNL     1     -46.740 -39.514  29.418  1.00  0.00    -0.287 OA
BRANCH  16  17
HETATM   17  N4  UNL     1     -45.425 -39.820  29.117  1.00  0.00    -0.311 N 
ATOM     18  H42 UNL     1     -44.833 -40.505  29.586  1.00  0.00     0.184 HD
ATOM     19  H41 UNL     1     -45.190 -39.211  28.332  1.00  0.00     0.184 HD
ENDBRANCH  16  17
ENDBRANCH  15  16
ENDBRANCH  14  15
ENDBRANCH  13  14
ENDBRANCH  11  13
ENDBRANCH  10  11
TORSDOF 6
ENDMDL
