MODEL 1
REMARK VINA RESULT: -11.054194484      0.000      0.000
REMARK  8 active torsions:
REMARK  status: ('A' for Active; 'I' for Inactive)
REMARK    1  A    between atoms: C2_2  and  O2_4 
REMARK    2  A    between atoms: O2_4  and  C3_5 
REMARK    3  A    between atoms: C4_6  and  O3_7 
REMARK    4  A    between atoms: C8_12  and  O4_13 
REMARK    5  A    between atoms: C19_25  and  C20_26 
REMARK    6  A    between atoms: C20_26  and  C21_28 
REMARK    7  A    between atoms: C33_40  and  O6_41 
REMARK    8  A    between atoms: O6_41  and  C34_42 
ROOT
HETATM    1  C3  UNL     1      -5.370 -10.993  24.196  1.00  0.00     0.191 C 
HETATM    2  C4  UNL     1      -5.678 -12.400  23.709  1.00  0.00     0.155 C 
HETATM    3  C5  UNL     1      -5.021 -12.613  22.383  1.00  0.00     0.027 C 
HETATM    4  C6  UNL     1      -3.507 -12.464  22.457  1.00  0.00     0.005 C 
HETATM    5  C7  UNL     1      -2.963 -13.782  22.839  1.00  0.00     0.038 C 
HETATM    6  C8  UNL     1      -3.266 -14.760  21.719  1.00  0.00     0.128 C 
HETATM    7  C9  UNL     1      -4.732 -15.055  21.645  1.00  0.00    -0.006 C 
HETATM    8  C10 UNL     1      -5.161 -15.861  22.834  1.00  0.00     0.019 C 
HETATM    9  C11 UNL     1      -5.454 -13.730  21.546  1.00  0.00     0.004 C 
HETATM   10  C12 UNL     1      -6.939 -13.886  21.579  1.00  0.00     0.006 C 
HETATM   11  C13 UNL     1      -7.378 -14.830  20.490  1.00  0.00     0.006 C 
HETATM   12  C14 UNL     1      -6.592 -16.094  20.401  1.00  0.00     0.003 C 
HETATM   13  C15 UNL     1      -7.085 -16.921  19.270  1.00  0.00    -0.035 C 
HETATM   14  C16 UNL     1      -7.196 -18.375  19.778  1.00  0.00     0.016 C 
HETATM   15  C17 UNL     1      -8.498 -16.605  18.830  1.00  0.00     0.011 C 
HETATM   16  C18 UNL     1      -8.544 -17.022  17.349  1.00  0.00     0.013 C 
HETATM   17  C19 UNL     1      -7.244 -16.336  16.901  1.00  0.00     0.064 C 
HETATM   18  C25 UNL     1      -6.323 -16.858  17.999  1.00  0.00     0.006 C 
HETATM   19  C26 UNL     1      -4.990 -16.208  18.013  1.00  0.00     0.007 C 
HETATM   20  C27 UNL     1      -4.853 -15.120  19.096  1.00  0.00     0.011 C 
HETATM   21  C28 UNL     1      -5.092 -15.859  20.404  1.00  0.00    -0.030 C 
HETATM   22  C29 UNL     1      -4.261 -17.071  20.328  1.00  0.00     0.016 C 
HETATM   23  C30 UNL     1      -3.103 -11.303  23.318  1.00  0.00    -0.014 C 
HETATM   24  C31 UNL     1      -2.469 -11.687  24.615  1.00  0.00     0.018 C 
HETATM   25  C32 UNL     1      -2.022 -10.494  22.557  1.00  0.00     0.018 C 
HETATM   26  C33 UNL     1      -4.239 -10.327  23.493  1.00  0.00     0.172 C 
ENDROOT
BRANCH  17  27
HETATM   27  C20 UNL     1      -6.886 -16.946  15.607  1.00  0.00     0.154 C 
HETATM   28  O5  UNL     1      -6.004 -17.835  15.592  1.00  0.00    -0.293 OA
BRANCH  27  29
HETATM   29  C21 UNL     1      -7.504 -16.567  14.353  1.00  0.00     0.052 C 
HETATM   30  C22 UNL     1      -8.427 -17.244  13.720  1.00  0.00    -0.084 C 
HETATM   31  C23 UNL     1      -8.998 -18.529  14.192  1.00  0.00     0.043 C 
HETATM   32  C24 UNL     1      -8.949 -16.699  12.437  1.00  0.00     0.043 C 
ENDBRANCH  27  29
ENDBRANCH  17  27
BRANCH   6  33
HETATM   33  O4  UNL     1      -2.433 -15.828  21.957  1.00  0.00    -0.395 OA
ATOM     34  H4  UNL     1      -2.786 -16.237  22.739  1.00  0.00     0.210 HD
ENDBRANCH   6  33
BRANCH   2  35
HETATM   35  O3  UNL     1      -5.367 -13.267  24.698  1.00  0.00    -0.392 OA
ATOM     36  H3  UNL     1      -5.142 -14.101  24.302  1.00  0.00     0.210 HD
ENDBRANCH   2  35
BRANCH   1  37
HETATM   37  O2  UNL     1      -6.561 -10.189  24.159  1.00  0.00    -0.311 OA
BRANCH  37  38
HETATM   38  C2  UNL     1      -7.323  -9.961  25.280  1.00  0.00     0.255 C 
HETATM   39  C1  UNL     1      -8.583 -10.666  25.555  1.00  0.00     0.126 C 
HETATM   40  O1  UNL     1      -6.895  -9.105  26.091  1.00  0.00    -0.266 OA
ENDBRANCH  37  38
ENDBRANCH   1  37
BRANCH  26  41
HETATM   41  O6  UNL     1      -3.738  -9.305  24.374  1.00  0.00    -0.313 OA
BRANCH  41  42
HETATM   42  C34 UNL     1      -3.649  -7.992  23.996  1.00  0.00     0.255 C 
HETATM   43  C35 UNL     1      -2.950  -7.033  24.915  1.00  0.00     0.126 C 
HETATM   44  O7  UNL     1      -4.141  -7.627  22.909  1.00  0.00    -0.266 OA
ENDBRANCH  41  42
ENDBRANCH  26  41
TORSDOF 8
ENDMDL
MODEL 2
REMARK VINA RESULT: -10.376424768      1.263      1.555
REMARK  8 active torsions:
REMARK  status: ('A' for Active; 'I' for Inactive)
REMARK    1  A    between atoms: C2_2  and  O2_4 
REMARK    2  A    between atoms: O2_4  and  C3_5 
REMARK    3  A    between atoms: C4_6  and  O3_7 
REMARK    4  A    between atoms: C8_12  and  O4_13 
REMARK    5  A    between atoms: C19_25  and  C20_26 
REMARK    6  A    between atoms: C20_26  and  C21_28 
REMARK    7  A    between atoms: C33_40  and  O6_41 
REMARK    8  A    between atoms: O6_41  and  C34_42 
ROOT
HETATM    1  C3  UNL     1      -5.636 -11.338  24.018  1.00  0.00     0.191 C 
HETATM    2  C4  UNL     1      -5.813 -12.724  23.417  1.00  0.00     0.155 C 
HETATM    3  C5  UNL     1      -5.098 -12.784  22.106  1.00  0.00     0.027 C 
HETATM    4  C6  UNL     1      -3.605 -12.523  22.249  1.00  0.00     0.005 C 
HETATM    5  C7  UNL     1      -2.968 -13.819  22.554  1.00  0.00     0.038 C 
HETATM    6  C8  UNL     1      -3.154 -14.730  21.355  1.00  0.00     0.128 C 
HETATM    7  C9  UNL     1      -4.588 -15.133  21.204  1.00  0.00    -0.006 C 
HETATM    8  C10 UNL     1      -4.989 -16.058  22.313  1.00  0.00     0.019 C 
HETATM    9  C11 UNL     1      -5.412 -13.865  21.174  1.00  0.00     0.004 C 
HETATM   10  C12 UNL     1      -6.879 -14.140  21.139  1.00  0.00     0.006 C 
HETATM   11  C13 UNL     1      -7.205 -15.030  19.968  1.00  0.00     0.006 C 
HETATM   12  C14 UNL     1      -6.316 -16.218  19.817  1.00  0.00     0.003 C 
HETATM   13  C15 UNL     1      -6.704 -16.993  18.611  1.00  0.00    -0.035 C 
HETATM   14  C16 UNL     1      -6.713 -18.486  19.008  1.00  0.00     0.016 C 
HETATM   15  C17 UNL     1      -8.123 -16.757  18.141  1.00  0.00     0.011 C 
HETATM   16  C18 UNL     1      -8.088 -17.063  16.634  1.00  0.00     0.013 C 
HETATM   17  C19 UNL     1      -6.834 -16.245  16.287  1.00  0.00     0.064 C 
HETATM   18  C25 UNL     1      -5.910 -16.775  17.378  1.00  0.00     0.006 C 
HETATM   19  C26 UNL     1      -4.634 -16.025  17.491  1.00  0.00     0.007 C 
HETATM   20  C27 UNL     1      -4.621 -15.014  18.654  1.00  0.00     0.011 C 
HETATM   21  C28 UNL     1      -4.841 -15.867  19.895  1.00  0.00    -0.030 C 
HETATM   22  C29 UNL     1      -3.913 -17.001  19.762  1.00  0.00     0.016 C 
HETATM   23  C30 UNL     1      -3.324 -11.402  23.206  1.00  0.00    -0.014 C 
HETATM   24  C31 UNL     1      -2.704 -11.831  24.495  1.00  0.00     0.018 C 
HETATM   25  C32 UNL     1      -2.289 -10.455  22.548  1.00  0.00     0.018 C 
HETATM   26  C33 UNL     1      -4.541 -10.534  23.408  1.00  0.00     0.172 C 
ENDROOT
BRANCH  17  27
HETATM   27  C20 UNL     1      -6.386 -16.725  14.967  1.00  0.00     0.154 C 
HETATM   28  O5  UNL     1      -7.206 -16.713  14.020  1.00  0.00    -0.293 OA
BRANCH  27  29
HETATM   29  C21 UNL     1      -5.045 -17.211  14.711  1.00  0.00     0.052 C 
HETATM   30  C22 UNL     1      -4.599 -17.659  13.565  1.00  0.00    -0.084 C 
HETATM   31  C23 UNL     1      -5.409 -17.743  12.325  1.00  0.00     0.043 C 
HETATM   32  C24 UNL     1      -3.187 -18.118  13.487  1.00  0.00     0.043 C 
ENDBRANCH  27  29
ENDBRANCH  17  27
BRANCH   6  33
HETATM   33  O4  UNL     1      -2.246 -15.744  21.546  1.00  0.00    -0.395 OA
ATOM     34  H4  UNL     1      -2.606 -16.482  21.067  1.00  0.00     0.210 HD
ENDBRANCH   6  33
BRANCH   2  35
HETATM   35  O3  UNL     1      -5.464 -13.637  24.352  1.00  0.00    -0.392 OA
ATOM     36  H3  UNL     1      -6.105 -14.338  24.336  1.00  0.00     0.210 HD
ENDBRANCH   2  35
BRANCH   1  37
HETATM   37  O2  UNL     1      -6.887 -10.630  23.993  1.00  0.00    -0.311 OA
BRANCH  37  38
HETATM   38  C2  UNL     1      -7.624 -10.413  25.133  1.00  0.00     0.255 C 
HETATM   39  C1  UNL     1      -7.555  -9.168  25.912  1.00  0.00     0.126 C 
HETATM   40  O1  UNL     1      -8.385 -11.340  25.501  1.00  0.00    -0.266 OA
ENDBRANCH  37  38
ENDBRANCH   1  37
BRANCH  26  41
HETATM   41  O6  UNL     1      -4.154  -9.546  24.380  1.00  0.00    -0.313 OA
BRANCH  41  42
HETATM   42  C34 UNL     1      -3.829  -8.262  24.029  1.00  0.00     0.255 C 
HETATM   43  C35 UNL     1      -2.991  -7.456  24.978  1.00  0.00     0.126 C 
HETATM   44  O7  UNL     1      -4.230  -7.799  22.942  1.00  0.00    -0.266 OA
ENDBRANCH  41  42
ENDBRANCH  26  41
TORSDOF 8
ENDMDL
MODEL 3
REMARK VINA RESULT: -10.236012996      1.049      1.287
REMARK  8 active torsions:
REMARK  status: ('A' for Active; 'I' for Inactive)
REMARK    1  A    between atoms: C2_2  and  O2_4 
REMARK    2  A    between atoms: O2_4  and  C3_5 
REMARK    3  A    between atoms: C4_6  and  O3_7 
REMARK    4  A    between atoms: C8_12  and  O4_13 
REMARK    5  A    between atoms: C19_25  and  C20_26 
REMARK    6  A    between atoms: C20_26  and  C21_28 
REMARK    7  A    between atoms: C33_40  and  O6_41 
REMARK    8  A    between atoms: O6_41  and  C34_42 
ROOT
HETATM    1  C3  UNL     1      -5.355 -11.084  24.744  1.00  0.00     0.191 C 
HETATM    2  C4  UNL     1      -5.730 -12.488  24.298  1.00  0.00     0.155 C 
HETATM    3  C5  UNL     1      -5.253 -12.700  22.897  1.00  0.00     0.027 C 
HETATM    4  C6  UNL     1      -3.742 -12.558  22.773  1.00  0.00     0.005 C 
HETATM    5  C7  UNL     1      -3.158 -13.879  23.077  1.00  0.00     0.038 C 
HETATM    6  C8  UNL     1      -3.609 -14.851  22.004  1.00  0.00     0.128 C 
HETATM    7  C9  UNL     1      -5.073 -15.141  22.122  1.00  0.00    -0.006 C 
HETATM    8  C10 UNL     1      -5.347 -15.949  23.354  1.00  0.00     0.019 C 
HETATM    9  C11 UNL     1      -5.796 -13.813  22.121  1.00  0.00     0.004 C 
HETATM   10  C12 UNL     1      -7.265 -13.964  22.348  1.00  0.00     0.006 C 
HETATM   11  C13 UNL     1      -7.847 -14.902  21.323  1.00  0.00     0.006 C 
HETATM   12  C14 UNL     1      -7.084 -16.169  21.129  1.00  0.00     0.003 C 
HETATM   13  C15 UNL     1      -7.724 -16.991  20.070  1.00  0.00    -0.035 C 
HETATM   14  C16 UNL     1      -7.774 -18.446  20.585  1.00  0.00     0.016 C 
HETATM   15  C17 UNL     1      -9.181 -16.668  19.819  1.00  0.00     0.011 C 
HETATM   16  C18 UNL     1      -9.422 -17.081  18.356  1.00  0.00     0.013 C 
HETATM   17  C19 UNL     1      -8.189 -16.399  17.743  1.00  0.00     0.064 C 
HETATM   18  C25 UNL     1      -7.135 -16.927  18.711  1.00  0.00     0.006 C 
HETATM   19  C26 UNL     1      -5.808 -16.282  18.552  1.00  0.00     0.007 C 
HETATM   20  C27 UNL     1      -5.526 -15.198  19.610  1.00  0.00     0.011 C 
HETATM   21  C28 UNL     1      -5.595 -15.940  20.937  1.00  0.00    -0.030 C 
HETATM   22  C29 UNL     1      -4.787 -17.155  20.749  1.00  0.00     0.016 C 
HETATM   23  C30 UNL     1      -3.223 -11.401  23.577  1.00  0.00    -0.014 C 
HETATM   24  C31 UNL     1      -2.428 -11.790  24.778  1.00  0.00     0.018 C 
HETATM   25  C32 UNL     1      -2.249 -10.593  22.683  1.00  0.00     0.018 C 
HETATM   26  C33 UNL     1      -4.323 -10.420  23.901  1.00  0.00     0.172 C 
ENDROOT
BRANCH  17  27
HETATM   27  C20 UNL     1      -8.006 -17.005  16.413  1.00  0.00     0.154 C 
HETATM   28  O5  UNL     1      -9.014 -17.449  15.817  1.00  0.00    -0.293 OA
BRANCH  27  29
HETATM   29  C21 UNL     1      -6.717 -17.115  15.760  1.00  0.00     0.052 C 
HETATM   30  C22 UNL     1      -6.521 -17.277  14.476  1.00  0.00    -0.084 C 
HETATM   31  C23 UNL     1      -7.604 -17.376  13.468  1.00  0.00     0.043 C 
HETATM   32  C24 UNL     1      -5.121 -17.369  13.982  1.00  0.00     0.043 C 
ENDBRANCH  27  29
ENDBRANCH  17  27
BRANCH   6  33
HETATM   33  O4  UNL     1      -2.757 -15.924  22.129  1.00  0.00    -0.395 OA
ATOM     34  H4  UNL     1      -2.931 -16.269  22.997  1.00  0.00     0.210 HD
ENDBRANCH   6  33
BRANCH   2  35
HETATM   35  O3  UNL     1      -5.296 -13.360  25.236  1.00  0.00    -0.392 OA
ATOM     36  H3  UNL     1      -4.888 -14.095  24.792  1.00  0.00     0.210 HD
ENDBRANCH   2  35
BRANCH   1  37
HETATM   37  O2  UNL     1      -6.538 -10.276  24.865  1.00  0.00    -0.311 OA
BRANCH  37  38
HETATM   38  C2  UNL     1      -7.800 -10.807  24.748  1.00  0.00     0.255 C 
HETATM   39  C1  UNL     1      -8.580 -10.763  23.503  1.00  0.00     0.126 C 
HETATM   40  O1  UNL     1      -8.284 -11.350  25.771  1.00  0.00    -0.266 OA
ENDBRANCH  37  38
ENDBRANCH   1  37
BRANCH  26  41
HETATM   41  O6  UNL     1      -3.708  -9.404  24.712  1.00  0.00    -0.313 OA
BRANCH  41  42
HETATM   42  C34 UNL     1      -3.590  -8.105  24.292  1.00  0.00     0.255 C 
HETATM   43  C35 UNL     1      -2.814  -7.148  25.150  1.00  0.00     0.126 C 
HETATM   44  O7  UNL     1      -4.121  -7.752  23.220  1.00  0.00    -0.266 OA
ENDBRANCH  41  42
ENDBRANCH  26  41
TORSDOF 8
ENDMDL
MODEL 4
REMARK VINA RESULT: -10.110173177      1.998     10.307
REMARK  8 active torsions:
REMARK  status: ('A' for Active; 'I' for Inactive)
REMARK    1  A    between atoms: C2_2  and  O2_4 
REMARK    2  A    between atoms: O2_4  and  C3_5 
REMARK    3  A    between atoms: C4_6  and  O3_7 
REMARK    4  A    between atoms: C8_12  and  O4_13 
REMARK    5  A    between atoms: C19_25  and  C20_26 
REMARK    6  A    between atoms: C20_26  and  C21_28 
REMARK    7  A    between atoms: C33_40  and  O6_41 
REMARK    8  A    between atoms: O6_41  and  C34_42 
ROOT
HETATM    1  C3  UNL     1      -6.633 -17.456  14.339  1.00  0.00     0.191 C 
HETATM    2  C4  UNL     1      -6.166 -17.466  15.786  1.00  0.00     0.155 C 
HETATM    3  C5  UNL     1      -7.015 -16.526  16.581  1.00  0.00     0.027 C 
HETATM    4  C6  UNL     1      -8.486 -16.920  16.562  1.00  0.00     0.005 C 
HETATM    5  C7  UNL     1      -8.687 -17.888  17.658  1.00  0.00     0.038 C 
HETATM    6  C8  UNL     1      -8.428 -17.175  18.971  1.00  0.00     0.128 C 
HETATM    7  C9  UNL     1      -6.975 -16.849  19.128  1.00  0.00    -0.006 C 
HETATM    8  C10 UNL     1      -6.179 -18.102  19.337  1.00  0.00     0.019 C 
HETATM    9  C11 UNL     1      -6.549 -16.085  17.894  1.00  0.00     0.004 C 
HETATM   10  C12 UNL     1      -5.083 -15.799  17.879  1.00  0.00     0.006 C 
HETATM   11  C13 UNL     1      -4.693 -15.066  19.136  1.00  0.00     0.006 C 
HETATM   12  C14 UNL     1      -5.229 -15.655  20.397  1.00  0.00     0.003 C 
HETATM   13  C15 UNL     1      -4.817 -14.828  21.560  1.00  0.00    -0.035 C 
HETATM   14  C16 UNL     1      -4.337 -15.794  22.665  1.00  0.00     0.016 C 
HETATM   15  C17 UNL     1      -3.601 -13.960  21.316  1.00  0.00     0.011 C 
HETATM   16  C18 UNL     1      -3.764 -12.781  22.291  1.00  0.00     0.013 C 
HETATM   17  C19 UNL     1      -5.232 -12.454  21.975  1.00  0.00     0.064 C 
HETATM   18  C25 UNL     1      -5.808 -13.861  22.093  1.00  0.00     0.006 C 
HETATM   19  C26 UNL     1      -7.212 -13.969  21.625  1.00  0.00     0.007 C 
HETATM   20  C27 UNL     1      -7.340 -14.565  20.210  1.00  0.00     0.011 C 
HETATM   21  C28 UNL     1      -6.717 -15.949  20.328  1.00  0.00    -0.030 C 
HETATM   22  C29 UNL     1      -7.303 -16.541  21.541  1.00  0.00     0.016 C 
HETATM   23  C30 UNL     1      -8.928 -17.359  15.197  1.00  0.00    -0.014 C 
HETATM   24  C31 UNL     1      -9.214 -18.819  15.080  1.00  0.00     0.018 C 
HETATM   25  C32 UNL     1     -10.268 -16.650  14.874  1.00  0.00     0.018 C 
HETATM   26  C33 UNL     1      -7.984 -16.865  14.128  1.00  0.00     0.172 C 
ENDROOT
BRANCH  17  27
HETATM   27  C20 UNL     1      -5.712 -11.615  23.088  1.00  0.00     0.154 C 
HETATM   28  O5  UNL     1      -6.235 -10.510  22.818  1.00  0.00    -0.293 OA
BRANCH  27  29
HETATM   29  C21 UNL     1      -5.608 -12.006  24.479  1.00  0.00     0.052 C 
HETATM   30  C22 UNL     1      -4.833 -11.448  25.375  1.00  0.00    -0.084 C 
HETATM   31  C23 UNL     1      -3.925 -10.308  25.105  1.00  0.00     0.043 C 
HETATM   32  C24 UNL     1      -4.857 -11.984  26.762  1.00  0.00     0.043 C 
ENDBRANCH  27  29
ENDBRANCH  17  27
BRANCH   6  33
HETATM   33  O4  UNL     1      -8.982 -17.995  19.926  1.00  0.00    -0.395 OA
ATOM     34  H4  UNL     1      -9.406 -17.401  20.535  1.00  0.00     0.210 HD
ENDBRANCH   6  33
BRANCH   2  35
HETATM   35  O3  UNL     1      -6.110 -18.751  16.203  1.00  0.00    -0.392 OA
ATOM     36  H3  UNL     1      -6.335 -18.773  17.126  1.00  0.00     0.210 HD
ENDBRANCH   2  35
BRANCH   1  37
HETATM   37  O2  UNL     1      -5.645 -16.823  13.509  1.00  0.00    -0.311 OA
BRANCH  37  38
HETATM   38  C2  UNL     1      -4.702 -17.545  12.818  1.00  0.00     0.255 C 
HETATM   39  C1  UNL     1      -3.470 -18.057  13.433  1.00  0.00     0.126 C 
HETATM   40  O1  UNL     1      -4.933 -17.764  11.604  1.00  0.00    -0.266 OA
ENDBRANCH  37  38
ENDBRANCH   1  37
BRANCH  26  41
HETATM   41  O6  UNL     1      -8.488 -17.398  12.891  1.00  0.00    -0.313 OA
BRANCH  41  42
HETATM   42  C34 UNL     1      -8.759 -16.604  11.808  1.00  0.00     0.255 C 
HETATM   43  C35 UNL     1      -9.787 -15.521  11.959  1.00  0.00     0.126 C 
HETATM   44  O7  UNL     1      -8.151 -16.795  10.735  1.00  0.00    -0.266 OA
ENDBRANCH  41  42
ENDBRANCH  26  41
TORSDOF 8
ENDMDL
MODEL 5
REMARK VINA RESULT: -10.037375025      2.165      9.682
REMARK  8 active torsions:
REMARK  status: ('A' for Active; 'I' for Inactive)
REMARK    1  A    between atoms: C2_2  and  O2_4 
REMARK    2  A    between atoms: O2_4  and  C3_5 
REMARK    3  A    between atoms: C4_6  and  O3_7 
REMARK    4  A    between atoms: C8_12  and  O4_13 
REMARK    5  A    between atoms: C19_25  and  C20_26 
REMARK    6  A    between atoms: C20_26  and  C21_28 
REMARK    7  A    between atoms: C33_40  and  O6_41 
REMARK    8  A    between atoms: O6_41  and  C34_42 
ROOT
HETATM    1  C3  UNL     1      -3.735 -17.624  17.520  1.00  0.00     0.191 C 
HETATM    2  C4  UNL     1      -3.997 -17.194  18.954  1.00  0.00     0.155 C 
HETATM    3  C5  UNL     1      -4.637 -15.844  18.951  1.00  0.00     0.027 C 
HETATM    4  C6  UNL     1      -5.968 -15.836  18.210  1.00  0.00     0.005 C 
HETATM    5  C7  UNL     1      -7.005 -16.228  19.184  1.00  0.00     0.038 C 
HETATM    6  C8  UNL     1      -7.078 -15.154  20.253  1.00  0.00     0.128 C 
HETATM    7  C9  UNL     1      -5.850 -15.163  21.109  1.00  0.00    -0.006 C 
HETATM    8  C10 UNL     1      -5.820 -16.395  21.963  1.00  0.00     0.019 C 
HETATM    9  C11 UNL     1      -4.657 -15.063  20.186  1.00  0.00     0.004 C 
HETATM   10  C12 UNL     1      -3.359 -15.176  20.917  1.00  0.00     0.006 C 
HETATM   11  C13 UNL     1      -3.295 -14.139  22.008  1.00  0.00     0.006 C 
HETATM   12  C14 UNL     1      -4.516 -14.046  22.858  1.00  0.00     0.003 C 
HETATM   13  C15 UNL     1      -4.355 -12.967  23.865  1.00  0.00    -0.035 C 
HETATM   14  C16 UNL     1      -4.851 -13.522  25.219  1.00  0.00     0.016 C 
HETATM   15  C17 UNL     1      -2.919 -12.590  24.158  1.00  0.00     0.011 C 
HETATM   16  C18 UNL     1      -2.990 -11.126  24.628  1.00  0.00     0.013 C 
HETATM   17  C19 UNL     1      -3.893 -10.593  23.504  1.00  0.00     0.064 C 
HETATM   18  C25 UNL     1      -4.983 -11.657  23.565  1.00  0.00     0.006 C 
HETATM   19  C26 UNL     1      -5.946 -11.585  22.439  1.00  0.00     0.007 C 
HETATM   20  C27 UNL     1      -5.676 -12.626  21.336  1.00  0.00     0.011 C 
HETATM   21  C28 UNL     1      -5.798 -13.966  22.048  1.00  0.00    -0.030 C 
HETATM   22  C29 UNL     1      -7.040 -13.883  22.832  1.00  0.00     0.016 C 
HETATM   23  C30 UNL     1      -5.906 -16.641  16.945  1.00  0.00    -0.014 C 
HETATM   24  C31 UNL     1      -6.684 -17.914  16.984  1.00  0.00     0.018 C 
HETATM   25  C32 UNL     1      -6.546 -15.803  15.810  1.00  0.00     0.018 C 
HETATM   26  C33 UNL     1      -4.481 -16.845  16.493  1.00  0.00     0.172 C 
ENDROOT
BRANCH  17  27
HETATM   27  C20 UNL     1      -4.418  -9.301  23.981  1.00  0.00     0.154 C 
HETATM   28  O5  UNL     1      -5.627  -9.232  24.301  1.00  0.00    -0.293 OA
BRANCH  27  29
HETATM   29  C21 UNL     1      -3.605  -8.107  24.098  1.00  0.00     0.052 C 
HETATM   30  C22 UNL     1      -3.206  -7.560  25.217  1.00  0.00    -0.084 C 
HETATM   31  C23 UNL     1      -3.528  -8.082  26.568  1.00  0.00     0.043 C 
HETATM   32  C24 UNL     1      -2.373  -6.329  25.145  1.00  0.00     0.043 C 
ENDBRANCH  27  29
ENDBRANCH  17  27
BRANCH   6  33
HETATM   33  O4  UNL     1      -8.276 -15.380  20.890  1.00  0.00    -0.395 OA
ATOM     34  H4  UNL     1      -8.195 -14.925  21.720  1.00  0.00     0.210 HD
ENDBRANCH   6  33
BRANCH   2  35
HETATM   35  O3  UNL     1      -4.663 -18.192  19.579  1.00  0.00    -0.392 OA
ATOM     36  H3  UNL     1      -4.072 -18.598  20.203  1.00  0.00     0.210 HD
ENDBRANCH   2  35
BRANCH   1  37
HETATM   37  O2  UNL     1      -2.322 -17.625  17.258  1.00  0.00    -0.311 OA
BRANCH  37  38
HETATM   38  C2  UNL     1      -1.459 -16.776  17.909  1.00  0.00     0.255 C 
HETATM   39  C1  UNL     1      -0.520 -17.224  18.948  1.00  0.00     0.126 C 
HETATM   40  O1  UNL     1      -1.497 -15.566  17.580  1.00  0.00    -0.266 OA
ENDBRANCH  37  38
ENDBRANCH   1  37
BRANCH  26  41
HETATM   41  O6  UNL     1      -4.563 -17.670  15.317  1.00  0.00    -0.313 OA
BRANCH  41  42
HETATM   42  C34 UNL     1      -3.870 -17.381  14.171  1.00  0.00     0.255 C 
HETATM   43  C35 UNL     1      -4.333 -18.001  12.885  1.00  0.00     0.126 C 
HETATM   44  O7  UNL     1      -2.884 -16.619  14.221  1.00  0.00    -0.266 OA
ENDBRANCH  41  42
ENDBRANCH  26  41
TORSDOF 8
ENDMDL
