MODEL 1
REMARK VINA RESULT: -7.908006499      0.000      0.000
REMARK  2 active torsions:
REMARK  status: ('A' for Active; 'I' for Inactive)
REMARK    1  A    between atoms: O1_2  and  C2_3 
REMARK    2  A    between atoms: C2_3  and  C3_5 
ROOT
HETATM    1  C3  UNL     1      52.445 -43.782  -8.569  1.00  0.00     0.082 A 
HETATM    2  C4  UNL     1      53.800 -43.462  -8.413  1.00  0.00     0.067 A 
HETATM    3  C5  UNL     1      54.684 -43.269  -9.600  1.00  0.00     0.078 C 
HETATM    4  O3  UNL     1      54.073 -43.383  -7.145  1.00  0.00    -0.314 OA
HETATM    5  C6  UNL     1      53.002 -43.627  -6.414  1.00  0.00     0.088 A 
HETATM    6  C7  UNL     1      52.749 -43.670  -5.066  1.00  0.00     0.044 A 
HETATM    7  C8  UNL     1      51.512 -43.955  -4.586  1.00  0.00    -0.059 A 
HETATM    8  C9  UNL     1      51.195 -44.012  -3.116  1.00  0.00     0.048 C 
HETATM    9  C10 UNL     1      50.482 -44.206  -5.444  1.00  0.00     0.014 A 
HETATM   10  C11 UNL     1      50.678 -44.177  -6.826  1.00  0.00    -0.047 A 
HETATM   11  C12 UNL     1      49.550 -44.450  -7.755  1.00  0.00     0.049 C 
HETATM   12  C13 UNL     1      51.945 -43.885  -7.298  1.00  0.00     0.022 A 
ENDROOT
BRANCH   1  13
HETATM   13  C2  UNL     1      51.719 -43.967  -9.802  1.00  0.00     0.296 C 
HETATM   14  O2  UNL     1      51.081 -43.073 -10.417  1.00  0.00    -0.259 OA
BRANCH  13  15
HETATM   15  O1  UNL     1      51.698 -45.238 -10.403  1.00  0.00    -0.322 OA
HETATM   16  C1  UNL     1      50.695 -45.641 -11.299  1.00  0.00     0.213 C 
ENDBRANCH  13  15
ENDBRANCH   1  13
TORSDOF 2
ENDMDL
MODEL 2
REMARK VINA RESULT: -7.482229341      1.746      2.035
REMARK  2 active torsions:
REMARK  status: ('A' for Active; 'I' for Inactive)
REMARK    1  A    between atoms: O1_2  and  C2_3 
REMARK    2  A    between atoms: C2_3  and  C3_5 
ROOT
HETATM    1  C3  UNL     1      51.847 -45.420  -9.212  1.00  0.00     0.082 A 
HETATM    2  C4  UNL     1      53.202 -45.648  -9.488  1.00  0.00     0.067 A 
HETATM    3  C5  UNL     1      53.624 -46.336 -10.743  1.00  0.00     0.078 C 
HETATM    4  O3  UNL     1      53.917 -45.176  -8.511  1.00  0.00    -0.314 OA
HETATM    5  C6  UNL     1      53.152 -44.638  -7.580  1.00  0.00     0.088 A 
HETATM    6  C7  UNL     1      53.393 -44.018  -6.380  1.00  0.00     0.044 A 
HETATM    7  C8  UNL     1      52.380 -43.550  -5.608  1.00  0.00    -0.059 A 
HETATM    8  C9  UNL     1      52.602 -42.866  -4.287  1.00  0.00     0.048 C 
HETATM    9  C10 UNL     1      51.085 -43.687  -6.016  1.00  0.00     0.014 A 
HETATM   10  C11 UNL     1      50.777 -44.308  -7.228  1.00  0.00    -0.047 A 
HETATM   11  C12 UNL     1      49.364 -44.452  -7.667  1.00  0.00     0.049 C 
HETATM   12  C13 UNL     1      51.823 -44.780  -8.002  1.00  0.00     0.022 A 
ENDROOT
BRANCH   1  13
HETATM   13  C2  UNL     1      50.709 -45.780 -10.023  1.00  0.00     0.296 C 
HETATM   14  O2  UNL     1      50.274 -45.125 -11.006  1.00  0.00    -0.259 OA
BRANCH  13  15
HETATM   15  O1  UNL     1      49.999 -46.957  -9.727  1.00  0.00    -0.322 OA
HETATM   16  C1  UNL     1      50.632 -48.172  -9.420  1.00  0.00     0.213 C 
ENDBRANCH  13  15
ENDBRANCH   1  13
TORSDOF 2
ENDMDL
MODEL 3
REMARK VINA RESULT: -7.334623777      1.887      4.255
REMARK  2 active torsions:
REMARK  status: ('A' for Active; 'I' for Inactive)
REMARK    1  A    between atoms: O1_2  and  C2_3 
REMARK    2  A    between atoms: C2_3  and  C3_5 
ROOT
HETATM    1  C3  UNL     1      52.377 -43.956  -8.865  1.00  0.00     0.082 A 
HETATM    2  C4  UNL     1      53.634 -44.045  -9.476  1.00  0.00     0.067 A 
HETATM    3  C5  UNL     1      54.607 -42.917  -9.397  1.00  0.00     0.078 C 
HETATM    4  O3  UNL     1      53.739 -45.202 -10.060  1.00  0.00    -0.314 OA
HETATM    5  C6  UNL     1      52.642 -45.918  -9.894  1.00  0.00     0.088 A 
HETATM    6  C7  UNL     1      52.244 -47.169 -10.292  1.00  0.00     0.044 A 
HETATM    7  C8  UNL     1      51.022 -47.660  -9.965  1.00  0.00    -0.059 A 
HETATM    8  C9  UNL     1      50.548 -49.026 -10.382  1.00  0.00     0.048 C 
HETATM    9  C10 UNL     1      50.155 -46.912  -9.224  1.00  0.00     0.014 A 
HETATM   10  C11 UNL     1      50.504 -45.631  -8.790  1.00  0.00    -0.047 A 
HETATM   11  C12 UNL     1      49.555 -44.822  -7.982  1.00  0.00     0.049 C 
HETATM   12  C13 UNL     1      51.754 -45.146  -9.132  1.00  0.00     0.022 A 
ENDROOT
BRANCH   1  13
HETATM   13  C2  UNL     1      51.840 -42.850  -8.109  1.00  0.00     0.296 C 
HETATM   14  O2  UNL     1      51.048 -41.977  -8.552  1.00  0.00    -0.259 OA
BRANCH  13  15
HETATM   15  O1  UNL     1      52.204 -42.698  -6.760  1.00  0.00    -0.322 OA
HETATM   16  C1  UNL     1      52.659 -43.765  -5.969  1.00  0.00     0.213 C 
ENDBRANCH  13  15
ENDBRANCH   1  13
TORSDOF 2
ENDMDL
MODEL 4
REMARK VINA RESULT: -7.198064370      2.101      5.225
REMARK  2 active torsions:
REMARK  status: ('A' for Active; 'I' for Inactive)
REMARK    1  A    between atoms: O1_2  and  C2_3 
REMARK    2  A    between atoms: C2_3  and  C3_5 
ROOT
HETATM    1  C3  UNL     1      51.547 -44.190  -8.327  1.00  0.00     0.082 A 
HETATM    2  C4  UNL     1      50.369 -44.949  -8.318  1.00  0.00     0.067 A 
HETATM    3  C5  UNL     1      49.154 -44.469  -7.599  1.00  0.00     0.078 C 
HETATM    4  O3  UNL     1      50.562 -46.037  -9.002  1.00  0.00    -0.314 OA
HETATM    5  C6  UNL     1      51.791 -46.083  -9.482  1.00  0.00     0.088 A 
HETATM    6  C7  UNL     1      52.489 -46.983 -10.247  1.00  0.00     0.044 A 
HETATM    7  C8  UNL     1      53.781 -46.762 -10.599  1.00  0.00    -0.059 A 
HETATM    8  C9  UNL     1      54.580 -47.723 -11.436  1.00  0.00     0.048 C 
HETATM    9  C10 UNL     1      54.419 -45.625 -10.196  1.00  0.00     0.014 A 
HETATM   10  C11 UNL     1      53.760 -44.672  -9.416  1.00  0.00    -0.047 A 
HETATM   11  C12 UNL     1      54.461 -43.435  -8.982  1.00  0.00     0.049 C 
HETATM   12  C13 UNL     1      52.444 -44.914  -9.066  1.00  0.00     0.022 A 
ENDROOT
BRANCH   1  13
HETATM   13  C2  UNL     1      51.779 -42.914  -7.694  1.00  0.00     0.296 C 
HETATM   14  O2  UNL     1      51.483 -41.791  -8.181  1.00  0.00    -0.259 OA
BRANCH  13  15
HETATM   15  O1  UNL     1      52.382 -42.876  -6.425  1.00  0.00    -0.322 OA
HETATM   16  C1  UNL     1      51.752 -43.361  -5.267  1.00  0.00     0.213 C 
ENDBRANCH  13  15
ENDBRANCH   1  13
TORSDOF 2
ENDMDL
MODEL 5
REMARK VINA RESULT: -7.088825332      3.903      5.161
REMARK  2 active torsions:
REMARK  status: ('A' for Active; 'I' for Inactive)
REMARK    1  A    between atoms: O1_2  and  C2_3 
REMARK    2  A    between atoms: C2_3  and  C3_5 
ROOT
HETATM    1  C3  UNL     1      52.749 -47.720 -11.388  1.00  0.00     0.082 A 
HETATM    2  C4  UNL     1      54.018 -48.315 -11.357  1.00  0.00     0.067 A 
HETATM    3  C5  UNL     1      54.232 -49.693 -11.886  1.00  0.00     0.078 C 
HETATM    4  O3  UNL     1      54.860 -47.483 -10.821  1.00  0.00    -0.314 OA
HETATM    5  C6  UNL     1      54.264 -46.356 -10.481  1.00  0.00     0.088 A 
HETATM    6  C7  UNL     1      54.682 -45.187  -9.899  1.00  0.00     0.044 A 
HETATM    7  C8  UNL     1      53.821 -44.165  -9.661  1.00  0.00    -0.059 A 
HETATM    8  C9  UNL     1      54.240 -42.868  -9.025  1.00  0.00     0.048 C 
HETATM    9  C10 UNL     1      52.505 -44.282 -10.002  1.00  0.00     0.014 A 
HETATM   10  C11 UNL     1      52.020 -45.448 -10.598  1.00  0.00    -0.047 A 
HETATM   11  C12 UNL     1      50.585 -45.568 -10.968  1.00  0.00     0.049 C 
HETATM   12  C13 UNL     1      52.912 -46.479 -10.833  1.00  0.00     0.022 A 
ENDROOT
BRANCH   1  13
HETATM   13  C2  UNL     1      51.522 -48.286 -11.897  1.00  0.00     0.296 C 
HETATM   14  O2  UNL     1      51.085 -48.149 -13.069  1.00  0.00    -0.259 OA
BRANCH  13  15
HETATM   15  O1  UNL     1      50.720 -49.064 -11.045  1.00  0.00    -0.322 OA
HETATM   16  C1  UNL     1      50.796 -48.986  -9.645  1.00  0.00     0.213 C 
ENDBRANCH  13  15
ENDBRANCH   1  13
TORSDOF 2
ENDMDL
