MODEL 1
REMARK VINA RESULT: -8.252218942      0.000      0.000
REMARK  1 active torsions:
REMARK  status: ('A' for Active; 'I' for Inactive)
REMARK    1  A    between atoms: C2_2  and  N1_3 
ROOT
HETATM    1  N1  UNL     1      52.094 -44.769  -3.954  1.00  0.00    -0.381 N 
HETATM    2  C3  UNL     1      51.993 -43.657  -3.083  1.00  0.00     0.120 C 
HETATM    3  C4  UNL     1      52.887 -42.647  -3.816  1.00  0.00     0.024 C 
HETATM    4  C5  UNL     1      52.460 -42.905  -5.245  1.00  0.00     0.066 C 
HETATM    5  C6  UNL     1      52.090 -44.373  -5.291  1.00  0.00     0.166 C 
HETATM    6  C7  UNL     1      53.007 -45.065  -6.226  1.00  0.00     0.067 C 
HETATM    7  C8  UNL     1      52.324 -45.367  -7.566  1.00  0.00     0.046 C 
HETATM    8  C9  UNL     1      51.322 -44.325  -7.936  1.00  0.00     0.096 C 
HETATM    9  C10 UNL     1      50.245 -44.863  -8.844  1.00  0.00     0.041 C 
HETATM   10  C11 UNL     1      50.462 -44.271 -10.205  1.00  0.00     0.003 C 
HETATM   11  C12 UNL     1      51.891 -43.789 -10.149  1.00  0.00     0.003 C 
HETATM   12  C13 UNL     1      51.935 -43.180  -8.743  1.00  0.00     0.041 C 
HETATM   13  O1  UNL     1      50.703 -43.728  -6.839  1.00  0.00    -0.227 OA
HETATM   14  O2  UNL     1      50.781 -44.524  -5.802  1.00  0.00    -0.207 OA
ENDROOT
BRANCH   1  15
HETATM   15  C2  UNL     1      51.661 -46.010  -3.546  1.00  0.00     0.115 C 
HETATM   16  C1  UNL     1      52.782 -46.981  -3.159  1.00  0.00     0.026 C 
ENDBRANCH   1  15
TORSDOF 1
ENDMDL
MODEL 2
REMARK VINA RESULT: -8.050358987      1.887      5.163
REMARK  1 active torsions:
REMARK  status: ('A' for Active; 'I' for Inactive)
REMARK    1  A    between atoms: C2_2  and  N1_3 
ROOT
HETATM    1  N1  UNL     1      52.725 -44.372  -9.305  1.00  0.00    -0.381 N 
HETATM    2  C3  UNL     1      51.862 -43.759 -10.246  1.00  0.00     0.120 C 
HETATM    3  C4  UNL     1      50.505 -44.300  -9.774  1.00  0.00     0.024 C 
HETATM    4  C5  UNL     1      50.681 -44.180  -8.276  1.00  0.00     0.066 C 
HETATM    5  C6  UNL     1      52.161 -44.389  -8.030  1.00  0.00     0.166 C 
HETATM    6  C7  UNL     1      52.340 -45.606  -7.204  1.00  0.00     0.067 C 
HETATM    7  C8  UNL     1      52.659 -45.255  -5.745  1.00  0.00     0.046 C 
HETATM    8  C9  UNL     1      51.993 -43.993  -5.309  1.00  0.00     0.096 C 
HETATM    9  C10 UNL     1      52.734 -43.313  -4.184  1.00  0.00     0.041 C 
HETATM   10  C11 UNL     1      51.908 -43.464  -2.942  1.00  0.00     0.003 C 
HETATM   11  C12 UNL     1      50.968 -44.594  -3.286  1.00  0.00     0.003 C 
HETATM   12  C13 UNL     1      50.599 -44.234  -4.728  1.00  0.00     0.041 C 
HETATM   13  O1  UNL     1      51.822 -43.065  -6.336  1.00  0.00    -0.227 OA
HETATM   14  O2  UNL     1      52.685 -43.303  -7.292  1.00  0.00    -0.207 OA
ENDROOT
BRANCH   1  15
HETATM   15  C2  UNL     1      54.085 -44.382  -9.517  1.00  0.00     0.115 C 
HETATM   16  C1  UNL     1      54.729 -42.992  -9.589  1.00  0.00     0.026 C 
ENDBRANCH   1  15
TORSDOF 1
ENDMDL
MODEL 3
REMARK VINA RESULT: -7.972823673      2.116      5.201
REMARK  1 active torsions:
REMARK  status: ('A' for Active; 'I' for Inactive)
REMARK    1  A    between atoms: C2_2  and  N1_3 
ROOT
HETATM    1  N1  UNL     1      51.897 -44.905  -9.848  1.00  0.00    -0.381 N 
HETATM    2  C3  UNL     1      52.843 -45.823 -10.368  1.00  0.00     0.120 C 
HETATM    3  C4  UNL     1      54.144 -45.227  -9.811  1.00  0.00     0.024 C 
HETATM    4  C5  UNL     1      53.691 -44.864  -8.414  1.00  0.00     0.066 C 
HETATM    5  C6  UNL     1      52.222 -44.518  -8.549  1.00  0.00     0.166 C 
HETATM    6  C7  UNL     1      52.032 -43.097  -8.176  1.00  0.00     0.067 C 
HETATM    7  C8  UNL     1      51.419 -42.958  -6.776  1.00  0.00     0.046 C 
HETATM    8  C9  UNL     1      51.855 -44.052  -5.859  1.00  0.00     0.096 C 
HETATM    9  C10 UNL     1      50.855 -44.309  -4.759  1.00  0.00     0.041 C 
HETATM   10  C11 UNL     1      51.456 -43.818  -3.476  1.00  0.00     0.003 C 
HETATM   11  C12 UNL     1      52.560 -42.898  -3.940  1.00  0.00     0.003 C 
HETATM   12  C13 UNL     1      53.140 -43.708  -5.104  1.00  0.00     0.041 C 
HETATM   13  O1  UNL     1      52.105 -45.260  -6.506  1.00  0.00    -0.227 OA
HETATM   14  O2  UNL     1      51.459 -45.292  -7.645  1.00  0.00    -0.207 OA
ENDROOT
BRANCH   1  15
HETATM   15  C2  UNL     1      50.607 -44.896 -10.326  1.00  0.00     0.115 C 
HETATM   16  C1  UNL     1      50.268 -46.057 -11.268  1.00  0.00     0.026 C 
ENDBRANCH   1  15
TORSDOF 1
ENDMDL
MODEL 4
REMARK VINA RESULT: -7.952078581      1.982      5.125
REMARK  1 active torsions:
REMARK  status: ('A' for Active; 'I' for Inactive)
REMARK    1  A    between atoms: C2_2  and  N1_3 
ROOT
HETATM    1  N1  UNL     1      52.287 -44.526  -9.273  1.00  0.00    -0.381 N 
HETATM    2  C3  UNL     1      53.569 -44.460  -9.872  1.00  0.00     0.120 C 
HETATM    3  C4  UNL     1      54.152 -43.236  -9.150  1.00  0.00     0.024 C 
HETATM    4  C5  UNL     1      53.662 -43.503  -7.744  1.00  0.00     0.066 C 
HETATM    5  C6  UNL     1      52.344 -44.231  -7.912  1.00  0.00     0.166 C 
HETATM    6  C7  UNL     1      51.264 -43.399  -7.332  1.00  0.00     0.067 C 
HETATM    7  C8  UNL     1      50.810 -43.934  -5.968  1.00  0.00     0.046 C 
HETATM    8  C9  UNL     1      51.929 -44.566  -5.209  1.00  0.00     0.096 C 
HETATM    9  C10 UNL     1      51.442 -45.601  -4.226  1.00  0.00     0.041 C 
HETATM   10  C11 UNL     1      51.630 -45.041  -2.848  1.00  0.00     0.003 C 
HETATM   11  C12 UNL     1      51.784 -43.560  -3.094  1.00  0.00     0.003 C 
HETATM   12  C13 UNL     1      52.685 -43.565  -4.333  1.00  0.00     0.041 C 
HETATM   13  O1  UNL     1      52.892 -45.162  -6.022  1.00  0.00    -0.227 OA
HETATM   14  O2  UNL     1      52.369 -45.445  -7.189  1.00  0.00    -0.207 OA
ENDROOT
BRANCH   1  15
HETATM   15  C2  UNL     1      51.307 -45.321  -9.821  1.00  0.00     0.115 C 
HETATM   16  C1  UNL     1      50.938 -44.973 -11.268  1.00  0.00     0.026 C 
ENDBRANCH   1  15
TORSDOF 1
ENDMDL
MODEL 5
REMARK VINA RESULT: -7.884627690      2.502      5.283
REMARK  1 active torsions:
REMARK  status: ('A' for Active; 'I' for Inactive)
REMARK    1  A    between atoms: C2_2  and  N1_3 
ROOT
HETATM    1  N1  UNL     1      50.033 -46.324 -10.036  1.00  0.00    -0.381 N 
HETATM    2  C3  UNL     1      50.741 -46.373 -11.261  1.00  0.00     0.120 C 
HETATM    3  C4  UNL     1      51.081 -44.887 -11.446  1.00  0.00     0.024 C 
HETATM    4  C5  UNL     1      51.461 -44.525 -10.027  1.00  0.00     0.066 C 
HETATM    5  C6  UNL     1      50.612 -45.420  -9.147  1.00  0.00     0.166 C 
HETATM    6  C7  UNL     1      49.713 -44.570  -8.331  1.00  0.00     0.067 C 
HETATM    7  C8  UNL     1      50.204 -44.458  -6.882  1.00  0.00     0.046 C 
HETATM    8  C9  UNL     1      51.693 -44.499  -6.786  1.00  0.00     0.096 C 
HETATM    9  C10 UNL     1      52.166 -45.007  -5.447  1.00  0.00     0.041 C 
HETATM   10  C11 UNL     1      52.756 -43.846  -4.705  1.00  0.00     0.003 C 
HETATM   11  C12 UNL     1      52.198 -42.648  -5.435  1.00  0.00     0.003 C 
HETATM   12  C13 UNL     1      52.327 -43.111  -6.890  1.00  0.00     0.041 C 
HETATM   13  O1  UNL     1      52.298 -45.268  -7.778  1.00  0.00    -0.227 OA
HETATM   14  O2  UNL     1      51.437 -46.136  -8.249  1.00  0.00    -0.207 OA
ENDROOT
BRANCH   1  15
HETATM   15  C2  UNL     1      49.297 -47.409  -9.618  1.00  0.00     0.115 C 
HETATM   16  C1  UNL     1      49.977 -48.765  -9.841  1.00  0.00     0.026 C 
ENDBRANCH   1  15
TORSDOF 1
ENDMDL
