MODEL 1
REMARK VINA RESULT: -7.689646712      0.000      0.000
REMARK  13 active torsions:
REMARK  status: ('A' for Active; 'I' for Inactive)
REMARK    1  A    between atoms: C2_2  and  C4_4 
REMARK    2  A    between atoms: C4_4  and  S1_5 
REMARK    3  A    between atoms: C4_4  and  C19_25 
REMARK    4  A    between atoms: S1_5  and  C5_6 
REMARK    5  A    between atoms: C5_6  and  C6_7 
REMARK    6  A    between atoms: C6_7  and  C7_8 
REMARK    7  A    between atoms: C6_7  and  N1_15 
REMARK    8  A    between atoms: C7_8  and  C8_9 
REMARK       I    between atoms: N1_15  and  C14_17 
REMARK       I    between atoms: C14_17  and  N2_19 
REMARK    9  A    between atoms: N2_19  and  C15_21 
REMARK       I    between atoms: C19_25  and  N3_27 
REMARK   10  A    between atoms: C20_28  and  O3_29 
REMARK   11  A    between atoms: C22_32  and  C23_33 
REMARK   12  A    between atoms: C23_33  and  O5_35 
REMARK   13  A    between atoms: O5_35  and  C24_36 
ROOT
HETATM    1  C4  UNL     1      -0.964 -42.779  17.959  1.00  0.00     0.143 C 
ENDROOT
BRANCH   1   2
HETATM    2  C2  UNL     1      -1.034 -43.356  19.381  1.00  0.00     0.000 C 
HETATM    3  C1  UNL     1       0.041 -44.382  19.579  1.00  0.00     0.011 C 
HETATM    4  C3  UNL     1      -0.799 -42.223  20.355  1.00  0.00     0.011 C 
ENDBRANCH   1   2
BRANCH   1   5
HETATM    5  S1  UNL     1      -0.642 -44.116  16.776  1.00  0.00    -0.152 SA
BRANCH   5   6
HETATM    6  C5  UNL     1       0.591 -43.462  15.579  1.00  0.00     0.100 C 
BRANCH   6   7
HETATM    7  C6  UNL     1       1.089 -44.458  14.624  1.00  0.00     0.095 C 
BRANCH   7   8
HETATM    8  C7  UNL     1       0.408 -44.420  13.303  1.00  0.00     0.030 C 
BRANCH   8   9
HETATM    9  C8  UNL     1      -0.593 -45.441  12.943  1.00  0.00    -0.013 C 
HETATM   10  C9  UNL     1      -1.077 -45.506  11.545  1.00  0.00     0.005 C 
HETATM   11  C10 UNL     1      -1.246 -46.981  11.150  1.00  0.00     0.000 C 
HETATM   12  C11 UNL     1       0.076 -47.677  10.999  1.00  0.00     0.000 C 
HETATM   13  C12 UNL     1       0.902 -47.333  12.222  1.00  0.00     0.000 C 
HETATM   14  C13 UNL     1       0.003 -46.802  13.312  1.00  0.00     0.005 C 
ENDBRANCH   8   9
ENDBRANCH   7   8
BRANCH   7  15
HETATM   15  N1  UNL     1       2.533 -44.446  14.462  1.00  0.00    -0.338 N 
HETATM   16  C14 UNL     1       3.312 -45.528  14.913  1.00  0.00     0.317 C 
HETATM   17  O1  UNL     1       2.740 -46.514  15.469  1.00  0.00    -0.247 OA
HETATM   18  N2  UNL     1       4.721 -45.590  14.783  1.00  0.00    -0.335 N 
ATOM     19  H2  UNL     1       5.171 -44.788  14.341  1.00  0.00     0.165 HD
ATOM     20  H1  UNL     1       2.986 -43.648  14.017  1.00  0.00     0.164 HD
BRANCH  18  21
HETATM   21  C15 UNL     1       5.572 -46.638  15.197  1.00  0.00     0.023 C 
HETATM   22  C16 UNL     1       5.538 -46.880  16.684  1.00  0.00     0.037 C 
HETATM   23  C17 UNL     1       7.036 -46.365  14.851  1.00  0.00     0.037 C 
HETATM   24  C18 UNL     1       5.246 -47.967  14.533  1.00  0.00     0.037 C 
ENDBRANCH  18  21
ENDBRANCH   7  15
ENDBRANCH   6   7
ENDBRANCH   5   6
ENDBRANCH   1   5
BRANCH   1  25
HETATM   25  C19 UNL     1      -2.253 -42.107  17.682  1.00  0.00     0.236 C 
HETATM   26  O2  UNL     1      -3.316 -42.748  17.834  1.00  0.00    -0.272 OA
HETATM   27  N3  UNL     1      -2.375 -40.756  17.246  1.00  0.00    -0.310 N 
HETATM   28  C20 UNL     1      -1.353 -39.766  16.974  1.00  0.00     0.226 C 
HETATM   29  C22 UNL     1      -3.380 -39.801  16.907  1.00  0.00     0.193 C 
HETATM   30  C21 UNL     1      -2.374 -38.683  17.185  1.00  0.00     0.089 C 
BRANCH  28  31
HETATM   31  O3  UNL     1      -0.857 -39.895  15.702  1.00  0.00    -0.377 OA
ATOM     32  H3  UNL     1      -0.064 -40.419  15.690  1.00  0.00     0.212 HD
ENDBRANCH  28  31
BRANCH  29  33
HETATM   33  C23 UNL     1      -3.826 -39.737  15.503  1.00  0.00     0.282 C 
HETATM   34  O4  UNL     1      -3.632 -38.818  14.698  1.00  0.00    -0.263 OA
BRANCH  33  35
HETATM   35  O5  UNL     1      -4.550 -40.855  15.048  1.00  0.00    -0.312 OA
BRANCH  35  36
HETATM   36  C24 UNL     1      -4.205 -41.551  13.876  1.00  0.00     0.157 C 
HETATM   37  C25 UNL     1      -2.970 -42.396  14.145  1.00  0.00     0.061 C 
HETATM   38  C26 UNL     1      -3.531 -43.791  14.170  1.00  0.00     0.170 C 
HETATM   39  O6  UNL     1      -4.537 -43.756  13.215  1.00  0.00    -0.389 OA
HETATM   40  C27 UNL     1      -5.244 -42.600  13.557  1.00  0.00     0.200 C 
ENDBRANCH  35  36
ENDBRANCH  33  35
ENDBRANCH  29  33
ENDBRANCH   1  25
TORSDOF 13
ENDMDL
MODEL 2
REMARK VINA RESULT: -7.469447059      2.229      4.189
REMARK  13 active torsions:
REMARK  status: ('A' for Active; 'I' for Inactive)
REMARK    1  A    between atoms: C2_2  and  C4_4 
REMARK    2  A    between atoms: C4_4  and  S1_5 
REMARK    3  A    between atoms: C4_4  and  C19_25 
REMARK    4  A    between atoms: S1_5  and  C5_6 
REMARK    5  A    between atoms: C5_6  and  C6_7 
REMARK    6  A    between atoms: C6_7  and  C7_8 
REMARK    7  A    between atoms: C6_7  and  N1_15 
REMARK    8  A    between atoms: C7_8  and  C8_9 
REMARK       I    between atoms: N1_15  and  C14_17 
REMARK       I    between atoms: C14_17  and  N2_19 
REMARK    9  A    between atoms: N2_19  and  C15_21 
REMARK       I    between atoms: C19_25  and  N3_27 
REMARK   10  A    between atoms: C20_28  and  O3_29 
REMARK   11  A    between atoms: C22_32  and  C23_33 
REMARK   12  A    between atoms: C23_33  and  O5_35 
REMARK   13  A    between atoms: O5_35  and  C24_36 
ROOT
HETATM    1  C4  UNL     1      -2.576 -41.708  15.001  1.00  0.00     0.143 C 
ENDROOT
BRANCH   1   2
HETATM    2  C2  UNL     1      -3.761 -42.671  14.831  1.00  0.00     0.000 C 
HETATM    3  C1  UNL     1      -4.663 -42.197  13.732  1.00  0.00     0.011 C 
HETATM    4  C3  UNL     1      -3.208 -44.026  14.446  1.00  0.00     0.011 C 
ENDBRANCH   1   2
BRANCH   1   5
HETATM    5  S1  UNL     1      -1.357 -42.009  13.691  1.00  0.00    -0.152 SA
BRANCH   5   6
HETATM    6  C5  UNL     1       0.158 -42.633  14.526  1.00  0.00     0.100 C 
BRANCH   6   7
HETATM    7  C6  UNL     1       0.659 -43.903  13.991  1.00  0.00     0.095 C 
BRANCH   7   8
HETATM    8  C7  UNL     1       0.063 -44.283  12.683  1.00  0.00     0.030 C 
BRANCH   8   9
HETATM    9  C8  UNL     1      -0.747 -45.509  12.553  1.00  0.00    -0.013 C 
HETATM   10  C9  UNL     1      -1.281 -45.875  11.221  1.00  0.00     0.005 C 
HETATM   11  C10 UNL     1      -1.190 -47.400  11.056  1.00  0.00     0.000 C 
HETATM   12  C11 UNL     1       0.229 -47.865  10.904  1.00  0.00     0.000 C 
HETATM   13  C12 UNL     1       1.037 -47.195  11.996  1.00  0.00     0.000 C 
HETATM   14  C13 UNL     1       0.111 -46.668  13.066  1.00  0.00     0.005 C 
ENDBRANCH   8   9
ENDBRANCH   7   8
BRANCH   7  15
HETATM   15  N1  UNL     1       2.109 -43.990  13.943  1.00  0.00    -0.338 N 
HETATM   16  C14 UNL     1       2.800 -44.875  14.792  1.00  0.00     0.317 C 
HETATM   17  O1  UNL     1       2.144 -45.594  15.605  1.00  0.00    -0.247 OA
HETATM   18  N2  UNL     1       4.209 -45.019  14.796  1.00  0.00    -0.335 N 
ATOM     19  H2  UNL     1       4.726 -44.431  14.144  1.00  0.00     0.165 HD
ATOM     20  H1  UNL     1       2.630 -43.406  13.289  1.00  0.00     0.164 HD
BRANCH  18  21
HETATM   21  C15 UNL     1       4.977 -45.887  15.604  1.00  0.00     0.023 C 
HETATM   22  C16 UNL     1       6.394 -46.054  15.119  1.00  0.00     0.037 C 
HETATM   23  C17 UNL     1       4.386 -47.296  15.662  1.00  0.00     0.037 C 
HETATM   24  C18 UNL     1       5.064 -45.430  17.052  1.00  0.00     0.037 C 
ENDBRANCH  18  21
ENDBRANCH   7  15
ENDBRANCH   6   7
ENDBRANCH   5   6
ENDBRANCH   1   5
BRANCH   1  25
HETATM   25  C19 UNL     1      -3.106 -40.328  14.944  1.00  0.00     0.236 C 
HETATM   26  O2  UNL     1      -2.938 -39.656  13.902  1.00  0.00    -0.272 OA
HETATM   27  N3  UNL     1      -3.808 -39.696  16.010  1.00  0.00    -0.310 N 
HETATM   28  C20 UNL     1      -4.154 -40.192  17.325  1.00  0.00     0.226 C 
HETATM   29  C22 UNL     1      -4.448 -38.457  16.316  1.00  0.00     0.193 C 
HETATM   30  C21 UNL     1      -5.259 -39.175  17.397  1.00  0.00     0.089 C 
BRANCH  28  31
HETATM   31  O3  UNL     1      -3.119 -40.029  18.211  1.00  0.00    -0.377 OA
ATOM     32  H3  UNL     1      -3.126 -40.703  18.881  1.00  0.00     0.212 HD
ENDBRANCH  28  31
BRANCH  29  33
HETATM   33  C23 UNL     1      -3.633 -37.390  16.926  1.00  0.00     0.282 C 
HETATM   34  O4  UNL     1      -4.040 -36.339  17.438  1.00  0.00    -0.263 OA
BRANCH  33  35
HETATM   35  O5  UNL     1      -2.244 -37.611  16.914  1.00  0.00    -0.312 OA
BRANCH  35  36
HETATM   36  C24 UNL     1      -1.347 -36.807  17.640  1.00  0.00     0.157 C 
HETATM   37  C25 UNL     1      -1.320 -37.274  19.087  1.00  0.00     0.061 C 
HETATM   38  C26 UNL     1       0.025 -37.937  19.189  1.00  0.00     0.170 C 
HETATM   39  O6  UNL     1       0.833 -37.166  18.366  1.00  0.00    -0.389 OA
HETATM   40  C27 UNL     1       0.074 -37.066  17.197  1.00  0.00     0.200 C 
ENDBRANCH  35  36
ENDBRANCH  33  35
ENDBRANCH  29  33
ENDBRANCH   1  25
TORSDOF 13
ENDMDL
MODEL 3
REMARK VINA RESULT: -7.329960585      2.162      4.282
REMARK  13 active torsions:
REMARK  status: ('A' for Active; 'I' for Inactive)
REMARK    1  A    between atoms: C2_2  and  C4_4 
REMARK    2  A    between atoms: C4_4  and  S1_5 
REMARK    3  A    between atoms: C4_4  and  C19_25 
REMARK    4  A    between atoms: S1_5  and  C5_6 
REMARK    5  A    between atoms: C5_6  and  C6_7 
REMARK    6  A    between atoms: C6_7  and  C7_8 
REMARK    7  A    between atoms: C6_7  and  N1_15 
REMARK    8  A    between atoms: C7_8  and  C8_9 
REMARK       I    between atoms: N1_15  and  C14_17 
REMARK       I    between atoms: C14_17  and  N2_19 
REMARK    9  A    between atoms: N2_19  and  C15_21 
REMARK       I    between atoms: C19_25  and  N3_27 
REMARK   10  A    between atoms: C20_28  and  O3_29 
REMARK   11  A    between atoms: C22_32  and  C23_33 
REMARK   12  A    between atoms: C23_33  and  O5_35 
REMARK   13  A    between atoms: O5_35  and  C24_36 
ROOT
HETATM    1  C4  UNL     1      -3.008 -41.631  15.238  1.00  0.00     0.143 C 
ENDROOT
BRANCH   1   2
HETATM    2  C2  UNL     1      -4.238 -42.250  14.557  1.00  0.00     0.000 C 
HETATM    3  C1  UNL     1      -4.649 -41.424  13.376  1.00  0.00     0.011 C 
HETATM    4  C3  UNL     1      -3.853 -43.629  14.066  1.00  0.00     0.011 C 
ENDBRANCH   1   2
BRANCH   1   5
HETATM    5  S1  UNL     1      -1.580 -41.737  14.124  1.00  0.00    -0.152 SA
BRANCH   5   6
HETATM    6  C5  UNL     1      -0.257 -42.606  15.059  1.00  0.00     0.100 C 
BRANCH   6   7
HETATM    7  C6  UNL     1       0.287 -43.785  14.377  1.00  0.00     0.095 C 
BRANCH   7   8
HETATM    8  C7  UNL     1      -0.296 -44.023  13.030  1.00  0.00     0.030 C 
BRANCH   8   9
HETATM    9  C8  UNL     1      -1.040 -45.264  12.742  1.00  0.00    -0.013 C 
HETATM   10  C9  UNL     1      -1.347 -45.602  11.333  1.00  0.00     0.005 C 
HETATM   11  C10 UNL     1      -1.188 -47.119  11.145  1.00  0.00     0.000 C 
HETATM   12  C11 UNL     1       0.250 -47.545  11.208  1.00  0.00     0.000 C 
HETATM   13  C12 UNL     1       0.856 -46.889  12.430  1.00  0.00     0.000 C 
HETATM   14  C13 UNL     1      -0.241 -46.417  13.354  1.00  0.00     0.005 C 
ENDBRANCH   8   9
ENDBRANCH   7   8
BRANCH   7  15
HETATM   15  N1  UNL     1       1.740 -43.815  14.323  1.00  0.00    -0.338 N 
HETATM   16  C14 UNL     1       2.466 -44.697  15.145  1.00  0.00     0.317 C 
HETATM   17  O1  UNL     1       1.840 -45.464  15.938  1.00  0.00    -0.247 OA
HETATM   18  N2  UNL     1       3.879 -44.788  15.142  1.00  0.00    -0.335 N 
ATOM     19  H2  UNL     1       4.373 -44.162  14.506  1.00  0.00     0.165 HD
ATOM     20  H1  UNL     1       2.236 -43.193  13.686  1.00  0.00     0.164 HD
BRANCH  18  21
HETATM   21  C15 UNL     1       4.682 -45.650  15.923  1.00  0.00     0.023 C 
HETATM   22  C16 UNL     1       4.960 -45.114  17.304  1.00  0.00     0.037 C 
HETATM   23  C17 UNL     1       6.049 -45.900  15.288  1.00  0.00     0.037 C 
HETATM   24  C18 UNL     1       4.068 -47.029  16.108  1.00  0.00     0.037 C 
ENDBRANCH  18  21
ENDBRANCH   7  15
ENDBRANCH   6   7
ENDBRANCH   5   6
ENDBRANCH   1   5
BRANCH   1  25
HETATM   25  C19 UNL     1      -3.336 -40.227  15.569  1.00  0.00     0.236 C 
HETATM   26  O2  UNL     1      -2.789 -39.307  14.921  1.00  0.00    -0.272 OA
HETATM   27  N3  UNL     1      -4.248 -39.838  16.592  1.00  0.00    -0.310 N 
HETATM   28  C20 UNL     1      -5.025 -40.646  17.508  1.00  0.00     0.226 C 
HETATM   29  C22 UNL     1      -4.805 -38.658  17.171  1.00  0.00     0.193 C 
HETATM   30  C21 UNL     1      -5.977 -39.496  17.684  1.00  0.00     0.089 C 
BRANCH  28  31
HETATM   31  O3  UNL     1      -4.290 -41.001  18.611  1.00  0.00    -0.377 OA
ATOM     32  H3  UNL     1      -3.378 -41.143  18.389  1.00  0.00     0.212 HD
ENDBRANCH  28  31
BRANCH  29  33
HETATM   33  C23 UNL     1      -4.094 -38.043  18.306  1.00  0.00     0.282 C 
HETATM   34  O4  UNL     1      -4.488 -37.954  19.477  1.00  0.00    -0.263 OA
BRANCH  33  35
HETATM   35  O5  UNL     1      -2.829 -37.504  18.006  1.00  0.00    -0.312 OA
BRANCH  35  36
HETATM   36  C24 UNL     1      -1.631 -38.139  18.378  1.00  0.00     0.157 C 
HETATM   37  C25 UNL     1      -0.635 -38.032  17.235  1.00  0.00     0.061 C 
HETATM   38  C26 UNL     1       0.356 -37.031  17.762  1.00  0.00     0.170 C 
HETATM   39  O6  UNL     1       0.410 -37.308  19.120  1.00  0.00    -0.389 OA
HETATM   40  C27 UNL     1      -0.940 -37.364  19.475  1.00  0.00     0.200 C 
ENDBRANCH  35  36
ENDBRANCH  33  35
ENDBRANCH  29  33
ENDBRANCH   1  25
TORSDOF 13
ENDMDL
MODEL 4
REMARK VINA RESULT: -7.136515703      2.359      4.515
REMARK  13 active torsions:
REMARK  status: ('A' for Active; 'I' for Inactive)
REMARK    1  A    between atoms: C2_2  and  C4_4 
REMARK    2  A    between atoms: C4_4  and  S1_5 
REMARK    3  A    between atoms: C4_4  and  C19_25 
REMARK    4  A    between atoms: S1_5  and  C5_6 
REMARK    5  A    between atoms: C5_6  and  C6_7 
REMARK    6  A    between atoms: C6_7  and  C7_8 
REMARK    7  A    between atoms: C6_7  and  N1_15 
REMARK    8  A    between atoms: C7_8  and  C8_9 
REMARK       I    between atoms: N1_15  and  C14_17 
REMARK       I    between atoms: C14_17  and  N2_19 
REMARK    9  A    between atoms: N2_19  and  C15_21 
REMARK       I    between atoms: C19_25  and  N3_27 
REMARK   10  A    between atoms: C20_28  and  O3_29 
REMARK   11  A    between atoms: C22_32  and  C23_33 
REMARK   12  A    between atoms: C23_33  and  O5_35 
REMARK   13  A    between atoms: O5_35  and  C24_36 
ROOT
HETATM    1  C4  UNL     1      -3.184 -41.516  15.159  1.00  0.00     0.143 C 
ENDROOT
BRANCH   1   2
HETATM    2  C2  UNL     1      -4.226 -42.242  14.295  1.00  0.00     0.000 C 
HETATM    3  C1  UNL     1      -3.678 -43.549  13.808  1.00  0.00     0.011 C 
HETATM    4  C3  UNL     1      -5.436 -42.522  15.161  1.00  0.00     0.011 C 
ENDBRANCH   1   2
BRANCH   1   5
HETATM    5  S1  UNL     1      -1.521 -41.866  14.526  1.00  0.00    -0.152 SA
BRANCH   5   6
HETATM    6  C5  UNL     1      -0.576 -42.593  15.926  1.00  0.00     0.100 C 
BRANCH   6   7
HETATM    7  C6  UNL     1      -0.151 -43.980  15.708  1.00  0.00     0.095 C 
BRANCH   7   8
HETATM    8  C7  UNL     1      -0.700 -44.590  14.468  1.00  0.00     0.030 C 
BRANCH   8   9
HETATM    9  C8  UNL     1       0.191 -45.252  13.497  1.00  0.00    -0.013 C 
HETATM   10  C9  UNL     1       0.223 -46.731  13.449  1.00  0.00     0.005 C 
HETATM   11  C10 UNL     1       0.336 -47.174  11.982  1.00  0.00     0.000 C 
HETATM   12  C11 UNL     1      -0.932 -46.917  11.219  1.00  0.00     0.000 C 
HETATM   13  C12 UNL     1      -1.357 -45.497  11.528  1.00  0.00     0.000 C 
HETATM   14  C13 UNL     1      -0.193 -44.731  12.110  1.00  0.00     0.005 C 
ENDBRANCH   8   9
ENDBRANCH   7   8
BRANCH   7  15
HETATM   15  N1  UNL     1       1.287 -44.174  15.787  1.00  0.00    -0.338 N 
HETATM   16  C14 UNL     1       1.860 -44.832  16.892  1.00  0.00     0.317 C 
HETATM   17  O1  UNL     1       1.107 -45.250  17.823  1.00  0.00    -0.247 OA
HETATM   18  N2  UNL     1       3.249 -45.063  17.034  1.00  0.00    -0.335 N 
ATOM     19  H2  UNL     1       3.846 -44.716  16.283  1.00  0.00     0.165 HD
ATOM     20  H1  UNL     1       1.886 -43.831  15.036  1.00  0.00     0.164 HD
BRANCH  18  21
HETATM   21  C15 UNL     1       3.902 -45.721  18.101  1.00  0.00     0.023 C 
HETATM   22  C16 UNL     1       3.778 -44.992  19.414  1.00  0.00     0.037 C 
HETATM   23  C17 UNL     1       5.401 -45.881  17.851  1.00  0.00     0.037 C 
HETATM   24  C18 UNL     1       3.382 -47.131  18.336  1.00  0.00     0.037 C 
ENDBRANCH  18  21
ENDBRANCH   7  15
ENDBRANCH   6   7
ENDBRANCH   5   6
ENDBRANCH   1   5
BRANCH   1  25
HETATM   25  C19 UNL     1      -3.490 -40.069  15.114  1.00  0.00     0.236 C 
HETATM   26  O2  UNL     1      -3.144 -39.407  14.111  1.00  0.00    -0.272 OA
HETATM   27  N3  UNL     1      -4.165 -39.361  16.150  1.00  0.00    -0.310 N 
HETATM   28  C20 UNL     1      -4.680 -39.828  17.419  1.00  0.00     0.226 C 
HETATM   29  C22 UNL     1      -4.629 -38.045  16.454  1.00  0.00     0.193 C 
HETATM   30  C21 UNL     1      -5.618 -38.653  17.449  1.00  0.00     0.089 C 
BRANCH  28  31
HETATM   31  O3  UNL     1      -3.701 -39.849  18.381  1.00  0.00    -0.377 OA
ATOM     32  H3  UNL     1      -3.247 -40.683  18.395  1.00  0.00     0.212 HD
ENDBRANCH  28  31
BRANCH  29  33
HETATM   33  C23 UNL     1      -3.707 -37.133  17.155  1.00  0.00     0.282 C 
HETATM   34  O4  UNL     1      -4.006 -36.121  17.803  1.00  0.00    -0.263 OA
BRANCH  33  35
HETATM   35  O5  UNL     1      -2.343 -37.467  17.067  1.00  0.00    -0.312 OA
BRANCH  35  36
HETATM   36  C24 UNL     1      -1.340 -36.714  17.704  1.00  0.00     0.157 C 
HETATM   37  C25 UNL     1      -1.256 -37.131  19.163  1.00  0.00     0.061 C 
HETATM   38  C26 UNL     1       0.037 -37.896  19.207  1.00  0.00     0.170 C 
HETATM   39  O6  UNL     1       0.848 -37.222  18.305  1.00  0.00    -0.389 OA
HETATM   40  C27 UNL     1       0.024 -37.102  17.183  1.00  0.00     0.200 C 
ENDBRANCH  35  36
ENDBRANCH  33  35
ENDBRANCH  29  33
ENDBRANCH   1  25
TORSDOF 13
ENDMDL
MODEL 5
REMARK VINA RESULT: -7.129600582      3.180      5.811
REMARK  13 active torsions:
REMARK  status: ('A' for Active; 'I' for Inactive)
REMARK    1  A    between atoms: C2_2  and  C4_4 
REMARK    2  A    between atoms: C4_4  and  S1_5 
REMARK    3  A    between atoms: C4_4  and  C19_25 
REMARK    4  A    between atoms: S1_5  and  C5_6 
REMARK    5  A    between atoms: C5_6  and  C6_7 
REMARK    6  A    between atoms: C6_7  and  C7_8 
REMARK    7  A    between atoms: C6_7  and  N1_15 
REMARK    8  A    between atoms: C7_8  and  C8_9 
REMARK       I    between atoms: N1_15  and  C14_17 
REMARK       I    between atoms: C14_17  and  N2_19 
REMARK    9  A    between atoms: N2_19  and  C15_21 
REMARK       I    between atoms: C19_25  and  N3_27 
REMARK   10  A    between atoms: C20_28  and  O3_29 
REMARK   11  A    between atoms: C22_32  and  C23_33 
REMARK   12  A    between atoms: C23_33  and  O5_35 
REMARK   13  A    between atoms: O5_35  and  C24_36 
ROOT
HETATM    1  C4  UNL     1      -3.478 -41.100  15.255  1.00  0.00     0.143 C 
ENDROOT
BRANCH   1   2
HETATM    2  C2  UNL     1      -4.757 -41.649  14.605  1.00  0.00     0.000 C 
HETATM    3  C1  UNL     1      -4.413 -42.524  13.437  1.00  0.00     0.011 C 
HETATM    4  C3  UNL     1      -5.480 -42.490  15.636  1.00  0.00     0.011 C 
ENDBRANCH   1   2
BRANCH   1   5
HETATM    5  S1  UNL     1      -2.111 -41.178  14.066  1.00  0.00    -0.152 SA
BRANCH   5   6
HETATM    6  C5  UNL     1      -0.850 -42.297  14.799  1.00  0.00     0.100 C 
BRANCH   6   7
HETATM    7  C6  UNL     1      -1.408 -43.478  15.466  1.00  0.00     0.095 C 
BRANCH   7   8
HETATM    8  C7  UNL     1      -1.556 -44.659  14.576  1.00  0.00     0.030 C 
BRANCH   8   9
HETATM    9  C8  UNL     1      -0.409 -45.167  13.802  1.00  0.00    -0.013 C 
HETATM   10  C9  UNL     1      -0.142 -46.623  13.790  1.00  0.00     0.005 C 
HETATM   11  C10 UNL     1       0.310 -47.030  12.379  1.00  0.00     0.000 C 
HETATM   12  C11 UNL     1      -0.816 -46.964  11.388  1.00  0.00     0.000 C 
HETATM   13  C12 UNL     1      -1.503 -45.629  11.583  1.00  0.00     0.000 C 
HETATM   14  C13 UNL     1      -0.601 -44.699  12.357  1.00  0.00     0.005 C 
ENDBRANCH   8   9
ENDBRANCH   7   8
BRANCH   7  15
HETATM   15  N1  UNL     1      -0.721 -43.839  16.695  1.00  0.00    -0.338 N 
HETATM   16  C14 UNL     1      -1.153 -43.328  17.932  1.00  0.00     0.317 C 
HETATM   17  O1  UNL     1      -2.149 -42.543  17.965  1.00  0.00    -0.247 OA
HETATM   18  N2  UNL     1      -0.539 -43.641  19.169  1.00  0.00    -0.335 N 
ATOM     19  H2  UNL     1       0.265 -44.268  19.130  1.00  0.00     0.165 HD
ATOM     20  H1  UNL     1       0.082 -44.469  16.659  1.00  0.00     0.164 HD
BRANCH  18  21
HETATM   21  C15 UNL     1      -0.915 -43.182  20.451  1.00  0.00     0.023 C 
HETATM   22  C16 UNL     1      -0.998 -41.680  20.545  1.00  0.00     0.037 C 
HETATM   23  C17 UNL     1       0.073 -43.615  21.533  1.00  0.00     0.037 C 
HETATM   24  C18 UNL     1      -2.264 -43.720  20.903  1.00  0.00     0.037 C 
ENDBRANCH  18  21
ENDBRANCH   7  15
ENDBRANCH   6   7
ENDBRANCH   5   6
ENDBRANCH   1   5
BRANCH   1  25
HETATM   25  C19 UNL     1      -3.751 -39.709  15.680  1.00  0.00     0.236 C 
HETATM   26  O2  UNL     1      -3.329 -38.766  14.975  1.00  0.00    -0.272 OA
HETATM   27  N3  UNL     1      -4.474 -39.358  16.856  1.00  0.00    -0.310 N 
HETATM   28  C20 UNL     1      -5.077 -40.200  17.868  1.00  0.00     0.226 C 
HETATM   29  C22 UNL     1      -4.928 -38.201  17.558  1.00  0.00     0.193 C 
HETATM   30  C21 UNL     1      -5.990 -39.065  18.240  1.00  0.00     0.089 C 
BRANCH  28  31
HETATM   31  O3  UNL     1      -4.161 -40.579  18.817  1.00  0.00    -0.377 OA
ATOM     32  H3  UNL     1      -4.585 -40.965  19.574  1.00  0.00     0.212 HD
ENDBRANCH  28  31
BRANCH  29  33
HETATM   33  C23 UNL     1      -4.034 -37.612  18.571  1.00  0.00     0.282 C 
HETATM   34  O4  UNL     1      -4.286 -37.412  19.766  1.00  0.00    -0.263 OA
BRANCH  33  35
HETATM   35  O5  UNL     1      -2.756 -37.244  18.108  1.00  0.00    -0.312 OA
BRANCH  35  36
HETATM   36  C24 UNL     1      -1.600 -37.982  18.420  1.00  0.00     0.157 C 
HETATM   37  C25 UNL     1      -0.692 -38.021  17.203  1.00  0.00     0.061 C 
HETATM   38  C26 UNL     1       0.431 -37.106  17.606  1.00  0.00     0.170 C 
HETATM   39  O6  UNL     1       0.564 -37.332  18.968  1.00  0.00    -0.389 OA
HETATM   40  C27 UNL     1      -0.753 -37.237  19.425  1.00  0.00     0.200 C 
ENDBRANCH  35  36
ENDBRANCH  33  35
ENDBRANCH  29  33
ENDBRANCH   1  25
TORSDOF 13
ENDMDL
