MODEL 1
REMARK VINA RESULT: -8.362511981      0.000      0.000
REMARK  12 active torsions:
REMARK  status: ('A' for Active; 'I' for Inactive)
REMARK    1  A    between atoms: C2_2  and  C4_4 
REMARK    2  A    between atoms: C4_4  and  N1_5 
REMARK    3  A    between atoms: C4_4  and  C12_18 
REMARK       I    between atoms: N1_5  and  C5_7 
REMARK    4  A    between atoms: C5_7  and  O2_9 
REMARK    5  A    between atoms: O2_9  and  C6_10 
REMARK    6  A    between atoms: C12_18  and  O5_19 
REMARK    7  A    between atoms: C12_18  and  C13_21 
REMARK    8  A    between atoms: C13_21  and  N2_22 
REMARK       I    between atoms: N2_22  and  C14_24 
REMARK    9  A    between atoms: C14_24  and  O7_26 
REMARK   10  A    between atoms: O7_26  and  C15_27 
REMARK   11  A    between atoms: C22_34  and  C24_36 
REMARK   12  A    between atoms: C24_36  and  S1_37 
ROOT
HETATM    1  C13 UNL     1      -4.062 -41.879  14.253  1.00  0.00     0.158 C 
ENDROOT
BRANCH   1   2
HETATM    2  C12 UNL     1      -3.295 -43.128  14.639  1.00  0.00     0.159 C 
BRANCH   2   3
HETATM    3  C4  UNL     1      -1.888 -42.971  14.157  1.00  0.00     0.120 C 
BRANCH   3   4
HETATM    4  C2  UNL     1      -0.879 -42.656  15.190  1.00  0.00     0.003 C 
HETATM    5  C1  UNL     1      -0.142 -43.915  15.597  1.00  0.00     0.011 C 
HETATM    6  C3  UNL     1       0.142 -41.637  14.833  1.00  0.00     0.011 C 
ENDBRANCH   3   4
BRANCH   3   7
HETATM    7  N1  UNL     1      -1.518 -44.214  13.510  1.00  0.00    -0.329 N 
HETATM    8  C5  UNL     1      -0.749 -44.325  12.340  1.00  0.00     0.361 C 
HETATM    9  O1  UNL     1      -0.329 -43.297  11.779  1.00  0.00    -0.238 OA
ATOM     10  H1  UNL     1      -1.843 -45.079  13.939  1.00  0.00     0.165 HD
BRANCH   8  11
HETATM   11  O2  UNL     1      -0.455 -45.557  11.812  1.00  0.00    -0.296 OA
BRANCH  11  12
HETATM   12  C6  UNL     1       0.839 -46.099  11.719  1.00  0.00     0.166 C 
HETATM   13  C7  UNL     1       0.691 -47.602  11.850  1.00  0.00     0.204 C 
HETATM   14  O3  UNL     1       1.125 -47.965  13.099  1.00  0.00    -0.358 OA
HETATM   15  C8  UNL     1       1.309 -46.852  13.880  1.00  0.00     0.266 C 
HETATM   16  O4  UNL     1       2.400 -46.973  14.733  1.00  0.00    -0.361 OA
HETATM   17  C11 UNL     1       1.708 -45.750  12.888  1.00  0.00     0.075 C 
HETATM   18  C9  UNL     1       3.538 -46.745  13.982  1.00  0.00     0.171 C 
HETATM   19  C10 UNL     1       3.149 -46.115  12.678  1.00  0.00     0.038 C 
ENDBRANCH  11  12
ENDBRANCH   8  11
ENDBRANCH   3   7
ENDBRANCH   2   3
BRANCH   2  20
HETATM   20  O5  UNL     1      -3.405 -43.212  16.020  1.00  0.00    -0.392 OA
ATOM     21  H5  UNL     1      -3.552 -42.374  16.443  1.00  0.00     0.210 HD
ENDBRANCH   2  20
ENDBRANCH   1   2
BRANCH   1  22
HETATM   22  N2  UNL     1      -3.555 -40.719  14.954  1.00  0.00    -0.334 N 
HETATM   23  C14 UNL     1      -3.321 -39.479  14.314  1.00  0.00     0.361 C 
HETATM   24  O6  UNL     1      -3.571 -39.386  13.066  1.00  0.00    -0.239 OA
ATOM     25  H2  UNL     1      -3.358 -40.798  15.952  1.00  0.00     0.164 HD
BRANCH  23  26
HETATM   26  O7  UNL     1      -2.839 -38.340  14.934  1.00  0.00    -0.298 OA
BRANCH  26  27
HETATM   27  C15 UNL     1      -3.177 -38.004  16.274  1.00  0.00     0.142 C 
HETATM   28  C16 UNL     1      -2.833 -36.575  16.616  1.00  0.00     0.016 C 
HETATM   29  C17 UNL     1      -1.370 -36.304  16.702  1.00  0.00     0.012 C 
HETATM   30  C21 UNL     1      -3.419 -36.333  18.014  1.00  0.00     0.012 C 
HETATM   31  C18 UNL     1      -0.734 -37.304  17.678  1.00  0.00    -0.013 C 
HETATM   32  C19 UNL     1      -1.336 -37.042  19.023  1.00  0.00     0.010 C 
HETATM   33  C27 UNL     1      -1.013 -38.664  17.116  1.00  0.00     0.012 C 
HETATM   34  C20 UNL     1      -2.853 -37.306  18.989  1.00  0.00    -0.004 C 
HETATM   35  C22 UNL     1      -3.009 -38.741  18.637  1.00  0.00    -0.024 C 
HETATM   36  C23 UNL     1      -2.139 -39.532  19.620  1.00  0.00     0.017 C 
HETATM   37  C26 UNL     1      -2.490 -38.957  17.252  1.00  0.00     0.025 C 
BRANCH  35  38
HETATM   38  C24 UNL     1      -4.394 -39.277  18.767  1.00  0.00     0.118 C 
BRANCH  38  39
HETATM   39  S1  UNL     1      -4.509 -41.041  18.703  1.00  0.00     0.011 S 
HETATM   40  C25 UNL     1      -5.322 -41.549  20.227  1.00  0.00     0.127 C 
HETATM   41  O8  UNL     1      -5.459 -41.572  17.435  1.00  0.00    -0.258 OA
ENDBRANCH  38  39
ENDBRANCH  35  38
ENDBRANCH  26  27
ENDBRANCH  23  26
ENDBRANCH   1  22
TORSDOF 12
ENDMDL
MODEL 2
REMARK VINA RESULT: -8.259299557      2.467      9.145
REMARK  12 active torsions:
REMARK  status: ('A' for Active; 'I' for Inactive)
REMARK    1  A    between atoms: C2_2  and  C4_4 
REMARK    2  A    between atoms: C4_4  and  N1_5 
REMARK    3  A    between atoms: C4_4  and  C12_18 
REMARK       I    between atoms: N1_5  and  C5_7 
REMARK    4  A    between atoms: C5_7  and  O2_9 
REMARK    5  A    between atoms: O2_9  and  C6_10 
REMARK    6  A    between atoms: C12_18  and  O5_19 
REMARK    7  A    between atoms: C12_18  and  C13_21 
REMARK    8  A    between atoms: C13_21  and  N2_22 
REMARK       I    between atoms: N2_22  and  C14_24 
REMARK    9  A    between atoms: C14_24  and  O7_26 
REMARK   10  A    between atoms: O7_26  and  C15_27 
REMARK   11  A    between atoms: C22_34  and  C24_36 
REMARK   12  A    between atoms: C24_36  and  S1_37 
ROOT
HETATM    1  C13 UNL     1      -1.100 -42.290  15.513  1.00  0.00     0.158 C 
ENDROOT
BRANCH   1   2
HETATM    2  C12 UNL     1      -1.940 -42.922  14.421  1.00  0.00     0.159 C 
BRANCH   2   3
HETATM    3  C4  UNL     1      -3.151 -42.069  14.221  1.00  0.00     0.120 C 
BRANCH   3   4
HETATM    4  C2  UNL     1      -4.432 -42.639  14.686  1.00  0.00     0.003 C 
HETATM    5  C1  UNL     1      -4.857 -41.977  15.979  1.00  0.00     0.011 C 
HETATM    6  C3  UNL     1      -5.579 -42.553  13.743  1.00  0.00     0.011 C 
ENDBRANCH   3   4
BRANCH   3   7
HETATM    7  N1  UNL     1      -2.915 -40.823  14.923  1.00  0.00    -0.329 N 
HETATM    8  C5  UNL     1      -3.156 -39.539  14.407  1.00  0.00     0.361 C 
HETATM    9  O1  UNL     1      -3.608 -39.413  13.254  1.00  0.00    -0.238 OA
ATOM     10  H1  UNL     1      -2.544 -40.883  15.870  1.00  0.00     0.165 HD
BRANCH   8  11
HETATM   11  O2  UNL     1      -2.897 -38.423  15.163  1.00  0.00    -0.296 OA
BRANCH  11  12
HETATM   12  C6  UNL     1      -2.777 -38.418  16.564  1.00  0.00     0.166 C 
HETATM   13  C7  UNL     1      -3.291 -37.072  17.038  1.00  0.00     0.204 C 
HETATM   14  O3  UNL     1      -2.212 -36.310  17.401  1.00  0.00    -0.358 OA
HETATM   15  C8  UNL     1      -1.047 -36.908  16.992  1.00  0.00     0.266 C 
HETATM   16  O4  UNL     1      -0.009 -36.734  17.900  1.00  0.00    -0.361 OA
HETATM   17  C11 UNL     1      -1.355 -38.412  17.032  1.00  0.00     0.075 C 
HETATM   18  C9  UNL     1      -0.212 -37.629  18.934  1.00  0.00     0.171 C 
HETATM   19  C10 UNL     1      -1.222 -38.653  18.508  1.00  0.00     0.038 C 
ENDBRANCH  11  12
ENDBRANCH   8  11
ENDBRANCH   3   7
ENDBRANCH   2   3
BRANCH   2  20
HETATM   20  O5  UNL     1      -1.110 -42.982  13.310  1.00  0.00    -0.392 OA
ATOM     21  H5  UNL     1      -1.183 -43.794  12.822  1.00  0.00     0.210 HD
ENDBRANCH   2  20
ENDBRANCH   1   2
BRANCH   1  22
HETATM   22  N2  UNL     1       0.178 -42.956  15.639  1.00  0.00    -0.334 N 
HETATM   23  C14 UNL     1       0.374 -44.086  16.467  1.00  0.00     0.361 C 
HETATM   24  O6  UNL     1      -0.623 -44.532  17.126  1.00  0.00    -0.239 OA
ATOM     25  H2  UNL     1       0.972 -42.595  15.109  1.00  0.00     0.164 HD
BRANCH  23  26
HETATM   26  O7  UNL     1       1.572 -44.760  16.625  1.00  0.00    -0.298 OA
BRANCH  26  27
HETATM   27  C15 UNL     1       1.900 -45.915  15.863  1.00  0.00     0.142 C 
HETATM   28  C16 UNL     1       2.998 -46.733  16.496  1.00  0.00     0.016 C 
HETATM   29  C17 UNL     1       4.338 -46.083  16.466  1.00  0.00     0.012 C 
HETATM   30  C21 UNL     1       3.099 -48.012  15.651  1.00  0.00     0.012 C 
HETATM   31  C18 UNL     1       4.669 -45.689  15.020  1.00  0.00    -0.013 C 
HETATM   32  C19 UNL     1       4.749 -46.957  14.230  1.00  0.00     0.010 C 
HETATM   33  C27 UNL     1       3.587 -44.746  14.591  1.00  0.00     0.012 C 
HETATM   34  C20 UNL     1       3.386 -47.672  14.230  1.00  0.00    -0.004 C 
HETATM   35  C22 UNL     1       2.433 -46.735  13.582  1.00  0.00    -0.024 C 
HETATM   36  C23 UNL     1       3.059 -46.328  12.244  1.00  0.00     0.017 C 
HETATM   37  C26 UNL     1       2.296 -45.518  14.441  1.00  0.00     0.025 C 
BRANCH  35  38
HETATM   38  C24 UNL     1       1.094 -47.310  13.269  1.00  0.00     0.118 C 
BRANCH  38  39
HETATM   39  S1  UNL     1       0.260 -46.537  11.913  1.00  0.00     0.011 S 
HETATM   40  C25 UNL     1      -0.235 -47.865  10.803  1.00  0.00     0.127 C 
HETATM   41  O8  UNL     1      -1.132 -45.745  12.389  1.00  0.00    -0.258 OA
ENDBRANCH  38  39
ENDBRANCH  35  38
ENDBRANCH  26  27
ENDBRANCH  23  26
ENDBRANCH   1  22
TORSDOF 12
ENDMDL
MODEL 3
REMARK VINA RESULT: -8.124323860      3.256      9.032
REMARK  12 active torsions:
REMARK  status: ('A' for Active; 'I' for Inactive)
REMARK    1  A    between atoms: C2_2  and  C4_4 
REMARK    2  A    between atoms: C4_4  and  N1_5 
REMARK    3  A    between atoms: C4_4  and  C12_18 
REMARK       I    between atoms: N1_5  and  C5_7 
REMARK    4  A    between atoms: C5_7  and  O2_9 
REMARK    5  A    between atoms: O2_9  and  C6_10 
REMARK    6  A    between atoms: C12_18  and  O5_19 
REMARK    7  A    between atoms: C12_18  and  C13_21 
REMARK    8  A    between atoms: C13_21  and  N2_22 
REMARK       I    between atoms: N2_22  and  C14_24 
REMARK    9  A    between atoms: C14_24  and  O7_26 
REMARK   10  A    between atoms: O7_26  and  C15_27 
REMARK   11  A    between atoms: C22_34  and  C24_36 
REMARK   12  A    between atoms: C24_36  and  S1_37 
ROOT
HETATM    1  C13 UNL     1       1.012 -43.705  13.632  1.00  0.00     0.158 C 
ENDROOT
BRANCH   1   2
HETATM    2  C12 UNL     1       0.630 -44.037  12.203  1.00  0.00     0.159 C 
BRANCH   2   3
HETATM    3  C4  UNL     1      -0.651 -44.808  12.237  1.00  0.00     0.120 C 
BRANCH   3   4
HETATM    4  C2  UNL     1      -0.525 -46.279  12.171  1.00  0.00     0.003 C 
HETATM    5  C1  UNL     1      -1.368 -46.822  11.037  1.00  0.00     0.011 C 
HETATM    6  C3  UNL     1       0.849 -46.822  12.005  1.00  0.00     0.011 C 
ENDBRANCH   3   4
BRANCH   3   7
HETATM    7  N1  UNL     1      -1.329 -44.455  13.468  1.00  0.00    -0.329 N 
HETATM    8  C5  UNL     1      -2.714 -44.276  13.612  1.00  0.00     0.361 C 
HETATM    9  O1  UNL     1      -3.460 -44.424  12.628  1.00  0.00    -0.238 OA
ATOM     10  H1  UNL     1      -0.752 -44.324  14.299  1.00  0.00     0.165 HD
BRANCH   8  11
HETATM   11  O2  UNL     1      -3.252 -43.943  14.831  1.00  0.00    -0.296 OA
BRANCH  11  12
HETATM   12  C6  UNL     1      -3.191 -42.662  15.406  1.00  0.00     0.166 C 
HETATM   13  C7  UNL     1      -4.585 -42.348  15.914  1.00  0.00     0.204 C 
HETATM   14  O3  UNL     1      -5.153 -41.437  15.062  1.00  0.00    -0.358 OA
HETATM   15  C8  UNL     1      -4.390 -41.305  13.930  1.00  0.00     0.266 C 
HETATM   16  O4  UNL     1      -4.365 -40.000  13.451  1.00  0.00    -0.361 OA
HETATM   17  C11 UNL     1      -2.954 -41.576  14.402  1.00  0.00     0.075 C 
HETATM   18  C9  UNL     1      -3.480 -39.289  14.239  1.00  0.00     0.171 C 
HETATM   19  C10 UNL     1      -2.646 -40.249  15.034  1.00  0.00     0.038 C 
ENDBRANCH  11  12
ENDBRANCH   8  11
ENDBRANCH   3   7
ENDBRANCH   2   3
BRANCH   2  20
HETATM   20  O5  UNL     1       0.526 -42.811  11.559  1.00  0.00    -0.392 OA
ATOM     21  H5  UNL     1       0.830 -42.826  10.659  1.00  0.00     0.210 HD
ENDBRANCH   2  20
ENDBRANCH   1   2
BRANCH   1  22
HETATM   22  N2  UNL     1       2.125 -44.516  14.075  1.00  0.00    -0.334 N 
HETATM   23  C14 UNL     1       3.280 -43.966  14.679  1.00  0.00     0.361 C 
HETATM   24  O6  UNL     1       3.336 -42.701  14.837  1.00  0.00    -0.239 OA
ATOM     25  H2  UNL     1       2.074 -45.527  13.948  1.00  0.00     0.164 HD
BRANCH  23  26
HETATM   26  O7  UNL     1       4.371 -44.693  15.121  1.00  0.00    -0.298 OA
BRANCH  26  27
HETATM   27  C15 UNL     1       4.232 -45.860  15.922  1.00  0.00     0.142 C 
HETATM   28  C16 UNL     1       5.548 -46.331  16.489  1.00  0.00     0.016 C 
HETATM   29  C17 UNL     1       6.485 -46.892  15.475  1.00  0.00     0.012 C 
HETATM   30  C21 UNL     1       5.196 -47.471  17.456  1.00  0.00     0.012 C 
HETATM   31  C18 UNL     1       5.764 -47.995  14.687  1.00  0.00    -0.013 C 
HETATM   32  C19 UNL     1       5.431 -49.079  15.662  1.00  0.00     0.010 C 
HETATM   33  C27 UNL     1       4.581 -47.338  14.045  1.00  0.00     0.012 C 
HETATM   34  C20 UNL     1       4.464 -48.551  16.737  1.00  0.00    -0.004 C 
HETATM   35  C22 UNL     1       3.237 -48.131  16.012  1.00  0.00    -0.024 C 
HETATM   36  C23 UNL     1       2.809 -49.321  15.147  1.00  0.00     0.017 C 
HETATM   37  C26 UNL     1       3.577 -46.982  15.117  1.00  0.00     0.025 C 
BRANCH  35  38
HETATM   38  C24 UNL     1       2.073 -47.793  16.880  1.00  0.00     0.118 C 
BRANCH  38  39
HETATM   39  S1  UNL     1       0.509 -47.820  16.055  1.00  0.00     0.011 S 
HETATM   40  C25 UNL     1      -0.668 -48.514  17.228  1.00  0.00     0.127 C 
HETATM   41  O8  UNL     1      -0.030 -46.288  15.662  1.00  0.00    -0.258 OA
ENDBRANCH  38  39
ENDBRANCH  35  38
ENDBRANCH  26  27
ENDBRANCH  23  26
ENDBRANCH   1  22
TORSDOF 12
ENDMDL
MODEL 4
REMARK VINA RESULT: -8.092794098      2.142      3.882
REMARK  12 active torsions:
REMARK  status: ('A' for Active; 'I' for Inactive)
REMARK    1  A    between atoms: C2_2  and  C4_4 
REMARK    2  A    between atoms: C4_4  and  N1_5 
REMARK    3  A    between atoms: C4_4  and  C12_18 
REMARK       I    between atoms: N1_5  and  C5_7 
REMARK    4  A    between atoms: C5_7  and  O2_9 
REMARK    5  A    between atoms: O2_9  and  C6_10 
REMARK    6  A    between atoms: C12_18  and  O5_19 
REMARK    7  A    between atoms: C12_18  and  C13_21 
REMARK    8  A    between atoms: C13_21  and  N2_22 
REMARK       I    between atoms: N2_22  and  C14_24 
REMARK    9  A    between atoms: C14_24  and  O7_26 
REMARK   10  A    between atoms: O7_26  and  C15_27 
REMARK   11  A    between atoms: C22_34  and  C24_36 
REMARK   12  A    between atoms: C24_36  and  S1_37 
ROOT
HETATM    1  C13 UNL     1      -3.967 -38.889  14.660  1.00  0.00     0.158 C 
ENDROOT
BRANCH   1   2
HETATM    2  C12 UNL     1      -3.589 -39.974  13.672  1.00  0.00     0.159 C 
BRANCH   2   3
HETATM    3  C4  UNL     1      -3.459 -41.258  14.427  1.00  0.00     0.120 C 
BRANCH   3   4
HETATM    4  C2  UNL     1      -4.548 -42.239  14.234  1.00  0.00     0.003 C 
HETATM    5  C1  UNL     1      -3.981 -43.557  13.754  1.00  0.00     0.011 C 
HETATM    6  C3  UNL     1      -5.402 -42.525  15.418  1.00  0.00     0.011 C 
ENDBRANCH   3   4
BRANCH   3   7
HETATM    7  N1  UNL     1      -2.208 -41.868  14.020  1.00  0.00    -0.329 N 
HETATM    8  C5  UNL     1      -0.956 -41.629  14.609  1.00  0.00     0.361 C 
HETATM    9  O1  UNL     1      -0.866 -40.835  15.562  1.00  0.00    -0.238 OA
ATOM     10  H1  UNL     1      -2.241 -42.525  13.241  1.00  0.00     0.165 HD
BRANCH   8  11
HETATM   11  O2  UNL     1       0.167 -42.265  14.142  1.00  0.00    -0.296 OA
BRANCH  11  12
HETATM   12  C6  UNL     1       0.424 -43.639  14.285  1.00  0.00     0.166 C 
HETATM   13  C7  UNL     1       1.796 -43.888  13.688  1.00  0.00     0.204 C 
HETATM   14  O3  UNL     1       1.627 -44.513  12.480  1.00  0.00    -0.358 OA
HETATM   15  C8  UNL     1       0.306 -44.481  12.109  1.00  0.00     0.266 C 
HETATM   16  O4  UNL     1      -0.093 -45.641  11.455  1.00  0.00    -0.361 OA
HETATM   17  C11 UNL     1      -0.465 -44.496  13.437  1.00  0.00     0.075 C 
HETATM   18  C9  UNL     1      -0.294 -46.610  12.420  1.00  0.00     0.171 C 
HETATM   19  C10 UNL     1      -0.362 -45.957  13.768  1.00  0.00     0.038 C 
ENDBRANCH  11  12
ENDBRANCH   8  11
ENDBRANCH   3   7
ENDBRANCH   2   3
BRANCH   2  20
HETATM   20  O5  UNL     1      -4.609 -39.982  12.730  1.00  0.00    -0.392 OA
ATOM     21  H5  UNL     1      -5.473 -39.850  13.103  1.00  0.00     0.210 HD
ENDBRANCH   2  20
ENDBRANCH   1   2
BRANCH   1  22
HETATM   22  N2  UNL     1      -3.251 -39.047  15.907  1.00  0.00    -0.334 N 
HETATM   23  C14 UNL     1      -3.449 -38.193  17.018  1.00  0.00     0.361 C 
HETATM   24  O6  UNL     1      -4.299 -37.247  16.909  1.00  0.00    -0.239 OA
ATOM     25  H2  UNL     1      -2.574 -39.805  15.989  1.00  0.00     0.164 HD
BRANCH  23  26
HETATM   26  O7  UNL     1      -2.793 -38.298  18.231  1.00  0.00    -0.298 OA
BRANCH  26  27
HETATM   27  C15 UNL     1      -2.982 -39.404  19.104  1.00  0.00     0.142 C 
HETATM   28  C16 UNL     1      -3.550 -38.995  20.441  1.00  0.00     0.016 C 
HETATM   29  C17 UNL     1      -2.604 -38.222  21.294  1.00  0.00     0.012 C 
HETATM   30  C21 UNL     1      -3.854 -40.306  21.179  1.00  0.00     0.012 C 
HETATM   31  C18 UNL     1      -1.298 -39.016  21.438  1.00  0.00    -0.013 C 
HETATM   32  C19 UNL     1      -1.638 -40.287  22.151  1.00  0.00     0.010 C 
HETATM   33  C27 UNL     1      -0.770 -39.195  20.047  1.00  0.00     0.012 C 
HETATM   34  C20 UNL     1      -2.617 -41.125  21.310  1.00  0.00    -0.004 C 
HETATM   35  C22 UNL     1      -1.907 -41.434  20.042  1.00  0.00    -0.024 C 
HETATM   36  C23 UNL     1      -0.555 -42.041  20.433  1.00  0.00     0.017 C 
HETATM   37  C26 UNL     1      -1.667 -40.157  19.303  1.00  0.00     0.025 C 
BRANCH  35  38
HETATM   38  C24 UNL     1      -2.583 -42.430  19.164  1.00  0.00     0.118 C 
BRANCH  38  39
HETATM   39  S1  UNL     1      -1.483 -43.447  18.223  1.00  0.00     0.011 S 
HETATM   40  C25 UNL     1      -1.369 -45.014  19.102  1.00  0.00     0.127 C 
HETATM   41  O8  UNL     1      -2.073 -43.779  16.695  1.00  0.00    -0.258 OA
ENDBRANCH  38  39
ENDBRANCH  35  38
ENDBRANCH  26  27
ENDBRANCH  23  26
ENDBRANCH   1  22
TORSDOF 12
ENDMDL
MODEL 5
REMARK VINA RESULT: -7.965603479      2.790      9.271
REMARK  12 active torsions:
REMARK  status: ('A' for Active; 'I' for Inactive)
REMARK    1  A    between atoms: C2_2  and  C4_4 
REMARK    2  A    between atoms: C4_4  and  N1_5 
REMARK    3  A    between atoms: C4_4  and  C12_18 
REMARK       I    between atoms: N1_5  and  C5_7 
REMARK    4  A    between atoms: C5_7  and  O2_9 
REMARK    5  A    between atoms: O2_9  and  C6_10 
REMARK    6  A    between atoms: C12_18  and  O5_19 
REMARK    7  A    between atoms: C12_18  and  C13_21 
REMARK    8  A    between atoms: C13_21  and  N2_22 
REMARK       I    between atoms: N2_22  and  C14_24 
REMARK    9  A    between atoms: C14_24  and  O7_26 
REMARK   10  A    between atoms: O7_26  and  C15_27 
REMARK   11  A    between atoms: C22_34  and  C24_36 
REMARK   12  A    between atoms: C24_36  and  S1_37 
ROOT
HETATM    1  C13 UNL     1      -2.121 -40.711  14.355  1.00  0.00     0.158 C 
ENDROOT
BRANCH   1   2
HETATM    2  C12 UNL     1      -3.598 -40.458  14.126  1.00  0.00     0.159 C 
BRANCH   2   3
HETATM    3  C4  UNL     1      -4.184 -39.967  15.411  1.00  0.00     0.120 C 
BRANCH   3   4
HETATM    4  C2  UNL     1      -4.641 -41.008  16.356  1.00  0.00     0.003 C 
HETATM    5  C1  UNL     1      -5.068 -42.247  15.597  1.00  0.00     0.011 C 
HETATM    6  C3  UNL     1      -3.668 -41.435  17.396  1.00  0.00     0.011 C 
ENDBRANCH   3   4
BRANCH   3   7
HETATM    7  N1  UNL     1      -3.170 -39.162  16.063  1.00  0.00    -0.329 N 
HETATM    8  C5  UNL     1      -3.392 -37.928  16.695  1.00  0.00     0.361 C 
HETATM    9  O1  UNL     1      -4.540 -37.448  16.721  1.00  0.00    -0.238 OA
ATOM     10  H1  UNL     1      -2.216 -39.521  16.062  1.00  0.00     0.165 HD
BRANCH   8  11
HETATM   11  O2  UNL     1      -2.355 -37.249  17.284  1.00  0.00    -0.296 OA
BRANCH  11  12
HETATM   12  C6  UNL     1      -2.183 -37.101  18.671  1.00  0.00     0.166 C 
HETATM   13  C7  UNL     1      -0.701 -36.877  18.902  1.00  0.00     0.204 C 
HETATM   14  O3  UNL     1      -0.173 -38.030  19.422  1.00  0.00    -0.358 OA
HETATM   15  C8  UNL     1      -1.081 -39.053  19.329  1.00  0.00     0.266 C 
HETATM   16  O4  UNL     1      -1.033 -39.911  20.422  1.00  0.00    -0.361 OA
HETATM   17  C11 UNL     1      -2.448 -38.362  19.434  1.00  0.00     0.075 C 
HETATM   18  C9  UNL     1      -1.701 -39.293  21.461  1.00  0.00     0.171 C 
HETATM   19  C10 UNL     1      -2.505 -38.149  20.919  1.00  0.00     0.038 C 
ENDBRANCH  11  12
ENDBRANCH   8  11
ENDBRANCH   3   7
ENDBRANCH   2   3
BRANCH   2  20
HETATM   20  O5  UNL     1      -3.654 -39.527  13.097  1.00  0.00    -0.392 OA
ATOM     21  H5  UNL     1      -2.979 -39.646  12.439  1.00  0.00     0.210 HD
ENDBRANCH   2  20
ENDBRANCH   1   2
BRANCH   1  22
HETATM   22  N2  UNL     1      -1.782 -42.092  14.089  1.00  0.00    -0.334 N 
HETATM   23  C14 UNL     1      -0.999 -42.872  14.972  1.00  0.00     0.361 C 
HETATM   24  O6  UNL     1      -0.579 -42.329  16.047  1.00  0.00    -0.239 OA
ATOM     25  H2  UNL     1      -2.122 -42.522  13.228  1.00  0.00     0.164 HD
BRANCH  23  26
HETATM   26  O7  UNL     1      -0.646 -44.194  14.768  1.00  0.00    -0.298 OA
BRANCH  26  27
HETATM   27  C15 UNL     1       0.585 -44.567  14.160  1.00  0.00     0.142 C 
HETATM   28  C16 UNL     1       0.596 -44.314  12.673  1.00  0.00     0.016 C 
HETATM   29  C17 UNL     1      -0.296 -45.218  11.894  1.00  0.00     0.012 C 
HETATM   30  C21 UNL     1       2.034 -44.598  12.217  1.00  0.00     0.012 C 
HETATM   31  C18 UNL     1       0.046 -46.675  12.237  1.00  0.00    -0.013 C 
HETATM   32  C19 UNL     1       1.454 -46.908  11.787  1.00  0.00     0.010 C 
HETATM   33  C27 UNL     1      -0.176 -46.814  13.712  1.00  0.00     0.012 C 
HETATM   34  C20 UNL     1       2.420 -45.994  12.562  1.00  0.00    -0.004 C 
HETATM   35  C22 UNL     1       2.280 -46.371  13.992  1.00  0.00    -0.024 C 
HETATM   36  C23 UNL     1       2.471 -47.890  14.068  1.00  0.00     0.017 C 
HETATM   37  C26 UNL     1       0.894 -46.037  14.444  1.00  0.00     0.025 C 
BRANCH  35  38
HETATM   38  C24 UNL     1       3.290 -45.768  14.908  1.00  0.00     0.118 C 
BRANCH  38  39
HETATM   39  S1  UNL     1       4.470 -46.915  15.558  1.00  0.00     0.011 S 
HETATM   40  C25 UNL     1       6.093 -46.214  15.219  1.00  0.00     0.127 C 
HETATM   41  O8  UNL     1       4.343 -47.090  17.215  1.00  0.00    -0.258 OA
ENDBRANCH  38  39
ENDBRANCH  35  38
ENDBRANCH  26  27
ENDBRANCH  23  26
ENDBRANCH   1  22
TORSDOF 12
ENDMDL
