MODEL 1
REMARK VINA RESULT: -7.656120157      0.000      0.000
REMARK  13 active torsions:
REMARK  status: ('A' for Active; 'I' for Inactive)
REMARK    1  A    between atoms: C2_2  and  C4_4 
REMARK    2  A    between atoms: C4_4  and  O2_6 
REMARK    3  A    between atoms: O2_6  and  C5_7 
REMARK    4  A    between atoms: C5_7  and  C6_8 
REMARK    5  A    between atoms: C5_7  and  C18_26 
REMARK    6  A    between atoms: C6_8  and  C8_11 
REMARK       I    between atoms: C8_11  and  N2_13 
REMARK    7  A    between atoms: C12_17  and  C13_18 
REMARK       I    between atoms: C13_18  and  N3_20 
REMARK    8  A    between atoms: N3_20  and  C14_22 
REMARK    9  A    between atoms: C18_26  and  N4_27 
REMARK   10  A    between atoms: C18_26  and  C24_39 
REMARK       I    between atoms: N4_27  and  C19_29 
REMARK   11  A    between atoms: C19_29  and  C20_31 
REMARK   12  A    between atoms: C20_31  and  C21_32 
REMARK   13  A    between atoms: C21_32  and  N5_35 
ROOT
HETATM    1  C6  UNL     1       0.845 -42.571  14.052  1.00  0.00     0.216 C 
HETATM    2  C7  UNL     1       2.224 -42.879  14.476  1.00  0.00     0.076 C 
HETATM    3  N1  UNL     1       3.324 -43.143  14.782  1.00  0.00    -0.196 NA
ENDROOT
BRANCH   1   4
HETATM    4  C5  UNL     1      -0.126 -42.780  15.138  1.00  0.00     0.181 C 
BRANCH   4   5
HETATM    5  O2  UNL     1       0.394 -43.020  16.407  1.00  0.00    -0.312 OA
BRANCH   5   6
HETATM    6  C4  UNL     1       0.359 -44.200  17.096  1.00  0.00     0.262 C 
HETATM    7  O1  UNL     1       1.473 -44.754  17.395  1.00  0.00    -0.265 OA
BRANCH   6   8
HETATM    8  C2  UNL     1      -0.912 -44.862  17.512  1.00  0.00     0.077 C 
HETATM    9  C1  UNL     1      -1.347 -44.345  18.886  1.00  0.00     0.020 C 
HETATM   10  C3  UNL     1      -0.670 -46.350  17.574  1.00  0.00     0.020 C 
ENDBRANCH   6   8
ENDBRANCH   5   6
ENDBRANCH   4   5
BRANCH   4  11
HETATM   11  C18 UNL     1      -1.262 -41.792  15.225  1.00  0.00     0.119 C 
BRANCH  11  12
HETATM   12  N4  UNL     1      -1.496 -41.432  16.636  1.00  0.00    -0.353 N 
HETATM   13  C19 UNL     1      -1.413 -40.083  17.084  1.00  0.00     0.220 C 
HETATM   14  O5  UNL     1      -1.130 -39.210  16.219  1.00  0.00    -0.274 OA
ATOM     15  H4  UNL     1      -1.723 -42.167  17.307  1.00  0.00     0.163 HD
BRANCH  13  16
HETATM   16  C20 UNL     1      -1.646 -39.712  18.500  1.00  0.00     0.140 C 
BRANCH  16  17
HETATM   17  C21 UNL     1      -3.134 -39.509  18.691  1.00  0.00     0.124 C 
HETATM   18  C22 UNL     1      -3.458 -38.568  19.815  1.00  0.00     0.046 C 
HETATM   19  C23 UNL     1      -3.810 -40.824  18.926  1.00  0.00     0.046 C 
BRANCH  17  20
HETATM   20  N5  UNL     1      -3.619 -38.888  17.462  1.00  0.00    -0.071 N 
ATOM     21  H53 UNL     1      -3.814 -37.892  17.561  1.00  0.00     0.275 HD
ATOM     22  H52 UNL     1      -2.904 -38.804  16.740  1.00  0.00     0.275 HD
ATOM     23  H51 UNL     1      -4.431 -39.434  17.170  1.00  0.00     0.275 HD
ENDBRANCH  17  20
ENDBRANCH  16  17
ENDBRANCH  13  16
ENDBRANCH  11  12
BRANCH  11  24
HETATM   24  C24 UNL     1      -2.533 -42.187  14.576  1.00  0.00     0.011 C 
HETATM   25  C25 UNL     1      -3.803 -41.813  15.277  1.00  0.00     0.007 C 
HETATM   26  C26 UNL     1      -4.983 -42.505  14.674  1.00  0.00     0.000 C 
HETATM   27  C27 UNL     1      -4.714 -43.222  13.379  1.00  0.00     0.000 C 
HETATM   28  C28 UNL     1      -3.539 -44.169  13.477  1.00  0.00     0.000 C 
HETATM   29  C29 UNL     1      -2.566 -43.739  14.540  1.00  0.00     0.007 C 
ENDBRANCH  11  24
ENDBRANCH   4  11
ENDBRANCH   1   4
BRANCH   1  30
HETATM   30  C8  UNL     1       0.556 -43.397  12.871  1.00  0.00     0.241 C 
HETATM   31  O3  UNL     1       0.333 -42.875  11.755  1.00  0.00    -0.272 OA
HETATM   32  N2  UNL     1       0.503 -44.828  12.895  1.00  0.00    -0.337 N 
HETATM   33  C9  UNL     1       0.196 -45.693  11.760  1.00  0.00     0.127 C 
HETATM   34  C12 UNL     1       0.757 -45.635  14.049  1.00  0.00     0.179 C 
HETATM   35  C10 UNL     1      -0.299 -46.952  12.387  1.00  0.00     0.022 C 
HETATM   36  C11 UNL     1      -0.211 -46.796  13.890  1.00  0.00     0.037 C 
BRANCH  34  37
HETATM   37  C13 UNL     1       2.158 -46.115  14.158  1.00  0.00     0.241 C 
HETATM   38  O4  UNL     1       2.864 -46.131  13.091  1.00  0.00    -0.271 OA
HETATM   39  N3  UNL     1       2.754 -46.549  15.352  1.00  0.00    -0.351 N 
ATOM     40  H3  UNL     1       2.204 -46.545  16.211  1.00  0.00     0.163 HD
BRANCH  39  41
HETATM   41  C14 UNL     1       4.133 -47.003  15.398  1.00  0.00     0.022 C 
HETATM   42  C15 UNL     1       4.342 -48.285  14.643  1.00  0.00     0.037 C 
HETATM   43  C16 UNL     1       5.091 -45.959  14.867  1.00  0.00     0.037 C 
HETATM   44  C17 UNL     1       4.550 -47.282  16.847  1.00  0.00     0.037 C 
ENDBRANCH  39  41
ENDBRANCH  34  37
ENDBRANCH   1  30
TORSDOF 13
ENDMDL
MODEL 2
REMARK VINA RESULT: -7.574023365      2.784      5.940
REMARK  13 active torsions:
REMARK  status: ('A' for Active; 'I' for Inactive)
REMARK    1  A    between atoms: C2_2  and  C4_4 
REMARK    2  A    between atoms: C4_4  and  O2_6 
REMARK    3  A    between atoms: O2_6  and  C5_7 
REMARK    4  A    between atoms: C5_7  and  C6_8 
REMARK    5  A    between atoms: C5_7  and  C18_26 
REMARK    6  A    between atoms: C6_8  and  C8_11 
REMARK       I    between atoms: C8_11  and  N2_13 
REMARK    7  A    between atoms: C12_17  and  C13_18 
REMARK       I    between atoms: C13_18  and  N3_20 
REMARK    8  A    between atoms: N3_20  and  C14_22 
REMARK    9  A    between atoms: C18_26  and  N4_27 
REMARK   10  A    between atoms: C18_26  and  C24_39 
REMARK       I    between atoms: N4_27  and  C19_29 
REMARK   11  A    between atoms: C19_29  and  C20_31 
REMARK   12  A    between atoms: C20_31  and  C21_32 
REMARK   13  A    between atoms: C21_32  and  N5_35 
ROOT
HETATM    1  C6  UNL     1      -3.554 -42.053  15.696  1.00  0.00     0.216 C 
HETATM    2  C7  UNL     1      -4.740 -42.270  14.847  1.00  0.00     0.076 C 
HETATM    3  N1  UNL     1      -5.661 -42.446  14.145  1.00  0.00    -0.196 NA
ENDROOT
BRANCH   1   4
HETATM    4  C5  UNL     1      -3.726 -40.907  16.603  1.00  0.00     0.181 C 
BRANCH   4   5
HETATM    5  O2  UNL     1      -5.002 -40.355  16.681  1.00  0.00    -0.312 OA
BRANCH   5   6
HETATM    6  C4  UNL     1      -5.316 -39.027  16.760  1.00  0.00     0.262 C 
HETATM    7  O1  UNL     1      -5.173 -38.314  15.706  1.00  0.00    -0.265 OA
BRANCH   6   8
HETATM    8  C2  UNL     1      -5.815 -38.380  18.008  1.00  0.00     0.077 C 
HETATM    9  C1  UNL     1      -7.247 -37.879  17.802  1.00  0.00     0.020 C 
HETATM   10  C3  UNL     1      -4.905 -37.223  18.336  1.00  0.00     0.020 C 
ENDBRANCH   6   8
ENDBRANCH   5   6
ENDBRANCH   4   5
BRANCH   4  11
HETATM   11  C18 UNL     1      -3.140 -41.048  17.985  1.00  0.00     0.119 C 
BRANCH  11  12
HETATM   12  N4  UNL     1      -4.186 -41.501  18.921  1.00  0.00    -0.353 N 
HETATM   13  C19 UNL     1      -4.199 -42.828  19.438  1.00  0.00     0.220 C 
HETATM   14  O5  UNL     1      -3.275 -43.597  19.059  1.00  0.00    -0.274 OA
ATOM     15  H4  UNL     1      -4.917 -40.848  19.205  1.00  0.00     0.163 HD
BRANCH  13  16
HETATM   16  C20 UNL     1      -5.246 -43.292  20.378  1.00  0.00     0.140 C 
BRANCH  16  17
HETATM   17  C21 UNL     1      -4.809 -42.927  21.781  1.00  0.00     0.124 C 
HETATM   18  C22 UNL     1      -5.398 -43.824  22.831  1.00  0.00     0.046 C 
HETATM   19  C23 UNL     1      -5.164 -41.503  22.080  1.00  0.00     0.046 C 
BRANCH  17  20
HETATM   20  N5  UNL     1      -3.363 -43.121  21.819  1.00  0.00    -0.071 N 
ATOM     21  H53 UNL     1      -3.058 -43.989  21.379  1.00  0.00     0.275 HD
ATOM     22  H52 UNL     1      -2.852 -42.485  21.206  1.00  0.00     0.275 HD
ATOM     23  H51 UNL     1      -3.092 -43.045  22.800  1.00  0.00     0.275 HD
ENDBRANCH  17  20
ENDBRANCH  16  17
ENDBRANCH  13  16
ENDBRANCH  11  12
BRANCH  11  24
HETATM   24  C24 UNL     1      -2.439 -39.862  18.530  1.00  0.00     0.011 C 
HETATM   25  C25 UNL     1      -1.460 -39.173  17.627  1.00  0.00     0.007 C 
HETATM   26  C26 UNL     1      -0.628 -38.184  18.379  1.00  0.00     0.000 C 
HETATM   27  C27 UNL     1      -1.080 -37.904  19.786  1.00  0.00     0.000 C 
HETATM   28  C28 UNL     1      -1.260 -39.167  20.597  1.00  0.00     0.000 C 
HETATM   29  C29 UNL     1      -1.572 -40.350  19.721  1.00  0.00     0.007 C 
ENDBRANCH  11  24
ENDBRANCH   4  11
ENDBRANCH   1   4
BRANCH   1  30
HETATM   30  C8  UNL     1      -2.399 -41.894  14.800  1.00  0.00     0.241 C 
HETATM   31  O3  UNL     1      -2.033 -40.761  14.411  1.00  0.00    -0.272 OA
HETATM   32  N2  UNL     1      -1.619 -42.988  14.307  1.00  0.00    -0.337 N 
HETATM   33  C9  UNL     1      -0.482 -42.889  13.396  1.00  0.00     0.127 C 
HETATM   34  C12 UNL     1      -1.834 -44.362  14.644  1.00  0.00     0.179 C 
HETATM   35  C10 UNL     1      -0.412 -44.232  12.754  1.00  0.00     0.022 C 
HETATM   36  C11 UNL     1      -1.493 -45.100  13.361  1.00  0.00     0.037 C 
BRANCH  34  37
HETATM   37  C13 UNL     1      -1.006 -44.845  15.778  1.00  0.00     0.241 C 
HETATM   38  O4  UNL     1      -0.446 -45.989  15.659  1.00  0.00    -0.271 OA
HETATM   39  N3  UNL     1      -0.799 -44.129  16.967  1.00  0.00    -0.351 N 
ATOM     40  H3  UNL     1      -1.241 -43.216  17.080  1.00  0.00     0.163 HD
BRANCH  39  41
HETATM   41  C14 UNL     1       0.027 -44.651  18.042  1.00  0.00     0.022 C 
HETATM   42  C15 UNL     1      -0.507 -45.938  18.604  1.00  0.00     0.037 C 
HETATM   43  C16 UNL     1       1.459 -44.865  17.602  1.00  0.00     0.037 C 
HETATM   44  C17 UNL     1       0.071 -43.656  19.207  1.00  0.00     0.037 C 
ENDBRANCH  39  41
ENDBRANCH  34  37
ENDBRANCH   1  30
TORSDOF 13
ENDMDL
MODEL 3
REMARK VINA RESULT: -7.564006079      2.371      4.374
REMARK  13 active torsions:
REMARK  status: ('A' for Active; 'I' for Inactive)
REMARK    1  A    between atoms: C2_2  and  C4_4 
REMARK    2  A    between atoms: C4_4  and  O2_6 
REMARK    3  A    between atoms: O2_6  and  C5_7 
REMARK    4  A    between atoms: C5_7  and  C6_8 
REMARK    5  A    between atoms: C5_7  and  C18_26 
REMARK    6  A    between atoms: C6_8  and  C8_11 
REMARK       I    between atoms: C8_11  and  N2_13 
REMARK    7  A    between atoms: C12_17  and  C13_18 
REMARK       I    between atoms: C13_18  and  N3_20 
REMARK    8  A    between atoms: N3_20  and  C14_22 
REMARK    9  A    between atoms: C18_26  and  N4_27 
REMARK   10  A    between atoms: C18_26  and  C24_39 
REMARK       I    between atoms: N4_27  and  C19_29 
REMARK   11  A    between atoms: C19_29  and  C20_31 
REMARK   12  A    between atoms: C20_31  and  C21_32 
REMARK   13  A    between atoms: C21_32  and  N5_35 
ROOT
HETATM    1  C6  UNL     1      -0.951 -42.963  18.038  1.00  0.00     0.216 C 
HETATM    2  C7  UNL     1      -0.626 -42.621  19.436  1.00  0.00     0.076 C 
HETATM    3  N1  UNL     1      -0.356 -42.382  20.551  1.00  0.00    -0.196 NA
ENDROOT
BRANCH   1   4
HETATM    4  C5  UNL     1      -2.308 -42.534  17.665  1.00  0.00     0.181 C 
BRANCH   4   5
HETATM    5  O2  UNL     1      -3.077 -41.945  18.666  1.00  0.00    -0.312 OA
BRANCH   5   6
HETATM    6  C4  UNL     1      -4.234 -42.435  19.205  1.00  0.00     0.262 C 
HETATM    7  O1  UNL     1      -5.213 -42.667  18.413  1.00  0.00    -0.265 OA
BRANCH   6   8
HETATM    8  C2  UNL     1      -4.402 -42.710  20.661  1.00  0.00     0.077 C 
HETATM    9  C1  UNL     1      -3.781 -41.577  21.483  1.00  0.00     0.020 C 
HETATM   10  C3  UNL     1      -3.715 -44.014  20.979  1.00  0.00     0.020 C 
ENDBRANCH   6   8
ENDBRANCH   5   6
ENDBRANCH   4   5
BRANCH   4  11
HETATM   11  C18 UNL     1      -2.438 -41.747  16.385  1.00  0.00     0.119 C 
BRANCH  11  12
HETATM   12  N4  UNL     1      -2.749 -40.340  16.701  1.00  0.00    -0.353 N 
HETATM   13  C19 UNL     1      -1.812 -39.297  16.453  1.00  0.00     0.220 C 
HETATM   14  O5  UNL     1      -0.704 -39.631  15.952  1.00  0.00    -0.274 OA
ATOM     15  H4  UNL     1      -3.657 -40.109  17.105  1.00  0.00     0.163 HD
BRANCH  13  16
HETATM   16  C20 UNL     1      -2.115 -37.881  16.766  1.00  0.00     0.140 C 
BRANCH  16  17
HETATM   17  C21 UNL     1      -1.102 -37.399  17.782  1.00  0.00     0.124 C 
HETATM   18  C22 UNL     1      -0.817 -38.413  18.853  1.00  0.00     0.046 C 
HETATM   19  C23 UNL     1      -1.565 -36.121  18.411  1.00  0.00     0.046 C 
BRANCH  17  20
HETATM   20  N5  UNL     1       0.143 -37.195  17.048  1.00  0.00    -0.071 N 
ATOM     21  H53 UNL     1       0.722 -38.033  16.990  1.00  0.00     0.275 HD
ATOM     22  H52 UNL     1       0.007 -37.069  16.045  1.00  0.00     0.275 HD
ATOM     23  H51 UNL     1       0.611 -36.408  17.497  1.00  0.00     0.275 HD
ENDBRANCH  17  20
ENDBRANCH  16  17
ENDBRANCH  13  16
ENDBRANCH  11  12
BRANCH  11  24
HETATM   24  C24 UNL     1      -3.390 -42.273  15.380  1.00  0.00     0.011 C 
HETATM   25  C25 UNL     1      -3.030 -43.564  14.708  1.00  0.00     0.007 C 
HETATM   26  C26 UNL     1      -3.916 -43.833  13.535  1.00  0.00     0.000 C 
HETATM   27  C27 UNL     1      -5.105 -42.921  13.405  1.00  0.00     0.000 C 
HETATM   28  C28 UNL     1      -4.719 -41.460  13.452  1.00  0.00     0.000 C 
HETATM   29  C29 UNL     1      -3.442 -41.246  14.217  1.00  0.00     0.007 C 
ENDBRANCH  11  24
ENDBRANCH   4  11
ENDBRANCH   1   4
BRANCH   1  30
HETATM   30  C8  UNL     1      -0.757 -44.412  17.887  1.00  0.00     0.241 C 
HETATM   31  O3  UNL     1      -1.628 -45.225  18.271  1.00  0.00    -0.272 OA
HETATM   32  N2  UNL     1       0.413 -45.002  17.309  1.00  0.00    -0.337 N 
HETATM   33  C9  UNL     1       0.668 -46.431  17.159  1.00  0.00     0.127 C 
HETATM   34  C12 UNL     1       1.518 -44.267  16.775  1.00  0.00     0.179 C 
HETATM   35  C10 UNL     1       2.153 -46.529  17.077  1.00  0.00     0.022 C 
HETATM   36  C11 UNL     1       2.720 -45.127  17.128  1.00  0.00     0.037 C 
BRANCH  34  37
HETATM   37  C13 UNL     1       1.439 -44.031  15.310  1.00  0.00     0.241 C 
HETATM   38  O4  UNL     1       2.319 -43.266  14.785  1.00  0.00    -0.271 OA
HETATM   39  N3  UNL     1       0.465 -44.592  14.471  1.00  0.00    -0.351 N 
ATOM     40  H3  UNL     1      -0.246 -45.203  14.874  1.00  0.00     0.163 HD
BRANCH  39  41
HETATM   41  C14 UNL     1       0.441 -44.328  13.042  1.00  0.00     0.022 C 
HETATM   42  C15 UNL     1       0.082 -42.904  12.727  1.00  0.00     0.037 C 
HETATM   43  C16 UNL     1       1.763 -44.658  12.384  1.00  0.00     0.037 C 
HETATM   44  C17 UNL     1      -0.617 -45.203  12.360  1.00  0.00     0.037 C 
ENDBRANCH  39  41
ENDBRANCH  34  37
ENDBRANCH   1  30
TORSDOF 13
ENDMDL
MODEL 4
REMARK VINA RESULT: -7.510010476      2.194      4.224
REMARK  13 active torsions:
REMARK  status: ('A' for Active; 'I' for Inactive)
REMARK    1  A    between atoms: C2_2  and  C4_4 
REMARK    2  A    between atoms: C4_4  and  O2_6 
REMARK    3  A    between atoms: O2_6  and  C5_7 
REMARK    4  A    between atoms: C5_7  and  C6_8 
REMARK    5  A    between atoms: C5_7  and  C18_26 
REMARK    6  A    between atoms: C6_8  and  C8_11 
REMARK       I    between atoms: C8_11  and  N2_13 
REMARK    7  A    between atoms: C12_17  and  C13_18 
REMARK       I    between atoms: C13_18  and  N3_20 
REMARK    8  A    between atoms: N3_20  and  C14_22 
REMARK    9  A    between atoms: C18_26  and  N4_27 
REMARK   10  A    between atoms: C18_26  and  C24_39 
REMARK       I    between atoms: N4_27  and  C19_29 
REMARK   11  A    between atoms: C19_29  and  C20_31 
REMARK   12  A    between atoms: C20_31  and  C21_32 
REMARK   13  A    between atoms: C21_32  and  N5_35 
ROOT
HETATM    1  C6  UNL     1      -1.114 -42.556  17.643  1.00  0.00     0.216 C 
HETATM    2  C7  UNL     1      -0.918 -42.094  19.030  1.00  0.00     0.076 C 
HETATM    3  N1  UNL     1      -0.751 -41.760  20.140  1.00  0.00    -0.196 NA
ENDROOT
BRANCH   1   4
HETATM    4  C5  UNL     1      -2.430 -42.169  17.112  1.00  0.00     0.181 C 
BRANCH   4   5
HETATM    5  O2  UNL     1      -3.309 -41.557  18.001  1.00  0.00    -0.312 OA
BRANCH   5   6
HETATM    6  C4  UNL     1      -4.479 -42.076  18.483  1.00  0.00     0.262 C 
HETATM    7  O1  UNL     1      -5.351 -42.477  17.636  1.00  0.00    -0.265 OA
BRANCH   6   8
HETATM    8  C2  UNL     1      -4.780 -42.193  19.939  1.00  0.00     0.077 C 
HETATM    9  C1  UNL     1      -4.291 -40.943  20.677  1.00  0.00     0.020 C 
HETATM   10  C3  UNL     1      -4.074 -43.414  20.471  1.00  0.00     0.020 C 
ENDBRANCH   6   8
ENDBRANCH   5   6
ENDBRANCH   4   5
BRANCH   4  11
HETATM   11  C18 UNL     1      -2.436 -41.435  15.794  1.00  0.00     0.119 C 
BRANCH  11  12
HETATM   12  N4  UNL     1      -3.014 -40.090  15.981  1.00  0.00    -0.353 N 
HETATM   13  C19 UNL     1      -2.194 -38.962  16.268  1.00  0.00     0.220 C 
HETATM   14  O5  UNL     1      -0.953 -39.164  16.355  1.00  0.00    -0.274 OA
ATOM     15  H4  UNL     1      -4.023 -39.966  15.903  1.00  0.00     0.163 HD
BRANCH  13  16
HETATM   16  C20 UNL     1      -2.765 -37.607  16.457  1.00  0.00     0.140 C 
BRANCH  16  17
HETATM   17  C21 UNL     1      -3.260 -37.504  17.884  1.00  0.00     0.124 C 
HETATM   18  C22 UNL     1      -4.711 -37.864  18.029  1.00  0.00     0.046 C 
HETATM   19  C23 UNL     1      -3.031 -36.122  18.413  1.00  0.00     0.046 C 
BRANCH  17  20
HETATM   20  N5  UNL     1      -2.499 -38.486  18.650  1.00  0.00    -0.071 N 
ATOM     21  H53 UNL     1      -1.778 -38.956  18.103  1.00  0.00     0.275 HD
ATOM     22  H52 UNL     1      -1.878 -38.067  19.342  1.00  0.00     0.275 HD
ATOM     23  H51 UNL     1      -3.186 -39.125  19.053  1.00  0.00     0.275 HD
ENDBRANCH  17  20
ENDBRANCH  16  17
ENDBRANCH  13  16
ENDBRANCH  11  12
BRANCH  11  24
HETATM   24  C24 UNL     1      -3.088 -42.123  14.657  1.00  0.00     0.011 C 
HETATM   25  C25 UNL     1      -4.526 -41.791  14.391  1.00  0.00     0.007 C 
HETATM   26  C26 UNL     1      -5.133 -42.746  13.415  1.00  0.00     0.000 C 
HETATM   27  C27 UNL     1      -4.162 -43.668  12.728  1.00  0.00     0.000 C 
HETATM   28  C28 UNL     1      -3.277 -44.405  13.706  1.00  0.00     0.000 C 
HETATM   29  C29 UNL     1      -3.108 -43.640  14.990  1.00  0.00     0.007 C 
ENDBRANCH  11  24
ENDBRANCH   4  11
ENDBRANCH   1   4
BRANCH   1  30
HETATM   30  C8  UNL     1      -0.909 -44.012  17.634  1.00  0.00     0.241 C 
HETATM   31  O3  UNL     1      -1.790 -44.791  18.064  1.00  0.00    -0.272 OA
HETATM   32  N2  UNL     1       0.282 -44.645  17.153  1.00  0.00    -0.337 N 
HETATM   33  C9  UNL     1       0.547 -46.080  17.146  1.00  0.00     0.127 C 
HETATM   34  C12 UNL     1       1.402 -43.956  16.590  1.00  0.00     0.179 C 
HETATM   35  C10 UNL     1       2.034 -46.175  17.123  1.00  0.00     0.022 C 
HETATM   36  C11 UNL     1       2.594 -44.770  17.062  1.00  0.00     0.037 C 
BRANCH  34  37
HETATM   37  C13 UNL     1       1.372 -43.858  15.108  1.00  0.00     0.241 C 
HETATM   38  O4  UNL     1       2.145 -43.002  14.554  1.00  0.00    -0.271 OA
HETATM   39  N3  UNL     1       0.553 -44.641  14.281  1.00  0.00    -0.351 N 
ATOM     40  H3  UNL     1      -0.072 -45.327  14.706  1.00  0.00     0.163 HD
BRANCH  39  41
HETATM   41  C14 UNL     1       0.570 -44.503  12.834  1.00  0.00     0.022 C 
HETATM   42  C15 UNL     1       0.059 -43.166  12.378  1.00  0.00     0.037 C 
HETATM   43  C16 UNL     1       1.954 -44.722  12.262  1.00  0.00     0.037 C 
HETATM   44  C17 UNL     1      -0.340 -45.557  12.191  1.00  0.00     0.037 C 
ENDBRANCH  39  41
ENDBRANCH  34  37
ENDBRANCH   1  30
TORSDOF 13
ENDMDL
MODEL 5
REMARK VINA RESULT: -7.467307295      2.290      4.496
REMARK  13 active torsions:
REMARK  status: ('A' for Active; 'I' for Inactive)
REMARK    1  A    between atoms: C2_2  and  C4_4 
REMARK    2  A    between atoms: C4_4  and  O2_6 
REMARK    3  A    between atoms: O2_6  and  C5_7 
REMARK    4  A    between atoms: C5_7  and  C6_8 
REMARK    5  A    between atoms: C5_7  and  C18_26 
REMARK    6  A    between atoms: C6_8  and  C8_11 
REMARK       I    between atoms: C8_11  and  N2_13 
REMARK    7  A    between atoms: C12_17  and  C13_18 
REMARK       I    between atoms: C13_18  and  N3_20 
REMARK    8  A    between atoms: N3_20  and  C14_22 
REMARK    9  A    between atoms: C18_26  and  N4_27 
REMARK   10  A    between atoms: C18_26  and  C24_39 
REMARK       I    between atoms: N4_27  and  C19_29 
REMARK   11  A    between atoms: C19_29  and  C20_31 
REMARK   12  A    between atoms: C20_31  and  C21_32 
REMARK   13  A    between atoms: C21_32  and  N5_35 
ROOT
HETATM    1  C6  UNL     1      -1.103 -42.767  18.056  1.00  0.00     0.216 C 
HETATM    2  C7  UNL     1      -0.717 -42.422  19.437  1.00  0.00     0.076 C 
HETATM    3  N1  UNL     1      -0.399 -42.182  20.539  1.00  0.00    -0.196 NA
ENDROOT
BRANCH   1   4
HETATM    4  C5  UNL     1      -2.458 -42.298  17.728  1.00  0.00     0.181 C 
BRANCH   4   5
HETATM    5  O2  UNL     1      -3.163 -41.656  18.743  1.00  0.00    -0.312 OA
BRANCH   5   6
HETATM    6  C4  UNL     1      -4.302 -42.099  19.355  1.00  0.00     0.262 C 
HETATM    7  O1  UNL     1      -5.139 -42.767  18.654  1.00  0.00    -0.265 OA
BRANCH   6   8
HETATM    8  C2  UNL     1      -4.608 -41.839  20.792  1.00  0.00     0.077 C 
HETATM    9  C1  UNL     1      -6.064 -41.390  20.944  1.00  0.00     0.020 C 
HETATM   10  C3  UNL     1      -3.681 -40.758  21.285  1.00  0.00     0.020 C 
ENDBRANCH   6   8
ENDBRANCH   5   6
ENDBRANCH   4   5
BRANCH   4  11
HETATM   11  C18 UNL     1      -2.615 -41.540  16.433  1.00  0.00     0.119 C 
BRANCH  11  12
HETATM   12  N4  UNL     1      -3.062 -40.164  16.718  1.00  0.00    -0.353 N 
HETATM   13  C19 UNL     1      -2.165 -39.060  16.650  1.00  0.00     0.220 C 
HETATM   14  O5  UNL     1      -0.971 -39.313  16.334  1.00  0.00    -0.274 OA
ATOM     15  H4  UNL     1      -4.037 -39.998  16.970  1.00  0.00     0.163 HD
BRANCH  13  16
HETATM   16  C20 UNL     1      -2.605 -37.674  16.934  1.00  0.00     0.140 C 
BRANCH  16  17
HETATM   17  C21 UNL     1      -2.316 -37.382  18.391  1.00  0.00     0.124 C 
HETATM   18  C22 UNL     1      -3.547 -37.023  19.173  1.00  0.00     0.046 C 
HETATM   19  C23 UNL     1      -1.308 -36.280  18.509  1.00  0.00     0.046 C 
BRANCH  17  20
HETATM   20  N5  UNL     1      -1.798 -38.622  18.959  1.00  0.00    -0.071 N 
ATOM     21  H53 UNL     1      -1.278 -38.486  19.825  1.00  0.00     0.275 HD
ATOM     22  H52 UNL     1      -2.524 -39.226  19.345  1.00  0.00     0.275 HD
ATOM     23  H51 UNL     1      -1.251 -39.065  18.220  1.00  0.00     0.275 HD
ENDBRANCH  17  20
ENDBRANCH  16  17
ENDBRANCH  13  16
ENDBRANCH  11  12
BRANCH  11  24
HETATM   24  C24 UNL     1      -3.479 -42.161  15.404  1.00  0.00     0.011 C 
HETATM   25  C25 UNL     1      -3.009 -43.452  14.805  1.00  0.00     0.007 C 
HETATM   26  C26 UNL     1      -3.814 -43.819  13.600  1.00  0.00     0.000 C 
HETATM   27  C27 UNL     1      -5.047 -42.987  13.374  1.00  0.00     0.000 C 
HETATM   28  C28 UNL     1      -4.751 -41.504  13.380  1.00  0.00     0.000 C 
HETATM   29  C29 UNL     1      -3.531 -41.184  14.199  1.00  0.00     0.007 C 
ENDBRANCH  11  24
ENDBRANCH   4  11
ENDBRANCH   1   4
BRANCH   1  30
HETATM   30  C8  UNL     1      -0.960 -44.223  17.913  1.00  0.00     0.241 C 
HETATM   31  O3  UNL     1      -1.870 -45.001  18.279  1.00  0.00    -0.272 OA
HETATM   32  N2  UNL     1       0.199 -44.858  17.363  1.00  0.00    -0.337 N 
HETATM   33  C9  UNL     1       0.403 -46.297  17.223  1.00  0.00     0.127 C 
HETATM   34  C12 UNL     1       1.343 -44.168  16.852  1.00  0.00     0.179 C 
HETATM   35  C10 UNL     1       1.885 -46.451  17.175  1.00  0.00     0.022 C 
HETATM   36  C11 UNL     1       2.503 -45.071  17.234  1.00  0.00     0.037 C 
BRANCH  34  37
HETATM   37  C13 UNL     1       1.306 -43.934  15.385  1.00  0.00     0.241 C 
HETATM   38  O4  UNL     1       2.153 -43.110  14.895  1.00  0.00    -0.271 OA
HETATM   39  N3  UNL     1       0.406 -44.558  14.508  1.00  0.00    -0.351 N 
ATOM     40  H3  UNL     1      -0.278 -45.216  14.883  1.00  0.00     0.163 HD
BRANCH  39  41
HETATM   41  C14 UNL     1       0.421 -44.292  13.080  1.00  0.00     0.022 C 
HETATM   42  C15 UNL     1       0.053 -42.872  12.755  1.00  0.00     0.037 C 
HETATM   43  C16 UNL     1       1.765 -44.605  12.460  1.00  0.00     0.037 C 
HETATM   44  C17 UNL     1      -0.607 -45.179  12.366  1.00  0.00     0.037 C 
ENDBRANCH  39  41
ENDBRANCH  34  37
ENDBRANCH   1  30
TORSDOF 13
ENDMDL
