MODEL 1
REMARK VINA RESULT: -5.879513945      0.000      0.000
REMARK  3 active torsions:
REMARK  status: ('A' for Active; 'I' for Inactive)
REMARK    1  A    between atoms: C2_2  and  C4_4 
REMARK    2  A    between atoms: C4_4  and  C5_5 
REMARK    3  A    between atoms: C6_6  and  C7_7 
ROOT
HETATM    1  C5  UNL     1      -7.110 -18.730  40.750  1.00  0.00     0.003 A 
HETATM    2  C6  UNL     1      -6.662 -17.792  39.685  1.00  0.00     0.058 A 
HETATM    3  C11 UNL     1      -8.096 -17.930  39.874  1.00  0.00    -0.035 A 
HETATM    4  C12 UNL     1      -8.983 -18.807  39.056  1.00  0.00     0.016 C 
HETATM    5  C13 UNL     1      -8.828 -16.762  40.537  1.00  0.00     0.016 C 
ENDROOT
BRANCH   2   6
HETATM    6  C7  UNL     1      -5.919 -18.371  38.510  1.00  0.00     0.367 C 
HETATM    7  N1  UNL     1      -6.067 -17.624  37.307  1.00  0.00    -0.011 N 
HETATM    8  C8  UNL     1      -5.938 -18.657  36.282  1.00  0.00     0.254 C 
ATOM      9  H12 UNL     1      -6.918 -17.066  37.250  1.00  0.00     0.284 HD
ATOM     10  H11 UNL     1      -5.425 -16.837  37.208  1.00  0.00     0.284 HD
HETATM   11  C9  UNL     1      -7.221 -18.754  35.502  1.00  0.00     0.081 C 
HETATM   12  C10 UNL     1      -4.810 -18.377  35.343  1.00  0.00     0.081 C 
HETATM   13  O1  UNL     1      -5.757 -19.835  36.997  1.00  0.00    -0.199 OA
HETATM   14  O2  UNL     1      -6.290 -19.651  38.185  1.00  0.00    -0.204 OA
ENDBRANCH   2   6
BRANCH   1  15
HETATM   15  C4  UNL     1      -7.158 -18.354  42.189  1.00  0.00     0.010 C 
BRANCH  15  16
HETATM   16  C2  UNL     1      -7.735 -19.508  42.980  1.00  0.00    -0.022 C 
HETATM   17  C1  UNL     1      -6.672 -20.218  43.797  1.00  0.00     0.009 C 
HETATM   18  C3  UNL     1      -8.895 -19.093  43.818  1.00  0.00     0.009 C 
ENDBRANCH  15  16
ENDBRANCH   1  15
TORSDOF 3
ENDMDL
MODEL 2
REMARK VINA RESULT: -5.725198933      2.945      6.093
REMARK  3 active torsions:
REMARK  status: ('A' for Active; 'I' for Inactive)
REMARK    1  A    between atoms: C2_2  and  C4_4 
REMARK    2  A    between atoms: C4_4  and  C5_5 
REMARK    3  A    between atoms: C6_6  and  C7_7 
ROOT
HETATM    1  C5  UNL     1      -4.292 -18.734  35.788  1.00  0.00     0.003 A 
HETATM    2  C6  UNL     1      -5.682 -18.600  35.274  1.00  0.00     0.058 A 
HETATM    3  C11 UNL     1      -5.012 -17.375  35.677  1.00  0.00    -0.035 A 
HETATM    4  C12 UNL     1      -5.184 -16.704  36.998  1.00  0.00     0.016 C 
HETATM    5  C13 UNL     1      -4.554 -16.431  34.564  1.00  0.00     0.016 C 
ENDROOT
BRANCH   2   6
HETATM    6  C7  UNL     1      -6.787 -19.243  36.069  1.00  0.00     0.367 C 
HETATM    7  N1  UNL     1      -7.922 -18.407  36.265  1.00  0.00    -0.011 N 
HETATM    8  C8  UNL     1      -8.442 -18.881  37.545  1.00  0.00     0.254 C 
ATOM      9  H12 UNL     1      -7.730 -17.406  36.223  1.00  0.00     0.284 HD
ATOM     10  H11 UNL     1      -8.596 -18.411  35.499  1.00  0.00     0.284 HD
HETATM   11  C9  UNL     1      -8.378 -17.770  38.557  1.00  0.00     0.081 C 
HETATM   12  C10 UNL     1      -9.851 -19.366  37.433  1.00  0.00     0.081 C 
HETATM   13  O1  UNL     1      -7.561 -19.886  37.927  1.00  0.00    -0.199 OA
HETATM   14  O2  UNL     1      -6.415 -19.641  37.328  1.00  0.00    -0.204 OA
ENDBRANCH   2   6
BRANCH   1  15
HETATM   15  C4  UNL     1      -3.109 -18.852  34.892  1.00  0.00     0.010 C 
BRANCH  15  16
HETATM   16  C2  UNL     1      -2.520 -20.238  35.034  1.00  0.00    -0.022 C 
HETATM   17  C1  UNL     1      -1.013 -20.231  34.857  1.00  0.00     0.009 C 
HETATM   18  C3  UNL     1      -2.925 -20.895  36.309  1.00  0.00     0.009 C 
ENDBRANCH  15  16
ENDBRANCH   1  15
TORSDOF 3
ENDMDL
MODEL 3
REMARK VINA RESULT: -5.677156451      2.502      5.746
REMARK  3 active torsions:
REMARK  status: ('A' for Active; 'I' for Inactive)
REMARK    1  A    between atoms: C2_2  and  C4_4 
REMARK    2  A    between atoms: C4_4  and  C5_5 
REMARK    3  A    between atoms: C6_6  and  C7_7 
ROOT
HETATM    1  C5  UNL     1      -6.442 -17.249  38.412  1.00  0.00     0.003 A 
HETATM    2  C6  UNL     1      -6.256 -18.348  39.398  1.00  0.00     0.058 A 
HETATM    3  C11 UNL     1      -6.622 -18.736  38.046  1.00  0.00    -0.035 A 
HETATM    4  C12 UNL     1      -8.008 -19.056  37.597  1.00  0.00     0.016 C 
HETATM    5  C13 UNL     1      -5.534 -19.381  37.187  1.00  0.00     0.016 C 
ENDROOT
BRANCH   2   6
HETATM    6  C7  UNL     1      -7.205 -18.407  40.566  1.00  0.00     0.367 C 
HETATM    7  N1  UNL     1      -6.573 -18.261  41.833  1.00  0.00    -0.011 N 
HETATM    8  C8  UNL     1      -7.447 -19.039  42.708  1.00  0.00     0.254 C 
ATOM      9  H12 UNL     1      -5.590 -18.531  41.857  1.00  0.00     0.284 HD
ATOM     10  H11 UNL     1      -6.418 -17.296  42.127  1.00  0.00     0.284 HD
HETATM   11  C9  UNL     1      -6.677 -20.193  43.291  1.00  0.00     0.081 C 
HETATM   12  C10 UNL     1      -8.010 -18.211  43.818  1.00  0.00     0.081 C 
HETATM   13  O1  UNL     1      -8.431 -19.537  41.863  1.00  0.00    -0.199 OA
HETATM   14  O2  UNL     1      -7.915 -19.578  40.653  1.00  0.00    -0.204 OA
ENDBRANCH   2   6
BRANCH   1  15
HETATM   15  C4  UNL     1      -5.305 -16.600  37.704  1.00  0.00     0.010 C 
BRANCH  15  16
HETATM   16  C2  UNL     1      -5.771 -15.278  37.133  1.00  0.00    -0.022 C 
HETATM   17  C1  UNL     1      -6.990 -15.446  36.247  1.00  0.00     0.009 C 
HETATM   18  C3  UNL     1      -5.992 -14.253  38.192  1.00  0.00     0.009 C 
ENDBRANCH  15  16
ENDBRANCH   1  15
TORSDOF 3
ENDMDL
MODEL 4
REMARK VINA RESULT: -5.610255611      2.618      5.287
REMARK  3 active torsions:
REMARK  status: ('A' for Active; 'I' for Inactive)
REMARK    1  A    between atoms: C2_2  and  C4_4 
REMARK    2  A    between atoms: C4_4  and  C5_5 
REMARK    3  A    between atoms: C6_6  and  C7_7 
ROOT
HETATM    1  C5  UNL     1      -6.768 -16.047  38.825  1.00  0.00     0.003 A 
HETATM    2  C6  UNL     1      -5.914 -17.248  39.030  1.00  0.00     0.058 A 
HETATM    3  C11 UNL     1      -6.355 -16.983  37.671  1.00  0.00    -0.035 A 
HETATM    4  C12 UNL     1      -7.523 -17.636  37.012  1.00  0.00     0.016 C 
HETATM    5  C13 UNL     1      -5.309 -16.458  36.687  1.00  0.00     0.016 C 
ENDROOT
BRANCH   2   6
HETATM    6  C7  UNL     1      -6.464 -18.362  39.881  1.00  0.00     0.367 C 
HETATM    7  N1  UNL     1      -7.626 -18.005  40.621  1.00  0.00    -0.011 N 
HETATM    8  C8  UNL     1      -7.519 -18.861  41.801  1.00  0.00     0.254 C 
ATOM      9  H12 UNL     1      -7.720 -17.009  40.820  1.00  0.00     0.284 HD
ATOM     10  H11 UNL     1      -8.504 -18.087  40.108  1.00  0.00     0.284 HD
HETATM   11  C9  UNL     1      -7.380 -18.007  43.031  1.00  0.00     0.081 C 
HETATM   12  C10 UNL     1      -8.706 -19.757  41.952  1.00  0.00     0.081 C 
HETATM   13  O1  UNL     1      -6.338 -19.568  41.610  1.00  0.00    -0.199 OA
HETATM   14  O2  UNL     1      -5.580 -18.846  40.812  1.00  0.00    -0.204 OA
ENDBRANCH   2   6
BRANCH   1  15
HETATM   15  C4  UNL     1      -6.212 -14.672  38.700  1.00  0.00     0.010 C 
BRANCH  15  16
HETATM   16  C2  UNL     1      -6.991 -13.743  39.604  1.00  0.00    -0.022 C 
HETATM   17  C1  UNL     1      -7.125 -12.356  39.004  1.00  0.00     0.009 C 
HETATM   18  C3  UNL     1      -8.313 -14.309  39.993  1.00  0.00     0.009 C 
ENDBRANCH  15  16
ENDBRANCH   1  15
TORSDOF 3
ENDMDL
MODEL 5
REMARK VINA RESULT: -5.595905631      3.110      3.660
REMARK  3 active torsions:
REMARK  status: ('A' for Active; 'I' for Inactive)
REMARK    1  A    between atoms: C2_2  and  C4_4 
REMARK    2  A    between atoms: C4_4  and  C5_5 
REMARK    3  A    between atoms: C6_6  and  C7_7 
ROOT
HETATM    1  C5  UNL     1      -9.123 -18.968  40.882  1.00  0.00     0.003 A 
HETATM    2  C6  UNL     1      -9.288 -18.369  39.530  1.00  0.00     0.058 A 
HETATM    3  C11 UNL     1      -9.570 -17.508  40.666  1.00  0.00    -0.035 A 
HETATM    4  C12 UNL     1     -10.932 -17.235  41.211  1.00  0.00     0.016 C 
HETATM    5  C13 UNL     1      -8.551 -16.413  40.981  1.00  0.00     0.016 C 
ENDROOT
BRANCH   2   6
HETATM    6  C7  UNL     1     -10.355 -18.942  38.635  1.00  0.00     0.367 C 
HETATM    7  N1  UNL     1      -9.883 -19.940  37.737  1.00  0.00    -0.011 N 
HETATM    8  C8  UNL     1     -10.790 -19.790  36.601  1.00  0.00     0.254 C 
ATOM      9  H12 UNL     1      -8.892 -19.877  37.507  1.00  0.00     0.284 HD
ATOM     10  H11 UNL     1      -9.834 -20.882  38.127  1.00  0.00     0.284 HD
HETATM   11  C9  UNL     1     -10.007 -19.381  35.383  1.00  0.00     0.081 C 
HETATM   12  C10 UNL     1     -11.534 -21.053  36.308  1.00  0.00     0.081 C 
HETATM   13  O1  UNL     1     -11.632 -18.746  36.964  1.00  0.00    -0.199 OA
HETATM   14  O2  UNL     1     -10.982 -18.014  37.843  1.00  0.00    -0.204 OA
ENDBRANCH   2   6
BRANCH   1  15
HETATM   15  C4  UNL     1      -7.802 -19.089  41.556  1.00  0.00     0.010 C 
BRANCH  15  16
HETATM   16  C2  UNL     1      -7.984 -19.817  42.869  1.00  0.00    -0.022 C 
HETATM   17  C1  UNL     1      -6.653 -20.192  43.495  1.00  0.00     0.009 C 
HETATM   18  C3  UNL     1      -8.849 -19.061  43.818  1.00  0.00     0.009 C 
ENDBRANCH  15  16
ENDBRANCH   1  15
TORSDOF 3
ENDMDL
