MODEL 1
REMARK VINA RESULT: -7.279623698      0.000      0.000
REMARK  3 active torsions:
REMARK  status: ('A' for Active; 'I' for Inactive)
REMARK    1  A    between atoms: C1_2  and  C2_3 
REMARK       I    between atoms: C1_2  and  N1_10 
REMARK    2  A    between atoms: C2_3  and  C3_4 
REMARK    3  A    between atoms: C3_4  and  C4_5 
ROOT
HETATM    1  O1  UNL     1      -2.747 -21.011  36.014  1.00  0.00    -0.273 OA
HETATM    2  C1  UNL     1      -1.646 -20.835  35.446  1.00  0.00     0.219 C 
HETATM    3  N1  UNL     1      -0.614 -21.784  35.715  1.00  0.00    -0.352 N 
HETATM    4  C7  UNL     1       0.683 -21.608  35.100  1.00  0.00     0.125 C 
HETATM    5  C8  UNL     1       1.739 -21.895  36.176  1.00  0.00     0.020 C 
HETATM    6  C9  UNL     1       1.536 -23.332  36.606  1.00  0.00     0.003 C 
HETATM    7  C10 UNL     1       0.263 -23.331  37.441  1.00  0.00     0.020 C 
HETATM    8  C11 UNL     1      -0.895 -22.906  36.585  1.00  0.00     0.125 C 
ENDROOT
BRANCH   2   9
HETATM    9  C2  UNL     1      -1.407 -19.706  34.543  1.00  0.00     0.104 C 
BRANCH   9  10
HETATM   10  C3  UNL     1      -2.569 -19.174  33.796  1.00  0.00     0.025 C 
BRANCH  10  11
HETATM   11  C4  UNL     1      -3.225 -17.943  34.240  1.00  0.00     0.060 C 
HETATM   12  C5  UNL     1      -3.743 -17.193  32.992  1.00  0.00     0.027 C 
HETATM   13  C6  UNL     1      -4.080 -15.777  33.470  1.00  0.00     0.087 C 
HETATM   14  S1  UNL     1      -5.518 -16.132  34.577  1.00  0.00    -0.097 SA
HETATM   15  S2  UNL     1      -4.754 -18.076  35.178  1.00  0.00    -0.093 SA
ENDBRANCH  10  11
ENDBRANCH   9  10
ENDBRANCH   2   9
TORSDOF 3
ENDMDL
MODEL 2
REMARK VINA RESULT: -7.181323466      1.175      1.329
REMARK  3 active torsions:
REMARK  status: ('A' for Active; 'I' for Inactive)
REMARK    1  A    between atoms: C1_2  and  C2_3 
REMARK       I    between atoms: C1_2  and  N1_10 
REMARK    2  A    between atoms: C2_3  and  C3_4 
REMARK    3  A    between atoms: C3_4  and  C4_5 
ROOT
HETATM    1  O1  UNL     1      -2.730 -21.080  36.021  1.00  0.00    -0.273 OA
HETATM    2  C1  UNL     1      -1.676 -20.981  35.352  1.00  0.00     0.219 C 
HETATM    3  N1  UNL     1      -0.612 -21.876  35.676  1.00  0.00    -0.352 N 
HETATM    4  C7  UNL     1       0.632 -21.783  34.946  1.00  0.00     0.125 C 
HETATM    5  C8  UNL     1       1.770 -21.906  35.970  1.00  0.00     0.020 C 
HETATM    6  C9  UNL     1       1.623 -23.267  36.616  1.00  0.00     0.003 C 
HETATM    7  C10 UNL     1       0.414 -23.153  37.535  1.00  0.00     0.020 C 
HETATM    8  C11 UNL     1      -0.810 -22.862  36.716  1.00  0.00     0.125 C 
ENDROOT
BRANCH   2   9
HETATM    9  C2  UNL     1      -1.523 -19.993  34.282  1.00  0.00     0.104 C 
BRANCH   9  10
HETATM   10  C3  UNL     1      -2.163 -18.672  34.479  1.00  0.00     0.025 C 
BRANCH  10  11
HETATM   11  C4  UNL     1      -3.463 -18.389  33.868  1.00  0.00     0.060 C 
HETATM   12  C5  UNL     1      -4.442 -17.970  34.987  1.00  0.00     0.027 C 
HETATM   13  C6  UNL     1      -5.840 -18.043  34.364  1.00  0.00     0.087 C 
HETATM   14  S1  UNL     1      -5.730 -16.664  33.137  1.00  0.00    -0.097 SA
HETATM   15  S2  UNL     1      -3.608 -16.963  32.781  1.00  0.00    -0.093 SA
ENDBRANCH  10  11
ENDBRANCH   9  10
ENDBRANCH   2   9
TORSDOF 3
ENDMDL
MODEL 3
REMARK VINA RESULT: -6.738035194      2.333      2.988
REMARK  3 active torsions:
REMARK  status: ('A' for Active; 'I' for Inactive)
REMARK    1  A    between atoms: C1_2  and  C2_3 
REMARK       I    between atoms: C1_2  and  N1_10 
REMARK    2  A    between atoms: C2_3  and  C3_4 
REMARK    3  A    between atoms: C3_4  and  C4_5 
ROOT
HETATM    1  O1  UNL     1      -2.011 -20.090  34.854  1.00  0.00    -0.273 OA
HETATM    2  C1  UNL     1      -2.067 -21.035  35.674  1.00  0.00     0.219 C 
HETATM    3  N1  UNL     1      -0.860 -21.756  35.921  1.00  0.00    -0.352 N 
HETATM    4  C7  UNL     1      -0.881 -22.870  36.841  1.00  0.00     0.125 C 
HETATM    5  C8  UNL     1      -0.057 -24.000  36.207  1.00  0.00     0.020 C 
HETATM    6  C9  UNL     1       1.348 -23.465  36.038  1.00  0.00     0.003 C 
HETATM    7  C10 UNL     1       1.273 -22.476  34.883  1.00  0.00     0.020 C 
HETATM    8  C11 UNL     1       0.358 -21.345  35.255  1.00  0.00     0.125 C 
ENDROOT
BRANCH   2   9
HETATM    9  C2  UNL     1      -3.310 -21.401  36.356  1.00  0.00     0.104 C 
BRANCH   9  10
HETATM   10  C3  UNL     1      -4.068 -20.316  37.020  1.00  0.00     0.025 C 
BRANCH  10  11
HETATM   11  C4  UNL     1      -5.201 -19.690  36.338  1.00  0.00     0.060 C 
HETATM   12  C5  UNL     1      -6.211 -19.219  37.408  1.00  0.00     0.027 C 
HETATM   13  C6  UNL     1      -7.508 -18.916  36.649  1.00  0.00     0.087 C 
HETATM   14  S1  UNL     1      -6.978 -17.446  35.661  1.00  0.00    -0.097 SA
HETATM   15  S2  UNL     1      -4.927 -18.138  35.469  1.00  0.00    -0.093 SA
ENDBRANCH  10  11
ENDBRANCH   9  10
ENDBRANCH   2   9
TORSDOF 3
ENDMDL
MODEL 4
REMARK VINA RESULT: -6.357212504      2.026      2.603
REMARK  3 active torsions:
REMARK  status: ('A' for Active; 'I' for Inactive)
REMARK    1  A    between atoms: C1_2  and  C2_3 
REMARK       I    between atoms: C1_2  and  N1_10 
REMARK    2  A    between atoms: C2_3  and  C3_4 
REMARK    3  A    between atoms: C3_4  and  C4_5 
ROOT
HETATM    1  O1  UNL     1      -2.040 -20.065  34.855  1.00  0.00    -0.273 OA
HETATM    2  C1  UNL     1      -2.014 -20.937  35.752  1.00  0.00     0.219 C 
HETATM    3  N1  UNL     1      -0.825 -21.717  35.870  1.00  0.00    -0.352 N 
HETATM    4  C7  UNL     1      -0.758 -22.753  36.876  1.00  0.00     0.125 C 
HETATM    5  C8  UNL     1      -0.110 -23.982  36.222  1.00  0.00     0.020 C 
HETATM    6  C9  UNL     1       1.277 -23.558  35.791  1.00  0.00     0.003 C 
HETATM    7  C10 UNL     1       1.071 -22.658  34.580  1.00  0.00     0.020 C 
HETATM    8  C11 UNL     1       0.291 -21.443  34.989  1.00  0.00     0.125 C 
ENDROOT
BRANCH   2   9
HETATM    9  C2  UNL     1      -3.150 -21.165  36.649  1.00  0.00     0.104 C 
BRANCH   9  10
HETATM   10  C3  UNL     1      -4.440 -20.536  36.287  1.00  0.00     0.025 C 
BRANCH  10  11
HETATM   11  C4  UNL     1      -4.768 -19.197  36.781  1.00  0.00     0.060 C 
HETATM   12  C5  UNL     1      -5.060 -18.290  35.565  1.00  0.00     0.027 C 
HETATM   13  C6  UNL     1      -5.033 -16.855  36.102  1.00  0.00     0.087 C 
HETATM   14  S1  UNL     1      -6.530 -16.878  37.187  1.00  0.00    -0.097 SA
HETATM   15  S2  UNL     1      -6.295 -18.975  37.707  1.00  0.00    -0.093 SA
ENDBRANCH  10  11
ENDBRANCH   9  10
ENDBRANCH   2   9
TORSDOF 3
ENDMDL
MODEL 5
REMARK VINA RESULT: -6.294567288      3.627      6.928
REMARK  3 active torsions:
REMARK  status: ('A' for Active; 'I' for Inactive)
REMARK    1  A    between atoms: C1_2  and  C2_3 
REMARK       I    between atoms: C1_2  and  N1_10 
REMARK    2  A    between atoms: C2_3  and  C3_4 
REMARK    3  A    between atoms: C3_4  and  C4_5 
ROOT
HETATM    1  O1  UNL     1      -4.612 -21.013  37.450  1.00  0.00    -0.273 OA
HETATM    2  C1  UNL     1      -4.103 -20.287  36.567  1.00  0.00     0.219 C 
HETATM    3  N1  UNL     1      -4.833 -19.125  36.176  1.00  0.00    -0.352 N 
HETATM    4  C7  UNL     1      -4.296 -18.269  35.143  1.00  0.00     0.125 C 
HETATM    5  C8  UNL     1      -5.459 -17.890  34.215  1.00  0.00     0.020 C 
HETATM    6  C9  UNL     1      -6.463 -17.144  35.066  1.00  0.00     0.003 C 
HETATM    7  C10 UNL     1      -7.122 -18.201  35.942  1.00  0.00     0.020 C 
HETATM    8  C11 UNL     1      -6.087 -18.824  36.834  1.00  0.00     0.125 C 
ENDROOT
BRANCH   2   9
HETATM    9  C2  UNL     1      -2.814 -20.604  35.946  1.00  0.00     0.104 C 
BRANCH   9  10
HETATM   10  C3  UNL     1      -2.190 -21.900  36.296  1.00  0.00     0.025 C 
BRANCH  10  11
HETATM   11  C4  UNL     1      -0.732 -22.022  36.347  1.00  0.00     0.060 C 
HETATM   12  C5  UNL     1      -0.370 -23.523  36.296  1.00  0.00     0.027 C 
HETATM   13  C6  UNL     1       1.102 -23.609  36.715  1.00  0.00     0.087 C 
HETATM   14  S1  UNL     1       1.905 -22.766  35.278  1.00  0.00    -0.097 SA
HETATM   15  S2  UNL     1       0.227 -21.426  34.946  1.00  0.00    -0.093 SA
ENDBRANCH  10  11
ENDBRANCH   9  10
ENDBRANCH   2   9
TORSDOF 3
ENDMDL
