MODEL 1
REMARK VINA RESULT: -6.965238206      0.000      0.000
REMARK  12 active torsions:
REMARK  status: ('A' for Active; 'I' for Inactive)
REMARK    1  A    between atoms: C2_2  and  O2_4 
REMARK    2  A    between atoms: O2_4  and  C3_5 
REMARK    3  A    between atoms: C4_8  and  S1_9 
REMARK    4  A    between atoms: S1_9  and  N2_10 
REMARK    5  A    between atoms: C6_16  and  N3_17 
REMARK    6  A    between atoms: C7_20  and  N4_21 
REMARK    7  A    between atoms: N4_21  and  N5_23 
REMARK    8  A    between atoms: N5_23  and  C8_25 
REMARK    9  A    between atoms: C8_25  and  N6_27 
REMARK   10  A    between atoms: N6_27  and  C9_29 
REMARK   11  A    between atoms: C9_29  and  C10_30 
REMARK   12  A    between atoms: C10_30  and  O7_31 
ROOT
HETATM    1  C3  UNL     1     -63.803  30.694  -8.478  1.00  0.00     0.183 A 
HETATM    2  N1  UNL     1     -62.932  31.507  -9.141  1.00  0.00    -0.324 N 
ATOM      3  H1  UNL     1     -63.232  31.926 -10.022  1.00  0.00     0.169 HD
HETATM    4  C4  UNL     1     -61.697  31.782  -8.688  1.00  0.00     0.153 A 
HETATM    5  C5  UNL     1     -61.324  31.205  -7.500  1.00  0.00     0.082 A 
HETATM    6  C6  UNL     1     -62.175  30.368  -6.785  1.00  0.00     0.138 A 
HETATM    7  C7  UNL     1     -63.443  30.108  -7.285  1.00  0.00     0.133 A 
ENDROOT
BRANCH   7   8
HETATM    8  N4  UNL     1     -64.324  29.259  -6.532  1.00  0.00    -0.292 N 
ATOM      9  H4  UNL     1     -64.663  29.553  -5.616  1.00  0.00     0.187 HD
BRANCH   8  10
HETATM   10  N5  UNL     1     -64.710  28.032  -7.065  1.00  0.00    -0.276 N 
ATOM     11  H5  UNL     1     -64.051  27.538  -7.666  1.00  0.00     0.189 HD
BRANCH  10  12
HETATM   12  C8  UNL     1     -65.984  27.427  -6.813  1.00  0.00     0.186 C 
HETATM   13  S2  UNL     1     -66.349  26.113  -7.703  1.00  0.00    -0.040 SA
BRANCH  12  14
HETATM   14  N6  UNL     1     -66.852  27.970  -5.854  1.00  0.00    -0.364 N 
ATOM     15  H6  UNL     1     -66.591  27.897  -4.871  1.00  0.00     0.162 HD
BRANCH  14  16
HETATM   16  C9  UNL     1     -68.094  28.628  -6.183  1.00  0.00     0.148 C 
BRANCH  16  17
HETATM   17  C10 UNL     1     -67.870  29.636  -7.270  1.00  0.00     0.183 C 
BRANCH  17  18
HETATM   18  O7  UNL     1     -66.964  30.624  -6.844  1.00  0.00    -0.399 OA
ATOM     19  H7  UNL     1     -66.582  31.068  -7.592  1.00  0.00     0.209 HD
ENDBRANCH  17  18
ENDBRANCH  16  17
ENDBRANCH  14  16
ENDBRANCH  12  14
ENDBRANCH  10  12
ENDBRANCH   8  10
ENDBRANCH   7   8
BRANCH   1  20
HETATM   20  O2  UNL     1     -65.060  30.463  -9.018  1.00  0.00    -0.259 OA
BRANCH  20  21
HETATM   21  C2  UNL     1     -65.259  29.680 -10.127  1.00  0.00     0.261 C 
HETATM   22  C1  UNL     1     -65.952  30.182 -11.351  1.00  0.00     0.126 C 
HETATM   23  O1  UNL     1     -64.854  28.500 -10.133  1.00  0.00    -0.265 OA
ENDBRANCH  20  21
ENDBRANCH   1  20
BRANCH   6  24
HETATM   24  N3  UNL     1     -61.723  29.796  -5.578  1.00  0.00    -0.113 N 
HETATM   25  O5  UNL     1     -61.162  30.512  -4.745  1.00  0.00    -0.532 OA
HETATM   26  O6  UNL     1     -61.906  28.474  -5.324  1.00  0.00    -0.532 OA
ENDBRANCH   6  24
BRANCH   4  27
HETATM   27  S1  UNL     1     -60.605  32.811  -9.581  1.00  0.00     0.272 S 
HETATM   28  O3  UNL     1     -59.279  32.207  -9.829  1.00  0.00    -0.199 OA
HETATM   29  O4  UNL     1     -60.421  34.118  -8.839  1.00  0.00    -0.199 OA
BRANCH  27  30
HETATM   30  N2  UNL     1     -61.402  33.252 -11.069  1.00  0.00    -0.323 N 
ATOM     31  H22 UNL     1     -62.402  33.420 -11.178  1.00  0.00     0.169 HD
ATOM     32  H21 UNL     1     -60.686  33.309 -11.794  1.00  0.00     0.169 HD
ENDBRANCH  27  30
ENDBRANCH   4  27
TORSDOF 12
ENDMDL
MODEL 2
REMARK VINA RESULT: -6.959822816      2.824      5.874
REMARK  12 active torsions:
REMARK  status: ('A' for Active; 'I' for Inactive)
REMARK    1  A    between atoms: C2_2  and  O2_4 
REMARK    2  A    between atoms: O2_4  and  C3_5 
REMARK    3  A    between atoms: C4_8  and  S1_9 
REMARK    4  A    between atoms: S1_9  and  N2_10 
REMARK    5  A    between atoms: C6_16  and  N3_17 
REMARK    6  A    between atoms: C7_20  and  N4_21 
REMARK    7  A    between atoms: N4_21  and  N5_23 
REMARK    8  A    between atoms: N5_23  and  C8_25 
REMARK    9  A    between atoms: C8_25  and  N6_27 
REMARK   10  A    between atoms: N6_27  and  C9_29 
REMARK   11  A    between atoms: C9_29  and  C10_30 
REMARK   12  A    between atoms: C10_30  and  O7_31 
ROOT
HETATM    1  C3  UNL     1     -64.764  30.432  -8.241  1.00  0.00     0.183 A 
HETATM    2  N1  UNL     1     -65.677  30.391  -9.253  1.00  0.00    -0.324 N 
ATOM      3  H1  UNL     1     -65.616  31.093  -9.990  1.00  0.00     0.169 HD
HETATM    4  C4  UNL     1     -66.652  29.469  -9.323  1.00  0.00     0.153 A 
HETATM    5  C5  UNL     1     -66.706  28.538  -8.316  1.00  0.00     0.082 A 
HETATM    6  C6  UNL     1     -65.800  28.536  -7.261  1.00  0.00     0.138 A 
HETATM    7  C7  UNL     1     -64.806  29.503  -7.224  1.00  0.00     0.133 A 
ENDROOT
BRANCH   7   8
HETATM    8  N4  UNL     1     -63.860  29.484  -6.142  1.00  0.00    -0.292 N 
ATOM      9  H4  UNL     1     -64.146  29.764  -5.204  1.00  0.00     0.187 HD
BRANCH   8  10
HETATM   10  N5  UNL     1     -62.550  29.079  -6.387  1.00  0.00    -0.276 N 
ATOM     11  H5  UNL     1     -62.402  28.215  -6.908  1.00  0.00     0.189 HD
BRANCH  10  12
HETATM   12  C8  UNL     1     -61.401  29.811  -5.947  1.00  0.00     0.186 C 
HETATM   13  S2  UNL     1     -60.228  30.050  -7.050  1.00  0.00    -0.040 SA
BRANCH  12  14
HETATM   14  N6  UNL     1     -61.316  30.272  -4.624  1.00  0.00    -0.364 N 
ATOM     15  H6  UNL     1     -62.130  30.739  -4.223  1.00  0.00     0.162 HD
BRANCH  14  16
HETATM   16  C9  UNL     1     -60.142  30.122  -3.800  1.00  0.00     0.148 C 
BRANCH  16  17
HETATM   17  C10 UNL     1     -59.920  28.674  -3.478  1.00  0.00     0.183 C 
BRANCH  17  18
HETATM   18  O7  UNL     1     -61.117  28.082  -3.032  1.00  0.00    -0.399 OA
ATOM     19  H7  UNL     1     -61.633  27.783  -3.771  1.00  0.00     0.209 HD
ENDBRANCH  17  18
ENDBRANCH  16  17
ENDBRANCH  14  16
ENDBRANCH  12  14
ENDBRANCH  10  12
ENDBRANCH   8  10
ENDBRANCH   7   8
BRANCH   1  20
HETATM   20  O2  UNL     1     -63.790  31.418  -8.245  1.00  0.00    -0.259 OA
BRANCH  20  21
HETATM   21  C2  UNL     1     -62.785  31.465  -9.178  1.00  0.00     0.261 C 
HETATM   22  C1  UNL     1     -62.036  32.720  -9.491  1.00  0.00     0.126 C 
HETATM   23  O1  UNL     1     -62.468  30.431  -9.800  1.00  0.00    -0.265 OA
ENDBRANCH  20  21
ENDBRANCH   1  20
BRANCH   6  24
HETATM   24  N3  UNL     1     -65.921  27.559  -6.252  1.00  0.00    -0.113 N 
HETATM   25  O5  UNL     1     -67.012  27.391  -5.703  1.00  0.00    -0.532 OA
HETATM   26  O6  UNL     1     -64.855  26.799  -5.889  1.00  0.00    -0.532 OA
ENDBRANCH   6  24
BRANCH   4  27
HETATM   27  S1  UNL     1     -67.815  29.468 -10.625  1.00  0.00     0.272 S 
HETATM   28  O3  UNL     1     -68.302  30.813 -10.997  1.00  0.00    -0.199 OA
HETATM   29  O4  UNL     1     -68.998  28.602 -10.246  1.00  0.00    -0.199 OA
BRANCH  27  30
HETATM   30  N2  UNL     1     -67.082  28.649 -11.981  1.00  0.00    -0.323 N 
ATOM     31  H22 UNL     1     -66.370  29.043 -12.595  1.00  0.00     0.169 HD
ATOM     32  H21 UNL     1     -67.497  27.720 -12.037  1.00  0.00     0.169 HD
ENDBRANCH  27  30
ENDBRANCH   4  27
TORSDOF 12
ENDMDL
MODEL 3
REMARK VINA RESULT: -6.825229068      2.927      5.117
REMARK  12 active torsions:
REMARK  status: ('A' for Active; 'I' for Inactive)
REMARK    1  A    between atoms: C2_2  and  O2_4 
REMARK    2  A    between atoms: O2_4  and  C3_5 
REMARK    3  A    between atoms: C4_8  and  S1_9 
REMARK    4  A    between atoms: S1_9  and  N2_10 
REMARK    5  A    between atoms: C6_16  and  N3_17 
REMARK    6  A    between atoms: C7_20  and  N4_21 
REMARK    7  A    between atoms: N4_21  and  N5_23 
REMARK    8  A    between atoms: N5_23  and  C8_25 
REMARK    9  A    between atoms: C8_25  and  N6_27 
REMARK   10  A    between atoms: N6_27  and  C9_29 
REMARK   11  A    between atoms: C9_29  and  C10_30 
REMARK   12  A    between atoms: C10_30  and  O7_31 
ROOT
HETATM    1  C3  UNL     1     -60.399  30.021  -7.450  1.00  0.00     0.183 A 
HETATM    2  N1  UNL     1     -59.205  29.670  -8.009  1.00  0.00    -0.324 N 
ATOM      3  H1  UNL     1     -58.748  28.818  -7.684  1.00  0.00     0.169 HD
HETATM    4  C4  UNL     1     -58.604  30.395  -8.967  1.00  0.00     0.153 A 
HETATM    5  C5  UNL     1     -59.244  31.536  -9.383  1.00  0.00     0.082 A 
HETATM    6  C6  UNL     1     -60.463  31.938  -8.846  1.00  0.00     0.138 A 
HETATM    7  C7  UNL     1     -61.053  31.162  -7.859  1.00  0.00     0.133 A 
ENDROOT
BRANCH   7   8
HETATM    8  N4  UNL     1     -62.321  31.572  -7.321  1.00  0.00    -0.292 N 
ATOM      9  H4  UNL     1     -62.481  32.546  -7.067  1.00  0.00     0.187 HD
BRANCH   8  10
HETATM   10  N5  UNL     1     -63.329  30.626  -7.151  1.00  0.00    -0.276 N 
ATOM     11  H5  UNL     1     -63.327  30.067  -6.298  1.00  0.00     0.189 HD
BRANCH  10  12
HETATM   12  C8  UNL     1     -64.367  30.395  -8.111  1.00  0.00     0.186 C 
HETATM   13  S2  UNL     1     -65.364  29.143  -7.812  1.00  0.00    -0.040 SA
BRANCH  12  14
HETATM   14  N6  UNL     1     -64.483  31.215  -9.244  1.00  0.00    -0.364 N 
ATOM     15  H6  UNL     1     -64.273  32.209  -9.143  1.00  0.00     0.162 HD
BRANCH  14  16
HETATM   16  C9  UNL     1     -64.881  30.731 -10.543  1.00  0.00     0.148 C 
BRANCH  16  17
HETATM   17  C10 UNL     1     -65.482  31.846 -11.346  1.00  0.00     0.183 C 
BRANCH  17  18
HETATM   18  O7  UNL     1     -64.486  32.762 -11.735  1.00  0.00    -0.399 OA
ATOM     19  H7  UNL     1     -64.872  33.607 -11.929  1.00  0.00     0.209 HD
ENDBRANCH  17  18
ENDBRANCH  16  17
ENDBRANCH  14  16
ENDBRANCH  12  14
ENDBRANCH  10  12
ENDBRANCH   8  10
ENDBRANCH   7   8
BRANCH   1  20
HETATM   20  O2  UNL     1     -60.949  29.214  -6.465  1.00  0.00    -0.259 OA
BRANCH  20  21
HETATM   21  C2  UNL     1     -60.445  29.150  -5.191  1.00  0.00     0.261 C 
HETATM   22  C1  UNL     1     -61.099  28.357  -4.107  1.00  0.00     0.126 C 
HETATM   23  O1  UNL     1     -59.401  29.771  -4.905  1.00  0.00    -0.265 OA
ENDBRANCH  20  21
ENDBRANCH   1  20
BRANCH   6  24
HETATM   24  N3  UNL     1     -61.059  33.128  -9.309  1.00  0.00    -0.113 N 
HETATM   25  O5  UNL     1     -60.471  34.200  -9.149  1.00  0.00    -0.532 OA
HETATM   26  O6  UNL     1     -62.265  33.102  -9.935  1.00  0.00    -0.532 OA
ENDBRANCH   6  24
BRANCH   4  27
HETATM   27  S1  UNL     1     -57.063  29.922  -9.639  1.00  0.00     0.272 S 
HETATM   28  O3  UNL     1     -57.165  28.953 -10.750  1.00  0.00    -0.199 OA
HETATM   29  O4  UNL     1     -56.197  29.330  -8.546  1.00  0.00    -0.199 OA
BRANCH  27  30
HETATM   30  N2  UNL     1     -56.234  31.377 -10.124  1.00  0.00    -0.323 N 
ATOM     31  H22 UNL     1     -56.458  32.320  -9.807  1.00  0.00     0.169 HD
ATOM     32  H21 UNL     1     -55.496  31.106 -10.774  1.00  0.00     0.169 HD
ENDBRANCH  27  30
ENDBRANCH   4  27
TORSDOF 12
ENDMDL
MODEL 4
REMARK VINA RESULT: -6.821407529      1.397      3.562
REMARK  12 active torsions:
REMARK  status: ('A' for Active; 'I' for Inactive)
REMARK    1  A    between atoms: C2_2  and  O2_4 
REMARK    2  A    between atoms: O2_4  and  C3_5 
REMARK    3  A    between atoms: C4_8  and  S1_9 
REMARK    4  A    between atoms: S1_9  and  N2_10 
REMARK    5  A    between atoms: C6_16  and  N3_17 
REMARK    6  A    between atoms: C7_20  and  N4_21 
REMARK    7  A    between atoms: N4_21  and  N5_23 
REMARK    8  A    between atoms: N5_23  and  C8_25 
REMARK    9  A    between atoms: C8_25  and  N6_27 
REMARK   10  A    between atoms: N6_27  and  C9_29 
REMARK   11  A    between atoms: C9_29  and  C10_30 
REMARK   12  A    between atoms: C10_30  and  O7_31 
ROOT
HETATM    1  C3  UNL     1     -62.446  30.646  -6.731  1.00  0.00     0.183 A 
HETATM    2  N1  UNL     1     -61.598  31.432  -7.454  1.00  0.00    -0.324 N 
ATOM      3  H1  UNL     1     -60.729  31.740  -7.018  1.00  0.00     0.169 HD
HETATM    4  C4  UNL     1     -61.856  31.821  -8.715  1.00  0.00     0.153 A 
HETATM    5  C5  UNL     1     -63.032  31.390  -9.274  1.00  0.00     0.082 A 
HETATM    6  C6  UNL     1     -63.932  30.587  -8.579  1.00  0.00     0.138 A 
HETATM    7  C7  UNL     1     -63.631  30.206  -7.280  1.00  0.00     0.133 A 
ENDROOT
BRANCH   7   8
HETATM    8  N4  UNL     1     -64.553  29.361  -6.575  1.00  0.00    -0.292 N 
ATOM      9  H4  UNL     1     -65.210  29.762  -5.905  1.00  0.00     0.187 HD
BRANCH   8  10
HETATM   10  N5  UNL     1     -64.544  27.989  -6.814  1.00  0.00    -0.276 N 
ATOM     11  H5  UNL     1     -63.653  27.543  -7.032  1.00  0.00     0.189 HD
BRANCH  10  12
HETATM   12  C8  UNL     1     -65.718  27.170  -6.771  1.00  0.00     0.186 C 
HETATM   13  S2  UNL     1     -65.622  25.811  -5.880  1.00  0.00    -0.040 SA
BRANCH  12  14
HETATM   14  N6  UNL     1     -66.869  27.541  -7.483  1.00  0.00    -0.364 N 
ATOM     15  H6  UNL     1     -66.759  27.858  -8.446  1.00  0.00     0.162 HD
BRANCH  14  16
HETATM   16  C9  UNL     1     -68.200  27.499  -6.927  1.00  0.00     0.148 C 
BRANCH  16  17
HETATM   17  C10 UNL     1     -68.344  28.541  -5.858  1.00  0.00     0.183 C 
BRANCH  17  18
HETATM   18  O7  UNL     1     -68.289  29.830  -6.419  1.00  0.00    -0.399 OA
ATOM     19  H7  UNL     1     -69.157  30.111  -6.686  1.00  0.00     0.209 HD
ENDBRANCH  17  18
ENDBRANCH  16  17
ENDBRANCH  14  16
ENDBRANCH  12  14
ENDBRANCH  10  12
ENDBRANCH   8  10
ENDBRANCH   7   8
BRANCH   1  20
HETATM   20  O2  UNL     1     -62.103  30.292  -5.435  1.00  0.00    -0.259 OA
BRANCH  20  21
HETATM   21  C2  UNL     1     -61.412  29.145  -5.137  1.00  0.00     0.261 C 
HETATM   22  C1  UNL     1     -59.949  29.143  -4.835  1.00  0.00     0.126 C 
HETATM   23  O1  UNL     1     -62.010  28.050  -5.112  1.00  0.00    -0.265 OA
ENDBRANCH  20  21
ENDBRANCH   1  20
BRANCH   6  24
HETATM   24  N3  UNL     1     -65.129  30.192  -9.209  1.00  0.00    -0.113 N 
HETATM   25  O5  UNL     1     -65.096  29.802 -10.379  1.00  0.00    -0.532 OA
HETATM   26  O6  UNL     1     -66.311  30.229  -8.540  1.00  0.00    -0.532 OA
ENDBRANCH   6  24
BRANCH   4  27
HETATM   27  S1  UNL     1     -60.753  32.847  -9.596  1.00  0.00     0.272 S 
HETATM   28  O3  UNL     1     -59.431  32.234  -9.848  1.00  0.00    -0.199 OA
HETATM   29  O4  UNL     1     -60.558  34.146  -8.841  1.00  0.00    -0.199 OA
BRANCH  27  30
HETATM   30  N2  UNL     1     -61.542  33.311 -11.081  1.00  0.00    -0.323 N 
ATOM     31  H22 UNL     1     -62.420  33.825 -11.149  1.00  0.00     0.169 HD
ATOM     32  H21 UNL     1     -60.965  32.975 -11.852  1.00  0.00     0.169 HD
ENDBRANCH  27  30
ENDBRANCH   4  27
TORSDOF 12
ENDMDL
MODEL 5
REMARK VINA RESULT: -6.800036303      2.462      4.678
REMARK  12 active torsions:
REMARK  status: ('A' for Active; 'I' for Inactive)
REMARK    1  A    between atoms: C2_2  and  O2_4 
REMARK    2  A    between atoms: O2_4  and  C3_5 
REMARK    3  A    between atoms: C4_8  and  S1_9 
REMARK    4  A    between atoms: S1_9  and  N2_10 
REMARK    5  A    between atoms: C6_16  and  N3_17 
REMARK    6  A    between atoms: C7_20  and  N4_21 
REMARK    7  A    between atoms: N4_21  and  N5_23 
REMARK    8  A    between atoms: N5_23  and  C8_25 
REMARK    9  A    between atoms: C8_25  and  N6_27 
REMARK   10  A    between atoms: N6_27  and  C9_29 
REMARK   11  A    between atoms: C9_29  and  C10_30 
REMARK   12  A    between atoms: C10_30  and  O7_31 
ROOT
HETATM    1  C3  UNL     1     -63.806  29.793  -7.156  1.00  0.00     0.183 A 
HETATM    2  N1  UNL     1     -63.054  29.299  -6.132  1.00  0.00    -0.324 N 
ATOM      3  H1  UNL     1     -63.468  28.599  -5.518  1.00  0.00     0.169 HD
HETATM    4  C4  UNL     1     -61.790  29.693  -5.896  1.00  0.00     0.153 A 
HETATM    5  C5  UNL     1     -61.260  30.635  -6.741  1.00  0.00     0.082 A 
HETATM    6  C6  UNL     1     -61.986  31.171  -7.800  1.00  0.00     0.138 A 
HETATM    7  C7  UNL     1     -63.287  30.738  -8.013  1.00  0.00     0.133 A 
ENDROOT
BRANCH   7   8
HETATM    8  N4  UNL     1     -64.024  31.280  -9.120  1.00  0.00    -0.292 N 
ATOM      9  H4  UNL     1     -64.464  32.198  -9.046  1.00  0.00     0.187 HD
BRANCH   8  10
HETATM   10  N5  UNL     1     -64.134  30.541 -10.296  1.00  0.00    -0.276 N 
ATOM     11  H5  UNL     1     -63.369  29.914 -10.544  1.00  0.00     0.189 HD
BRANCH  10  12
HETATM   12  C8  UNL     1     -65.262  30.616 -11.174  1.00  0.00     0.186 C 
HETATM   13  S2  UNL     1     -65.401  29.426 -12.278  1.00  0.00    -0.040 SA
BRANCH  12  14
HETATM   14  N6  UNL     1     -66.174  31.678 -11.073  1.00  0.00    -0.364 N 
ATOM     15  H6  UNL     1     -65.803  32.624 -10.980  1.00  0.00     0.162 HD
BRANCH  14  16
HETATM   16  C9  UNL     1     -67.606  31.506 -11.092  1.00  0.00     0.148 C 
BRANCH  16  17
HETATM   17  C10 UNL     1     -68.046  30.718  -9.894  1.00  0.00     0.183 C 
BRANCH  17  18
HETATM   18  O7  UNL     1     -68.861  31.506  -9.061  1.00  0.00    -0.399 OA
ATOM     19  H7  UNL     1     -69.674  31.054  -8.870  1.00  0.00     0.209 HD
ENDBRANCH  17  18
ENDBRANCH  16  17
ENDBRANCH  14  16
ENDBRANCH  12  14
ENDBRANCH  10  12
ENDBRANCH   8  10
ENDBRANCH   7   8
BRANCH   1  20
HETATM   20  O2  UNL     1     -65.103  29.331  -7.329  1.00  0.00    -0.259 OA
BRANCH  20  21
HETATM   21  C2  UNL     1     -65.387  28.068  -7.783  1.00  0.00     0.261 C 
HETATM   22  C1  UNL     1     -65.904  26.990  -6.887  1.00  0.00     0.126 C 
HETATM   23  O1  UNL     1     -65.213  27.789  -8.986  1.00  0.00    -0.265 OA
ENDBRANCH  20  21
ENDBRANCH   1  20
BRANCH   6  24
HETATM   24  N3  UNL     1     -61.385  32.146  -8.622  1.00  0.00    -0.113 N 
HETATM   25  O5  UNL     1     -60.275  31.922  -9.111  1.00  0.00    -0.532 OA
HETATM   26  O6  UNL     1     -62.018  33.318  -8.885  1.00  0.00    -0.532 OA
ENDBRANCH   6  24
BRANCH   4  27
HETATM   27  S1  UNL     1     -60.870  29.051  -4.558  1.00  0.00     0.272 S 
HETATM   28  O3  UNL     1     -60.183  30.082  -3.752  1.00  0.00    -0.199 OA
HETATM   29  O4  UNL     1     -59.843  28.065  -5.077  1.00  0.00    -0.199 OA
BRANCH  27  30
HETATM   30  N2  UNL     1     -61.956  28.091  -3.588  1.00  0.00    -0.323 N 
ATOM     31  H22 UNL     1     -61.729  27.197  -3.154  1.00  0.00     0.169 HD
ATOM     32  H21 UNL     1     -62.845  28.589  -3.541  1.00  0.00     0.169 HD
ENDBRANCH  27  30
ENDBRANCH   4  27
TORSDOF 12
ENDMDL
