MODEL 1
REMARK VINA RESULT: -7.789333548      0.000      0.000
REMARK  4 active torsions:
REMARK  status: ('A' for Active; 'I' for Inactive)
REMARK    1  A    between atoms: C2_2  and  C3_4 
REMARK    2  A    between atoms: C3_4  and  O2_5 
REMARK    3  A    between atoms: C11_14  and  O3_15 
REMARK    4  A    between atoms: C12_17  and  C13_19 
ROOT
HETATM    1  C3  UNL     1      42.948  16.632   8.911  1.00  0.00     0.125 C 
HETATM    2  C4  UNL     1      43.382  17.477  10.094  1.00  0.00     0.047 C 
HETATM    3  C5  UNL     1      42.881  16.663  11.305  1.00  0.00     0.010 C 
HETATM    4  C6  UNL     1      41.578  16.218  10.765  1.00  0.00     0.010 C 
HETATM    5  C7  UNL     1      40.730  15.356  11.626  1.00  0.00    -0.015 C 
HETATM    6  C8  UNL     1      41.434  14.199  12.241  1.00  0.00     0.020 C 
HETATM    7  C9  UNL     1      40.202  16.235  12.766  1.00  0.00     0.016 C 
HETATM    8  C10 UNL     1      38.737  16.487  12.654  1.00  0.00     0.035 C 
HETATM    9  C11 UNL     1      37.986  15.184  12.670  1.00  0.00     0.143 C 
HETATM   10  C12 UNL     1      38.320  14.403  11.419  1.00  0.00     0.080 C 
HETATM   11 BR1  UNL     1      36.793  14.603  10.213  1.00  0.00    -0.076 Br
HETATM   12  C14 UNL     1      39.556  14.963  10.760  1.00  0.00    -0.052 C 
HETATM   13  C15 UNL     1      39.549  15.109   9.443  1.00  0.00    -0.021 C 
HETATM   14  C16 UNL     1      40.652  15.664   8.619  1.00  0.00     0.040 C 
HETATM   15  C17 UNL     1      41.913  15.646   9.429  1.00  0.00     0.002 C 
HETATM   16  C18 UNL     1      42.411  14.233   9.429  1.00  0.00     0.019 C 
ENDROOT
BRANCH   1  17
HETATM   17  C2  UNL     1      44.153  16.002   8.354  1.00  0.00     0.158 C 
HETATM   18  C1  UNL     1      45.286  15.501   9.184  1.00  0.00     0.094 C 
HETATM   19  O1  UNL     1      44.247  15.874   7.145  1.00  0.00    -0.295 OA
ENDBRANCH   1  17
BRANCH   1  20
HETATM   20  O2  UNL     1      42.311  17.377   7.928  1.00  0.00    -0.381 OA
ATOM     21  H2  UNL     1      41.573  16.890   7.582  1.00  0.00     0.211 HD
ENDBRANCH   1  20
BRANCH  10  22
HETATM   22  C13 UNL     1      38.429  12.925  11.693  1.00  0.00     0.143 C 
HETATM   23 CL1  UNL     1      37.221  12.137  10.617  1.00  0.00    -0.128 Cl
ENDBRANCH  10  22
BRANCH   9  24
HETATM   24  O3  UNL     1      38.190  14.424  13.799  1.00  0.00    -0.394 OA
ATOM     25  H3  UNL     1      37.477  13.830  14.006  1.00  0.00     0.210 HD
ENDBRANCH   9  24
TORSDOF 4
ENDMDL
MODEL 2
REMARK VINA RESULT: -7.305176367      2.998      6.190
REMARK  4 active torsions:
REMARK  status: ('A' for Active; 'I' for Inactive)
REMARK    1  A    between atoms: C2_2  and  C3_4 
REMARK    2  A    between atoms: C3_4  and  O2_5 
REMARK    3  A    between atoms: C11_14  and  O3_15 
REMARK    4  A    between atoms: C12_17  and  C13_19 
ROOT
HETATM    1  C3  UNL     1      36.287  14.042  10.421  1.00  0.00     0.125 C 
HETATM    2  C4  UNL     1      36.515  12.552  10.588  1.00  0.00     0.047 C 
HETATM    3  C5  UNL     1      37.873  12.486  11.317  1.00  0.00     0.010 C 
HETATM    4  C6  UNL     1      38.576  13.573  10.601  1.00  0.00     0.010 C 
HETATM    5  C7  UNL     1      39.969  13.884  11.009  1.00  0.00    -0.015 C 
HETATM    6  C8  UNL     1      40.172  14.042  12.474  1.00  0.00     0.020 C 
HETATM    7  C9  UNL     1      40.847  12.717  10.543  1.00  0.00     0.016 C 
HETATM    8  C10 UNL     1      41.755  13.103   9.426  1.00  0.00     0.035 C 
HETATM    9  C11 UNL     1      42.651  14.233   9.854  1.00  0.00     0.143 C 
HETATM   10  C12 UNL     1      41.813  15.469  10.090  1.00  0.00     0.080 C 
HETATM   11 BR1  UNL     1      42.073  16.623   8.532  1.00  0.00    -0.076 Br
HETATM   12  C14 UNL     1      40.355  15.105  10.207  1.00  0.00    -0.052 C 
HETATM   13  C15 UNL     1      39.469  15.864   9.576  1.00  0.00    -0.021 C 
HETATM   14  C16 UNL     1      37.999  15.654   9.548  1.00  0.00     0.040 C 
HETATM   15  C17 UNL     1      37.626  14.722  10.660  1.00  0.00     0.002 C 
HETATM   16  C18 UNL     1      37.649  15.523  11.927  1.00  0.00     0.019 C 
ENDROOT
BRANCH   1  17
HETATM   17  C2  UNL     1      35.235  14.436  11.368  1.00  0.00     0.158 C 
HETATM   18  C1  UNL     1      34.394  15.657  11.212  1.00  0.00     0.094 C 
HETATM   19  O1  UNL     1      35.025  13.734  12.342  1.00  0.00    -0.295 OA
ENDBRANCH   1  17
BRANCH   1  20
HETATM   20  O2  UNL     1      35.909  14.383   9.130  1.00  0.00    -0.381 OA
ATOM     21  H2  UNL     1      35.194  15.008   9.158  1.00  0.00     0.211 HD
ENDBRANCH   1  20
BRANCH  10  22
HETATM   22  C13 UNL     1      42.308  16.265  11.270  1.00  0.00     0.143 C 
HETATM   23 CL1  UNL     1      42.167  17.994  10.789  1.00  0.00    -0.128 Cl
ENDBRANCH  10  22
BRANCH   9  24
HETATM   24  O3  UNL     1      43.438  13.950  10.947  1.00  0.00    -0.394 OA
ATOM     25  H3  UNL     1      42.994  14.038  11.783  1.00  0.00     0.210 HD
ENDBRANCH   9  24
TORSDOF 4
ENDMDL
MODEL 3
REMARK VINA RESULT: -7.194054838      2.195      2.728
REMARK  4 active torsions:
REMARK  status: ('A' for Active; 'I' for Inactive)
REMARK    1  A    between atoms: C2_2  and  C3_4 
REMARK    2  A    between atoms: C3_4  and  O2_5 
REMARK    3  A    between atoms: C11_14  and  O3_15 
REMARK    4  A    between atoms: C12_17  and  C13_19 
ROOT
HETATM    1  C3  UNL     1      44.185  16.481   9.777  1.00  0.00     0.125 C 
HETATM    2  C4  UNL     1      44.858  15.496  10.715  1.00  0.00     0.047 C 
HETATM    3  C5  UNL     1      43.671  14.706  11.302  1.00  0.00     0.010 C 
HETATM    4  C6  UNL     1      42.711  15.818  11.474  1.00  0.00     0.010 C 
HETATM    5  C7  UNL     1      41.367  15.496  12.017  1.00  0.00    -0.015 C 
HETATM    6  C8  UNL     1      40.684  14.349  11.361  1.00  0.00     0.020 C 
HETATM    7  C9  UNL     1      41.552  15.141  13.497  1.00  0.00     0.016 C 
HETATM    8  C10 UNL     1      40.979  16.176  14.403  1.00  0.00     0.035 C 
HETATM    9  C11 UNL     1      39.509  16.344  14.133  1.00  0.00     0.143 C 
HETATM   10  C12 UNL     1      39.322  16.924  12.750  1.00  0.00     0.080 C 
HETATM   11 BR1  UNL     1      38.903  18.819  12.992  1.00  0.00    -0.076 Br
HETATM   12  C14 UNL     1      40.589  16.790  11.943  1.00  0.00    -0.052 C 
HETATM   13  C15 UNL     1      40.982  17.828  11.219  1.00  0.00    -0.021 C 
HETATM   14  C16 UNL     1      42.208  17.899  10.385  1.00  0.00     0.040 C 
HETATM   15  C17 UNL     1      42.711  16.508  10.151  1.00  0.00     0.002 C 
HETATM   16  C18 UNL     1      41.838  15.899   9.097  1.00  0.00     0.019 C 
ENDROOT
BRANCH   1  17
HETATM   17  C2  UNL     1      44.450  16.032   8.404  1.00  0.00     0.158 C 
HETATM   18  C1  UNL     1      44.075  16.812   7.189  1.00  0.00     0.094 C 
HETATM   19  O1  UNL     1      45.007  14.962   8.230  1.00  0.00    -0.295 OA
ENDBRANCH   1  17
BRANCH   1  20
HETATM   20  O2  UNL     1      44.648  17.779   9.945  1.00  0.00    -0.381 OA
ATOM     21  H2  UNL     1      43.958  18.322  10.308  1.00  0.00     0.211 HD
ENDBRANCH   1  20
BRANCH  10  22
HETATM   22  C13 UNL     1      38.125  16.331  12.050  1.00  0.00     0.143 C 
HETATM   23 CL1  UNL     1      37.417  17.666  11.074  1.00  0.00    -0.128 Cl
ENDBRANCH  10  22
BRANCH   9  24
HETATM   24  O3  UNL     1      38.767  15.196  14.296  1.00  0.00    -0.394 OA
ATOM     25  H3  UNL     1      38.013  15.294  14.866  1.00  0.00     0.210 HD
ENDBRANCH   9  24
TORSDOF 4
ENDMDL
MODEL 4
REMARK VINA RESULT: -7.170822704      3.141      6.042
REMARK  4 active torsions:
REMARK  status: ('A' for Active; 'I' for Inactive)
REMARK    1  A    between atoms: C2_2  and  C3_4 
REMARK    2  A    between atoms: C3_4  and  O2_5 
REMARK    3  A    between atoms: C11_14  and  O3_15 
REMARK    4  A    between atoms: C12_17  and  C13_19 
ROOT
HETATM    1  C3  UNL     1      37.200  17.640  11.443  1.00  0.00     0.125 C 
HETATM    2  C4  UNL     1      36.594  17.080  10.170  1.00  0.00     0.047 C 
HETATM    3  C5  UNL     1      37.434  15.811   9.912  1.00  0.00     0.010 C 
HETATM    4  C6  UNL     1      38.766  16.332  10.290  1.00  0.00     0.010 C 
HETATM    5  C7  UNL     1      39.921  15.403  10.209  1.00  0.00    -0.015 C 
HETATM    6  C8  UNL     1      39.706  14.079  10.852  1.00  0.00     0.020 C 
HETATM    7  C9  UNL     1      40.199  15.157   8.722  1.00  0.00     0.016 C 
HETATM    8  C10 UNL     1      41.476  15.783   8.274  1.00  0.00     0.035 C 
HETATM    9  C11 UNL     1      42.628  15.236   9.072  1.00  0.00     0.143 C 
HETATM   10  C12 UNL     1      42.488  15.677  10.511  1.00  0.00     0.080 C 
HETATM   11 BR1  UNL     1      43.758  17.143  10.771  1.00  0.00    -0.076 Br
HETATM   12  C14 UNL     1      41.089  16.173  10.780  1.00  0.00    -0.052 C 
HETATM   13  C15 UNL     1      40.945  17.283  11.489  1.00  0.00    -0.021 C 
HETATM   14  C16 UNL     1      39.660  17.940  11.834  1.00  0.00     0.040 C 
HETATM   15  C17 UNL     1      38.547  16.959  11.626  1.00  0.00     0.002 C 
HETATM   16  C18 UNL     1      38.566  16.023  12.796  1.00  0.00     0.019 C 
ENDROOT
BRANCH   1  17
HETATM   17  C2  UNL     1      36.247  17.390  12.532  1.00  0.00     0.158 C 
HETATM   18  C1  UNL     1      35.161  16.370  12.467  1.00  0.00     0.094 C 
HETATM   19  O1  UNL     1      36.334  18.047  13.555  1.00  0.00    -0.295 OA
ENDBRANCH   1  17
BRANCH   1  20
HETATM   20  O2  UNL     1      37.466  19.000  11.353  1.00  0.00    -0.381 OA
ATOM     21  H2  UNL     1      38.355  19.134  11.045  1.00  0.00     0.211 HD
ENDBRANCH   1  20
BRANCH  10  22
HETATM   22  C13 UNL     1      42.914  14.598  11.473  1.00  0.00     0.143 C 
HETATM   23 CL1  UNL     1      44.191  15.336  12.504  1.00  0.00    -0.128 Cl
ENDBRANCH  10  22
BRANCH   9  24
HETATM   24  O3  UNL     1      42.783  13.872   8.984  1.00  0.00    -0.394 OA
ATOM     25  H3  UNL     1      42.581  13.401   9.784  1.00  0.00     0.210 HD
ENDBRANCH   9  24
TORSDOF 4
ENDMDL
MODEL 5
REMARK VINA RESULT: -7.007907559      3.900      5.951
REMARK  4 active torsions:
REMARK  status: ('A' for Active; 'I' for Inactive)
REMARK    1  A    between atoms: C2_2  and  C3_4 
REMARK    2  A    between atoms: C3_4  and  O2_5 
REMARK    3  A    between atoms: C11_14  and  O3_15 
REMARK    4  A    between atoms: C12_17  and  C13_19 
ROOT
HETATM    1  C3  UNL     1      38.714  14.914  10.416  1.00  0.00     0.125 C 
HETATM    2  C4  UNL     1      38.221  15.888   9.362  1.00  0.00     0.047 C 
HETATM    3  C5  UNL     1      36.693  15.886   9.572  1.00  0.00     0.010 C 
HETATM    4  C6  UNL     1      36.494  14.444   9.831  1.00  0.00     0.010 C 
HETATM    5  C7  UNL     1      35.115  13.975  10.116  1.00  0.00    -0.015 C 
HETATM    6  C8  UNL     1      34.382  14.768  11.139  1.00  0.00     0.020 C 
HETATM    7  C9  UNL     1      34.326  14.070   8.804  1.00  0.00     0.016 C 
HETATM    8  C10 UNL     1      33.992  12.729   8.246  1.00  0.00     0.035 C 
HETATM    9  C11 UNL     1      33.177  11.944   9.237  1.00  0.00     0.143 C 
HETATM   10  C12 UNL     1      34.030  11.636  10.447  1.00  0.00     0.080 C 
HETATM   11 BR1  UNL     1      34.571   9.763  10.286  1.00  0.00    -0.076 Br
HETATM   12  C14 UNL     1      35.257  12.513  10.468  1.00  0.00    -0.052 C 
HETATM   13  C15 UNL     1      36.419  11.953  10.772  1.00  0.00    -0.021 C 
HETATM   14  C16 UNL     1      37.735  12.639  10.818  1.00  0.00     0.040 C 
HETATM   15  C17 UNL     1      37.504  14.118  10.879  1.00  0.00     0.002 C 
HETATM   16  C18 UNL     1      37.108  14.439  12.289  1.00  0.00     0.019 C 
ENDROOT
BRANCH   1  17
HETATM   17  C2  UNL     1      39.359  15.700  11.475  1.00  0.00     0.158 C 
HETATM   18  C1  UNL     1      39.114  17.154  11.696  1.00  0.00     0.094 C 
HETATM   19  O1  UNL     1      40.144  15.146  12.226  1.00  0.00    -0.295 OA
ENDBRANCH   1  17
BRANCH   1  20
HETATM   20  O2  UNL     1      39.612  13.985   9.906  1.00  0.00    -0.381 OA
ATOM     21  H2  UNL     1      40.193  13.688  10.596  1.00  0.00     0.211 HD
ENDBRANCH   1  20
BRANCH  10  22
HETATM   22  C13 UNL     1      33.238  11.719  11.727  1.00  0.00     0.143 C 
HETATM   23 CL1  UNL     1      32.422  10.125  11.903  1.00  0.00    -0.128 Cl
ENDBRANCH  10  22
BRANCH   9  24
HETATM   24  O3  UNL     1      31.995  12.545   9.602  1.00  0.00    -0.394 OA
ATOM     25  H3  UNL     1      32.094  13.267  10.213  1.00  0.00     0.210 HD
ENDBRANCH   9  24
TORSDOF 4
ENDMDL
