MODEL 1
REMARK VINA RESULT: -5.991753534      0.000      0.000
REMARK  12 active torsions:
REMARK  status: ('A' for Active; 'I' for Inactive)
REMARK    1  A    between atoms: C2_2  and  O1_3 
REMARK    2  A    between atoms: O1_3  and  C3_4 
REMARK    3  A    between atoms: C4_5  and  N1_6 
REMARK    4  A    between atoms: C6_11  and  N2_12 
REMARK    5  A    between atoms: C7_16  and  O2_17 
REMARK    6  A    between atoms: O2_17  and  C8_18 
REMARK    7  A    between atoms: C14_24  and  O3_25 
REMARK    8  A    between atoms: C16_27  and  N3_28 
REMARK    9  A    between atoms: C19_31  and  O4_32 
REMARK   10  A    between atoms: C20_34  and  O5_35 
REMARK   11  A    between atoms: C21_37  and  N4_38 
REMARK   12  A    between atoms: C22_42  and  O6_43 
ROOT
HETATM    1  C8  UNL     1     -17.336  36.121  24.767  1.00  0.00     0.158 C 
HETATM    2  C9  UNL     1     -16.271  35.896  25.845  1.00  0.00     0.053 C 
HETATM    3  C10 UNL     1     -15.207  36.950  25.785  1.00  0.00     0.036 C 
HETATM    4  C11 UNL     1     -15.660  38.193  25.123  1.00  0.00    -0.030 C 
HETATM    5  C12 UNL     1     -16.834  38.777  25.080  1.00  0.00    -0.021 C 
HETATM    6  C13 UNL     1     -18.095  38.314  25.727  1.00  0.00     0.064 C 
HETATM    7  C14 UNL     1     -18.474  36.941  25.241  1.00  0.00     0.159 C 
HETATM    8  C16 UNL     1     -18.123  38.547  27.189  1.00  0.00     0.119 C 
HETATM    9  C19 UNL     1     -18.229  37.368  28.092  1.00  0.00     0.172 C 
HETATM   10  C20 UNL     1     -16.899  36.629  28.196  1.00  0.00     0.179 C 
HETATM   11  C21 UNL     1     -16.808  35.568  27.184  1.00  0.00     0.221 C 
ENDROOT
BRANCH   1  12
HETATM   12  O2  UNL     1     -17.772  34.949  24.229  1.00  0.00    -0.373 OA
BRANCH  12  13
HETATM   13  C7  UNL     1     -17.110  34.489  23.099  1.00  0.00     0.183 C 
HETATM   14  C6  UNL     1     -18.140  33.584  22.421  1.00  0.00     0.217 C 
HETATM   15  C5  UNL     1     -17.882  33.337  20.980  1.00  0.00     0.071 C 
HETATM   16  C4  UNL     1     -16.480  33.710  20.635  1.00  0.00     0.217 C 
HETATM   17  C3  UNL     1     -16.199  35.180  20.834  1.00  0.00     0.183 C 
HETATM   18  C22 UNL     1     -16.809  35.608  22.177  1.00  0.00     0.180 C 
BRANCH  14  19
HETATM   19  N2  UNL     1     -19.432  34.233  22.551  1.00  0.00    -0.072 N 
ATOM     20  H23 UNL     1     -19.398  35.226  22.318  1.00  0.00     0.274 HD
ATOM     21  H22 UNL     1     -20.091  33.944  21.828  1.00  0.00     0.274 HD
ATOM     22  H21 UNL     1     -19.785  34.062  23.493  1.00  0.00     0.274 HD
ENDBRANCH  14  19
BRANCH  16  23
HETATM   23  N1  UNL     1     -16.186  33.260  19.308  1.00  0.00    -0.072 N 
ATOM     24  H13 UNL     1     -16.321  34.010  18.630  1.00  0.00     0.274 HD
ATOM     25  H12 UNL     1     -15.184  33.107  19.188  1.00  0.00     0.274 HD
ATOM     26  H11 UNL     1     -16.715  32.430  19.042  1.00  0.00     0.274 HD
ENDBRANCH  16  23
BRANCH  17  27
HETATM   27  O1  UNL     1     -16.721  35.996  19.898  1.00  0.00    -0.381 OA
BRANCH  27  28
HETATM   28  C2  UNL     1     -15.938  36.844  19.208  1.00  0.00     0.164 C 
HETATM   29  C1  UNL     1     -15.646  38.165  19.816  1.00  0.00     0.033 C 
ENDBRANCH  27  28
ENDBRANCH  17  27
BRANCH  18  30
HETATM   30  O6  UNL     1     -17.952  36.414  21.962  1.00  0.00    -0.390 OA
ATOM     31  H6  UNL     1     -18.428  36.112  21.198  1.00  0.00     0.210 HD
ENDBRANCH  18  30
ENDBRANCH  12  13
ENDBRANCH   1  12
BRANCH   7  32
HETATM   32  O3  UNL     1     -19.362  37.076  24.179  1.00  0.00    -0.387 OA
HETATM   33  C15 UNL     1     -20.695  36.938  24.564  1.00  0.00     0.202 C 
ENDBRANCH   7  32
BRANCH  11  34
HETATM   34  N4  UNL     1     -16.034  34.465  27.791  1.00  0.00    -0.072 N 
ATOM     35  H43 UNL     1     -16.182  34.405  28.799  1.00  0.00     0.274 HD
ATOM     36  H42 UNL     1     -16.404  33.551  27.530  1.00  0.00     0.274 HD
ATOM     37  H41 UNL     1     -15.045  34.555  27.558  1.00  0.00     0.274 HD
ENDBRANCH  11  34
BRANCH  10  38
HETATM   38  O5  UNL     1     -16.870  36.027  29.480  1.00  0.00    -0.391 OA
ATOM     39  H5  UNL     1     -15.955  35.914  29.705  1.00  0.00     0.210 HD
ENDBRANCH  10  38
BRANCH   8  40
HETATM   40  N3  UNL     1     -19.076  39.508  27.647  1.00  0.00    -0.413 N 
HETATM   41  C17 UNL     1     -18.674  40.508  28.529  1.00  0.00     0.143 C 
HETATM   42  C18 UNL     1     -20.235  39.693  26.862  1.00  0.00     0.143 C 
ENDBRANCH   8  40
BRANCH   9  43
HETATM   43  O4  UNL     1     -18.403  37.918  29.397  1.00  0.00    -0.391 OA
ATOM     44  H4  UNL     1     -18.369  37.172  29.985  1.00  0.00     0.210 HD
ENDBRANCH   9  43
TORSDOF 12
ENDMDL
MODEL 2
REMARK VINA RESULT: -5.799000856      3.006      4.039
REMARK  12 active torsions:
REMARK  status: ('A' for Active; 'I' for Inactive)
REMARK    1  A    between atoms: C2_2  and  O1_3 
REMARK    2  A    between atoms: O1_3  and  C3_4 
REMARK    3  A    between atoms: C4_5  and  N1_6 
REMARK    4  A    between atoms: C6_11  and  N2_12 
REMARK    5  A    between atoms: C7_16  and  O2_17 
REMARK    6  A    between atoms: O2_17  and  C8_18 
REMARK    7  A    between atoms: C14_24  and  O3_25 
REMARK    8  A    between atoms: C16_27  and  N3_28 
REMARK    9  A    between atoms: C19_31  and  O4_32 
REMARK   10  A    between atoms: C20_34  and  O5_35 
REMARK   11  A    between atoms: C21_37  and  N4_38 
REMARK   12  A    between atoms: C22_42  and  O6_43 
ROOT
HETATM    1  C8  UNL     1     -19.006  35.456  23.677  1.00  0.00     0.158 C 
HETATM    2  C9  UNL     1     -17.528  35.055  23.712  1.00  0.00     0.053 C 
HETATM    3  C10 UNL     1     -16.686  36.014  22.925  1.00  0.00     0.036 C 
HETATM    4  C11 UNL     1     -17.322  37.341  22.761  1.00  0.00    -0.030 C 
HETATM    5  C12 UNL     1     -18.120  38.026  23.545  1.00  0.00    -0.021 C 
HETATM    6  C13 UNL     1     -18.628  37.623  24.888  1.00  0.00     0.064 C 
HETATM    7  C14 UNL     1     -19.394  36.331  24.806  1.00  0.00     0.159 C 
HETATM    8  C16 UNL     1     -17.611  37.741  25.957  1.00  0.00     0.119 C 
HETATM    9  C19 UNL     1     -17.200  36.508  26.684  1.00  0.00     0.172 C 
HETATM   10  C20 UNL     1     -16.266  35.651  25.836  1.00  0.00     0.179 C 
HETATM   11  C21 UNL     1     -17.025  34.670  25.049  1.00  0.00     0.221 C 
ENDROOT
BRANCH   1  12
HETATM   12  O2  UNL     1     -19.827  34.372  23.597  1.00  0.00    -0.373 OA
BRANCH  12  13
HETATM   13  C7  UNL     1     -20.266  34.007  22.332  1.00  0.00     0.183 C 
HETATM   14  C6  UNL     1     -20.519  32.504  22.459  1.00  0.00     0.217 C 
HETATM   15  C5  UNL     1     -21.424  31.946  21.423  1.00  0.00     0.071 C 
HETATM   16  C4  UNL     1     -21.558  32.902  20.286  1.00  0.00     0.217 C 
HETATM   17  C3  UNL     1     -22.192  34.210  20.693  1.00  0.00     0.183 C 
HETATM   18  C22 UNL     1     -21.556  34.661  22.016  1.00  0.00     0.180 C 
BRANCH  14  19
HETATM   19  N2  UNL     1     -21.120  32.279  23.762  1.00  0.00    -0.072 N 
ATOM     20  H23 UNL     1     -22.067  32.652  23.826  1.00  0.00     0.274 HD
ATOM     21  H22 UNL     1     -21.346  31.298  23.925  1.00  0.00     0.274 HD
ATOM     22  H21 UNL     1     -20.498  32.661  24.474  1.00  0.00     0.274 HD
ENDBRANCH  14  19
BRANCH  16  23
HETATM   23  N1  UNL     1     -22.247  32.259  19.208  1.00  0.00    -0.072 N 
ATOM     24  H13 UNL     1     -23.243  32.176  19.411  1.00  0.00     0.274 HD
ATOM     25  H12 UNL     1     -22.294  32.868  18.390  1.00  0.00     0.274 HD
ATOM     26  H11 UNL     1     -21.848  31.353  18.965  1.00  0.00     0.274 HD
ENDBRANCH  16  23
BRANCH  17  27
HETATM   27  O1  UNL     1     -23.522  34.163  20.902  1.00  0.00    -0.381 OA
BRANCH  27  28
HETATM   28  C2  UNL     1     -24.358  34.949  20.201  1.00  0.00     0.164 C 
HETATM   29  C1  UNL     1     -25.272  35.837  20.961  1.00  0.00     0.033 C 
ENDBRANCH  27  28
ENDBRANCH  17  27
BRANCH  18  30
HETATM   30  O6  UNL     1     -22.477  34.512  23.079  1.00  0.00    -0.390 OA
ATOM     31  H6  UNL     1     -22.895  35.343  23.272  1.00  0.00     0.210 HD
ENDBRANCH  18  30
ENDBRANCH  12  13
ENDBRANCH   1  12
BRANCH   7  32
HETATM   32  O3  UNL     1     -20.746  36.626  24.660  1.00  0.00    -0.387 OA
HETATM   33  C15 UNL     1     -21.463  36.494  25.848  1.00  0.00     0.202 C 
ENDBRANCH   7  32
BRANCH  11  34
HETATM   34  N4  UNL     1     -16.182  33.459  24.950  1.00  0.00    -0.072 N 
ATOM     35  H43 UNL     1     -16.442  32.757  25.643  1.00  0.00     0.274 HD
ATOM     36  H42 UNL     1     -16.386  32.921  24.107  1.00  0.00     0.274 HD
ATOM     37  H41 UNL     1     -15.195  33.708  25.014  1.00  0.00     0.274 HD
ENDBRANCH  11  34
BRANCH  10  38
HETATM   38  O5  UNL     1     -15.430  34.948  26.740  1.00  0.00    -0.391 OA
ATOM     39  H5  UNL     1     -14.542  35.237  26.568  1.00  0.00     0.210 HD
ENDBRANCH  10  38
BRANCH   8  40
HETATM   40  N3  UNL     1     -17.861  38.741  26.946  1.00  0.00    -0.413 N 
HETATM   41  C17 UNL     1     -17.263  39.994  26.825  1.00  0.00     0.143 C 
HETATM   42  C18 UNL     1     -19.027  38.596  27.730  1.00  0.00     0.143 C 
ENDBRANCH   8  40
BRANCH   9  43
HETATM   43  O4  UNL     1     -16.359  36.965  27.741  1.00  0.00    -0.391 OA
ATOM     44  H4  UNL     1     -15.474  36.772  27.452  1.00  0.00     0.210 HD
ENDBRANCH   9  43
TORSDOF 12
ENDMDL
MODEL 3
REMARK VINA RESULT: -5.749856911      3.506      6.554
REMARK  12 active torsions:
REMARK  status: ('A' for Active; 'I' for Inactive)
REMARK    1  A    between atoms: C2_2  and  O1_3 
REMARK    2  A    between atoms: O1_3  and  C3_4 
REMARK    3  A    between atoms: C4_5  and  N1_6 
REMARK    4  A    between atoms: C6_11  and  N2_12 
REMARK    5  A    between atoms: C7_16  and  O2_17 
REMARK    6  A    between atoms: O2_17  and  C8_18 
REMARK    7  A    between atoms: C14_24  and  O3_25 
REMARK    8  A    between atoms: C16_27  and  N3_28 
REMARK    9  A    between atoms: C19_31  and  O4_32 
REMARK   10  A    between atoms: C20_34  and  O5_35 
REMARK   11  A    between atoms: C21_37  and  N4_38 
REMARK   12  A    between atoms: C22_42  and  O6_43 
ROOT
HETATM    1  C8  UNL     1     -19.992  38.117  24.615  1.00  0.00     0.158 C 
HETATM    2  C9  UNL     1     -18.924  39.144  25.005  1.00  0.00     0.053 C 
HETATM    3  C10 UNL     1     -18.835  39.296  26.494  1.00  0.00     0.036 C 
HETATM    4  C11 UNL     1     -19.355  38.121  27.228  1.00  0.00    -0.030 C 
HETATM    5  C12 UNL     1     -19.355  36.842  26.934  1.00  0.00    -0.021 C 
HETATM    6  C13 UNL     1     -18.796  36.199  25.711  1.00  0.00     0.064 C 
HETATM    7  C14 UNL     1     -19.449  36.747  24.470  1.00  0.00     0.159 C 
HETATM    8  C16 UNL     1     -17.318  36.115  25.717  1.00  0.00     0.119 C 
HETATM    9  C19 UNL     1     -16.563  36.831  24.652  1.00  0.00     0.172 C 
HETATM   10  C20 UNL     1     -16.517  38.332  24.920  1.00  0.00     0.179 C 
HETATM   11  C21 UNL     1     -17.646  39.014  24.272  1.00  0.00     0.221 C 
ENDROOT
BRANCH   1  12
HETATM   12  O2  UNL     1     -20.674  38.491  23.498  1.00  0.00    -0.373 OA
BRANCH  12  13
HETATM   13  C7  UNL     1     -21.963  38.974  23.679  1.00  0.00     0.183 C 
HETATM   14  C6  UNL     1     -22.104  40.037  22.589  1.00  0.00     0.217 C 
HETATM   15  C5  UNL     1     -23.508  40.380  22.248  1.00  0.00     0.071 C 
HETATM   16  C4  UNL     1     -24.431  39.892  23.313  1.00  0.00     0.217 C 
HETATM   17  C3  UNL     1     -24.421  38.390  23.455  1.00  0.00     0.183 C 
HETATM   18  C22 UNL     1     -22.961  37.914  23.415  1.00  0.00     0.180 C 
BRANCH  14  19
HETATM   19  N2  UNL     1     -21.457  39.519  21.398  1.00  0.00    -0.072 N 
ATOM     20  H23 UNL     1     -22.118  39.105  20.741  1.00  0.00     0.274 HD
ATOM     21  H22 UNL     1     -21.102  40.258  20.791  1.00  0.00     0.274 HD
ATOM     22  H21 UNL     1     -20.728  38.866  21.686  1.00  0.00     0.274 HD
ENDBRANCH  14  19
BRANCH  16  23
HETATM   23  N1  UNL     1     -25.742  40.422  23.079  1.00  0.00    -0.072 N 
ATOM     24  H13 UNL     1     -25.729  41.103  22.320  1.00  0.00     0.274 HD
ATOM     25  H12 UNL     1     -26.351  39.718  22.662  1.00  0.00     0.274 HD
ATOM     26  H11 UNL     1     -26.165  40.819  23.918  1.00  0.00     0.274 HD
ENDBRANCH  16  23
BRANCH  17  27
HETATM   27  O1  UNL     1     -25.071  37.717  22.485  1.00  0.00    -0.381 OA
BRANCH  27  28
HETATM   28  C2  UNL     1     -26.090  36.892  22.783  1.00  0.00     0.164 C 
HETATM   29  C1  UNL     1     -25.765  35.481  23.108  1.00  0.00     0.033 C 
ENDBRANCH  27  28
ENDBRANCH  17  27
BRANCH  18  30
HETATM   30  O6  UNL     1     -22.694  37.254  22.193  1.00  0.00    -0.390 OA
ATOM     31  H6  UNL     1     -23.420  36.689  21.958  1.00  0.00     0.210 HD
ENDBRANCH  18  30
ENDBRANCH  12  13
ENDBRANCH   1  12
BRANCH   7  32
HETATM   32  O3  UNL     1     -20.508  35.914  24.122  1.00  0.00    -0.387 OA
HETATM   33  C15 UNL     1     -20.138  34.910  23.229  1.00  0.00     0.202 C 
ENDBRANCH   7  32
BRANCH  11  34
HETATM   34  N4  UNL     1     -17.156  40.345  23.855  1.00  0.00    -0.072 N 
ATOM     35  H43 UNL     1     -17.761  41.096  24.190  1.00  0.00     0.274 HD
ATOM     36  H42 UNL     1     -16.302  40.608  24.348  1.00  0.00     0.274 HD
ATOM     37  H41 UNL     1     -17.036  40.378  22.843  1.00  0.00     0.274 HD
ENDBRANCH  11  34
BRANCH  10  38
HETATM   38  O5  UNL     1     -15.314  38.809  24.342  1.00  0.00    -0.391 OA
ATOM     39  H5  UNL     1     -15.447  39.732  24.162  1.00  0.00     0.210 HD
ENDBRANCH  10  38
BRANCH   8  40
HETATM   40  N3  UNL     1     -16.771  34.797  25.800  1.00  0.00    -0.413 N 
HETATM   41  C17 UNL     1     -16.651  34.179  27.042  1.00  0.00     0.143 C 
HETATM   42  C18 UNL     1     -16.802  34.011  24.627  1.00  0.00     0.143 C 
ENDBRANCH   8  40
BRANCH   9  43
HETATM   43  O4  UNL     1     -15.207  36.425  24.825  1.00  0.00    -0.391 OA
ATOM     44  H4  UNL     1     -14.740  36.808  24.092  1.00  0.00     0.210 HD
ENDBRANCH   9  43
TORSDOF 12
ENDMDL
MODEL 4
REMARK VINA RESULT: -5.578785816      3.340      6.889
REMARK  12 active torsions:
REMARK  status: ('A' for Active; 'I' for Inactive)
REMARK    1  A    between atoms: C2_2  and  O1_3 
REMARK    2  A    between atoms: O1_3  and  C3_4 
REMARK    3  A    between atoms: C4_5  and  N1_6 
REMARK    4  A    between atoms: C6_11  and  N2_12 
REMARK    5  A    between atoms: C7_16  and  O2_17 
REMARK    6  A    between atoms: O2_17  and  C8_18 
REMARK    7  A    between atoms: C14_24  and  O3_25 
REMARK    8  A    between atoms: C16_27  and  N3_28 
REMARK    9  A    between atoms: C19_31  and  O4_32 
REMARK   10  A    between atoms: C20_34  and  O5_35 
REMARK   11  A    between atoms: C21_37  and  N4_38 
REMARK   12  A    between atoms: C22_42  and  O6_43 
ROOT
HETATM    1  C8  UNL     1     -21.921  35.873  25.785  1.00  0.00     0.158 C 
HETATM    2  C9  UNL     1     -21.659  34.563  25.035  1.00  0.00     0.053 C 
HETATM    3  C10 UNL     1     -22.734  33.555  25.313  1.00  0.00     0.036 C 
HETATM    4  C11 UNL     1     -24.002  34.171  25.765  1.00  0.00    -0.030 C 
HETATM    5  C12 UNL     1     -24.566  35.318  25.468  1.00  0.00    -0.021 C 
HETATM    6  C13 UNL     1     -24.047  36.364  24.542  1.00  0.00     0.064 C 
HETATM    7  C14 UNL     1     -22.694  36.851  24.986  1.00  0.00     0.159 C 
HETATM    8  C16 UNL     1     -24.204  36.010  23.113  1.00  0.00     0.119 C 
HETATM    9  C19 UNL     1     -22.978  35.872  22.279  1.00  0.00     0.172 C 
HETATM   10  C20 UNL     1     -22.259  34.558  22.565  1.00  0.00     0.179 C 
HETATM   11  C21 UNL     1     -21.254  34.731  23.623  1.00  0.00     0.221 C 
ENDROOT
BRANCH   1  12
HETATM   12  O2  UNL     1     -20.771  36.430  26.254  1.00  0.00    -0.373 OA
BRANCH  12  13
HETATM   13  C7  UNL     1     -19.584  36.016  25.665  1.00  0.00     0.183 C 
HETATM   14  C6  UNL     1     -18.942  37.321  25.193  1.00  0.00     0.217 C 
HETATM   15  C5  UNL     1     -17.479  37.232  24.956  1.00  0.00     0.071 C 
HETATM   16  C4  UNL     1     -17.058  35.804  24.862  1.00  0.00     0.217 C 
HETATM   17  C3  UNL     1     -17.291  35.039  26.141  1.00  0.00     0.183 C 
HETATM   18  C22 UNL     1     -18.686  35.404  26.671  1.00  0.00     0.180 C 
BRANCH  14  19
HETATM   19  N2  UNL     1     -19.179  38.314  26.225  1.00  0.00    -0.072 N 
ATOM     20  H23 UNL     1     -18.333  38.825  26.480  1.00  0.00     0.274 HD
ATOM     21  H22 UNL     1     -19.724  39.108  25.889  1.00  0.00     0.274 HD
ATOM     22  H21 UNL     1     -19.613  37.851  27.024  1.00  0.00     0.274 HD
ENDBRANCH  14  19
BRANCH  16  23
HETATM   23  N1  UNL     1     -15.698  35.743  24.415  1.00  0.00    -0.072 N 
ATOM     24  H13 UNL     1     -15.065  36.117  25.122  1.00  0.00     0.274 HD
ATOM     25  H12 UNL     1     -15.366  34.778  24.389  1.00  0.00     0.274 HD
ATOM     26  H11 UNL     1     -15.553  36.203  23.517  1.00  0.00     0.274 HD
ENDBRANCH  16  23
BRANCH  17  27
HETATM   27  O1  UNL     1     -16.422  35.303  27.136  1.00  0.00    -0.381 OA
BRANCH  27  28
HETATM   28  C2  UNL     1     -15.864  34.307  27.847  1.00  0.00     0.164 C 
HETATM   29  C1  UNL     1     -15.828  32.956  27.234  1.00  0.00     0.033 C 
ENDBRANCH  27  28
ENDBRANCH  17  27
BRANCH  18  30
HETATM   30  O6  UNL     1     -18.576  36.220  27.821  1.00  0.00    -0.390 OA
ATOM     31  H6  UNL     1     -18.497  37.132  27.570  1.00  0.00     0.210 HD
ENDBRANCH  18  30
ENDBRANCH  12  13
ENDBRANCH   1  12
BRANCH   7  32
HETATM   32  O3  UNL     1     -22.868  37.987  25.771  1.00  0.00    -0.387 OA
HETATM   33  C15 UNL     1     -22.572  39.168  25.093  1.00  0.00     0.202 C 
ENDBRANCH   7  32
BRANCH  11  34
HETATM   34  N4  UNL     1     -20.134  33.820  23.299  1.00  0.00    -0.072 N 
ATOM     35  H43 UNL     1     -20.460  32.957  22.863  1.00  0.00     0.274 HD
ATOM     36  H42 UNL     1     -19.566  34.174  22.529  1.00  0.00     0.274 HD
ATOM     37  H41 UNL     1     -19.575  33.636  24.132  1.00  0.00     0.274 HD
ENDBRANCH  11  34
BRANCH  10  38
HETATM   38  O5  UNL     1     -21.592  34.193  21.369  1.00  0.00    -0.391 OA
ATOM     39  H5  UNL     1     -20.735  33.874  21.623  1.00  0.00     0.210 HD
ENDBRANCH  10  38
BRANCH   8  40
HETATM   40  N3  UNL     1     -25.123  36.814  22.370  1.00  0.00    -0.413 N 
HETATM   41  C17 UNL     1     -26.359  36.286  22.004  1.00  0.00     0.143 C 
HETATM   42  C18 UNL     1     -24.951  38.214  22.433  1.00  0.00     0.143 C 
ENDBRANCH   8  40
BRANCH   9  43
HETATM   43  O4  UNL     1     -23.456  35.701  20.946  1.00  0.00    -0.391 OA
ATOM     44  H4  UNL     1     -23.183  34.826  20.697  1.00  0.00     0.210 HD
ENDBRANCH   9  43
TORSDOF 12
ENDMDL
MODEL 5
REMARK VINA RESULT: -5.567170505      3.500      6.710
REMARK  12 active torsions:
REMARK  status: ('A' for Active; 'I' for Inactive)
REMARK    1  A    between atoms: C2_2  and  O1_3 
REMARK    2  A    between atoms: O1_3  and  C3_4 
REMARK    3  A    between atoms: C4_5  and  N1_6 
REMARK    4  A    between atoms: C6_11  and  N2_12 
REMARK    5  A    between atoms: C7_16  and  O2_17 
REMARK    6  A    between atoms: O2_17  and  C8_18 
REMARK    7  A    between atoms: C14_24  and  O3_25 
REMARK    8  A    between atoms: C16_27  and  N3_28 
REMARK    9  A    between atoms: C19_31  and  O4_32 
REMARK   10  A    between atoms: C20_34  and  O5_35 
REMARK   11  A    between atoms: C21_37  and  N4_38 
REMARK   12  A    between atoms: C22_42  and  O6_43 
ROOT
HETATM    1  C8  UNL     1     -19.943  38.262  25.456  1.00  0.00     0.158 C 
HETATM    2  C9  UNL     1     -18.777  39.137  24.988  1.00  0.00     0.053 C 
HETATM    3  C10 UNL     1     -18.360  40.104  26.056  1.00  0.00     0.036 C 
HETATM    4  C11 UNL     1     -18.755  39.669  27.415  1.00  0.00    -0.030 C 
HETATM    5  C12 UNL     1     -18.869  38.475  27.947  1.00  0.00    -0.021 C 
HETATM    6  C13 UNL     1     -18.615  37.165  27.283  1.00  0.00     0.064 C 
HETATM    7  C14 UNL     1     -19.500  36.994  26.078  1.00  0.00     0.159 C 
HETATM    8  C16 UNL     1     -17.176  36.863  27.115  1.00  0.00     0.119 C 
HETATM    9  C19 UNL     1     -16.642  36.701  25.734  1.00  0.00     0.172 C 
HETATM   10  C20 UNL     1     -16.480  38.050  25.042  1.00  0.00     0.179 C 
HETATM   11  C21 UNL     1     -17.694  38.405  24.295  1.00  0.00     0.221 C 
ENDROOT
BRANCH   1  12
HETATM   12  O2  UNL     1     -20.837  38.027  24.456  1.00  0.00    -0.373 OA
BRANCH  12  13
HETATM   13  C7  UNL     1     -21.921  38.889  24.364  1.00  0.00     0.183 C 
HETATM   14  C6  UNL     1     -22.576  38.503  23.038  1.00  0.00     0.217 C 
HETATM   15  C5  UNL     1     -23.994  38.926  22.910  1.00  0.00     0.071 C 
HETATM   16  C4  UNL     1     -24.319  39.956  23.938  1.00  0.00     0.217 C 
HETATM   17  C3  UNL     1     -24.194  39.436  25.349  1.00  0.00     0.183 C 
HETATM   18  C22 UNL     1     -22.894  38.624  25.448  1.00  0.00     0.180 C 
BRANCH  14  19
HETATM   19  N2  UNL     1     -22.519  37.056  22.936  1.00  0.00    -0.072 N 
ATOM     20  H23 UNL     1     -21.742  36.656  23.463  1.00  0.00     0.274 HD
ATOM     21  H22 UNL     1     -23.278  36.597  23.439  1.00  0.00     0.274 HD
ATOM     22  H21 UNL     1     -22.495  36.803  21.948  1.00  0.00     0.274 HD
ENDBRANCH  14  19
BRANCH  16  23
HETATM   23  N1  UNL     1     -25.611  40.508  23.659  1.00  0.00    -0.072 N 
ATOM     24  H13 UNL     1     -26.299  39.770  23.515  1.00  0.00     0.274 HD
ATOM     25  H12 UNL     1     -26.008  40.946  24.491  1.00  0.00     0.274 HD
ATOM     26  H11 UNL     1     -25.605  41.158  22.873  1.00  0.00     0.274 HD
ENDBRANCH  16  23
BRANCH  17  27
HETATM   27  O1  UNL     1     -25.188  38.621  25.751  1.00  0.00    -0.381 OA
BRANCH  27  28
HETATM   28  C2  UNL     1     -26.068  39.016  26.688  1.00  0.00     0.164 C 
HETATM   29  C1  UNL     1     -25.726  40.211  27.498  1.00  0.00     0.033 C 
ENDBRANCH  27  28
ENDBRANCH  17  27
BRANCH  18  30
HETATM   30  O6  UNL     1     -23.184  37.244  25.547  1.00  0.00    -0.390 OA
ATOM     31  H6  UNL     1     -23.812  36.991  24.881  1.00  0.00     0.210 HD
ENDBRANCH  18  30
ENDBRANCH  12  13
ENDBRANCH   1  12
BRANCH   7  32
HETATM   32  O3  UNL     1     -20.641  36.295  26.462  1.00  0.00    -0.387 OA
HETATM   33  C15 UNL     1     -20.472  34.913  26.421  1.00  0.00     0.202 C 
ENDBRANCH   7  32
BRANCH  11  34
HETATM   34  N4  UNL     1     -17.254  39.153  23.097  1.00  0.00    -0.072 N 
ATOM     35  H43 UNL     1     -17.296  38.579  22.255  1.00  0.00     0.274 HD
ATOM     36  H42 UNL     1     -17.929  39.868  22.826  1.00  0.00     0.274 HD
ATOM     37  H41 UNL     1     -16.324  39.544  23.245  1.00  0.00     0.274 HD
ENDBRANCH  11  34
BRANCH  10  38
HETATM   38  O5  UNL     1     -15.413  37.906  24.120  1.00  0.00    -0.391 OA
ATOM     39  H5  UNL     1     -15.768  38.106  23.262  1.00  0.00     0.210 HD
ENDBRANCH  10  38
BRANCH   8  40
HETATM   40  N3  UNL     1     -16.676  35.767  27.884  1.00  0.00    -0.413 N 
HETATM   41  C17 UNL     1     -16.413  35.942  29.241  1.00  0.00     0.143 C 
HETATM   42  C18 UNL     1     -16.899  34.468  27.377  1.00  0.00     0.143 C 
ENDBRANCH   8  40
BRANCH   9  43
HETATM   43  O4  UNL     1     -15.298  36.257  25.908  1.00  0.00    -0.391 OA
ATOM     44  H4  UNL     1     -15.332  35.316  25.785  1.00  0.00     0.210 HD
ENDBRANCH   9  43
TORSDOF 12
ENDMDL
