MODEL 1
REMARK VINA RESULT: -7.704857283      0.000      0.000
REMARK  4 active torsions:
REMARK  status: ('A' for Active; 'I' for Inactive)
REMARK    1  A    between atoms: N4_19  and  C9_20 
REMARK    2  A    between atoms: C9_20  and  C10_21 
REMARK    3  A    between atoms: C10_21  and  N5_22 
REMARK    4  A    between atoms: N5_22  and  C11_24 
ROOT
HETATM    1  O1  UNL     1       4.092  -1.989 -19.095  1.00  0.00    -0.263 OA
HETATM    2  C1  UNL     1       4.806  -2.554 -19.956  1.00  0.00     0.286 C 
HETATM    3  C2  UNL     1       6.108  -3.080 -19.488  1.00  0.00     0.343 C 
HETATM    4  N1  UNL     1       7.052  -2.057 -19.169  1.00  0.00    -0.065 N 
ATOM      5  H11 UNL     1       6.892  -1.643 -18.251  1.00  0.00     0.277 HD
ATOM      6  H12 UNL     1       6.921  -1.210 -19.723  1.00  0.00     0.277 HD
HETATM    7  C3  UNL     1       8.382  -2.620 -19.309  1.00  0.00     0.260 C 
HETATM    8  C4  UNL     1       9.234  -1.781 -20.260  1.00  0.00     0.259 C 
HETATM    9  N2  UNL     1       9.481  -2.459 -21.505  1.00  0.00    -0.072 N 
ATOM     10  H21 UNL     1       8.878  -3.276 -21.610  1.00  0.00     0.277 HD
ATOM     11  H22 UNL     1      10.386  -2.929 -21.500  1.00  0.00     0.277 HD
HETATM   12  C5  UNL     1       9.356  -1.555 -22.642  1.00  0.00     0.259 C 
HETATM   13  C6  UNL     1       9.500  -2.312 -23.923  1.00  0.00     0.259 C 
HETATM   14  N3  UNL     1       8.842  -3.594 -23.921  1.00  0.00    -0.072 N 
ATOM     15  H31 UNL     1       8.935  -4.069 -23.023  1.00  0.00     0.277 HD
ATOM     16  H32 UNL     1       9.331  -4.275 -24.502  1.00  0.00     0.277 HD
HETATM   17  C7  UNL     1       7.457  -3.443 -24.312  1.00  0.00     0.262 C 
HETATM   18  C8  UNL     1       6.581  -4.396 -23.543  1.00  0.00     0.302 C 
HETATM   19  N4  UNL     1       5.319  -3.741 -23.272  1.00  0.00     0.115 N 
HETATM   20  C14 UNL     1       5.414  -2.668 -22.347  1.00  0.00     0.450 C 
HETATM   21  O3  UNL     1       4.484  -2.726 -21.287  1.00  0.00    -0.290 OA
ENDROOT
BRANCH  19  22
HETATM   22  C9  UNL     1       4.716  -3.401 -24.525  1.00  0.00     0.294 C 
BRANCH  22  23
HETATM   23  C10 UNL     1       4.258  -1.958 -24.580  1.00  0.00     0.150 C 
BRANCH  23  24
HETATM   24  N5  UNL     1       3.160  -1.892 -25.524  1.00  0.00    -0.381 N 
ATOM     25  H5  UNL     1       2.212  -2.105 -25.214  1.00  0.00     0.160 HD
BRANCH  24  26
HETATM   26  C11 UNL     1       3.401  -1.526 -26.904  1.00  0.00     0.090 A 
HETATM   27  C12 UNL     1       2.874  -0.467 -27.592  1.00  0.00     0.128 A 
HETATM   28  N6  UNL     1       3.224  -0.317 -28.838  1.00  0.00    -0.325 N 
HETATM   29  C13 UNL     1       4.071  -1.198 -29.372  1.00  0.00     0.289 A 
ATOM     30  H6  UNL     1       2.860   0.457 -29.393  1.00  0.00     0.169 HD
HETATM   31  O2  UNL     1       4.524  -1.208 -30.577  1.00  0.00    -0.260 OA
HETATM   32  S1  UNL     1       4.382  -2.268 -28.081  1.00  0.00    -0.010 SA
ENDBRANCH  24  26
ENDBRANCH  23  24
ENDBRANCH  22  23
ENDBRANCH  19  22
TORSDOF 4
ENDMDL
MODEL 2
REMARK VINA RESULT: -7.675957766      3.421      6.904
REMARK  4 active torsions:
REMARK  status: ('A' for Active; 'I' for Inactive)
REMARK    1  A    between atoms: N4_19  and  C9_20 
REMARK    2  A    between atoms: C9_20  and  C10_21 
REMARK    3  A    between atoms: C10_21  and  N5_22 
REMARK    4  A    between atoms: N5_22  and  C11_24 
ROOT
HETATM    1  O1  UNL     1       3.034  -1.953 -26.716  1.00  0.00    -0.263 OA
HETATM    2  C1  UNL     1       4.228  -2.306 -26.574  1.00  0.00     0.286 C 
HETATM    3  C2  UNL     1       5.140  -2.010 -27.701  1.00  0.00     0.343 C 
HETATM    4  N1  UNL     1       4.892  -2.809 -28.858  1.00  0.00    -0.065 N 
ATOM      5  H11 UNL     1       4.103  -2.471 -29.411  1.00  0.00     0.277 HD
ATOM      6  H12 UNL     1       4.512  -3.728 -28.630  1.00  0.00     0.277 HD
HETATM    7  C3  UNL     1       6.124  -2.882 -29.621  1.00  0.00     0.260 C 
HETATM    8  C4  UNL     1       6.523  -4.335 -29.878  1.00  0.00     0.259 C 
HETATM    9  N2  UNL     1       7.686  -4.717 -29.121  1.00  0.00    -0.072 N 
ATOM     10  H21 UNL     1       7.906  -4.027 -28.403  1.00  0.00     0.277 HD
ATOM     11  H22 UNL     1       8.536  -4.641 -29.681  1.00  0.00     0.277 HD
HETATM   12  C5  UNL     1       7.540  -6.051 -28.552  1.00  0.00     0.259 C 
HETATM   13  C6  UNL     1       8.709  -6.371 -27.677  1.00  0.00     0.259 C 
HETATM   14  N3  UNL     1       9.152  -5.265 -26.867  1.00  0.00    -0.072 N 
ATOM     15  H31 UNL     1       9.108  -4.380 -27.372  1.00  0.00     0.277 HD
ATOM     16  H32 UNL     1      10.158  -5.292 -26.701  1.00  0.00     0.277 HD
HETATM   17  C7  UNL     1       8.400  -5.221 -25.632  1.00  0.00     0.262 C 
HETATM   18  C8  UNL     1       8.144  -3.797 -25.215  1.00  0.00     0.302 C 
HETATM   19  N4  UNL     1       6.833  -3.725 -24.608  1.00  0.00     0.115 N 
HETATM   20  C14 UNL     1       5.763  -3.928 -25.520  1.00  0.00     0.450 C 
HETATM   21  O3  UNL     1       4.756  -2.940 -25.468  1.00  0.00    -0.290 OA
ENDROOT
BRANCH  19  22
HETATM   22  C9  UNL     1       6.822  -4.592 -23.469  1.00  0.00     0.294 C 
BRANCH  22  23
HETATM   23  C10 UNL     1       6.760  -3.834 -22.159  1.00  0.00     0.150 C 
BRANCH  23  24
HETATM   24  N5  UNL     1       5.715  -2.838 -22.289  1.00  0.00    -0.381 N 
ATOM     25  H5  UNL     1       5.930  -1.929 -22.700  1.00  0.00     0.160 HD
BRANCH  24  26
HETATM   26  C11 UNL     1       4.368  -3.124 -21.841  1.00  0.00     0.090 A 
HETATM   27  C12 UNL     1       3.261  -3.350 -22.613  1.00  0.00     0.128 A 
HETATM   28  N6  UNL     1       2.134  -3.591 -22.003  1.00  0.00    -0.325 N 
HETATM   29  C13 UNL     1       2.122  -3.605 -20.669  1.00  0.00     0.289 A 
ATOM     30  H6  UNL     1       1.282  -3.766 -22.533  1.00  0.00     0.169 HD
HETATM   31  O2  UNL     1       1.111  -3.824 -19.904  1.00  0.00    -0.260 OA
HETATM   32  S1  UNL     1       3.745  -3.268 -20.264  1.00  0.00    -0.010 SA
ENDBRANCH  24  26
ENDBRANCH  23  24
ENDBRANCH  22  23
ENDBRANCH  19  22
TORSDOF 4
ENDMDL
MODEL 3
REMARK VINA RESULT: -7.640782426      3.220      7.164
REMARK  4 active torsions:
REMARK  status: ('A' for Active; 'I' for Inactive)
REMARK    1  A    between atoms: N4_19  and  C9_20 
REMARK    2  A    between atoms: C9_20  and  C10_21 
REMARK    3  A    between atoms: C10_21  and  N5_22 
REMARK    4  A    between atoms: N5_22  and  C11_24 
ROOT
HETATM    1  O1  UNL     1       3.730  -2.228 -24.985  1.00  0.00    -0.263 OA
HETATM    2  C1  UNL     1       4.887  -2.567 -25.324  1.00  0.00     0.286 C 
HETATM    3  C2  UNL     1       5.428  -1.931 -26.545  1.00  0.00     0.343 C 
HETATM    4  N1  UNL     1       4.792  -2.374 -27.745  1.00  0.00    -0.065 N 
ATOM      5  H11 UNL     1       3.894  -1.920 -27.909  1.00  0.00     0.277 HD
ATOM      6  H12 UNL     1       4.448  -3.333 -27.680  1.00  0.00     0.277 HD
HETATM    7  C3  UNL     1       5.726  -2.185 -28.839  1.00  0.00     0.260 C 
HETATM    8  C4  UNL     1       5.943  -3.490 -29.605  1.00  0.00     0.259 C 
HETATM    9  N2  UNL     1       7.257  -4.033 -29.385  1.00  0.00    -0.072 N 
ATOM     10  H21 UNL     1       7.726  -3.570 -28.606  1.00  0.00     0.277 HD
ATOM     11  H22 UNL     1       7.899  -3.772 -30.134  1.00  0.00     0.277 HD
HETATM   12  C5  UNL     1       7.215  -5.479 -29.198  1.00  0.00     0.259 C 
HETATM   13  C6  UNL     1       8.575  -5.996 -28.855  1.00  0.00     0.259 C 
HETATM   14  N3  UNL     1       9.307  -5.153 -27.944  1.00  0.00    -0.072 N 
ATOM     15  H31 UNL     1       9.162  -4.162 -28.140  1.00  0.00     0.277 HD
ATOM     16  H32 UNL     1      10.313  -5.193 -28.111  1.00  0.00     0.277 HD
HETATM   17  C7  UNL     1       8.972  -5.489 -26.577  1.00  0.00     0.262 C 
HETATM   18  C8  UNL     1       8.938  -4.252 -25.719  1.00  0.00     0.302 C 
HETATM   19  N4  UNL     1       7.881  -4.401 -24.742  1.00  0.00     0.115 N 
HETATM   20  C14 UNL     1       6.575  -4.370 -25.297  1.00  0.00     0.450 C 
HETATM   21  O3  UNL     1       5.691  -3.473 -24.660  1.00  0.00    -0.290 OA
ENDROOT
BRANCH  19  22
HETATM   22  C9  UNL     1       8.169  -5.557 -23.948  1.00  0.00     0.294 C 
BRANCH  22  23
HETATM   23  C10 UNL     1       7.671  -5.425 -22.523  1.00  0.00     0.150 C 
BRANCH  23  24
HETATM   24  N5  UNL     1       7.671  -4.012 -22.198  1.00  0.00    -0.381 N 
ATOM     25  H5  UNL     1       8.325  -3.385 -22.666  1.00  0.00     0.160 HD
BRANCH  24  26
HETATM   26  C11 UNL     1       6.748  -3.486 -21.214  1.00  0.00     0.090 A 
HETATM   27  C12 UNL     1       7.050  -2.844 -20.044  1.00  0.00     0.128 A 
HETATM   28  N6  UNL     1       6.059  -2.447 -19.296  1.00  0.00    -0.325 N 
HETATM   29  C13 UNL     1       4.814  -2.687 -19.708  1.00  0.00     0.289 A 
ATOM     30  H6  UNL     1       6.233  -1.963 -18.416  1.00  0.00     0.169 HD
HETATM   31  O2  UNL     1       3.722  -2.370 -19.105  1.00  0.00    -0.260 OA
HETATM   32  S1  UNL     1       5.046  -3.495 -21.193  1.00  0.00    -0.010 SA
ENDBRANCH  24  26
ENDBRANCH  23  24
ENDBRANCH  22  23
ENDBRANCH  19  22
TORSDOF 4
ENDMDL
MODEL 4
REMARK VINA RESULT: -7.375152319      3.769      7.080
REMARK  4 active torsions:
REMARK  status: ('A' for Active; 'I' for Inactive)
REMARK    1  A    between atoms: N4_19  and  C9_20 
REMARK    2  A    between atoms: C9_20  and  C10_21 
REMARK    3  A    between atoms: C10_21  and  N5_22 
REMARK    4  A    between atoms: N5_22  and  C11_24 
ROOT
HETATM    1  O1  UNL     1       5.962  -3.439 -22.866  1.00  0.00    -0.263 OA
HETATM    2  C1  UNL     1       6.202  -2.960 -23.999  1.00  0.00     0.286 C 
HETATM    3  C2  UNL     1       6.124  -1.488 -24.122  1.00  0.00     0.343 C 
HETATM    4  N1  UNL     1       4.792  -0.980 -24.031  1.00  0.00    -0.065 N 
ATOM      5  H11 UNL     1       4.457  -0.915 -23.070  1.00  0.00     0.277 HD
ATOM      6  H12 UNL     1       4.093  -1.640 -24.374  1.00  0.00     0.277 HD
HETATM    7  C3  UNL     1       4.754   0.292 -24.728  1.00  0.00     0.260 C 
HETATM    8  C4  UNL     1       3.663   0.297 -25.798  1.00  0.00     0.259 C 
HETATM    9  N2  UNL     1       4.211   0.280 -27.128  1.00  0.00    -0.072 N 
ATOM     10  H21 UNL     1       5.207   0.059 -27.118  1.00  0.00     0.277 HD
ATOM     11  H22 UNL     1       4.261   1.219 -27.523  1.00  0.00     0.277 HD
HETATM   12  C5  UNL     1       3.473  -0.626 -28.001  1.00  0.00     0.259 C 
HETATM   13  C6  UNL     1       4.137  -0.712 -29.338  1.00  0.00     0.259 C 
HETATM   14  N3  UNL     1       5.576  -0.754 -29.274  1.00  0.00    -0.072 N 
ATOM     15  H31 UNL     1       5.944  -0.137 -28.550  1.00  0.00     0.277 HD
ATOM     16  H32 UNL     1       6.007  -0.308 -30.083  1.00  0.00     0.277 HD
HETATM   17  C7  UNL     1       6.027  -2.118 -29.103  1.00  0.00     0.262 C 
HETATM   18  C8  UNL     1       7.236  -2.170 -28.208  1.00  0.00     0.302 C 
HETATM   19  N4  UNL     1       7.159  -3.370 -27.402  1.00  0.00     0.115 N 
HETATM   20  C14 UNL     1       6.119  -3.350 -26.436  1.00  0.00     0.450 C 
HETATM   21  O3  UNL     1       6.530  -3.684 -25.128  1.00  0.00    -0.290 OA
ENDROOT
BRANCH  19  22
HETATM   22  C9  UNL     1       7.137  -4.497 -28.284  1.00  0.00     0.294 C 
BRANCH  22  23
HETATM   23  C10 UNL     1       8.343  -5.398 -28.110  1.00  0.00     0.150 C 
BRANCH  23  24
HETATM   24  N5  UNL     1       8.904  -5.115 -26.804  1.00  0.00    -0.381 N 
ATOM     25  H5  UNL     1       9.230  -4.174 -26.586  1.00  0.00     0.160 HD
BRANCH  24  26
HETATM   26  C11 UNL     1       9.005  -6.160 -25.808  1.00  0.00     0.090 A 
HETATM   27  C12 UNL     1       8.927  -6.029 -24.448  1.00  0.00     0.128 A 
HETATM   28  N6  UNL     1       9.045  -7.108 -23.725  1.00  0.00    -0.325 N 
HETATM   29  C13 UNL     1       9.234  -8.273 -24.347  1.00  0.00     0.289 A 
ATOM     30  H6  UNL     1       8.993  -7.062 -22.708  1.00  0.00     0.169 HD
HETATM   31  O2  UNL     1       9.370  -9.430 -23.801  1.00  0.00    -0.260 OA
HETATM   32  S1  UNL     1       9.246  -7.835 -25.995  1.00  0.00    -0.010 SA
ENDBRANCH  24  26
ENDBRANCH  23  24
ENDBRANCH  22  23
ENDBRANCH  19  22
TORSDOF 4
ENDMDL
MODEL 5
REMARK VINA RESULT: -7.331878890      3.804      7.765
REMARK  4 active torsions:
REMARK  status: ('A' for Active; 'I' for Inactive)
REMARK    1  A    between atoms: N4_19  and  C9_20 
REMARK    2  A    between atoms: C9_20  and  C10_21 
REMARK    3  A    between atoms: C10_21  and  N5_22 
REMARK    4  A    between atoms: N5_22  and  C11_24 
ROOT
HETATM    1  O1  UNL     1       9.667  -6.713 -27.831  1.00  0.00    -0.263 OA
HETATM    2  C1  UNL     1       8.685  -6.054 -27.416  1.00  0.00     0.286 C 
HETATM    3  C2  UNL     1       7.487  -6.041 -28.284  1.00  0.00     0.343 C 
HETATM    4  N1  UNL     1       7.665  -5.290 -29.486  1.00  0.00    -0.065 N 
ATOM      5  H11 UNL     1       8.176  -5.806 -30.203  1.00  0.00     0.277 HD
ATOM      6  H12 UNL     1       8.326  -4.520 -29.378  1.00  0.00     0.277 HD
HETATM    7  C3  UNL     1       6.357  -4.851 -29.933  1.00  0.00     0.260 C 
HETATM    8  C4  UNL     1       6.324  -3.335 -30.122  1.00  0.00     0.259 C 
HETATM    9  N2  UNL     1       5.525  -2.683 -29.119  1.00  0.00    -0.072 N 
ATOM     10  H21 UNL     1       5.299  -3.317 -28.352  1.00  0.00     0.277 HD
ATOM     11  H22 UNL     1       4.580  -2.500 -29.457  1.00  0.00     0.277 HD
HETATM   12  C5  UNL     1       6.163  -1.465 -28.634  1.00  0.00     0.259 C 
HETATM   13  C6  UNL     1       5.368  -0.876 -27.512  1.00  0.00     0.259 C 
HETATM   14  N3  UNL     1       4.843  -1.854 -26.593  1.00  0.00    -0.072 N 
ATOM     15  H31 UNL     1       4.521  -2.695 -27.072  1.00  0.00     0.277 HD
ATOM     16  H32 UNL     1       3.952  -1.561 -26.191  1.00  0.00     0.277 HD
HETATM   17  C7  UNL     1       5.823  -2.155 -25.573  1.00  0.00     0.262 C 
HETATM   18  C8  UNL     1       5.768  -3.611 -25.196  1.00  0.00     0.302 C 
HETATM   19  N4  UNL     1       7.114  -4.065 -24.918  1.00  0.00     0.115 N 
HETATM   20  C14 UNL     1       7.951  -4.122 -26.064  1.00  0.00     0.450 C 
HETATM   21  O3  UNL     1       8.629  -5.349 -26.231  1.00  0.00    -0.290 OA
ENDROOT
BRANCH  19  22
HETATM   22  C9  UNL     1       7.632  -3.284 -23.836  1.00  0.00     0.294 C 
BRANCH  22  23
HETATM   23  C10 UNL     1       8.158  -4.137 -22.700  1.00  0.00     0.150 C 
BRANCH  23  24
HETATM   24  N5  UNL     1       7.019  -4.808 -22.105  1.00  0.00    -0.381 N 
ATOM     25  H5  UNL     1       6.916  -5.818 -22.206  1.00  0.00     0.160 HD
BRANCH  24  26
HETATM   26  C11 UNL     1       6.025  -4.055 -21.370  1.00  0.00     0.090 A 
HETATM   27  C12 UNL     1       4.677  -4.005 -21.596  1.00  0.00     0.128 A 
HETATM   28  N6  UNL     1       3.955  -3.257 -20.809  1.00  0.00    -0.325 N 
HETATM   29  C13 UNL     1       4.567  -2.585 -19.833  1.00  0.00     0.289 A 
ATOM     30  H6  UNL     1       2.946  -3.188 -20.936  1.00  0.00     0.169 HD
HETATM   31  O2  UNL     1       4.021  -1.805 -18.967  1.00  0.00    -0.260 OA
HETATM   32  S1  UNL     1       6.205  -3.019 -20.030  1.00  0.00    -0.010 SA
ENDBRANCH  24  26
ENDBRANCH  23  24
ENDBRANCH  22  23
ENDBRANCH  19  22
TORSDOF 4
ENDMDL
