MODEL 1
REMARK VINA RESULT: -6.899431989      0.000      0.000
REMARK  8 active torsions:
REMARK  status: ('A' for Active; 'I' for Inactive)
REMARK    1  A    between atoms: C3_4  and  O2_5 
REMARK    2  A    between atoms: O2_5  and  C4_6 
REMARK    3  A    between atoms: C6_9  and  O4_10 
REMARK    4  A    between atoms: C7_12  and  O5_13 
REMARK    5  A    between atoms: C8_15  and  O6_16 
REMARK    6  A    between atoms: C9_18  and  O7_19 
REMARK    7  A    between atoms: C10_21  and  O8_22 
REMARK    8  A    between atoms: C11_24  and  O9_25 
ROOT
HETATM    1  C1  UNL     1      36.100  68.529  20.795  1.00  0.00     0.042 C 
HETATM    2  C2  UNL     1      34.717  68.050  20.500  1.00  0.00     0.152 C 
HETATM    3  O1  UNL     1      34.188  68.678  19.438  1.00  0.00    -0.351 OA
HETATM    4  C3  UNL     1      33.044  68.179  18.885  1.00  0.00     0.294 C 
HETATM    5  C9  UNL     1      32.459  66.969  19.488  1.00  0.00     0.204 C 
HETATM    6  C10 UNL     1      33.366  66.095  20.271  1.00  0.00     0.183 C 
HETATM    7  C11 UNL     1      34.812  66.553  20.178  1.00  0.00     0.178 C 
ENDROOT
BRANCH   4   8
HETATM    8  O2  UNL     1      33.293  67.957  17.547  1.00  0.00    -0.326 OA
BRANCH   8   9
HETATM    9  C4  UNL     1      34.193  68.785  16.948  1.00  0.00     0.294 C 
HETATM   10  O3  UNL     1      33.599  69.604  16.001  1.00  0.00    -0.356 OA
HETATM   11  C5  UNL     1      33.560  69.021  14.738  1.00  0.00     0.205 C 
HETATM   12  C6  UNL     1      34.954  68.928  14.143  1.00  0.00     0.173 C 
HETATM   13  C7  UNL     1      35.938  69.108  15.299  1.00  0.00     0.182 C 
HETATM   14  C8  UNL     1      35.413  68.192  16.389  1.00  0.00     0.204 C 
BRANCH  12  15
HETATM   15  O4  UNL     1      35.114  70.000  13.273  1.00  0.00    -0.391 OA
ATOM     16  H4  UNL     1      35.140  70.793  13.796  1.00  0.00     0.210 HD
ENDBRANCH  12  15
BRANCH  13  17
HETATM   17  O5  UNL     1      37.224  68.814  14.921  1.00  0.00    -0.390 OA
ATOM     18  H5  UNL     1      37.249  68.116  14.277  1.00  0.00     0.210 HD
ENDBRANCH  13  17
BRANCH  14  19
HETATM   19  O6  UNL     1      35.177  66.954  15.742  1.00  0.00    -0.388 OA
ATOM     20  H6  UNL     1      35.919  66.363  15.794  1.00  0.00     0.210 HD
ENDBRANCH  14  19
ENDBRANCH   8   9
ENDBRANCH   4   8
BRANCH   5  21
HETATM   21  O7  UNL     1      31.921  66.154  18.462  1.00  0.00    -0.388 OA
ATOM     22  H7  UNL     1      31.934  65.248  18.746  1.00  0.00     0.210 HD
ENDBRANCH   5  21
BRANCH   6  23
HETATM   23  O8  UNL     1      33.297  64.747  19.912  1.00  0.00    -0.390 OA
ATOM     24  H8  UNL     1      33.796  64.174  20.481  1.00  0.00     0.210 HD
ENDBRANCH   6  23
BRANCH   7  25
HETATM   25  O9  UNL     1      35.580  65.884  21.120  1.00  0.00    -0.390 OA
ATOM     26  H9  UNL     1      36.359  65.509  20.727  1.00  0.00     0.210 HD
ENDBRANCH   7  25
TORSDOF 8
ENDMDL
MODEL 2
REMARK VINA RESULT: -6.673653328      1.854      3.194
REMARK  8 active torsions:
REMARK  status: ('A' for Active; 'I' for Inactive)
REMARK    1  A    between atoms: C3_4  and  O2_5 
REMARK    2  A    between atoms: O2_5  and  C4_6 
REMARK    3  A    between atoms: C6_9  and  O4_10 
REMARK    4  A    between atoms: C7_12  and  O5_13 
REMARK    5  A    between atoms: C8_15  and  O6_16 
REMARK    6  A    between atoms: C9_18  and  O7_19 
REMARK    7  A    between atoms: C10_21  and  O8_22 
REMARK    8  A    between atoms: C11_24  and  O9_25 
ROOT
HETATM    1  C1  UNL     1      31.164  66.720  21.512  1.00  0.00     0.042 C 
HETATM    2  C2  UNL     1      32.634  66.504  21.374  1.00  0.00     0.152 C 
HETATM    3  O1  UNL     1      33.007  66.416  20.087  1.00  0.00    -0.351 OA
HETATM    4  C3  UNL     1      34.336  66.479  19.784  1.00  0.00     0.294 C 
HETATM    5  C9  UNL     1      35.288  66.646  20.895  1.00  0.00     0.204 C 
HETATM    6  C10 UNL     1      34.769  67.242  22.150  1.00  0.00     0.183 C 
HETATM    7  C11 UNL     1      33.334  67.720  21.997  1.00  0.00     0.178 C 
ENDROOT
BRANCH   4   8
HETATM    8  O2  UNL     1      34.505  67.497  18.869  1.00  0.00    -0.326 OA
BRANCH   8   9
HETATM    9  C4  UNL     1      35.218  67.199  17.748  1.00  0.00     0.294 C 
HETATM   10  O3  UNL     1      36.465  67.804  17.747  1.00  0.00    -0.356 OA
HETATM   11  C5  UNL     1      36.442  69.076  17.182  1.00  0.00     0.205 C 
HETATM   12  C6  UNL     1      36.206  68.997  15.684  1.00  0.00     0.173 C 
HETATM   13  C7  UNL     1      35.655  67.599  15.399  1.00  0.00     0.182 C 
HETATM   14  C8  UNL     1      34.574  67.398  16.445  1.00  0.00     0.204 C 
BRANCH  12  15
HETATM   15  O4  UNL     1      37.441  69.106  15.056  1.00  0.00    -0.391 OA
ATOM     16  H4  UNL     1      37.301  69.529  14.217  1.00  0.00     0.210 HD
ENDBRANCH  12  15
BRANCH  13  17
HETATM   17  O5  UNL     1      35.188  67.491  14.114  1.00  0.00    -0.390 OA
ATOM     18  H5  UNL     1      34.742  66.664  13.971  1.00  0.00     0.210 HD
ENDBRANCH  13  17
BRANCH  14  19
HETATM   19  O6  UNL     1      33.792  68.579  16.392  1.00  0.00    -0.388 OA
ATOM     20  H6  UNL     1      33.007  68.526  16.924  1.00  0.00     0.210 HD
ENDBRANCH  14  19
ENDBRANCH   8   9
ENDBRANCH   4   8
BRANCH   5  21
HETATM   21  O7  UNL     1      36.349  67.486  20.473  1.00  0.00    -0.388 OA
ATOM     22  H7  UNL     1      36.616  68.035  21.200  1.00  0.00     0.210 HD
ENDBRANCH   5  21
BRANCH   6  23
HETATM   23  O8  UNL     1      35.545  68.297  22.634  1.00  0.00    -0.390 OA
ATOM     24  H8  UNL     1      35.313  69.142  22.268  1.00  0.00     0.210 HD
ENDBRANCH   6  23
BRANCH   7  25
HETATM   25  O9  UNL     1      32.803  68.022  23.243  1.00  0.00    -0.390 OA
ATOM     26  H9  UNL     1      33.471  67.995  23.917  1.00  0.00     0.210 HD
ENDBRANCH   7  25
TORSDOF 8
ENDMDL
MODEL 3
REMARK VINA RESULT: -6.472010345      1.623      5.765
REMARK  8 active torsions:
REMARK  status: ('A' for Active; 'I' for Inactive)
REMARK    1  A    between atoms: C3_4  and  O2_5 
REMARK    2  A    between atoms: O2_5  and  C4_6 
REMARK    3  A    between atoms: C6_9  and  O4_10 
REMARK    4  A    between atoms: C7_12  and  O5_13 
REMARK    5  A    between atoms: C8_15  and  O6_16 
REMARK    6  A    between atoms: C9_18  and  O7_19 
REMARK    7  A    between atoms: C10_21  and  O8_22 
REMARK    8  A    between atoms: C11_24  and  O9_25 
ROOT
HETATM    1  C1  UNL     1      36.424  71.302  17.106  1.00  0.00     0.042 C 
HETATM    2  C2  UNL     1      36.286  69.818  17.188  1.00  0.00     0.152 C 
HETATM    3  O1  UNL     1      35.506  69.446  18.216  1.00  0.00    -0.351 OA
HETATM    4  C3  UNL     1      35.073  68.153  18.276  1.00  0.00     0.294 C 
HETATM    5  C9  UNL     1      35.485  67.238  17.196  1.00  0.00     0.204 C 
HETATM    6  C10 UNL     1      35.874  67.849  15.902  1.00  0.00     0.183 C 
HETATM    7  C11 UNL     1      35.624  69.348  15.886  1.00  0.00     0.178 C 
ENDROOT
BRANCH   4   8
HETATM    8  O2  UNL     1      33.696  68.181  18.361  1.00  0.00    -0.326 OA
BRANCH   8   9
HETATM    9  C4  UNL     1      33.160  68.072  19.608  1.00  0.00     0.294 C 
HETATM   10  O3  UNL     1      34.132  68.069  20.595  1.00  0.00    -0.356 OA
HETATM   11  C5  UNL     1      34.604  66.791  20.878  1.00  0.00     0.205 C 
HETATM   12  C6  UNL     1      33.540  65.964  21.578  1.00  0.00     0.173 C 
HETATM   13  C7  UNL     1      32.206  66.674  21.342  1.00  0.00     0.182 C 
HETATM   14  C8  UNL     1      32.203  66.989  19.857  1.00  0.00     0.204 C 
BRANCH  12  15
HETATM   15  O4  UNL     1      33.808  66.000  22.942  1.00  0.00    -0.391 OA
ATOM     16  H4  UNL     1      33.370  65.258  23.341  1.00  0.00     0.210 HD
ENDBRANCH  12  15
BRANCH  13  17
HETATM   17  O5  UNL     1      31.144  65.900  21.731  1.00  0.00    -0.390 OA
ATOM     18  H5  UNL     1      31.426  65.142  22.230  1.00  0.00     0.210 HD
ENDBRANCH  13  17
BRANCH  14  19
HETATM   19  O6  UNL     1      32.571  65.773  19.227  1.00  0.00    -0.388 OA
ATOM     20  H6  UNL     1      32.456  65.017  19.790  1.00  0.00     0.210 HD
ENDBRANCH  14  19
ENDBRANCH   8   9
ENDBRANCH   4   8
BRANCH   5  21
HETATM   21  O7  UNL     1      34.417  66.354  16.907  1.00  0.00    -0.388 OA
ATOM     22  H7  UNL     1      34.266  66.347  15.969  1.00  0.00     0.210 HD
ENDBRANCH   5  21
BRANCH   6  23
HETATM   23  O8  UNL     1      35.239  67.275  14.798  1.00  0.00    -0.390 OA
ATOM     24  H8  UNL     1      35.775  66.642  14.335  1.00  0.00     0.210 HD
ENDBRANCH   6  23
BRANCH   7  25
HETATM   25  O9  UNL     1      36.236  69.916  14.778  1.00  0.00    -0.390 OA
ATOM     26  H9  UNL     1      35.834  69.616  13.971  1.00  0.00     0.210 HD
ENDBRANCH   7  25
TORSDOF 8
ENDMDL
MODEL 4
REMARK VINA RESULT: -6.449452022      1.384      5.935
REMARK  8 active torsions:
REMARK  status: ('A' for Active; 'I' for Inactive)
REMARK    1  A    between atoms: C3_4  and  O2_5 
REMARK    2  A    between atoms: O2_5  and  C4_6 
REMARK    3  A    between atoms: C6_9  and  O4_10 
REMARK    4  A    between atoms: C7_12  and  O5_13 
REMARK    5  A    between atoms: C8_15  and  O6_16 
REMARK    6  A    between atoms: C9_18  and  O7_19 
REMARK    7  A    between atoms: C10_21  and  O8_22 
REMARK    8  A    between atoms: C11_24  and  O9_25 
ROOT
HETATM    1  C1  UNL     1      34.448  71.938  15.008  1.00  0.00     0.042 C 
HETATM    2  C2  UNL     1      35.050  70.599  15.282  1.00  0.00     0.152 C 
HETATM    3  O1  UNL     1      34.660  70.111  16.471  1.00  0.00    -0.351 OA
HETATM    4  C3  UNL     1      34.910  68.800  16.755  1.00  0.00     0.294 C 
HETATM    5  C9  UNL     1      35.592  67.991  15.729  1.00  0.00     0.204 C 
HETATM    6  C10 UNL     1      35.498  68.458  14.325  1.00  0.00     0.183 C 
HETATM    7  C11 UNL     1      34.559  69.646  14.185  1.00  0.00     0.178 C 
ENDROOT
BRANCH   4   8
HETATM    8  O2  UNL     1      33.708  68.211  17.088  1.00  0.00    -0.326 OA
BRANCH   8   9
HETATM    9  C4  UNL     1      33.419  68.122  18.415  1.00  0.00     0.294 C 
HETATM   10  O3  UNL     1      34.526  67.764  19.167  1.00  0.00    -0.356 OA
HETATM   11  C5  UNL     1      34.671  66.385  19.285  1.00  0.00     0.205 C 
HETATM   12  C6  UNL     1      33.579  65.801  20.163  1.00  0.00     0.173 C 
HETATM   13  C7  UNL     1      32.475  66.856  20.253  1.00  0.00     0.182 C 
HETATM   14  C8  UNL     1      32.267  67.308  18.819  1.00  0.00     0.204 C 
BRANCH  12  15
HETATM   15  O4  UNL     1      34.109  65.627  21.436  1.00  0.00    -0.391 OA
ATOM     16  H4  UNL     1      34.747  66.316  21.579  1.00  0.00     0.210 HD
ENDBRANCH  12  15
BRANCH  13  17
HETATM   17  O5  UNL     1      31.337  66.352  20.830  1.00  0.00    -0.390 OA
ATOM     18  H5  UNL     1      31.031  65.573  20.380  1.00  0.00     0.210 HD
ENDBRANCH  13  17
BRANCH  14  19
HETATM   19  O6  UNL     1      32.151  66.108  18.073  1.00  0.00    -0.388 OA
ATOM     20  H6  UNL     1      32.950  65.882  17.612  1.00  0.00     0.210 HD
ENDBRANCH  14  19
ENDBRANCH   8   9
ENDBRANCH   4   8
BRANCH   5  21
HETATM   21  O7  UNL     1      35.056  66.680  15.742  1.00  0.00    -0.388 OA
ATOM     22  H7  UNL     1      35.415  66.191  15.011  1.00  0.00     0.210 HD
ENDBRANCH   5  21
BRANCH   6  23
HETATM   23  O8  UNL     1      35.101  67.464  13.427  1.00  0.00    -0.390 OA
ATOM     24  H8  UNL     1      34.210  67.163  13.558  1.00  0.00     0.210 HD
ENDBRANCH   6  23
BRANCH   7  25
HETATM   25  O9  UNL     1      34.699  70.212  12.927  1.00  0.00    -0.390 OA
ATOM     26  H9  UNL     1      35.188  69.642  12.345  1.00  0.00     0.210 HD
ENDBRANCH   7  25
TORSDOF 8
ENDMDL
MODEL 5
REMARK VINA RESULT: -6.448871520      2.008      6.018
REMARK  8 active torsions:
REMARK  status: ('A' for Active; 'I' for Inactive)
REMARK    1  A    between atoms: C3_4  and  O2_5 
REMARK    2  A    between atoms: O2_5  and  C4_6 
REMARK    3  A    between atoms: C6_9  and  O4_10 
REMARK    4  A    between atoms: C7_12  and  O5_13 
REMARK    5  A    between atoms: C8_15  and  O6_16 
REMARK    6  A    between atoms: C9_18  and  O7_19 
REMARK    7  A    between atoms: C10_21  and  O8_22 
REMARK    8  A    between atoms: C11_24  and  O9_25 
ROOT
HETATM    1  C1  UNL     1      36.672  71.171  17.291  1.00  0.00     0.042 C 
HETATM    2  C2  UNL     1      36.364  69.732  17.039  1.00  0.00     0.152 C 
HETATM    3  O1  UNL     1      36.071  69.078  18.174  1.00  0.00    -0.351 OA
HETATM    4  C3  UNL     1      35.520  67.832  18.089  1.00  0.00     0.294 C 
HETATM    5  C9  UNL     1      35.273  67.279  16.746  1.00  0.00     0.204 C 
HETATM    6  C10 UNL     1      35.139  68.244  15.629  1.00  0.00     0.183 C 
HETATM    7  C11 UNL     1      35.135  69.683  16.122  1.00  0.00     0.178 C 
ENDROOT
BRANCH   4   8
HETATM    8  O2  UNL     1      34.344  67.849  18.809  1.00  0.00    -0.326 OA
BRANCH   8   9
HETATM    9  C4  UNL     1      34.454  68.013  20.156  1.00  0.00     0.294 C 
HETATM   10  O3  UNL     1      35.132  66.963  20.755  1.00  0.00    -0.356 OA
HETATM   11  C5  UNL     1      34.286  65.922  21.127  1.00  0.00     0.205 C 
HETATM   12  C6  UNL     1      33.400  66.336  22.288  1.00  0.00     0.173 C 
HETATM   13  C7  UNL     1      33.446  67.863  22.354  1.00  0.00     0.182 C 
HETATM   14  C8  UNL     1      33.237  68.310  20.919  1.00  0.00     0.204 C 
BRANCH  12  15
HETATM   15  O4  UNL     1      33.972  65.840  23.453  1.00  0.00    -0.391 OA
ATOM     16  H4  UNL     1      33.381  66.035  24.171  1.00  0.00     0.210 HD
ENDBRANCH  12  15
BRANCH  13  17
HETATM   17  O5  UNL     1      32.504  68.362  23.217  1.00  0.00    -0.390 OA
ATOM     18  H5  UNL     1      32.884  68.974  23.836  1.00  0.00     0.210 HD
ENDBRANCH  13  17
BRANCH  14  19
HETATM   19  O6  UNL     1      32.111  67.575  20.470  1.00  0.00    -0.388 OA
ATOM     20  H6  UNL     1      31.927  67.710  19.548  1.00  0.00     0.210 HD
ENDBRANCH  14  19
ENDBRANCH   8   9
ENDBRANCH   4   8
BRANCH   5  21
HETATM   21  O7  UNL     1      34.068  66.534  16.767  1.00  0.00    -0.388 OA
ATOM     22  H7  UNL     1      33.344  67.111  16.555  1.00  0.00     0.210 HD
ENDBRANCH   5  21
BRANCH   6  23
HETATM   23  O8  UNL     1      34.005  68.037  14.840  1.00  0.00    -0.390 OA
ATOM     24  H8  UNL     1      33.262  67.693  15.321  1.00  0.00     0.210 HD
ENDBRANCH   6  23
BRANCH   7  25
HETATM   25  O9  UNL     1      35.273  70.549  15.048  1.00  0.00    -0.390 OA
ATOM     26  H9  UNL     1      34.638  71.254  15.089  1.00  0.00     0.210 HD
ENDBRANCH   7  25
TORSDOF 8
ENDMDL
