MODEL 1
REMARK VINA RESULT: -8.335479216      0.000      0.000
REMARK  8 active torsions:
REMARK  status: ('A' for Active; 'I' for Inactive)
REMARK    1  A    between atoms: C2_2  and  C4_4 
REMARK    2  A    between atoms: C6_6  and  N1_7 
REMARK    3  A    between atoms: C9_12  and  C10_13 
REMARK    4  A    between atoms: C10_13  and  N2_14 
REMARK    5  A    between atoms: N2_14  and  C11_15 
REMARK    6  A    between atoms: N2_14  and  C16_25 
REMARK    7  A    between atoms: C11_15  and  C12_16 
REMARK    8  A    between atoms: C21_30  and  O5_31 
ROOT
HETATM    1  C12 UNL     1     -52.948  21.290  29.386  1.00  0.00     0.209 C 
HETATM    2  O3  UNL     1     -52.469  22.211  28.457  1.00  0.00    -0.290 OA
HETATM    3  C13 UNL     1     -51.524  21.592  27.658  1.00  0.00     0.362 C 
HETATM    4  O4  UNL     1     -50.937  22.060  26.637  1.00  0.00    -0.238 OA
HETATM    5  N3  UNL     1     -51.270  20.282  28.145  1.00  0.00    -0.317 N 
ATOM      6  H3  UNL     1     -50.661  19.588  27.710  1.00  0.00     0.166 HD
HETATM    7  C14 UNL     1     -52.029  20.104  29.368  1.00  0.00     0.228 C 
HETATM    8  C15 UNL     1     -52.836  18.891  29.342  1.00  0.00     0.087 C 
HETATM    9  N4  UNL     1     -53.463  17.909  29.318  1.00  0.00    -0.195 NA
ENDROOT
BRANCH   1  10
HETATM   10  C11 UNL     1     -53.075  21.857  30.798  1.00  0.00     0.099 C 
BRANCH  10  11
HETATM   11  N2  UNL     1     -54.352  22.131  31.250  1.00  0.00    -0.360 N 
BRANCH  11  12
HETATM   12  C10 UNL     1     -55.361  21.190  31.420  1.00  0.00     0.102 C 
BRANCH  12  13
HETATM   13  C9  UNL     1     -56.476  21.140  30.476  1.00  0.00    -0.014 A 
HETATM   14  C4  UNL     1     -57.188  19.975  30.305  1.00  0.00    -0.041 A 
HETATM   15  C5  UNL     1     -58.267  19.901  29.420  1.00  0.00     0.044 A 
HETATM   16  C6  UNL     1     -58.661  20.977  28.690  1.00  0.00     0.103 A 
HETATM   17  C7  UNL     1     -57.968  22.154  28.844  1.00  0.00     0.037 A 
HETATM   18  C8  UNL     1     -56.889  22.218  29.733  1.00  0.00     0.016 A 
BRANCH  14  19
HETATM   19  C2  UNL     1     -56.865  18.753  31.067  1.00  0.00     0.011 C 
HETATM   20  C1  UNL     1     -56.730  17.550  30.136  1.00  0.00     0.015 C 
HETATM   21  C3  UNL     1     -58.067  18.392  31.951  1.00  0.00     0.015 C 
ENDBRANCH  14  19
BRANCH  16  22
HETATM   22  N1  UNL     1     -59.777  20.876  27.785  1.00  0.00    -0.116 N 
HETATM   23  O1  UNL     1     -59.655  21.239  26.606  1.00  0.00    -0.532 OA
HETATM   24  O2  UNL     1     -60.962  20.385  28.214  1.00  0.00    -0.532 OA
ENDBRANCH  16  22
ENDBRANCH  12  13
ENDBRANCH  11  12
BRANCH  11  25
HETATM   25  C16 UNL     1     -54.557  23.356  31.923  1.00  0.00     0.117 C 
HETATM   26  C17 UNL     1     -53.537  23.641  33.009  1.00  0.00     0.028 C 
HETATM   27  C18 UNL     1     -54.079  24.812  33.816  1.00  0.00     0.002 C 
HETATM   28  C19 UNL     1     -54.107  26.081  33.004  1.00  0.00     0.003 C 
HETATM   29  C20 UNL     1     -53.803  25.739  31.582  1.00  0.00     0.034 C 
HETATM   30  C21 UNL     1     -54.677  24.580  31.079  1.00  0.00     0.141 C 
BRANCH  30  31
HETATM   31  O5  UNL     1     -54.361  24.408  29.744  1.00  0.00    -0.393 OA
ATOM     32  H5  UNL     1     -53.432  24.399  29.547  1.00  0.00     0.210 HD
ENDBRANCH  30  31
ENDBRANCH  11  25
ENDBRANCH  10  11
ENDBRANCH   1  10
TORSDOF 8
ENDMDL
MODEL 2
REMARK VINA RESULT: -8.127299323      1.319      1.590
REMARK  8 active torsions:
REMARK  status: ('A' for Active; 'I' for Inactive)
REMARK    1  A    between atoms: C2_2  and  C4_4 
REMARK    2  A    between atoms: C6_6  and  N1_7 
REMARK    3  A    between atoms: C9_12  and  C10_13 
REMARK    4  A    between atoms: C10_13  and  N2_14 
REMARK    5  A    between atoms: N2_14  and  C11_15 
REMARK    6  A    between atoms: N2_14  and  C16_25 
REMARK    7  A    between atoms: C11_15  and  C12_16 
REMARK    8  A    between atoms: C21_30  and  O5_31 
ROOT
HETATM    1  C12 UNL     1     -52.577  21.753  29.712  1.00  0.00     0.209 C 
HETATM    2  O3  UNL     1     -52.813  21.098  28.505  1.00  0.00    -0.290 OA
HETATM    3  C13 UNL     1     -51.601  20.852  27.884  1.00  0.00     0.362 C 
HETATM    4  O4  UNL     1     -51.385  20.188  26.826  1.00  0.00    -0.238 OA
HETATM    5  N3  UNL     1     -50.553  21.469  28.619  1.00  0.00    -0.317 N 
ATOM      6  H3  UNL     1     -49.556  21.398  28.416  1.00  0.00     0.166 HD
HETATM    7  C14 UNL     1     -51.151  22.219  29.707  1.00  0.00     0.228 C 
HETATM    8  C15 UNL     1     -50.550  21.891  30.993  1.00  0.00     0.087 C 
HETATM    9  N4  UNL     1     -50.050  21.635  32.015  1.00  0.00    -0.195 NA
ENDROOT
BRANCH   1  10
HETATM   10  C11 UNL     1     -53.528  22.919  29.969  1.00  0.00     0.099 C 
BRANCH  10  11
HETATM   11  N2  UNL     1     -54.549  22.706  30.877  1.00  0.00    -0.360 N 
BRANCH  11  12
HETATM   12  C10 UNL     1     -55.271  21.525  31.007  1.00  0.00     0.102 C 
BRANCH  12  13
HETATM   13  C9  UNL     1     -56.505  21.338  30.245  1.00  0.00    -0.014 A 
HETATM   14  C4  UNL     1     -57.179  20.140  30.301  1.00  0.00    -0.041 A 
HETATM   15  C5  UNL     1     -58.367  19.937  29.594  1.00  0.00     0.044 A 
HETATM   16  C6  UNL     1     -58.910  20.913  28.821  1.00  0.00     0.103 A 
HETATM   17  C7  UNL     1     -58.256  22.121  28.750  1.00  0.00     0.037 A 
HETATM   18  C8  UNL     1     -57.067  22.315  29.462  1.00  0.00     0.016 A 
BRANCH  14  19
HETATM   19  C2  UNL     1     -56.696  19.019  31.131  1.00  0.00     0.011 C 
HETATM   20  C1  UNL     1     -56.037  17.945  30.268  1.00  0.00     0.015 C 
HETATM   21  C3  UNL     1     -57.908  18.300  31.740  1.00  0.00     0.015 C 
ENDBRANCH  14  19
BRANCH  16  22
HETATM   22  N1  UNL     1     -60.136  20.679  28.103  1.00  0.00    -0.116 N 
HETATM   23  O1  UNL     1     -60.124  20.021  27.053  1.00  0.00    -0.532 OA
HETATM   24  O2  UNL     1     -61.304  21.175  28.569  1.00  0.00    -0.532 OA
ENDBRANCH  16  22
ENDBRANCH  12  13
ENDBRANCH  11  12
BRANCH  11  25
HETATM   25  C16 UNL     1     -54.638  23.587  31.977  1.00  0.00     0.117 C 
HETATM   26  C17 UNL     1     -53.324  23.799  32.705  1.00  0.00     0.028 C 
HETATM   27  C18 UNL     1     -53.661  24.505  34.011  1.00  0.00     0.002 C 
HETATM   28  C19 UNL     1     -54.173  25.901  33.772  1.00  0.00     0.003 C 
HETATM   29  C20 UNL     1     -54.403  26.077  32.307  1.00  0.00     0.034 C 
HETATM   30  C21 UNL     1     -55.240  24.928  31.724  1.00  0.00     0.141 C 
BRANCH  30  31
HETATM   31  O5  UNL     1     -55.448  25.238  30.393  1.00  0.00    -0.393 OA
ATOM     32  H5  UNL     1     -54.660  25.360  29.878  1.00  0.00     0.210 HD
ENDBRANCH  30  31
ENDBRANCH  11  25
ENDBRANCH  10  11
ENDBRANCH   1  10
TORSDOF 8
ENDMDL
MODEL 3
REMARK VINA RESULT: -8.075059043      1.761      2.683
REMARK  8 active torsions:
REMARK  status: ('A' for Active; 'I' for Inactive)
REMARK    1  A    between atoms: C2_2  and  C4_4 
REMARK    2  A    between atoms: C6_6  and  N1_7 
REMARK    3  A    between atoms: C9_12  and  C10_13 
REMARK    4  A    between atoms: C10_13  and  N2_14 
REMARK    5  A    between atoms: N2_14  and  C11_15 
REMARK    6  A    between atoms: N2_14  and  C16_25 
REMARK    7  A    between atoms: C11_15  and  C12_16 
REMARK    8  A    between atoms: C21_30  and  O5_31 
ROOT
HETATM    1  C12 UNL     1     -53.136  21.293  29.221  1.00  0.00     0.209 C 
HETATM    2  O3  UNL     1     -52.444  22.155  28.372  1.00  0.00    -0.290 OA
HETATM    3  C13 UNL     1     -51.317  21.507  27.898  1.00  0.00     0.362 C 
HETATM    4  O4  UNL     1     -50.491  21.913  27.027  1.00  0.00    -0.238 OA
HETATM    5  N3  UNL     1     -51.182  20.248  28.542  1.00  0.00    -0.317 N 
ATOM      6  H3  UNL     1     -50.473  19.543  28.339  1.00  0.00     0.166 HD
HETATM    7  C14 UNL     1     -52.229  20.141  29.539  1.00  0.00     0.228 C 
HETATM    8  C15 UNL     1     -52.987  18.903  29.408  1.00  0.00     0.087 C 
HETATM    9  N4  UNL     1     -53.575  17.902  29.306  1.00  0.00    -0.195 NA
ENDROOT
BRANCH   1  10
HETATM   10  C11 UNL     1     -53.632  21.964  30.499  1.00  0.00     0.099 C 
BRANCH  10  11
HETATM   11  N2  UNL     1     -54.672  22.865  30.371  1.00  0.00    -0.360 N 
BRANCH  11  12
HETATM   12  C10 UNL     1     -55.929  22.570  29.858  1.00  0.00     0.102 C 
BRANCH  12  13
HETATM   13  C9  UNL     1     -56.595  21.324  30.234  1.00  0.00    -0.014 A 
HETATM   14  C4  UNL     1     -57.692  20.884  29.529  1.00  0.00    -0.041 A 
HETATM   15  C5  UNL     1     -58.341  19.691  29.859  1.00  0.00     0.044 A 
HETATM   16  C6  UNL     1     -57.917  18.912  30.888  1.00  0.00     0.103 A 
HETATM   17  C7  UNL     1     -56.821  19.329  31.606  1.00  0.00     0.037 A 
HETATM   18  C8  UNL     1     -56.178  20.525  31.270  1.00  0.00     0.016 A 
BRANCH  14  19
HETATM   19  C2  UNL     1     -58.222  21.636  28.375  1.00  0.00     0.011 C 
HETATM   20  C1  UNL     1     -59.311  22.612  28.814  1.00  0.00     0.015 C 
HETATM   21  C3  UNL     1     -58.963  20.659  27.451  1.00  0.00     0.015 C 
ENDBRANCH  14  19
BRANCH  16  22
HETATM   22  N1  UNL     1     -58.602  17.686  31.206  1.00  0.00    -0.116 N 
HETATM   23  O1  UNL     1     -58.046  16.829  31.908  1.00  0.00    -0.532 OA
HETATM   24  O2  UNL     1     -59.853  17.463  30.744  1.00  0.00    -0.532 OA
ENDBRANCH  16  22
ENDBRANCH  12  13
ENDBRANCH  11  12
BRANCH  11  25
HETATM   25  C16 UNL     1     -54.598  24.058  31.124  1.00  0.00     0.117 C 
HETATM   26  C17 UNL     1     -54.146  23.855  32.557  1.00  0.00     0.028 C 
HETATM   27  C18 UNL     1     -54.419  25.163  33.287  1.00  0.00     0.002 C 
HETATM   28  C19 UNL     1     -53.536  26.275  32.784  1.00  0.00     0.003 C 
HETATM   29  C20 UNL     1     -52.822  25.796  31.562  1.00  0.00     0.034 C 
HETATM   30  C21 UNL     1     -53.793  25.174  30.547  1.00  0.00     0.141 C 
BRANCH  30  31
HETATM   31  O5  UNL     1     -53.033  24.841  29.440  1.00  0.00    -0.393 OA
ATOM     32  H5  UNL     1     -52.842  23.916  29.344  1.00  0.00     0.210 HD
ENDBRANCH  30  31
ENDBRANCH  11  25
ENDBRANCH  10  11
ENDBRANCH   1  10
TORSDOF 8
ENDMDL
MODEL 4
REMARK VINA RESULT: -8.017566592      1.595      2.050
REMARK  8 active torsions:
REMARK  status: ('A' for Active; 'I' for Inactive)
REMARK    1  A    between atoms: C2_2  and  C4_4 
REMARK    2  A    between atoms: C6_6  and  N1_7 
REMARK    3  A    between atoms: C9_12  and  C10_13 
REMARK    4  A    between atoms: C10_13  and  N2_14 
REMARK    5  A    between atoms: N2_14  and  C11_15 
REMARK    6  A    between atoms: N2_14  and  C16_25 
REMARK    7  A    between atoms: C11_15  and  C12_16 
REMARK    8  A    between atoms: C21_30  and  O5_31 
ROOT
HETATM    1  C12 UNL     1     -52.500  22.091  29.411  1.00  0.00     0.209 C 
HETATM    2  O3  UNL     1     -52.768  21.315  28.286  1.00  0.00    -0.290 OA
HETATM    3  C13 UNL     1     -51.570  20.868  27.756  1.00  0.00     0.362 C 
HETATM    4  O4  UNL     1     -51.395  20.055  26.799  1.00  0.00    -0.238 OA
HETATM    5  N3  UNL     1     -50.486  21.461  28.455  1.00  0.00    -0.317 N 
ATOM      6  H3  UNL     1     -49.496  21.261  28.309  1.00  0.00     0.166 HD
HETATM    7  C14 UNL     1     -51.032  22.402  29.414  1.00  0.00     0.228 C 
HETATM    8  C15 UNL     1     -50.513  22.180  30.757  1.00  0.00     0.087 C 
HETATM    9  N4  UNL     1     -50.077  22.006  31.824  1.00  0.00    -0.195 NA
ENDROOT
BRANCH   1  10
HETATM   10  C11 UNL     1     -53.326  23.373  29.480  1.00  0.00     0.099 C 
BRANCH  10  11
HETATM   11  N2  UNL     1     -54.228  23.483  30.522  1.00  0.00    -0.360 N 
BRANCH  11  12
HETATM   12  C10 UNL     1     -55.069  22.468  30.963  1.00  0.00     0.102 C 
BRANCH  12  13
HETATM   13  C9  UNL     1     -56.258  22.119  30.188  1.00  0.00    -0.014 A 
HETATM   14  C4  UNL     1     -56.799  20.857  30.278  1.00  0.00    -0.041 A 
HETATM   15  C5  UNL     1     -57.942  20.499  29.558  1.00  0.00     0.044 A 
HETATM   16  C6  UNL     1     -58.572  21.381  28.740  1.00  0.00     0.103 A 
HETATM   17  C7  UNL     1     -58.053  22.650  28.634  1.00  0.00     0.037 A 
HETATM   18  C8  UNL     1     -56.907  23.000  29.358  1.00  0.00     0.016 A 
BRANCH  14  19
HETATM   19  C2  UNL     1     -56.214  19.826  31.157  1.00  0.00     0.011 C 
HETATM   20  C1  UNL     1     -55.389  18.825  30.351  1.00  0.00     0.015 C 
HETATM   21  C3  UNL     1     -57.350  18.974  31.739  1.00  0.00     0.015 C 
ENDBRANCH  14  19
BRANCH  16  22
HETATM   22  N1  UNL     1     -59.749  20.989  28.009  1.00  0.00    -0.116 N 
HETATM   23  O1  UNL     1     -59.684  20.785  26.789  1.00  0.00    -0.532 OA
HETATM   24  O2  UNL     1     -60.931  20.839  28.650  1.00  0.00    -0.532 OA
ENDBRANCH  16  22
ENDBRANCH  12  13
ENDBRANCH  11  12
BRANCH  11  25
HETATM   25  C16 UNL     1     -54.048  24.549  31.431  1.00  0.00     0.117 C 
HETATM   26  C17 UNL     1     -55.344  25.178  31.906  1.00  0.00     0.028 C 
HETATM   27  C18 UNL     1     -54.963  26.472  32.612  1.00  0.00     0.002 C 
HETATM   28  C19 UNL     1     -54.200  26.209  33.883  1.00  0.00     0.003 C 
HETATM   29  C20 UNL     1     -53.858  24.756  33.938  1.00  0.00     0.034 C 
HETATM   30  C21 UNL     1     -53.205  24.280  32.632  1.00  0.00     0.141 C 
BRANCH  30  31
HETATM   31  O5  UNL     1     -52.869  22.953  32.830  1.00  0.00    -0.393 OA
ATOM     32  H5  UNL     1     -53.598  22.345  32.815  1.00  0.00     0.210 HD
ENDBRANCH  30  31
ENDBRANCH  11  25
ENDBRANCH  10  11
ENDBRANCH   1  10
TORSDOF 8
ENDMDL
MODEL 5
REMARK VINA RESULT: -7.909603583      2.170      4.762
REMARK  8 active torsions:
REMARK  status: ('A' for Active; 'I' for Inactive)
REMARK    1  A    between atoms: C2_2  and  C4_4 
REMARK    2  A    between atoms: C6_6  and  N1_7 
REMARK    3  A    between atoms: C9_12  and  C10_13 
REMARK    4  A    between atoms: C10_13  and  N2_14 
REMARK    5  A    between atoms: N2_14  and  C11_15 
REMARK    6  A    between atoms: N2_14  and  C16_25 
REMARK    7  A    between atoms: C11_15  and  C12_16 
REMARK    8  A    between atoms: C21_30  and  O5_31 
ROOT
HETATM    1  C12 UNL     1     -54.633  23.997  32.667  1.00  0.00     0.209 C 
HETATM    2  O3  UNL     1     -54.151  23.074  33.592  1.00  0.00    -0.290 OA
HETATM    3  C13 UNL     1     -53.572  23.756  34.647  1.00  0.00     0.362 C 
HETATM    4  O4  UNL     1     -53.116  23.280  35.730  1.00  0.00    -0.238 OA
HETATM    5  N3  UNL     1     -53.547  25.147  34.361  1.00  0.00    -0.317 N 
ATOM      6  H3  UNL     1     -53.229  25.884  34.992  1.00  0.00     0.166 HD
HETATM    7  C14 UNL     1     -54.053  25.337  33.015  1.00  0.00     0.228 C 
HETATM    8  C15 UNL     1     -55.116  26.331  32.964  1.00  0.00     0.087 C 
HETATM    9  N4  UNL     1     -55.954  27.142  32.931  1.00  0.00    -0.195 NA
ENDROOT
BRANCH   1  10
HETATM   10  C11 UNL     1     -54.321  23.631  31.219  1.00  0.00     0.099 C 
BRANCH  10  11
HETATM   11  N2  UNL     1     -54.091  22.295  30.946  1.00  0.00    -0.360 N 
BRANCH  11  12
HETATM   12  C10 UNL     1     -55.009  21.269  31.136  1.00  0.00     0.102 C 
BRANCH  12  13
HETATM   13  C9  UNL     1     -56.239  21.237  30.348  1.00  0.00    -0.014 A 
HETATM   14  C4  UNL     1     -57.023  20.106  30.332  1.00  0.00    -0.041 A 
HETATM   15  C5  UNL     1     -58.211  20.051  29.597  1.00  0.00     0.044 A 
HETATM   16  C6  UNL     1     -58.645  21.112  28.868  1.00  0.00     0.103 A 
HETATM   17  C7  UNL     1     -57.881  22.254  28.869  1.00  0.00     0.037 A 
HETATM   18  C8  UNL     1     -56.693  22.301  29.607  1.00  0.00     0.016 A 
BRANCH  14  19
HETATM   19  C2  UNL     1     -56.663  18.905  31.110  1.00  0.00     0.011 C 
HETATM   20  C1  UNL     1     -56.159  17.792  30.193  1.00  0.00     0.015 C 
HETATM   21  C3  UNL     1     -57.940  18.316  31.724  1.00  0.00     0.015 C 
ENDBRANCH  14  19
BRANCH  16  22
HETATM   22  N1  UNL     1     -59.873  21.030  28.120  1.00  0.00    -0.116 N 
HETATM   23  O1  UNL     1     -60.940  20.792  28.703  1.00  0.00    -0.532 OA
HETATM   24  O2  UNL     1     -59.869  21.213  26.780  1.00  0.00    -0.532 OA
ENDBRANCH  16  22
ENDBRANCH  12  13
ENDBRANCH  11  12
BRANCH  11  25
HETATM   25  C16 UNL     1     -53.010  21.980  30.093  1.00  0.00     0.117 C 
HETATM   26  C17 UNL     1     -52.901  22.882  28.878  1.00  0.00     0.028 C 
HETATM   27  C18 UNL     1     -51.903  22.221  27.937  1.00  0.00     0.002 C 
HETATM   28  C19 UNL     1     -50.511  22.221  28.513  1.00  0.00     0.003 C 
HETATM   29  C20 UNL     1     -50.589  22.671  29.935  1.00  0.00     0.034 C 
HETATM   30  C21 UNL     1     -51.658  21.893  30.718  1.00  0.00     0.141 C 
BRANCH  30  31
HETATM   31  O5  UNL     1     -51.583  22.341  32.024  1.00  0.00    -0.393 OA
ATOM     32  H5  UNL     1     -50.835  22.025  32.517  1.00  0.00     0.210 HD
ENDBRANCH  30  31
ENDBRANCH  11  25
ENDBRANCH  10  11
ENDBRANCH   1  10
TORSDOF 8
ENDMDL
