MODEL 1
REMARK VINA RESULT: -9.399443156      0.000      0.000
REMARK  14 active torsions:
REMARK  status: ('A' for Active; 'I' for Inactive)
REMARK    1  A    between atoms: N1_1  and  C1_5 
REMARK    2  A    between atoms: C1_5  and  C2_6 
REMARK    3  A    between atoms: C2_6  and  C3_7 
REMARK    4  A    between atoms: C3_7  and  C4_8 
REMARK    5  A    between atoms: C4_8  and  C5_9 
REMARK    6  A    between atoms: C5_9  and  C6_10 
REMARK    7  A    between atoms: C6_10  and  C7_11 
REMARK    8  A    between atoms: C7_11  and  C8_12 
REMARK    9  A    between atoms: C8_12  and  O1_13 
REMARK   10  A    between atoms: O1_13  and  C9_14 
REMARK   11  A    between atoms: C12_17  and  N2_18 
REMARK   12  A    between atoms: N2_18  and  C13_19 
REMARK   13  A    between atoms: C18_26  and  C19_27 
REMARK   14  A    between atoms: C19_27  and  N4_28 
ROOT
HETATM    1  C9  UNL     1       8.222 -63.387  57.255  1.00  0.00     0.069 A 
HETATM    2  C10 UNL     1       9.177 -64.353  57.475  1.00  0.00     0.040 A 
HETATM    3  C11 UNL     1       8.947 -65.374  58.352  1.00  0.00     0.047 A 
HETATM    4  C12 UNL     1       7.738 -65.489  59.067  1.00  0.00     0.107 A 
HETATM    5  C23 UNL     1       6.783 -64.497  58.830  1.00  0.00     0.047 A 
HETATM    6  C24 UNL     1       7.049 -63.499  57.951  1.00  0.00     0.040 A 
ENDROOT
BRANCH   4   7
HETATM    7  N2  UNL     1       7.587 -66.504  59.899  1.00  0.00    -0.405 NA
BRANCH   7   8
HETATM    8  C13 UNL     1       7.425 -67.239  60.811  1.00  0.00     0.121 A 
HETATM    9  C14 UNL     1       7.034 -66.716  62.066  1.00  0.00     0.062 A 
HETATM   10  C15 UNL     1       6.853 -67.566  63.124  1.00  0.00     0.091 A 
HETATM   11  N3  UNL     1       7.036 -68.888  63.010  1.00  0.00    -0.365 N 
HETATM   12  C16 UNL     1       7.405 -69.452  61.853  1.00  0.00     0.046 A 
ATOM     13  H3  UNL     1       6.890 -69.482  63.826  1.00  0.00     0.165 HD
HETATM   14  C17 UNL     1       7.592 -70.815  61.736  1.00  0.00     0.039 A 
HETATM   15  C22 UNL     1       7.595 -68.626  60.768  1.00  0.00     0.031 A 
HETATM   16  C18 UNL     1       7.968 -71.368  60.545  1.00  0.00    -0.031 A 
HETATM   17  C20 UNL     1       8.153 -70.524  59.474  1.00  0.00     0.010 A 
HETATM   18  C21 UNL     1       7.977 -69.153  59.541  1.00  0.00     0.018 A 
BRANCH  16  19
HETATM   19  C19 UNL     1       8.172 -72.843  60.413  1.00  0.00     0.268 C 
BRANCH  19  20
HETATM   20  N4  UNL     1       8.481 -73.392  61.714  1.00  0.00    -0.075 N 
ATOM     21  H43 UNL     1       9.446 -73.213  61.993  1.00  0.00     0.274 HD
ATOM     22  H42 UNL     1       8.019 -72.886  62.469  1.00  0.00     0.274 HD
ATOM     23  H41 UNL     1       8.253 -74.386  61.717  1.00  0.00     0.274 HD
ENDBRANCH  19  20
ENDBRANCH  16  19
ENDBRANCH   7   8
ENDBRANCH   4   7
BRANCH   1  24
HETATM   24  O1  UNL     1       8.449 -62.355  56.372  1.00  0.00    -0.351 OA
BRANCH  24  25
HETATM   25  C8  UNL     1       7.426 -61.851  55.514  1.00  0.00     0.175 C 
BRANCH  25  26
HETATM   26  C7  UNL     1       7.204 -62.747  54.344  1.00  0.00     0.027 C 
BRANCH  26  27
HETATM   27  C6  UNL     1       5.826 -63.287  54.194  1.00  0.00     0.002 C 
BRANCH  27  28
HETATM   28  C5  UNL     1       5.628 -64.633  54.827  1.00  0.00     0.000 C 
BRANCH  28  29
HETATM   29  C4  UNL     1       6.783 -65.568  54.591  1.00  0.00     0.000 C 
BRANCH  29  30
HETATM   30  C3  UNL     1       6.461 -67.008  54.654  1.00  0.00     0.002 C 
BRANCH  30  31
HETATM   31  C2  UNL     1       6.002 -67.584  55.933  1.00  0.00     0.027 C 
BRANCH  31  32
HETATM   32  C1  UNL     1       6.639 -68.846  56.395  1.00  0.00     0.229 C 
BRANCH  32  33
HETATM   33  N1  UNL     1       7.933 -69.154  55.943  1.00  0.00    -0.079 N 
ATOM     34  H13 UNL     1       7.862 -69.731  55.106  1.00  0.00     0.274 HD
ATOM     35  H12 UNL     1       8.360 -68.308  55.565  1.00  0.00     0.274 HD
ATOM     36  H11 UNL     1       8.587 -69.592  56.592  1.00  0.00     0.274 HD
ENDBRANCH  32  33
ENDBRANCH  31  32
ENDBRANCH  30  31
ENDBRANCH  29  30
ENDBRANCH  28  29
ENDBRANCH  27  28
ENDBRANCH  26  27
ENDBRANCH  25  26
ENDBRANCH  24  25
ENDBRANCH   1  24
TORSDOF 14
ENDMDL
MODEL 2
REMARK VINA RESULT: -9.092032593      0.893      1.379
REMARK  14 active torsions:
REMARK  status: ('A' for Active; 'I' for Inactive)
REMARK    1  A    between atoms: N1_1  and  C1_5 
REMARK    2  A    between atoms: C1_5  and  C2_6 
REMARK    3  A    between atoms: C2_6  and  C3_7 
REMARK    4  A    between atoms: C3_7  and  C4_8 
REMARK    5  A    between atoms: C4_8  and  C5_9 
REMARK    6  A    between atoms: C5_9  and  C6_10 
REMARK    7  A    between atoms: C6_10  and  C7_11 
REMARK    8  A    between atoms: C7_11  and  C8_12 
REMARK    9  A    between atoms: C8_12  and  O1_13 
REMARK   10  A    between atoms: O1_13  and  C9_14 
REMARK   11  A    between atoms: C12_17  and  N2_18 
REMARK   12  A    between atoms: N2_18  and  C13_19 
REMARK   13  A    between atoms: C18_26  and  C19_27 
REMARK   14  A    between atoms: C19_27  and  N4_28 
ROOT
HETATM    1  C9  UNL     1       8.138 -63.412  57.448  1.00  0.00     0.069 A 
HETATM    2  C10 UNL     1       6.993 -63.611  58.184  1.00  0.00     0.040 A 
HETATM    3  C11 UNL     1       6.841 -64.733  58.948  1.00  0.00     0.047 A 
HETATM    4  C12 UNL     1       7.836 -65.729  59.020  1.00  0.00     0.107 A 
HETATM    5  C23 UNL     1       8.990 -65.508  58.265  1.00  0.00     0.047 A 
HETATM    6  C24 UNL     1       9.102 -64.380  57.519  1.00  0.00     0.040 A 
ENDROOT
BRANCH   4   7
HETATM    7  N2  UNL     1       7.619 -66.788  59.780  1.00  0.00    -0.405 NA
BRANCH   7   8
HETATM    8  C13 UNL     1       7.473 -67.583  60.644  1.00  0.00     0.121 A 
HETATM    9  C14 UNL     1       7.131 -67.144  61.945  1.00  0.00     0.062 A 
HETATM   10  C15 UNL     1       6.969 -68.064  62.946  1.00  0.00     0.091 A 
HETATM   11  N3  UNL     1       7.125 -69.377  62.733  1.00  0.00    -0.365 N 
HETATM   12  C16 UNL     1       7.447 -69.863  61.528  1.00  0.00     0.046 A 
ATOM     13  H3  UNL     1       6.995 -70.024  63.510  1.00  0.00     0.165 HD
HETATM   14  C17 UNL     1       7.606 -71.217  61.311  1.00  0.00     0.039 A 
HETATM   15  C22 UNL     1       7.617 -68.965  60.499  1.00  0.00     0.031 A 
HETATM   16  C18 UNL     1       7.935 -71.690  60.072  1.00  0.00    -0.031 A 
HETATM   17  C20 UNL     1       8.101 -70.775  59.057  1.00  0.00     0.010 A 
HETATM   18  C21 UNL     1       7.951 -69.411  59.226  1.00  0.00     0.018 A 
BRANCH  16  19
HETATM   19  C19 UNL     1       8.109 -73.155  59.830  1.00  0.00     0.268 C 
BRANCH  19  20
HETATM   20  N4  UNL     1       6.812 -73.747  59.587  1.00  0.00    -0.075 N 
ATOM     21  H43 UNL     1       6.053 -73.202  59.996  1.00  0.00     0.274 HD
ATOM     22  H42 UNL     1       6.529 -73.675  58.610  1.00  0.00     0.274 HD
ATOM     23  H41 UNL     1       6.821 -74.711  59.919  1.00  0.00     0.274 HD
ENDBRANCH  19  20
ENDBRANCH  16  19
ENDBRANCH   7   8
ENDBRANCH   4   7
BRANCH   1  24
HETATM   24  O1  UNL     1       8.296 -62.282  56.676  1.00  0.00    -0.351 OA
BRANCH  24  25
HETATM   25  C8  UNL     1       7.284 -61.279  56.582  1.00  0.00     0.175 C 
BRANCH  25  26
HETATM   26  C7  UNL     1       6.652 -61.266  55.232  1.00  0.00     0.027 C 
BRANCH  26  27
HETATM   27  C6  UNL     1       5.576 -62.269  55.011  1.00  0.00     0.002 C 
BRANCH  27  28
HETATM   28  C5  UNL     1       6.013 -63.464  54.215  1.00  0.00     0.000 C 
BRANCH  28  29
HETATM   29  C4  UNL     1       5.703 -64.769  54.897  1.00  0.00     0.000 C 
BRANCH  29  30
HETATM   30  C3  UNL     1       6.779 -65.780  54.859  1.00  0.00     0.002 C 
BRANCH  30  31
HETATM   31  C2  UNL     1       6.423 -67.194  54.627  1.00  0.00     0.027 C 
BRANCH  31  32
HETATM   32  C1  UNL     1       6.530 -68.134  55.775  1.00  0.00     0.229 C 
BRANCH  32  33
HETATM   33  N1  UNL     1       5.881 -67.809  56.977  1.00  0.00    -0.079 N 
ATOM     34  H13 UNL     1       5.295 -66.988  56.824  1.00  0.00     0.274 HD
ATOM     35  H12 UNL     1       5.177 -68.520  57.175  1.00  0.00     0.274 HD
ATOM     36  H11 UNL     1       6.445 -67.661  57.814  1.00  0.00     0.274 HD
ENDBRANCH  32  33
ENDBRANCH  31  32
ENDBRANCH  30  31
ENDBRANCH  29  30
ENDBRANCH  28  29
ENDBRANCH  27  28
ENDBRANCH  26  27
ENDBRANCH  25  26
ENDBRANCH  24  25
ENDBRANCH   1  24
TORSDOF 14
ENDMDL
MODEL 3
REMARK VINA RESULT: -8.893490324      2.106      3.558
REMARK  14 active torsions:
REMARK  status: ('A' for Active; 'I' for Inactive)
REMARK    1  A    between atoms: N1_1  and  C1_5 
REMARK    2  A    between atoms: C1_5  and  C2_6 
REMARK    3  A    between atoms: C2_6  and  C3_7 
REMARK    4  A    between atoms: C3_7  and  C4_8 
REMARK    5  A    between atoms: C4_8  and  C5_9 
REMARK    6  A    between atoms: C5_9  and  C6_10 
REMARK    7  A    between atoms: C6_10  and  C7_11 
REMARK    8  A    between atoms: C7_11  and  C8_12 
REMARK    9  A    between atoms: C8_12  and  O1_13 
REMARK   10  A    between atoms: O1_13  and  C9_14 
REMARK   11  A    between atoms: C12_17  and  N2_18 
REMARK   12  A    between atoms: N2_18  and  C13_19 
REMARK   13  A    between atoms: C18_26  and  C19_27 
REMARK   14  A    between atoms: C19_27  and  N4_28 
ROOT
HETATM    1  C9  UNL     1       5.589 -65.643  55.893  1.00  0.00     0.069 A 
HETATM    2  C10 UNL     1       5.965 -66.961  55.769  1.00  0.00     0.040 A 
HETATM    3  C11 UNL     1       6.326 -67.689  56.867  1.00  0.00     0.047 A 
HETATM    4  C12 UNL     1       6.333 -67.136  58.163  1.00  0.00     0.107 A 
HETATM    5  C23 UNL     1       5.949 -65.797  58.267  1.00  0.00     0.047 A 
HETATM    6  C24 UNL     1       5.596 -65.108  57.152  1.00  0.00     0.040 A 
ENDROOT
BRANCH   4   7
HETATM    7  N2  UNL     1       6.695 -67.902  59.177  1.00  0.00    -0.405 NA
BRANCH   7   8
HETATM    8  C13 UNL     1       6.853 -68.459  60.208  1.00  0.00     0.121 A 
HETATM    9  C14 UNL     1       6.598 -67.772  61.418  1.00  0.00     0.062 A 
HETATM   10  C15 UNL     1       6.788 -68.416  62.612  1.00  0.00     0.091 A 
HETATM   11  N3  UNL     1       7.210 -69.685  62.673  1.00  0.00    -0.365 N 
HETATM   12  C16 UNL     1       7.469 -70.396  61.569  1.00  0.00     0.046 A 
ATOM     13  H3  UNL     1       7.338 -70.123  63.585  1.00  0.00     0.165 HD
HETATM   14  C17 UNL     1       7.904 -71.706  61.633  1.00  0.00     0.039 A 
HETATM   15  C22 UNL     1       7.289 -69.780  60.351  1.00  0.00     0.031 A 
HETATM   16  C18 UNL     1       8.162 -72.412  60.492  1.00  0.00    -0.031 A 
HETATM   17  C20 UNL     1       7.974 -71.776  59.287  1.00  0.00     0.010 A 
HETATM   18  C21 UNL     1       7.541 -70.468  59.171  1.00  0.00     0.018 A 
BRANCH  16  19
HETATM   19  C19 UNL     1       8.632 -73.830  60.556  1.00  0.00     0.268 C 
BRANCH  19  20
HETATM   20  N4  UNL     1      10.072 -73.840  60.684  1.00  0.00    -0.075 N 
ATOM     21  H43 UNL     1      10.417 -73.068  61.254  1.00  0.00     0.274 HD
ATOM     22  H42 UNL     1      10.404 -74.607  61.269  1.00  0.00     0.274 HD
ATOM     23  H41 UNL     1      10.487 -73.853  59.753  1.00  0.00     0.274 HD
ENDBRANCH  19  20
ENDBRANCH  16  19
ENDBRANCH   7   8
ENDBRANCH   4   7
BRANCH   1  24
HETATM   24  O1  UNL     1       5.224 -64.905  54.790  1.00  0.00    -0.351 OA
BRANCH  24  25
HETATM   25  C8  UNL     1       4.943 -63.508  54.870  1.00  0.00     0.175 C 
BRANCH  25  26
HETATM   26  C7  UNL     1       5.823 -62.721  53.959  1.00  0.00     0.027 C 
BRANCH  26  27
HETATM   27  C6  UNL     1       7.284 -62.956  54.107  1.00  0.00     0.002 C 
BRANCH  27  28
HETATM   28  C5  UNL     1       7.803 -62.708  55.493  1.00  0.00     0.000 C 
BRANCH  28  29
HETATM   29  C4  UNL     1       8.742 -63.783  55.969  1.00  0.00     0.000 C 
BRANCH  29  30
HETATM   30  C3  UNL     1       9.277 -63.605  57.334  1.00  0.00     0.002 C 
BRANCH  30  31
HETATM   31  C2  UNL     1      10.538 -62.860  57.516  1.00  0.00     0.027 C 
BRANCH  31  32
HETATM   32  C1  UNL     1      10.487 -61.376  57.426  1.00  0.00     0.229 C 
BRANCH  32  33
HETATM   33  N1  UNL     1      11.694 -60.659  57.408  1.00  0.00    -0.079 N 
ATOM     34  H13 UNL     1      12.383 -61.184  56.869  1.00  0.00     0.274 HD
ATOM     35  H12 UNL     1      11.577 -59.830  56.824  1.00  0.00     0.274 HD
ATOM     36  H11 UNL     1      12.112 -60.380  58.296  1.00  0.00     0.274 HD
ENDBRANCH  32  33
ENDBRANCH  31  32
ENDBRANCH  30  31
ENDBRANCH  29  30
ENDBRANCH  28  29
ENDBRANCH  27  28
ENDBRANCH  26  27
ENDBRANCH  25  26
ENDBRANCH  24  25
ENDBRANCH   1  24
TORSDOF 14
ENDMDL
MODEL 4
REMARK VINA RESULT: -8.791757137      1.607      3.181
REMARK  14 active torsions:
REMARK  status: ('A' for Active; 'I' for Inactive)
REMARK    1  A    between atoms: N1_1  and  C1_5 
REMARK    2  A    between atoms: C1_5  and  C2_6 
REMARK    3  A    between atoms: C2_6  and  C3_7 
REMARK    4  A    between atoms: C3_7  and  C4_8 
REMARK    5  A    between atoms: C4_8  and  C5_9 
REMARK    6  A    between atoms: C5_9  and  C6_10 
REMARK    7  A    between atoms: C6_10  and  C7_11 
REMARK    8  A    between atoms: C7_11  and  C8_12 
REMARK    9  A    between atoms: C8_12  and  O1_13 
REMARK   10  A    between atoms: O1_13  and  C9_14 
REMARK   11  A    between atoms: C12_17  and  N2_18 
REMARK   12  A    between atoms: N2_18  and  C13_19 
REMARK   13  A    between atoms: C18_26  and  C19_27 
REMARK   14  A    between atoms: C19_27  and  N4_28 
ROOT
HETATM    1  C9  UNL     1       5.549 -65.714  55.755  1.00  0.00     0.069 A 
HETATM    2  C10 UNL     1       5.550 -65.226  57.042  1.00  0.00     0.040 A 
HETATM    3  C11 UNL     1       5.922 -66.021  58.089  1.00  0.00     0.047 A 
HETATM    4  C12 UNL     1       6.318 -67.361  57.907  1.00  0.00     0.107 A 
HETATM    5  C23 UNL     1       6.309 -67.837  56.594  1.00  0.00     0.047 A 
HETATM    6  C24 UNL     1       5.933 -67.016  55.582  1.00  0.00     0.040 A 
ENDROOT
BRANCH   4   7
HETATM    7  N2  UNL     1       6.663 -68.069  58.968  1.00  0.00    -0.405 NA
BRANCH   7   8
HETATM    8  C13 UNL     1       6.825 -68.551  60.036  1.00  0.00     0.121 A 
HETATM    9  C14 UNL     1       6.580 -67.776  61.194  1.00  0.00     0.062 A 
HETATM   10  C15 UNL     1       6.773 -68.332  62.431  1.00  0.00     0.091 A 
HETATM   11  N3  UNL     1       7.191 -69.595  62.582  1.00  0.00    -0.365 N 
HETATM   12  C16 UNL     1       7.442 -70.386  61.531  1.00  0.00     0.046 A 
ATOM     13  H3  UNL     1       7.322 -69.966  63.523  1.00  0.00     0.165 HD
HETATM   14  C17 UNL     1       7.871 -71.689  61.688  1.00  0.00     0.039 A 
HETATM   15  C22 UNL     1       7.257 -69.859  60.273  1.00  0.00     0.031 A 
HETATM   16  C18 UNL     1       8.120 -72.477  60.601  1.00  0.00    -0.031 A 
HETATM   17  C20 UNL     1       7.929 -71.930  59.353  1.00  0.00     0.010 A 
HETATM   18  C21 UNL     1       7.500 -70.632  59.144  1.00  0.00     0.018 A 
BRANCH  16  19
HETATM   19  C19 UNL     1       8.586 -73.889  60.765  1.00  0.00     0.268 C 
BRANCH  19  20
HETATM   20  N4  UNL     1      10.029 -73.899  60.855  1.00  0.00    -0.075 N 
ATOM     21  H43 UNL     1      10.435 -72.978  60.689  1.00  0.00     0.274 HD
ATOM     22  H42 UNL     1      10.358 -74.030  61.811  1.00  0.00     0.274 HD
ATOM     23  H41 UNL     1      10.395 -74.606  60.218  1.00  0.00     0.274 HD
ENDBRANCH  19  20
ENDBRANCH  16  19
ENDBRANCH   7   8
ENDBRANCH   4   7
BRANCH   1  24
HETATM   24  O1  UNL     1       5.175 -64.917  54.696  1.00  0.00    -0.351 OA
BRANCH  24  25
HETATM   25  C8  UNL     1       5.048 -63.501  54.820  1.00  0.00     0.175 C 
BRANCH  25  26
HETATM   26  C7  UNL     1       6.045 -62.787  53.971  1.00  0.00     0.027 C 
BRANCH  26  27
HETATM   27  C6  UNL     1       7.474 -63.076  54.268  1.00  0.00     0.002 C 
BRANCH  27  28
HETATM   28  C5  UNL     1       7.878 -62.763  55.679  1.00  0.00     0.000 C 
BRANCH  28  29
HETATM   29  C4  UNL     1       8.742 -63.830  56.293  1.00  0.00     0.000 C 
BRANCH  29  30
HETATM   30  C3  UNL     1       9.898 -63.345  57.073  1.00  0.00     0.002 C 
BRANCH  30  31
HETATM   31  C2  UNL     1      10.175 -63.948  58.392  1.00  0.00     0.027 C 
BRANCH  31  32
HETATM   32  C1  UNL     1       9.170 -64.893  58.948  1.00  0.00     0.229 C 
BRANCH  32  33
HETATM   33  N1  UNL     1       8.380 -64.477  60.032  1.00  0.00    -0.079 N 
ATOM     34  H13 UNL     1       8.845 -63.699  60.500  1.00  0.00     0.274 HD
ATOM     35  H12 UNL     1       7.542 -64.019  59.672  1.00  0.00     0.274 HD
ATOM     36  H11 UNL     1       8.104 -65.166  60.731  1.00  0.00     0.274 HD
ENDBRANCH  32  33
ENDBRANCH  31  32
ENDBRANCH  30  31
ENDBRANCH  29  30
ENDBRANCH  28  29
ENDBRANCH  27  28
ENDBRANCH  26  27
ENDBRANCH  25  26
ENDBRANCH  24  25
ENDBRANCH   1  24
TORSDOF 14
ENDMDL
MODEL 5
REMARK VINA RESULT: -8.783224730      2.608      3.562
REMARK  14 active torsions:
REMARK  status: ('A' for Active; 'I' for Inactive)
REMARK    1  A    between atoms: N1_1  and  C1_5 
REMARK    2  A    between atoms: C1_5  and  C2_6 
REMARK    3  A    between atoms: C2_6  and  C3_7 
REMARK    4  A    between atoms: C3_7  and  C4_8 
REMARK    5  A    between atoms: C4_8  and  C5_9 
REMARK    6  A    between atoms: C5_9  and  C6_10 
REMARK    7  A    between atoms: C6_10  and  C7_11 
REMARK    8  A    between atoms: C7_11  and  C8_12 
REMARK    9  A    between atoms: C8_12  and  O1_13 
REMARK   10  A    between atoms: O1_13  and  C9_14 
REMARK   11  A    between atoms: C12_17  and  N2_18 
REMARK   12  A    between atoms: N2_18  and  C13_19 
REMARK   13  A    between atoms: C18_26  and  C19_27 
REMARK   14  A    between atoms: C19_27  and  N4_28 
ROOT
HETATM    1  C9  UNL     1       6.892 -65.825  55.535  1.00  0.00     0.069 A 
HETATM    2  C10 UNL     1       7.465 -65.414  56.716  1.00  0.00     0.040 A 
HETATM    3  C11 UNL     1       7.422 -66.209  57.825  1.00  0.00     0.047 A 
HETATM    4  C12 UNL     1       6.796 -67.472  57.818  1.00  0.00     0.107 A 
HETATM    5  C23 UNL     1       6.219 -67.869  56.609  1.00  0.00     0.047 A 
HETATM    6  C24 UNL     1       6.285 -67.051  55.529  1.00  0.00     0.040 A 
ENDROOT
BRANCH   4   7
HETATM    7  N2  UNL     1       6.793 -68.185  58.930  1.00  0.00    -0.405 NA
BRANCH   7   8
HETATM    8  C13 UNL     1       6.905 -68.631  60.020  1.00  0.00     0.121 A 
HETATM    9  C14 UNL     1       6.631 -67.810  61.139  1.00  0.00     0.062 A 
HETATM   10  C15 UNL     1       6.767 -68.324  62.401  1.00  0.00     0.091 A 
HETATM   11  N3  UNL     1       7.155 -69.588  62.613  1.00  0.00    -0.365 N 
HETATM   12  C16 UNL     1       7.429 -70.421  61.602  1.00  0.00     0.046 A 
ATOM     13  H3  UNL     1       7.243 -69.926  63.571  1.00  0.00     0.165 HD
HETATM   14  C17 UNL     1       7.827 -71.725  61.822  1.00  0.00     0.039 A 
HETATM   15  C22 UNL     1       7.302 -69.937  60.319  1.00  0.00     0.031 A 
HETATM   16  C18 UNL     1       8.102 -72.556  60.773  1.00  0.00    -0.031 A 
HETATM   17  C20 UNL     1       7.968 -72.052  59.500  1.00  0.00     0.010 A 
HETATM   18  C21 UNL     1       7.573 -70.755  59.229  1.00  0.00     0.018 A 
BRANCH  16  19
HETATM   19  C19 UNL     1       8.533 -73.969  61.005  1.00  0.00     0.268 C 
BRANCH  19  20
HETATM   20  N4  UNL     1       9.973 -74.043  60.897  1.00  0.00    -0.075 N 
ATOM     21  H43 UNL     1      10.408 -73.121  60.858  1.00  0.00     0.274 HD
ATOM     22  H42 UNL     1      10.411 -74.371  61.758  1.00  0.00     0.274 HD
ATOM     23  H41 UNL     1      10.215 -74.622  60.093  1.00  0.00     0.274 HD
ENDBRANCH  19  20
ENDBRANCH  16  19
ENDBRANCH   7   8
ENDBRANCH   4   7
BRANCH   1  24
HETATM   24  O1  UNL     1       6.933 -65.027  54.413  1.00  0.00    -0.351 OA
BRANCH  24  25
HETATM   25  C8  UNL     1       7.462 -63.702  54.443  1.00  0.00     0.175 C 
BRANCH  25  26
HETATM   26  C7  UNL     1       6.574 -62.743  53.724  1.00  0.00     0.027 C 
BRANCH  26  27
HETATM   27  C6  UNL     1       5.120 -62.868  54.011  1.00  0.00     0.002 C 
BRANCH  27  28
HETATM   28  C5  UNL     1       4.762 -62.642  55.451  1.00  0.00     0.000 C 
BRANCH  28  29
HETATM   29  C4  UNL     1       3.925 -63.752  56.028  1.00  0.00     0.000 C 
BRANCH  29  30
HETATM   30  C3  UNL     1       3.413 -63.520  57.394  1.00  0.00     0.002 C 
BRANCH  30  31
HETATM   31  C2  UNL     1       2.701 -62.261  57.687  1.00  0.00     0.027 C 
BRANCH  31  32
HETATM   32  C1  UNL     1       1.214 -62.298  57.733  1.00  0.00     0.229 C 
BRANCH  32  33
HETATM   33  N1  UNL     1       0.514 -62.700  56.584  1.00  0.00    -0.079 N 
ATOM     34  H13 UNL     1       1.185 -62.926  55.849  1.00  0.00     0.274 HD
ATOM     35  H12 UNL     1       0.093 -63.613  56.756  1.00  0.00     0.274 HD
ATOM     36  H11 UNL     1      -0.197 -62.076  56.201  1.00  0.00     0.274 HD
ENDBRANCH  32  33
ENDBRANCH  31  32
ENDBRANCH  30  31
ENDBRANCH  29  30
ENDBRANCH  28  29
ENDBRANCH  27  28
ENDBRANCH  26  27
ENDBRANCH  25  26
ENDBRANCH  24  25
ENDBRANCH   1  24
TORSDOF 14
ENDMDL
