MODEL 1
REMARK VINA RESULT: -9.272528799      0.000      0.000
REMARK  2 active torsions:
REMARK  status: ('A' for Active; 'I' for Inactive)
REMARK    1  A    between atoms: C2_2  and  C4_4 
REMARK    2  A    between atoms: C5_5  and  C6_6 
ROOT
HETATM    1  C6  UNL     1     -14.238  27.040  19.769  1.00  0.00     0.155 C 
HETATM    2  C7  UNL     1     -13.156  26.438  18.937  1.00  0.00     0.042 C 
HETATM    3  C8  UNL     1     -13.454  26.793  17.455  1.00  0.00     0.070 C 
HETATM    4  C9  UNL     1     -13.129  28.314  17.401  1.00  0.00     0.203 C 
HETATM    5  C10 UNL     1     -14.034  28.883  18.492  1.00  0.00     0.234 C 
HETATM    6  O1  UNL     1     -14.975  27.893  18.908  1.00  0.00    -0.376 OA
HETATM    7  N1  UNL     1     -11.749  28.364  17.734  1.00  0.00    -0.299 N 
ATOM      8  H1  UNL     1     -11.460  28.010  18.646  1.00  0.00     0.183 HD
HETATM    9  N2  UNL     1     -10.900  28.803  16.998  1.00  0.00    -0.301 N 
ATOM     10  H2  UNL     1      -9.927  28.805  17.304  1.00  0.00     0.183 HD
HETATM   11  C11 UNL     1     -11.228  29.319  15.708  1.00  0.00     0.182 C 
HETATM   12  C12 UNL     1     -10.264  30.457  15.454  1.00  0.00     0.073 C 
HETATM   13  C13 UNL     1      -9.640  30.472  14.106  1.00  0.00     0.083 C 
HETATM   14  C14 UNL     1      -9.219  29.134  13.652  1.00  0.00     0.127 C 
HETATM   15  O2  UNL     1      -8.196  28.996  12.980  1.00  0.00    -0.298 OA
HETATM   16  C15 UNL     1      -9.995  27.934  13.978  1.00  0.00     0.083 C 
HETATM   17  C16 UNL     1     -11.298  28.325  14.609  1.00  0.00     0.073 C 
HETATM   18  O3  UNL     1     -12.546  29.832  15.860  1.00  0.00    -0.204 OA
HETATM   19  O4  UNL     1     -13.355  28.846  16.162  1.00  0.00    -0.201 OA
ENDROOT
BRANCH   1  20
HETATM   20  C5  UNL     1     -15.010  26.141  20.612  1.00  0.00    -0.022 A 
HETATM   21  C4  UNL     1     -15.945  25.229  20.113  1.00  0.00    -0.039 A 
HETATM   22  C20 UNL     1     -16.674  24.389  21.007  1.00  0.00    -0.044 A 
HETATM   23  C19 UNL     1     -16.428  24.507  22.337  1.00  0.00    -0.051 A 
HETATM   24  C21 UNL     1     -17.754  23.418  20.788  1.00  0.00     0.040 C 
HETATM   25  C18 UNL     1     -15.490  25.422  22.868  1.00  0.00     0.008 A 
HETATM   26  C23 UNL     1     -17.277  23.584  23.135  1.00  0.00     0.039 C 
HETATM   27  C17 UNL     1     -14.811  26.211  21.972  1.00  0.00     0.011 A 
HETATM   28  C22 UNL     1     -18.237  23.027  22.164  1.00  0.00     0.009 C 
BRANCH  21  29
HETATM   29  C2  UNL     1     -16.288  25.216  18.687  1.00  0.00     0.012 C 
HETATM   30  C1  UNL     1     -15.839  23.935  18.018  1.00  0.00     0.015 C 
HETATM   31  C3  UNL     1     -17.859  25.198  18.569  1.00  0.00     0.015 C 
ENDBRANCH  21  29
ENDBRANCH   1  20
TORSDOF 2
ENDMDL
MODEL 2
REMARK VINA RESULT: -9.043137696      2.331      3.401
REMARK  2 active torsions:
REMARK  status: ('A' for Active; 'I' for Inactive)
REMARK    1  A    between atoms: C2_2  and  C4_4 
REMARK    2  A    between atoms: C5_5  and  C6_6 
ROOT
HETATM    1  C6  UNL     1     -14.597  25.431  18.068  1.00  0.00     0.155 C 
HETATM    2  C7  UNL     1     -13.484  24.488  17.753  1.00  0.00     0.042 C 
HETATM    3  C8  UNL     1     -13.388  24.380  16.206  1.00  0.00     0.070 C 
HETATM    4  C9  UNL     1     -12.795  25.763  15.808  1.00  0.00     0.203 C 
HETATM    5  C10 UNL     1     -13.799  26.739  16.418  1.00  0.00     0.234 C 
HETATM    6  O1  UNL     1     -14.968  26.035  16.839  1.00  0.00    -0.376 OA
HETATM    7  N1  UNL     1     -11.533  25.776  16.459  1.00  0.00    -0.299 N 
ATOM      8  H1  UNL     1     -11.515  25.704  17.477  1.00  0.00     0.183 HD
HETATM    9  N2  UNL     1     -10.482  25.868  15.876  1.00  0.00    -0.301 N 
ATOM     10  H2  UNL     1      -9.613  25.869  16.411  1.00  0.00     0.183 HD
HETATM   11  C11 UNL     1     -10.427  25.976  14.454  1.00  0.00     0.182 C 
HETATM   12  C12 UNL     1      -9.245  26.869  14.145  1.00  0.00     0.073 C 
HETATM   13  C13 UNL     1      -8.352  26.389  13.059  1.00  0.00     0.083 C 
HETATM   14  C14 UNL     1      -8.087  24.940  13.130  1.00  0.00     0.127 C 
HETATM   15  O2  UNL     1      -6.984  24.493  12.815  1.00  0.00    -0.298 OA
HETATM   16  C15 UNL     1      -9.114  23.993  13.571  1.00  0.00     0.083 C 
HETATM   17  C16 UNL     1     -10.433  24.696  13.704  1.00  0.00     0.073 C 
HETATM   18  O3  UNL     1     -11.635  26.642  14.105  1.00  0.00    -0.204 OA
HETATM   19  O4  UNL     1     -12.651  25.892  14.454  1.00  0.00    -0.201 OA
ENDROOT
BRANCH   1  20
HETATM   20  C5  UNL     1     -15.679  24.932  18.901  1.00  0.00    -0.022 A 
HETATM   21  C4  UNL     1     -15.685  25.030  20.295  1.00  0.00    -0.039 A 
HETATM   22  C20 UNL     1     -16.780  24.503  21.045  1.00  0.00    -0.044 A 
HETATM   23  C19 UNL     1     -17.797  23.915  20.363  1.00  0.00    -0.051 A 
HETATM   24  C21 UNL     1     -17.021  24.386  22.489  1.00  0.00     0.040 C 
HETATM   25  C18 UNL     1     -17.814  23.804  18.954  1.00  0.00     0.008 A 
HETATM   26  C23 UNL     1     -18.847  23.401  21.281  1.00  0.00     0.039 C 
HETATM   27  C17 UNL     1     -16.741  24.323  18.273  1.00  0.00     0.011 A 
HETATM   28  C22 UNL     1     -18.265  23.543  22.629  1.00  0.00     0.009 C 
BRANCH  21  29
HETATM   29  C2  UNL     1     -14.516  25.547  21.014  1.00  0.00     0.012 C 
HETATM   30  C1  UNL     1     -14.911  26.564  22.061  1.00  0.00     0.015 C 
HETATM   31  C3  UNL     1     -13.888  24.356  21.832  1.00  0.00     0.015 C 
ENDBRANCH  21  29
ENDBRANCH   1  20
TORSDOF 2
ENDMDL
MODEL 3
REMARK VINA RESULT: -8.834332898      5.920      8.382
REMARK  2 active torsions:
REMARK  status: ('A' for Active; 'I' for Inactive)
REMARK    1  A    between atoms: C2_2  and  C4_4 
REMARK    2  A    between atoms: C5_5  and  C6_6 
ROOT
HETATM    1  C6  UNL     1     -12.073  23.323  24.856  1.00  0.00     0.155 C 
HETATM    2  C7  UNL     1     -12.066  23.706  23.414  1.00  0.00     0.042 C 
HETATM    3  C8  UNL     1     -13.479  24.249  23.069  1.00  0.00     0.070 C 
HETATM    4  C9  UNL     1     -13.498  25.627  23.795  1.00  0.00     0.203 C 
HETATM    5  C10 UNL     1     -13.188  25.241  25.240  1.00  0.00     0.234 C 
HETATM    6  O1  UNL     1     -13.285  23.824  25.397  1.00  0.00    -0.376 OA
HETATM    7  N1  UNL     1     -12.442  26.340  23.166  1.00  0.00    -0.299 N 
ATOM      8  H1  UNL     1     -11.497  25.959  23.231  1.00  0.00     0.183 HD
HETATM    9  N2  UNL     1     -12.601  27.370  22.561  1.00  0.00    -0.301 N 
ATOM     10  H2  UNL     1     -11.795  27.826  22.133  1.00  0.00     0.183 HD
HETATM   11  C11 UNL     1     -13.891  27.966  22.430  1.00  0.00     0.182 C 
HETATM   12  C12 UNL     1     -13.666  29.462  22.434  1.00  0.00     0.073 C 
HETATM   13  C13 UNL     1     -14.407  30.218  21.391  1.00  0.00     0.083 C 
HETATM   14  C14 UNL     1     -14.394  29.550  20.077  1.00  0.00     0.127 C 
HETATM   15  O2  UNL     1     -14.341  30.213  19.041  1.00  0.00    -0.298 OA
HETATM   16  C15 UNL     1     -14.447  28.090  19.959  1.00  0.00     0.083 C 
HETATM   17  C16 UNL     1     -14.721  27.478  21.301  1.00  0.00     0.073 C 
HETATM   18  O3  UNL     1     -14.577  27.581  23.617  1.00  0.00    -0.204 OA
HETATM   19  O4  UNL     1     -14.691  26.276  23.639  1.00  0.00    -0.201 OA
ENDROOT
BRANCH   1  20
HETATM   20  C5  UNL     1     -11.735  21.947  25.183  1.00  0.00    -0.022 A 
HETATM   21  C4  UNL     1     -10.732  21.595  26.092  1.00  0.00    -0.039 A 
HETATM   22  C20 UNL     1     -10.450  20.220  26.350  1.00  0.00    -0.044 A 
HETATM   23  C19 UNL     1     -11.182  19.284  25.691  1.00  0.00    -0.051 A 
HETATM   24  C21 UNL     1      -9.425  19.560  27.167  1.00  0.00     0.040 C 
HETATM   25  C18 UNL     1     -12.200  19.613  24.768  1.00  0.00     0.008 A 
HETATM   26  C23 UNL     1     -10.758  17.905  26.050  1.00  0.00     0.039 C 
HETATM   27  C17 UNL     1     -12.438  20.948  24.549  1.00  0.00     0.011 A 
HETATM   28  C22 UNL     1      -9.529  18.088  26.847  1.00  0.00     0.009 C 
BRANCH  21  29
HETATM   29  C2  UNL     1      -9.869  22.621  26.686  1.00  0.00     0.012 C 
HETATM   30  C1  UNL     1      -9.892  22.561  28.197  1.00  0.00     0.015 C 
HETATM   31  C3  UNL     1      -8.380  22.282  26.296  1.00  0.00     0.015 C 
ENDBRANCH  21  29
ENDBRANCH   1  20
TORSDOF 2
ENDMDL
MODEL 4
REMARK VINA RESULT: -8.803180590      5.299      9.139
REMARK  2 active torsions:
REMARK  status: ('A' for Active; 'I' for Inactive)
REMARK    1  A    between atoms: C2_2  and  C4_4 
REMARK    2  A    between atoms: C5_5  and  C6_6 
ROOT
HETATM    1  C6  UNL     1     -13.598  26.760  22.145  1.00  0.00     0.155 C 
HETATM    2  C7  UNL     1     -12.213  26.514  22.643  1.00  0.00     0.042 C 
HETATM    3  C8  UNL     1     -12.318  26.108  24.138  1.00  0.00     0.070 C 
HETATM    4  C9  UNL     1     -12.917  24.673  24.056  1.00  0.00     0.203 C 
HETATM    5  C10 UNL     1     -14.201  24.898  23.260  1.00  0.00     0.234 C 
HETATM    6  O1  UNL     1     -14.474  26.296  23.161  1.00  0.00    -0.376 OA
HETATM    7  N1  UNL     1     -11.930  23.949  23.335  1.00  0.00    -0.299 N 
ATOM      8  H1  UNL     1     -11.704  24.254  22.388  1.00  0.00     0.183 HD
HETATM    9  N2  UNL     1     -11.344  22.995  23.781  1.00  0.00    -0.301 N 
ATOM     10  H2  UNL     1     -10.645  22.525  23.206  1.00  0.00     0.183 HD
HETATM   11  C11 UNL     1     -11.608  22.507  25.097  1.00  0.00     0.182 C 
HETATM   12  C12 UNL     1     -11.439  21.005  25.031  1.00  0.00     0.073 C 
HETATM   13  C13 UNL     1     -10.651  20.405  26.138  1.00  0.00     0.083 C 
HETATM   14  C14 UNL     1      -9.454  21.192  26.486  1.00  0.00     0.127 C 
HETATM   15  O2  UNL     1      -8.417  20.628  26.835  1.00  0.00    -0.298 OA
HETATM   16  C15 UNL     1      -9.456  22.657  26.430  1.00  0.00     0.083 C 
HETATM   17  C16 UNL     1     -10.851  23.157  26.194  1.00  0.00     0.073 C 
HETATM   18  O3  UNL     1     -12.977  22.826  25.321  1.00  0.00    -0.204 OA
HETATM   19  O4  UNL     1     -13.121  24.128  25.293  1.00  0.00    -0.201 OA
ENDROOT
BRANCH   1  20
HETATM   20  C5  UNL     1     -13.885  28.070  21.587  1.00  0.00    -0.022 A 
HETATM   21  C4  UNL     1     -13.831  28.353  20.219  1.00  0.00    -0.039 A 
HETATM   22  C20 UNL     1     -14.113  29.671  19.748  1.00  0.00    -0.044 A 
HETATM   23  C19 UNL     1     -14.432  30.621  20.665  1.00  0.00    -0.051 A 
HETATM   24  C21 UNL     1     -14.055  30.274  18.411  1.00  0.00     0.040 C 
HETATM   25  C18 UNL     1     -14.493  30.361  22.053  1.00  0.00     0.008 A 
HETATM   26  C23 UNL     1     -14.678  31.940  20.024  1.00  0.00     0.039 C 
HETATM   27  C17 UNL     1     -14.214  29.081  22.462  1.00  0.00     0.011 A 
HETATM   28  C22 UNL     1     -14.264  31.755  18.620  1.00  0.00     0.009 C 
BRANCH  21  29
HETATM   29  C2  UNL     1     -13.353  27.346  19.266  1.00  0.00     0.012 C 
HETATM   30  C1  UNL     1     -14.049  27.471  17.928  1.00  0.00     0.015 C 
HETATM   31  C3  UNL     1     -11.839  27.654  18.957  1.00  0.00     0.015 C 
ENDBRANCH  21  29
ENDBRANCH   1  20
TORSDOF 2
ENDMDL
MODEL 5
REMARK VINA RESULT: -8.684823548      0.917      2.281
REMARK  2 active torsions:
REMARK  status: ('A' for Active; 'I' for Inactive)
REMARK    1  A    between atoms: C2_2  and  C4_4 
REMARK    2  A    between atoms: C5_5  and  C6_6 
ROOT
HETATM    1  C6  UNL     1     -14.434  26.850  19.743  1.00  0.00     0.155 C 
HETATM    2  C7  UNL     1     -13.486  26.347  18.706  1.00  0.00     0.042 C 
HETATM    3  C8  UNL     1     -13.814  27.083  17.378  1.00  0.00     0.070 C 
HETATM    4  C9  UNL     1     -13.293  28.524  17.654  1.00  0.00     0.203 C 
HETATM    5  C10 UNL     1     -14.055  28.912  18.920  1.00  0.00     0.234 C 
HETATM    6  O1  UNL     1     -15.096  27.967  19.170  1.00  0.00    -0.376 OA
HETATM    7  N1  UNL     1     -11.903  28.332  17.874  1.00  0.00    -0.299 N 
ATOM      8  H1  UNL     1     -11.615  27.736  18.650  1.00  0.00     0.183 HD
HETATM    9  N2  UNL     1     -11.044  28.834  17.192  1.00  0.00    -0.301 N 
ATOM     10  H2  UNL     1     -10.064  28.649  17.408  1.00  0.00     0.183 HD
HETATM   11  C11 UNL     1     -11.369  29.682  16.091  1.00  0.00     0.182 C 
HETATM   12  C12 UNL     1     -10.278  30.729  16.030  1.00  0.00     0.073 C 
HETATM   13  C13 UNL     1      -9.730  30.998  14.676  1.00  0.00     0.083 C 
HETATM   14  C14 UNL     1      -9.515  29.770  13.888  1.00  0.00     0.127 C 
HETATM   15  O2  UNL     1      -8.557  29.683  13.119  1.00  0.00    -0.298 OA
HETATM   16  C15 UNL     1     -10.425  28.626  13.988  1.00  0.00     0.083 C 
HETATM   17  C16 UNL     1     -11.629  29.000  14.800  1.00  0.00     0.073 C 
HETATM   18  O3  UNL     1     -12.598  30.293  16.468  1.00  0.00    -0.204 OA
HETATM   19  O4  UNL     1     -13.513  29.364  16.598  1.00  0.00    -0.201 OA
ENDROOT
BRANCH   1  20
HETATM   20  C5  UNL     1     -15.272  25.870  20.414  1.00  0.00    -0.022 A 
HETATM   21  C4  UNL     1     -15.016  25.391  21.702  1.00  0.00    -0.039 A 
HETATM   22  C20 UNL     1     -15.880  24.417  22.288  1.00  0.00    -0.044 A 
HETATM   23  C19 UNL     1     -16.941  23.983  21.559  1.00  0.00    -0.051 A 
HETATM   24  C21 UNL     1     -15.820  23.683  23.558  1.00  0.00     0.040 C 
HETATM   25  C18 UNL     1     -17.220  24.451  20.255  1.00  0.00     0.008 A 
HETATM   26  C23 UNL     1     -17.729  22.960  22.295  1.00  0.00     0.039 C 
HETATM   27  C17 UNL     1     -16.364  25.387  19.730  1.00  0.00     0.011 A 
HETATM   28  C22 UNL     1     -16.915  22.646  23.484  1.00  0.00     0.009 C 
BRANCH  21  29
HETATM   29  C2  UNL     1     -13.792  25.774  22.413  1.00  0.00     0.012 C 
HETATM   30  C1  UNL     1     -14.053  26.007  23.885  1.00  0.00     0.015 C 
HETATM   31  C3  UNL     1     -12.806  24.546  22.372  1.00  0.00     0.015 C 
ENDBRANCH  21  29
ENDBRANCH   1  20
TORSDOF 2
ENDMDL
