MODEL 1
REMARK VINA RESULT: -5.367804483      0.000      0.000
REMARK  2 active torsions:
REMARK  status: ('A' for Active; 'I' for Inactive)
REMARK    1  A    between atoms: C5_6  and  C6_7 
REMARK    2  A    between atoms: C6_7  and  N2_8 
ROOT
HETATM    1  N1  UNL     1     -49.256  10.859  -0.750  1.00  0.00    -0.197 NA
HETATM    2  C1  UNL     1     -48.593  10.916  -1.703  1.00  0.00     0.064 C 
HETATM    3  C2  UNL     1     -47.771  10.963  -2.890  1.00  0.00     0.093 C 
HETATM    4  C3  UNL     1     -48.250   9.959  -3.944  1.00  0.00     0.019 C 
HETATM    5  C4  UNL     1     -47.653  10.488  -5.254  1.00  0.00     0.007 C 
HETATM    6  C5  UNL     1     -46.329  11.149  -5.033  1.00  0.00     0.011 C 
HETATM    7  C7  UNL     1     -45.553  10.570  -3.887  1.00  0.00     0.007 C 
HETATM    8  C8  UNL     1     -46.335  10.584  -2.589  1.00  0.00     0.019 C 
ENDROOT
BRANCH   6   9
HETATM    9  C6  UNL     1     -45.502  10.961  -6.288  1.00  0.00     0.234 C 
BRANCH   9  10
HETATM   10  N2  UNL     1     -46.163  10.019  -7.172  1.00  0.00    -0.079 N 
ATOM     11  H23 UNL     1     -46.698   9.320  -6.657  1.00  0.00     0.274 HD
ATOM     12  H22 UNL     1     -46.934  10.449  -7.683  1.00  0.00     0.274 HD
ATOM     13  H21 UNL     1     -45.477   9.595  -7.796  1.00  0.00     0.274 HD
ENDBRANCH   9  10
ENDBRANCH   6   9
TORSDOF 2
ENDMDL
MODEL 2
REMARK VINA RESULT: -5.094221143      0.868      4.677
REMARK  2 active torsions:
REMARK  status: ('A' for Active; 'I' for Inactive)
REMARK    1  A    between atoms: C5_6  and  C6_7 
REMARK    2  A    between atoms: C6_7  and  N2_8 
ROOT
HETATM    1  N1  UNL     1     -45.186  11.108  -6.663  1.00  0.00    -0.197 NA
HETATM    2  C1  UNL     1     -45.938  11.052  -5.780  1.00  0.00     0.064 C 
HETATM    3  C2  UNL     1     -46.865  10.961  -4.676  1.00  0.00     0.093 C 
HETATM    4  C3  UNL     1     -46.213  10.315  -3.448  1.00  0.00     0.019 C 
HETATM    5  C4  UNL     1     -47.101  10.766  -2.281  1.00  0.00     0.007 C 
HETATM    6  C5  UNL     1     -48.532  10.907  -2.695  1.00  0.00     0.011 C 
HETATM    7  C7  UNL     1     -48.936   9.964  -3.790  1.00  0.00     0.007 C 
HETATM    8  C8  UNL     1     -48.053  10.085  -5.015  1.00  0.00     0.019 C 
ENDROOT
BRANCH   6   9
HETATM    9  C6  UNL     1     -49.395  10.604  -1.487  1.00  0.00     0.234 C 
BRANCH   9  10
HETATM   10  N2  UNL     1     -48.934  11.379  -0.351  1.00  0.00    -0.079 N 
ATOM     11  H23 UNL     1     -49.395  11.100   0.516  1.00  0.00     0.274 HD
ATOM     12  H22 UNL     1     -47.976  11.147  -0.091  1.00  0.00     0.274 HD
ATOM     13  H21 UNL     1     -49.049  12.374  -0.544  1.00  0.00     0.274 HD
ENDBRANCH   9  10
ENDBRANCH   6   9
TORSDOF 2
ENDMDL
MODEL 3
REMARK VINA RESULT: -5.017522827      1.515      2.290
REMARK  2 active torsions:
REMARK  status: ('A' for Active; 'I' for Inactive)
REMARK    1  A    between atoms: C5_6  and  C6_7 
REMARK    2  A    between atoms: C6_7  and  N2_8 
ROOT
HETATM    1  N1  UNL     1     -51.220   9.191  -2.550  1.00  0.00    -0.197 NA
HETATM    2  C1  UNL     1     -50.165   9.456  -2.958  1.00  0.00     0.064 C 
HETATM    3  C2  UNL     1     -48.857   9.807  -3.458  1.00  0.00     0.093 C 
HETATM    4  C3  UNL     1     -48.140  10.783  -2.518  1.00  0.00     0.019 C 
HETATM    5  C4  UNL     1     -46.659  10.632  -2.890  1.00  0.00     0.007 C 
HETATM    6  C5  UNL     1     -46.481  10.334  -4.345  1.00  0.00     0.011 C 
HETATM    7  C7  UNL     1     -47.547  10.933  -5.215  1.00  0.00     0.007 C 
HETATM    8  C8  UNL     1     -48.942  10.518  -4.794  1.00  0.00     0.019 C 
ENDROOT
BRANCH   6   9
HETATM    9  C6  UNL     1     -45.153  10.920  -4.778  1.00  0.00     0.234 C 
BRANCH   9  10
HETATM   10  N2  UNL     1     -45.144  11.100  -6.218  1.00  0.00    -0.079 N 
ATOM     11  H23 UNL     1     -45.729  11.883  -6.511  1.00  0.00     0.274 HD
ATOM     12  H22 UNL     1     -44.248  11.450  -6.556  1.00  0.00     0.274 HD
ATOM     13  H21 UNL     1     -45.412  10.228  -6.674  1.00  0.00     0.274 HD
ENDBRANCH   9  10
ENDBRANCH   6   9
TORSDOF 2
ENDMDL
MODEL 4
REMARK VINA RESULT: -4.866186637      1.263      4.557
REMARK  2 active torsions:
REMARK  status: ('A' for Active; 'I' for Inactive)
REMARK    1  A    between atoms: C5_6  and  C6_7 
REMARK    2  A    between atoms: C6_7  and  N2_8 
ROOT
HETATM    1  N1  UNL     1     -45.076  11.242  -6.508  1.00  0.00    -0.197 NA
HETATM    2  C1  UNL     1     -45.913  11.114  -5.713  1.00  0.00     0.064 C 
HETATM    3  C2  UNL     1     -46.943  10.935  -4.716  1.00  0.00     0.093 C 
HETATM    4  C3  UNL     1     -46.360  10.436  -3.389  1.00  0.00     0.019 C 
HETATM    5  C4  UNL     1     -47.433  10.800  -2.356  1.00  0.00     0.007 C 
HETATM    6  C5  UNL     1     -48.810  10.719  -2.934  1.00  0.00     0.011 C 
HETATM    7  C7  UNL     1     -48.948   9.687  -4.014  1.00  0.00     0.007 C 
HETATM    8  C8  UNL     1     -47.951   9.885  -5.138  1.00  0.00     0.019 C 
ENDROOT
BRANCH   6   9
HETATM    9  C6  UNL     1     -49.761  10.343  -1.816  1.00  0.00     0.234 C 
BRANCH   9  10
HETATM   10  N2  UNL     1     -50.903   9.636  -2.364  1.00  0.00    -0.079 N 
ATOM     11  H23 UNL     1     -51.316  10.128  -3.156  1.00  0.00     0.274 HD
ATOM     12  H22 UNL     1     -50.629   8.780  -2.847  1.00  0.00     0.274 HD
ATOM     13  H21 UNL     1     -51.583   9.458  -1.625  1.00  0.00     0.274 HD
ENDBRANCH   9  10
ENDBRANCH   6   9
TORSDOF 2
ENDMDL
MODEL 5
REMARK VINA RESULT: -4.826145982      2.008      4.224
REMARK  2 active torsions:
REMARK  status: ('A' for Active; 'I' for Inactive)
REMARK    1  A    between atoms: C5_6  and  C6_7 
REMARK    2  A    between atoms: C6_7  and  N2_8 
ROOT
HETATM    1  N1  UNL     1     -44.635  10.992  -4.673  1.00  0.00    -0.197 NA
HETATM    2  C1  UNL     1     -45.692  10.719  -4.276  1.00  0.00     0.064 C 
HETATM    3  C2  UNL     1     -47.014  10.401  -3.789  1.00  0.00     0.093 C 
HETATM    4  C3  UNL     1     -48.102  10.954  -4.716  1.00  0.00     0.019 C 
HETATM    5  C4  UNL     1     -49.340  10.116  -4.372  1.00  0.00     0.007 C 
HETATM    6  C5  UNL     1     -49.362   9.726  -2.928  1.00  0.00     0.011 C 
HETATM    7  C7  UNL     1     -48.704  10.728  -2.026  1.00  0.00     0.007 C 
HETATM    8  C8  UNL     1     -47.276  11.028  -2.435  1.00  0.00     0.019 C 
ENDROOT
BRANCH   6   9
HETATM    9  C6  UNL     1     -50.811   9.608  -2.502  1.00  0.00     0.234 C 
BRANCH   9  10
HETATM   10  N2  UNL     1     -51.486   8.629  -3.333  1.00  0.00    -0.079 N 
ATOM     11  H23 UNL     1     -51.426   8.861  -4.325  1.00  0.00     0.274 HD
ATOM     12  H22 UNL     1     -50.989   7.739  -3.359  1.00  0.00     0.274 HD
ATOM     13  H21 UNL     1     -52.451   8.521  -3.022  1.00  0.00     0.274 HD
ENDBRANCH   9  10
ENDBRANCH   6   9
TORSDOF 2
ENDMDL
