MODEL 1
REMARK VINA RESULT: -6.447483417      0.000      0.000
REMARK  3 active torsions:
REMARK  status: ('A' for Active; 'I' for Inactive)
REMARK    1  A    between atoms: N1_1  and  O1_4 
REMARK    2  A    between atoms: O1_4  and  C1_5 
REMARK    3  A    between atoms: C1_5  and  C2_6 
ROOT
HETATM    1  C2  UNL     1     -47.853  10.298  -3.864  1.00  0.00     0.013 C 
HETATM    2  C3  UNL     1     -47.021  10.715  -2.646  1.00  0.00     0.018 C 
HETATM    3  C4  UNL     1     -45.491  10.764  -2.987  1.00  0.00     0.080 C 
HETATM    4  C5  UNL     1     -45.411  10.806  -4.385  1.00  0.00    -0.183 C 
HETATM    5  C6  UNL     1     -45.381  10.843  -5.787  1.00  0.00     0.080 C 
HETATM    6  C7  UNL     1     -46.875  10.721  -6.250  1.00  0.00     0.012 C 
HETATM    7  C8  UNL     1     -47.839  11.005  -5.102  1.00  0.00     0.007 C 
ENDROOT
BRANCH   1   8
HETATM    8  C1  UNL     1     -49.292  10.404  -3.287  1.00  0.00     0.205 C 
BRANCH   8   9
HETATM    9  O1  UNL     1     -50.054   9.328  -3.795  1.00  0.00    -0.287 OA
BRANCH   9  10
HETATM   10  N1  UNL     1     -51.060   9.145  -2.909  1.00  0.00    -0.311 N 
ATOM     11  H12 UNL     1     -51.936   9.667  -2.870  1.00  0.00     0.184 HD
ATOM     12  H11 UNL     1     -50.755   8.385  -2.301  1.00  0.00     0.184 HD
ENDBRANCH   9  10
ENDBRANCH   8   9
ENDBRANCH   1   8
TORSDOF 3
ENDMDL
MODEL 2
REMARK VINA RESULT: -5.888367085      1.335      1.335
REMARK  3 active torsions:
REMARK  status: ('A' for Active; 'I' for Inactive)
REMARK    1  A    between atoms: N1_1  and  O1_4 
REMARK    2  A    between atoms: O1_4  and  C1_5 
REMARK    3  A    between atoms: C1_5  and  C2_6 
ROOT
HETATM    1  C2  UNL     1     -47.688  10.332  -3.815  1.00  0.00     0.013 C 
HETATM    2  C3  UNL     1     -46.690  10.730  -2.723  1.00  0.00     0.018 C 
HETATM    3  C4  UNL     1     -45.224  10.781  -3.278  1.00  0.00     0.080 C 
HETATM    4  C5  UNL     1     -45.344  10.843  -4.672  1.00  0.00    -0.183 C 
HETATM    5  C6  UNL     1     -45.513  10.900  -6.064  1.00  0.00     0.080 C 
HETATM    6  C7  UNL     1     -47.059  10.787  -6.311  1.00  0.00     0.012 C 
HETATM    7  C8  UNL     1     -47.848  11.057  -5.033  1.00  0.00     0.007 C 
ENDROOT
BRANCH   1   8
HETATM    8  C1  UNL     1     -49.030  10.433  -3.039  1.00  0.00     0.205 C 
BRANCH   8   9
HETATM    9  O1  UNL     1     -48.811  11.197  -1.871  1.00  0.00    -0.287 OA
BRANCH   9  10
HETATM   10  N1  UNL     1     -49.553  10.607  -0.906  1.00  0.00    -0.311 N 
ATOM     11  H12 UNL     1     -50.563  10.682  -0.786  1.00  0.00     0.184 HD
ATOM     12  H11 UNL     1     -48.891  10.080  -0.336  1.00  0.00     0.184 HD
ENDBRANCH   9  10
ENDBRANCH   8   9
ENDBRANCH   1   8
TORSDOF 3
ENDMDL
MODEL 3
REMARK VINA RESULT: -5.846051182      0.521      2.071
REMARK  3 active torsions:
REMARK  status: ('A' for Active; 'I' for Inactive)
REMARK    1  A    between atoms: N1_1  and  O1_4 
REMARK    2  A    between atoms: O1_4  and  C1_5 
REMARK    3  A    between atoms: C1_5  and  C2_6 
ROOT
HETATM    1  C2  UNL     1     -47.992  10.899  -3.628  1.00  0.00     0.013 C 
HETATM    2  C3  UNL     1     -48.395  10.559  -5.067  1.00  0.00     0.018 C 
HETATM    3  C4  UNL     1     -47.214  10.815  -6.067  1.00  0.00     0.080 C 
HETATM    4  C5  UNL     1     -46.055  10.885  -5.283  1.00  0.00    -0.183 C 
HETATM    5  C6  UNL     1     -44.923  10.952  -4.456  1.00  0.00     0.080 C 
HETATM    6  C7  UNL     1     -45.460  10.829  -2.987  1.00  0.00     0.012 C 
HETATM    7  C8  UNL     1     -46.888  10.294  -2.958  1.00  0.00     0.007 C 
ENDROOT
BRANCH   1   8
HETATM    8  C1  UNL     1     -49.279  10.491  -2.858  1.00  0.00     0.205 C 
BRANCH   8   9
HETATM    9  O1  UNL     1     -50.072   9.692  -3.712  1.00  0.00    -0.287 OA
BRANCH   9  10
HETATM   10  N1  UNL     1     -50.993   9.108  -2.911  1.00  0.00    -0.311 N 
ATOM     11  H12 UNL     1     -51.180   8.109  -2.831  1.00  0.00     0.184 HD
ATOM     12  H11 UNL     1     -51.450   9.874  -2.415  1.00  0.00     0.184 HD
ENDBRANCH   9  10
ENDBRANCH   8   9
ENDBRANCH   1   8
TORSDOF 3
ENDMDL
MODEL 4
REMARK VINA RESULT: -5.410752484      1.780      2.629
REMARK  3 active torsions:
REMARK  status: ('A' for Active; 'I' for Inactive)
REMARK    1  A    between atoms: N1_1  and  O1_4 
REMARK    2  A    between atoms: O1_4  and  C1_5 
REMARK    3  A    between atoms: C1_5  and  C2_6 
ROOT
HETATM    1  C2  UNL     1     -47.862  11.009  -3.352  1.00  0.00     0.013 C 
HETATM    2  C3  UNL     1     -48.545  10.576  -4.655  1.00  0.00     0.018 C 
HETATM    3  C4  UNL     1     -47.578  10.719  -5.882  1.00  0.00     0.080 C 
HETATM    4  C5  UNL     1     -46.287  10.808  -5.345  1.00  0.00    -0.183 C 
HETATM    5  C6  UNL     1     -45.014  10.898  -4.761  1.00  0.00     0.080 C 
HETATM    6  C7  UNL     1     -45.255  10.902  -3.210  1.00  0.00     0.012 C 
HETATM    7  C8  UNL     1     -46.660  10.418  -2.864  1.00  0.00     0.007 C 
ENDROOT
BRANCH   1   8
HETATM    8  C1  UNL     1     -48.981  10.701  -2.318  1.00  0.00     0.205 C 
BRANCH   8   9
HETATM    9  O1  UNL     1     -48.724  11.451  -1.150  1.00  0.00    -0.287 OA
BRANCH   9  10
HETATM   10  N1  UNL     1     -49.333  10.780  -0.145  1.00  0.00    -0.311 N 
ATOM     11  H12 UNL     1     -49.250   9.783   0.055  1.00  0.00     0.184 HD
ATOM     12  H11 UNL     1     -49.881  11.477   0.358  1.00  0.00     0.184 HD
ENDBRANCH   9  10
ENDBRANCH   8   9
ENDBRANCH   1   8
TORSDOF 3
ENDMDL
MODEL 5
REMARK VINA RESULT: -5.138218470      2.922      4.272
REMARK  3 active torsions:
REMARK  status: ('A' for Active; 'I' for Inactive)
REMARK    1  A    between atoms: N1_1  and  O1_4 
REMARK    2  A    between atoms: O1_4  and  C1_5 
REMARK    3  A    between atoms: C1_5  and  C2_6 
ROOT
HETATM    1  C2  UNL     1     -48.182  10.747  -3.732  1.00  0.00     0.013 C 
HETATM    2  C3  UNL     1     -47.583  11.053  -2.355  1.00  0.00     0.018 C 
HETATM    3  C4  UNL     1     -48.671  10.978  -1.228  1.00  0.00     0.080 C 
HETATM    4  C5  UNL     1     -49.745  10.266  -1.778  1.00  0.00    -0.183 C 
HETATM    5  C6  UNL     1     -50.797   9.553  -2.373  1.00  0.00     0.080 C 
HETATM    6  C7  UNL     1     -50.356   9.302  -3.858  1.00  0.00     0.012 C 
HETATM    7  C8  UNL     1     -48.859   9.530  -4.040  1.00  0.00     0.007 C 
ENDROOT
BRANCH   1   8
HETATM    8  C1  UNL     1     -46.912  10.809  -4.626  1.00  0.00     0.205 C 
BRANCH   8   9
HETATM    9  O1  UNL     1     -45.862  11.370  -3.866  1.00  0.00    -0.287 OA
BRANCH   9  10
HETATM   10  N1  UNL     1     -44.725  11.044  -4.522  1.00  0.00    -0.311 N 
ATOM     11  H12 UNL     1     -44.453  10.113  -4.838  1.00  0.00     0.184 HD
ATOM     12  H11 UNL     1     -44.209  11.918  -4.629  1.00  0.00     0.184 HD
ENDBRANCH   9  10
ENDBRANCH   8   9
ENDBRANCH   1   8
TORSDOF 3
ENDMDL
