MODEL 1
REMARK VINA RESULT: -6.238418128      0.000      0.000
REMARK  2 active torsions:
REMARK  status: ('A' for Active; 'I' for Inactive)
REMARK    1  A    between atoms: C2_3  and  C3_4 
REMARK    2  A    between atoms: C3_4  and  O1_5 
ROOT
HETATM    1  N1  UNL     1     -50.608   9.439  -2.704  1.00  0.00    -0.197 NA
HETATM    2  C1  UNL     1     -49.845  10.106  -3.256  1.00  0.00     0.062 C 
HETATM    3  C2  UNL     1     -48.903  10.957  -3.928  1.00  0.00     0.161 C 
ENDROOT
BRANCH   3   4
HETATM    4  C3  UNL     1     -47.673  10.198  -4.449  1.00  0.00     0.070 C 
HETATM    5  C4  UNL     1     -47.228  10.699  -5.766  1.00  0.00     0.039 C 
HETATM    6  C5  UNL     1     -45.877  11.283  -5.859  1.00  0.00     0.003 C 
HETATM    7  C6  UNL     1     -44.885  10.829  -4.840  1.00  0.00     0.000 C 
HETATM    8  C7  UNL     1     -45.501  11.045  -3.475  1.00  0.00     0.003 C 
HETATM    9  C8  UNL     1     -46.663  10.116  -3.376  1.00  0.00     0.039 C 
BRANCH   4  10
HETATM   10  O1  UNL     1     -48.166   8.881  -4.652  1.00  0.00    -0.389 OA
ATOM     11  H1  UNL     1     -47.418   8.422  -5.015  1.00  0.00     0.210 HD
ENDBRANCH   4  10
ENDBRANCH   3   4
TORSDOF 2
ENDMDL
MODEL 2
REMARK VINA RESULT: -5.627392601      1.180      1.969
REMARK  2 active torsions:
REMARK  status: ('A' for Active; 'I' for Inactive)
REMARK    1  A    between atoms: C2_3  and  C3_4 
REMARK    2  A    between atoms: C3_4  and  O1_5 
ROOT
HETATM    1  N1  UNL     1     -50.882   9.370  -2.531  1.00  0.00    -0.197 NA
HETATM    2  C1  UNL     1     -49.986   9.357  -3.258  1.00  0.00     0.062 C 
HETATM    3  C2  UNL     1     -48.885   9.326  -4.179  1.00  0.00     0.161 C 
ENDROOT
BRANCH   3   4
HETATM    4  C3  UNL     1     -48.006  10.584  -4.108  1.00  0.00     0.070 C 
HETATM    5  C4  UNL     1     -46.994  10.496  -3.034  1.00  0.00     0.039 C 
HETATM    6  C5  UNL     1     -45.573  10.532  -3.425  1.00  0.00     0.003 C 
HETATM    7  C6  UNL     1     -45.255  11.204  -4.718  1.00  0.00     0.000 C 
HETATM    8  C7  UNL     1     -46.118  10.570  -5.787  1.00  0.00     0.003 C 
HETATM    9  C8  UNL     1     -47.530  10.921  -5.465  1.00  0.00     0.039 C 
BRANCH   4  10
HETATM   10  O1  UNL     1     -48.925  11.600  -3.730  1.00  0.00    -0.389 OA
ATOM     11  H1  UNL     1     -48.511  11.995  -2.971  1.00  0.00     0.210 HD
ENDBRANCH   4  10
ENDBRANCH   3   4
TORSDOF 2
ENDMDL
MODEL 3
REMARK VINA RESULT: -5.065606026      2.377      4.065
REMARK  2 active torsions:
REMARK  status: ('A' for Active; 'I' for Inactive)
REMARK    1  A    between atoms: C2_3  and  C3_4 
REMARK    2  A    between atoms: C3_4  and  O1_5 
ROOT
HETATM    1  N1  UNL     1     -45.226  10.978  -6.108  1.00  0.00    -0.197 NA
HETATM    2  C1  UNL     1     -46.304  11.010  -5.697  1.00  0.00     0.062 C 
HETATM    3  C2  UNL     1     -47.655  11.055  -5.211  1.00  0.00     0.161 C 
ENDROOT
BRANCH   3   4
HETATM    4  C3  UNL     1     -47.885  10.147  -3.993  1.00  0.00     0.070 C 
HETATM    5  C4  UNL     1     -47.483  10.799  -2.729  1.00  0.00     0.039 C 
HETATM    6  C5  UNL     1     -48.526  11.031  -1.714  1.00  0.00     0.003 C 
HETATM    7  C6  UNL     1     -49.715  10.130  -1.762  1.00  0.00     0.000 C 
HETATM    8  C7  UNL     1     -50.273  10.185  -3.167  1.00  0.00     0.003 C 
HETATM    9  C8  UNL     1     -49.246   9.579  -4.062  1.00  0.00     0.039 C 
BRANCH   4  10
HETATM   10  O1  UNL     1     -46.980   9.074  -4.212  1.00  0.00    -0.389 OA
ATOM     11  H1  UNL     1     -46.151   9.423  -3.905  1.00  0.00     0.210 HD
ENDBRANCH   4  10
ENDBRANCH   3   4
TORSDOF 2
ENDMDL
MODEL 4
REMARK VINA RESULT: -4.948356283      6.755      7.939
REMARK  2 active torsions:
REMARK  status: ('A' for Active; 'I' for Inactive)
REMARK    1  A    between atoms: C2_3  and  C3_4 
REMARK    2  A    between atoms: C3_4  and  O1_5 
ROOT
HETATM    1  N1  UNL     1     -52.746  14.831   3.583  1.00  0.00    -0.197 NA
HETATM    2  C1  UNL     1     -52.323  13.919   3.016  1.00  0.00     0.062 C 
HETATM    3  C2  UNL     1     -51.814  12.789   2.291  1.00  0.00     0.161 C 
ENDROOT
BRANCH   3   4
HETATM    4  C3  UNL     1     -50.339  12.491   2.600  1.00  0.00     0.070 C 
HETATM    5  C4  UNL     1     -50.157  11.156   3.208  1.00  0.00     0.039 C 
HETATM    6  C5  UNL     1     -49.342  10.172   2.472  1.00  0.00     0.003 C 
HETATM    7  C6  UNL     1     -48.331  10.722   1.522  1.00  0.00     0.000 C 
HETATM    8  C7  UNL     1     -49.050  11.670   0.588  1.00  0.00     0.003 C 
HETATM    9  C8  UNL     1     -49.519  12.817   1.416  1.00  0.00     0.039 C 
BRANCH   4  10
HETATM   10  O1  UNL     1     -50.018  13.449   3.600  1.00  0.00    -0.389 OA
ATOM     11  H1  UNL     1     -49.067  13.458   3.594  1.00  0.00     0.210 HD
ENDBRANCH   4  10
ENDBRANCH   3   4
TORSDOF 2
ENDMDL
MODEL 5
REMARK VINA RESULT: -4.619694250      2.441      4.192
REMARK  2 active torsions:
REMARK  status: ('A' for Active; 'I' for Inactive)
REMARK    1  A    between atoms: C2_3  and  C3_4 
REMARK    2  A    between atoms: C3_4  and  O1_5 
ROOT
HETATM    1  N1  UNL     1     -45.069  11.212  -5.031  1.00  0.00    -0.197 NA
HETATM    2  C1  UNL     1     -45.823  10.656  -4.358  1.00  0.00     0.062 C 
HETATM    3  C2  UNL     1     -46.742   9.958  -3.503  1.00  0.00     0.161 C 
ENDROOT
BRANCH   3   4
HETATM    4  C3  UNL     1     -48.178  10.498  -3.596  1.00  0.00     0.070 C 
HETATM    5  C4  UNL     1     -49.102   9.519  -4.205  1.00  0.00     0.039 C 
HETATM    6  C5  UNL     1     -50.222   9.026  -3.383  1.00  0.00     0.003 C 
HETATM    7  C6  UNL     1     -50.678   9.919  -2.278  1.00  0.00     0.000 C 
HETATM    8  C7  UNL     1     -49.467  10.259  -1.436  1.00  0.00     0.003 C 
HETATM    9  C8  UNL     1     -48.563  11.077  -2.294  1.00  0.00     0.039 C 
BRANCH   4  10
HETATM   10  O1  UNL     1     -48.059  11.580  -4.509  1.00  0.00    -0.389 OA
ATOM     11  H1  UNL     1     -48.953  11.888  -4.598  1.00  0.00     0.210 HD
ENDBRANCH   4  10
ENDBRANCH   3   4
TORSDOF 2
ENDMDL
