MODEL 1
REMARK VINA RESULT: -4.371066468      0.000      0.000
REMARK  2 active torsions:
REMARK  status: ('A' for Active; 'I' for Inactive)
REMARK    1  A    between atoms: C6_7  and  O2_8 
REMARK    2  A    between atoms: C7_10  and  O3_11 
ROOT
HETATM    1  C1  UNL     1       0.918   4.151 -54.233  1.00  0.00     0.042 C 
HETATM    2  C2  UNL     1       2.329   3.684 -53.875  1.00  0.00     0.150 C 
HETATM    3  O1  UNL     1       2.513   3.939 -52.541  1.00  0.00    -0.371 OA
HETATM    4  C3  UNL     1       2.861   2.773 -51.901  1.00  0.00     0.082 C 
HETATM    5  C4  UNL     1       2.554   2.726 -50.454  1.00  0.00     0.048 C 
HETATM    6  C5  UNL     1       4.330   2.536 -52.133  1.00  0.00     0.048 C 
HETATM    7  C6  UNL     1       2.001   1.753 -52.662  1.00  0.00     0.183 C 
HETATM    8  C7  UNL     1       2.393   2.180 -54.070  1.00  0.00     0.178 C 
ENDROOT
BRANCH   7   9
HETATM    9  O2  UNL     1       2.324   0.464 -52.371  1.00  0.00    -0.390 OA
ATOM     10  H2  UNL     1       1.604  -0.021 -51.986  1.00  0.00     0.210 HD
ENDBRANCH   7   9
BRANCH   8  11
HETATM   11  O3  UNL     1       1.548   1.721 -55.034  1.00  0.00    -0.390 OA
ATOM     12  H3  UNL     1       0.823   1.211 -54.692  1.00  0.00     0.210 HD
ENDBRANCH   8  11
TORSDOF 2
ENDMDL
MODEL 2
REMARK VINA RESULT: -4.283394925      1.220      2.614
REMARK  2 active torsions:
REMARK  status: ('A' for Active; 'I' for Inactive)
REMARK    1  A    between atoms: C6_7  and  O2_8 
REMARK    2  A    between atoms: C7_10  and  O3_11 
ROOT
HETATM    1  C1  UNL     1       1.519   0.467 -54.919  1.00  0.00     0.042 C 
HETATM    2  C2  UNL     1       1.182   1.013 -53.531  1.00  0.00     0.150 C 
HETATM    3  O1  UNL     1       2.303   0.871 -52.756  1.00  0.00    -0.371 OA
HETATM    4  C3  UNL     1       2.656   2.096 -52.241  1.00  0.00     0.082 C 
HETATM    5  C4  UNL     1       4.082   2.245 -51.875  1.00  0.00     0.048 C 
HETATM    6  C5  UNL     1       1.777   2.369 -51.049  1.00  0.00     0.048 C 
HETATM    7  C6  UNL     1       2.308   3.019 -53.418  1.00  0.00     0.183 C 
HETATM    8  C7  UNL     1       0.898   2.498 -53.665  1.00  0.00     0.178 C 
ENDROOT
BRANCH   7   9
HETATM    9  O2  UNL     1       2.353   4.338 -53.089  1.00  0.00    -0.390 OA
ATOM     10  H2  UNL     1       1.743   4.867 -53.591  1.00  0.00     0.210 HD
ENDBRANCH   7   9
BRANCH   8  11
HETATM   11  O3  UNL     1       0.392   2.847 -54.879  1.00  0.00    -0.390 OA
ATOM     12  H3  UNL     1       0.879   3.541 -55.308  1.00  0.00     0.210 HD
ENDBRANCH   8  11
TORSDOF 2
ENDMDL
MODEL 3
REMARK VINA RESULT: -4.260822101      1.450      2.820
REMARK  2 active torsions:
REMARK  status: ('A' for Active; 'I' for Inactive)
REMARK    1  A    between atoms: C6_7  and  O2_8 
REMARK    2  A    between atoms: C7_10  and  O3_11 
ROOT
HETATM    1  C1  UNL     1       1.403   0.118 -54.094  1.00  0.00     0.042 C 
HETATM    2  C2  UNL     1       1.978   0.740 -52.820  1.00  0.00     0.150 C 
HETATM    3  O1  UNL     1       3.291   1.036 -53.071  1.00  0.00    -0.371 OA
HETATM    4  C3  UNL     1       3.509   2.371 -52.829  1.00  0.00     0.082 C 
HETATM    5  C4  UNL     1       4.653   2.971 -53.553  1.00  0.00     0.048 C 
HETATM    6  C5  UNL     1       3.676   2.553 -51.343  1.00  0.00     0.048 C 
HETATM    7  C6  UNL     1       2.188   2.978 -53.324  1.00  0.00     0.183 C 
HETATM    8  C7  UNL     1       1.251   2.047 -52.565  1.00  0.00     0.178 C 
ENDROOT
BRANCH   7   9
HETATM    9  O2  UNL     1       2.047   4.289 -52.987  1.00  0.00    -0.390 OA
ATOM     10  H2  UNL     1       1.160   4.513 -52.733  1.00  0.00     0.210 HD
ENDBRANCH   7   9
BRANCH   8  11
HETATM   11  O3  UNL     1      -0.027   2.060 -53.034  1.00  0.00    -0.390 OA
ATOM     12  H3  UNL     1      -0.499   2.858 -52.830  1.00  0.00     0.210 HD
ENDBRANCH   8  11
TORSDOF 2
ENDMDL
MODEL 4
REMARK VINA RESULT: -4.223465789      1.453      3.241
REMARK  2 active torsions:
REMARK  status: ('A' for Active; 'I' for Inactive)
REMARK    1  A    between atoms: C6_7  and  O2_8 
REMARK    2  A    between atoms: C7_10  and  O3_11 
ROOT
HETATM    1  C1  UNL     1       4.136   2.324 -51.296  1.00  0.00     0.042 C 
HETATM    2  C2  UNL     1       3.817   2.188 -52.786  1.00  0.00     0.150 C 
HETATM    3  O1  UNL     1       3.315   0.928 -52.979  1.00  0.00    -0.371 OA
HETATM    4  C3  UNL     1       2.078   1.019 -53.572  1.00  0.00     0.082 C 
HETATM    5  C4  UNL     1       1.178  -0.135 -53.346  1.00  0.00     0.048 C 
HETATM    6  C5  UNL     1       2.285   1.242 -55.046  1.00  0.00     0.048 C 
HETATM    7  C6  UNL     1       1.517   2.274 -52.887  1.00  0.00     0.183 C 
HETATM    8  C7  UNL     1       2.719   3.179 -53.125  1.00  0.00     0.178 C 
ENDROOT
BRANCH   7   9
HETATM    9  O2  UNL     1       0.370   2.725 -53.464  1.00  0.00    -0.390 OA
ATOM     10  H2  UNL     1      -0.412   2.433 -53.010  1.00  0.00     0.210 HD
ENDBRANCH   7   9
BRANCH   8  11
HETATM   11  O3  UNL     1       2.728   4.291 -52.340  1.00  0.00    -0.390 OA
ATOM     12  H3  UNL     1       1.996   4.335 -51.736  1.00  0.00     0.210 HD
ENDBRANCH   8  11
TORSDOF 2
ENDMDL
MODEL 5
REMARK VINA RESULT: -4.199941395      1.387      2.934
REMARK  2 active torsions:
REMARK  status: ('A' for Active; 'I' for Inactive)
REMARK    1  A    between atoms: C6_7  and  O2_8 
REMARK    2  A    between atoms: C7_10  and  O3_11 
ROOT
HETATM    1  C1  UNL     1       1.577   4.374 -54.865  1.00  0.00     0.042 C 
HETATM    2  C2  UNL     1       0.964   3.268 -54.004  1.00  0.00     0.150 C 
HETATM    3  O1  UNL     1       0.993   2.116 -54.744  1.00  0.00    -0.371 OA
HETATM    4  C3  UNL     1       1.667   1.144 -54.043  1.00  0.00     0.082 C 
HETATM    5  C4  UNL     1       2.272   0.071 -54.864  1.00  0.00     0.048 C 
HETATM    6  C5  UNL     1       0.717   0.558 -53.032  1.00  0.00     0.048 C 
HETATM    7  C6  UNL     1       2.763   1.979 -53.365  1.00  0.00     0.183 C 
HETATM    8  C7  UNL     1       1.857   3.062 -52.794  1.00  0.00     0.178 C 
ENDROOT
BRANCH   7   9
HETATM    9  O2  UNL     1       3.449   1.284 -52.418  1.00  0.00    -0.390 OA
ATOM     10  H2  UNL     1       3.796   0.460 -52.740  1.00  0.00     0.210 HD
ENDBRANCH   7   9
BRANCH   8  11
HETATM   11  O3  UNL     1       2.525   4.186 -52.414  1.00  0.00    -0.390 OA
ATOM     12  H3  UNL     1       2.860   4.146 -51.526  1.00  0.00     0.210 HD
ENDBRANCH   8  11
TORSDOF 2
ENDMDL
