MODEL 1
REMARK VINA RESULT: -6.520302109      0.000      0.000
REMARK  5 active torsions:
REMARK  status: ('A' for Active; 'I' for Inactive)
REMARK    1  A    between atoms: O1_2  and  C2_3 
REMARK    2  A    between atoms: C6_7  and  O2_8 
REMARK    3  A    between atoms: C8_10  and  O3_11 
REMARK    4  A    between atoms: C11_14  and  C12_15 
REMARK    5  A    between atoms: C12_15  and  C13_16 
ROOT
HETATM    1  C2  UNL     1      35.296  18.441  99.387  1.00  0.00     0.105 A 
HETATM    2  C3  UNL     1      34.994  18.173  98.067  1.00  0.00     0.055 A 
HETATM    3  C4  UNL     1      33.765  18.455  97.519  1.00  0.00     0.022 A 
HETATM    4  C5  UNL     1      32.804  19.027  98.323  1.00  0.00    -0.007 A 
HETATM    5  C6  UNL     1      33.051  19.319  99.658  1.00  0.00     0.111 A 
HETATM    6  C8  UNL     1      34.298  19.013 100.146  1.00  0.00     0.135 A 
HETATM    7  C10 UNL     1      31.561  19.247  97.520  1.00  0.00     0.055 C 
HETATM    8  C11 UNL     1      31.719  18.225  96.423  1.00  0.00     0.070 C 
HETATM    9  C17 UNL     1      33.175  18.280  96.174  1.00  0.00     0.165 C 
HETATM   10  O4  UNL     1      33.838  18.204  95.110  1.00  0.00    -0.292 OA
ENDROOT
BRANCH   8  11
HETATM   11  C12 UNL     1      30.900  18.573  95.204  1.00  0.00     0.071 C 
BRANCH  11  12
HETATM   12  C13 UNL     1      29.472  18.285  95.545  1.00  0.00     0.025 A 
HETATM   13  C14 UNL     1      28.510  19.280  95.552  1.00  0.00     0.114 A 
HETATM   14  N1  UNL     1      27.220  18.994  95.865  1.00  0.00    -0.357 N 
HETATM   15  C15 UNL     1      26.857  17.741  96.172  1.00  0.00     0.095 A 
ATOM     16  H1  UNL     1      26.522  19.738  95.866  1.00  0.00     0.166 HD
HETATM   17 BR1  UNL     1      25.067  17.267  96.621  1.00  0.00    -0.030 Br
HETATM   18  C16 UNL     1      27.805  16.743  96.169  1.00  0.00     0.125 A 
HETATM   19  N2  UNL     1      29.056  17.044  95.861  1.00  0.00    -0.365 N 
ATOM     20  H2  UNL     1      29.746  16.293  95.863  1.00  0.00     0.165 HD
ENDBRANCH  11  12
ENDBRANCH   8  11
BRANCH   5  21
HETATM   21  O2  UNL     1      32.051  19.887 100.405  1.00  0.00    -0.352 OA
HETATM   22  C7  UNL     1      31.791  21.250 100.540  1.00  0.00     0.210 C 
ENDBRANCH   5  21
BRANCH   6  23
HETATM   23  O3  UNL     1      34.587  19.286 101.469  1.00  0.00    -0.351 OA
HETATM   24  C9  UNL     1      35.157  20.504 101.906  1.00  0.00     0.210 C 
ENDBRANCH   6  23
BRANCH   1  25
HETATM   25  O1  UNL     1      36.544  18.147  99.917  1.00  0.00    -0.353 OA
HETATM   26  C1  UNL     1      37.458  17.434  99.104  1.00  0.00     0.210 C 
ENDBRANCH   1  25
TORSDOF 5
ENDMDL
MODEL 2
REMARK VINA RESULT: -6.393437593      0.706      1.067
REMARK  5 active torsions:
REMARK  status: ('A' for Active; 'I' for Inactive)
REMARK    1  A    between atoms: O1_2  and  C2_3 
REMARK    2  A    between atoms: C6_7  and  O2_8 
REMARK    3  A    between atoms: C8_10  and  O3_11 
REMARK    4  A    between atoms: C11_14  and  C12_15 
REMARK    5  A    between atoms: C12_15  and  C13_16 
ROOT
HETATM    1  C2  UNL     1      35.233  18.332  98.865  1.00  0.00     0.105 A 
HETATM    2  C3  UNL     1      34.814  18.230  97.554  1.00  0.00     0.055 A 
HETATM    3  C4  UNL     1      33.550  18.596  97.152  1.00  0.00     0.022 A 
HETATM    4  C5  UNL     1      32.675  19.082  98.099  1.00  0.00    -0.007 A 
HETATM    5  C6  UNL     1      33.043  19.206  99.433  1.00  0.00     0.111 A 
HETATM    6  C8  UNL     1      34.318  18.824  99.771  1.00  0.00     0.135 A 
HETATM    7  C10 UNL     1      31.375  19.416  97.441  1.00  0.00     0.055 C 
HETATM    8  C11 UNL     1      31.413  18.532  96.220  1.00  0.00     0.070 C 
HETATM    9  C17 UNL     1      32.843  18.594  95.853  1.00  0.00     0.165 C 
HETATM   10  O4  UNL     1      33.411  18.637  94.734  1.00  0.00    -0.292 OA
ENDROOT
BRANCH   8  11
HETATM   11  C12 UNL     1      30.503  19.038  95.128  1.00  0.00     0.071 C 
BRANCH  11  12
HETATM   12  C13 UNL     1      29.117  18.599  95.481  1.00  0.00     0.025 A 
HETATM   13  C14 UNL     1      28.806  17.266  95.689  1.00  0.00     0.114 A 
HETATM   14  N1  UNL     1      27.541  16.891  96.009  1.00  0.00    -0.357 N 
HETATM   15  C15 UNL     1      26.570  17.808  96.128  1.00  0.00     0.095 A 
ATOM     16  H1  UNL     1      27.327  15.905  96.159  1.00  0.00     0.166 HD
HETATM   17 BR1  UNL     1      24.774  17.356  96.574  1.00  0.00    -0.030 Br
HETATM   18  C16 UNL     1      26.867  19.137  95.923  1.00  0.00     0.125 A 
HETATM   19  N2  UNL     1      28.107  19.479  95.613  1.00  0.00    -0.365 N 
ATOM     20  H2  UNL     1      28.310  20.467  95.465  1.00  0.00     0.165 HD
ENDBRANCH  11  12
ENDBRANCH   8  11
BRANCH   5  21
HETATM   21  O2  UNL     1      32.125  19.696 100.327  1.00  0.00    -0.352 OA
HETATM   22  C7  UNL     1      31.910  21.037 100.641  1.00  0.00     0.210 C 
ENDBRANCH   5  21
BRANCH   6  23
HETATM   23  O3  UNL     1      34.725  18.930 101.086  1.00  0.00    -0.351 OA
HETATM   24  C9  UNL     1      35.358  20.079 101.615  1.00  0.00     0.210 C 
ENDBRANCH   6  23
BRANCH   1  25
HETATM   25  O1  UNL     1      36.514  17.956  99.244  1.00  0.00    -0.353 OA
HETATM   26  C1  UNL     1      37.445  17.651  98.224  1.00  0.00     0.210 C 
ENDBRANCH   1  25
TORSDOF 5
ENDMDL
MODEL 3
REMARK VINA RESULT: -6.154986638      1.858      1.964
REMARK  5 active torsions:
REMARK  status: ('A' for Active; 'I' for Inactive)
REMARK    1  A    between atoms: O1_2  and  C2_3 
REMARK    2  A    between atoms: C6_7  and  O2_8 
REMARK    3  A    between atoms: C8_10  and  O3_11 
REMARK    4  A    between atoms: C11_14  and  C12_15 
REMARK    5  A    between atoms: C12_15  and  C13_16 
ROOT
HETATM    1  C2  UNL     1      34.599  19.410  99.821  1.00  0.00     0.105 A 
HETATM    2  C3  UNL     1      33.741  18.565  99.147  1.00  0.00     0.055 A 
HETATM    3  C4  UNL     1      33.047  18.957  98.026  1.00  0.00     0.022 A 
HETATM    4  C5  UNL     1      33.220  20.243  97.563  1.00  0.00    -0.007 A 
HETATM    5  C6  UNL     1      34.071  21.138  98.201  1.00  0.00     0.111 A 
HETATM    6  C8  UNL     1      34.735  20.686  99.315  1.00  0.00     0.135 A 
HETATM    7  C10 UNL     1      32.379  20.444  96.343  1.00  0.00     0.055 C 
HETATM    8  C11 UNL     1      31.310  19.396  96.532  1.00  0.00     0.070 C 
HETATM    9  C17 UNL     1      32.085  18.286  97.125  1.00  0.00     0.165 C 
HETATM   10  O4  UNL     1      32.010  17.043  96.962  1.00  0.00    -0.292 OA
ENDROOT
BRANCH   8  11
HETATM   11  C12 UNL     1      30.649  19.023  95.228  1.00  0.00     0.071 C 
BRANCH  11  12
HETATM   12  C13 UNL     1      29.251  18.604  95.556  1.00  0.00     0.025 A 
HETATM   13  C14 UNL     1      28.227  19.526  95.689  1.00  0.00     0.114 A 
HETATM   14  N1  UNL     1      26.966  19.122  95.987  1.00  0.00    -0.357 N 
HETATM   15  C15 UNL     1      26.691  17.821  96.157  1.00  0.00     0.095 A 
ATOM     16  H1  UNL     1      26.221  19.813  96.082  1.00  0.00     0.166 HD
HETATM   17 BR1  UNL     1      24.945  17.181  96.577  1.00  0.00    -0.030 Br
HETATM   18  C16 UNL     1      27.701  16.894  96.028  1.00  0.00     0.125 A 
HETATM   19  N2  UNL     1      28.923  17.311  95.737  1.00  0.00    -0.365 N 
ATOM     20  H2  UNL     1      29.659  16.612  95.644  1.00  0.00     0.165 HD
ENDBRANCH  11  12
ENDBRANCH   8  11
BRANCH   5  21
HETATM   21  O2  UNL     1      34.199  22.404  97.691  1.00  0.00    -0.352 OA
HETATM   22  C7  UNL     1      33.496  23.536  98.099  1.00  0.00     0.210 C 
ENDBRANCH   5  21
BRANCH   6  23
HETATM   23  O3  UNL     1      35.590  21.542  99.980  1.00  0.00    -0.351 OA
HETATM   24  C9  UNL     1      36.933  21.757  99.593  1.00  0.00     0.210 C 
ENDBRANCH   6  23
BRANCH   1  25
HETATM   25  O1  UNL     1      35.288  18.991 100.950  1.00  0.00    -0.353 OA
HETATM   26  C1  UNL     1      36.427  18.172 100.765  1.00  0.00     0.210 C 
ENDBRANCH   1  25
TORSDOF 5
ENDMDL
MODEL 4
REMARK VINA RESULT: -6.018980529      1.034      1.034
REMARK  5 active torsions:
REMARK  status: ('A' for Active; 'I' for Inactive)
REMARK    1  A    between atoms: O1_2  and  C2_3 
REMARK    2  A    between atoms: C6_7  and  O2_8 
REMARK    3  A    between atoms: C8_10  and  O3_11 
REMARK    4  A    between atoms: C11_14  and  C12_15 
REMARK    5  A    between atoms: C12_15  and  C13_16 
ROOT
HETATM    1  C2  UNL     1      35.360  19.592  99.452  1.00  0.00     0.105 A 
HETATM    2  C3  UNL     1      35.041  18.866  98.323  1.00  0.00     0.055 A 
HETATM    3  C4  UNL     1      33.876  19.067  97.620  1.00  0.00     0.022 A 
HETATM    4  C5  UNL     1      32.999  20.032  98.066  1.00  0.00    -0.007 A 
HETATM    5  C6  UNL     1      33.267  20.793  99.197  1.00  0.00     0.111 A 
HETATM    6  C8  UNL     1      34.447  20.544  99.855  1.00  0.00     0.135 A 
HETATM    7  C10 UNL     1      31.815  20.078  97.154  1.00  0.00     0.055 C 
HETATM    8  C11 UNL     1      31.835  18.694  96.554  1.00  0.00     0.070 C 
HETATM    9  C17 UNL     1      33.286  18.455  96.410  1.00  0.00     0.165 C 
HETATM   10  O4  UNL     1      33.946  17.878  95.511  1.00  0.00    -0.292 OA
ENDROOT
BRANCH   8  11
HETATM   11  C12 UNL     1      31.095  18.637  95.240  1.00  0.00     0.071 C 
BRANCH  11  12
HETATM   12  C13 UNL     1      29.664  18.339  95.561  1.00  0.00     0.025 A 
HETATM   13  C14 UNL     1      28.693  19.325  95.538  1.00  0.00     0.114 A 
HETATM   14  N1  UNL     1      27.401  19.031  95.833  1.00  0.00    -0.357 N 
HETATM   15  C15 UNL     1      27.044  17.779  96.152  1.00  0.00     0.095 A 
ATOM     16  H1  UNL     1      26.696  19.768  95.812  1.00  0.00     0.166 HD
HETATM   17 BR1  UNL     1      25.252  17.293  96.577  1.00  0.00    -0.030 Br
HETATM   18  C16 UNL     1      28.002  16.790  96.179  1.00  0.00     0.125 A 
HETATM   19  N2  UNL     1      29.255  17.099  95.888  1.00  0.00    -0.365 N 
ATOM     20  H2  UNL     1      29.952  16.355  95.912  1.00  0.00     0.165 HD
ENDBRANCH  11  12
ENDBRANCH   8  11
BRANCH   5  21
HETATM   21  O2  UNL     1      32.352  21.736  99.589  1.00  0.00    -0.352 OA
HETATM   22  C7  UNL     1      31.206  21.512 100.350  1.00  0.00     0.210 C 
ENDBRANCH   5  21
BRANCH   6  23
HETATM   23  O3  UNL     1      34.754  21.277 100.984  1.00  0.00    -0.351 OA
HETATM   24  C9  UNL     1      34.305  20.934 102.281  1.00  0.00     0.210 C 
ENDBRANCH   6  23
BRANCH   1  25
HETATM   25  O1  UNL     1      36.542  19.370 100.144  1.00  0.00    -0.353 OA
HETATM   26  C1  UNL     1      36.684  18.145 100.837  1.00  0.00     0.210 C 
ENDBRANCH   1  25
TORSDOF 5
ENDMDL
MODEL 5
REMARK VINA RESULT: -6.012270649      2.327      2.363
REMARK  5 active torsions:
REMARK  status: ('A' for Active; 'I' for Inactive)
REMARK    1  A    between atoms: O1_2  and  C2_3 
REMARK    2  A    between atoms: C6_7  and  O2_8 
REMARK    3  A    between atoms: C8_10  and  O3_11 
REMARK    4  A    between atoms: C11_14  and  C12_15 
REMARK    5  A    between atoms: C12_15  and  C13_16 
ROOT
HETATM    1  C2  UNL     1      34.960  20.677  98.999  1.00  0.00     0.105 A 
HETATM    2  C3  UNL     1      34.526  19.578  98.285  1.00  0.00     0.055 A 
HETATM    3  C4  UNL     1      33.476  19.641  97.400  1.00  0.00     0.022 A 
HETATM    4  C5  UNL     1      32.837  20.849  97.223  1.00  0.00    -0.007 A 
HETATM    5  C6  UNL     1      33.230  21.988  97.915  1.00  0.00     0.111 A 
HETATM    6  C8  UNL     1      34.285  21.860  98.785  1.00  0.00     0.135 A 
HETATM    7  C10 UNL     1      31.741  20.682  96.220  1.00  0.00     0.055 C 
HETATM    8  C11 UNL     1      31.455  19.205  96.321  1.00  0.00     0.070 C 
HETATM    9  C17 UNL     1      32.811  18.653  96.522  1.00  0.00     0.165 C 
HETATM   10  O4  UNL     1      33.352  17.605  96.092  1.00  0.00    -0.292 OA
ENDROOT
BRANCH   8  11
HETATM   11  C12 UNL     1      30.782  18.674  95.079  1.00  0.00     0.071 C 
BRANCH  11  12
HETATM   12  C13 UNL     1      29.365  18.367  95.451  1.00  0.00     0.025 A 
HETATM   13  C14 UNL     1      28.413  19.364  95.575  1.00  0.00     0.114 A 
HETATM   14  N1  UNL     1      27.134  19.062  95.914  1.00  0.00    -0.357 N 
HETATM   15  C15 UNL     1      26.771  17.790  96.135  1.00  0.00     0.095 A 
ATOM     16  H1  UNL     1      26.443  19.808  96.002  1.00  0.00     0.166 HD
HETATM   17 BR1  UNL     1      24.996  17.292  96.613  1.00  0.00    -0.030 Br
HETATM   18  C16 UNL     1      27.710  16.790  96.015  1.00  0.00     0.125 A 
HETATM   19  N2  UNL     1      28.951  17.108  95.683  1.00  0.00    -0.365 N 
ATOM     20  H2  UNL     1      29.633  16.355  95.598  1.00  0.00     0.165 HD
ENDBRANCH  11  12
ENDBRANCH   8  11
BRANCH   5  21
HETATM   21  O2  UNL     1      32.552  23.159  97.695  1.00  0.00    -0.352 OA
HETATM   22  C7  UNL     1      32.830  24.103  96.708  1.00  0.00     0.210 C 
ENDBRANCH   5  21
BRANCH   6  23
HETATM   23  O3  UNL     1      34.709  22.967  99.494  1.00  0.00    -0.351 OA
HETATM   24  C9  UNL     1      35.694  23.864  99.021  1.00  0.00     0.210 C 
ENDBRANCH   6  23
BRANCH   1  25
HETATM   25  O1  UNL     1      36.022  20.588  99.887  1.00  0.00    -0.353 OA
HETATM   26  C1  UNL     1      37.272  20.157  99.384  1.00  0.00     0.210 C 
ENDBRANCH   1  25
TORSDOF 5
ENDMDL
