MODEL 1
REMARK VINA RESULT: -6.770978296      0.000      0.000
REMARK  8 active torsions:
REMARK  status: ('A' for Active; 'I' for Inactive)
REMARK    1  A    between atoms: N2_7  and  C4_8 
REMARK    2  A    between atoms: C4_8  and  C5_9 
REMARK    3  A    between atoms: C5_9  and  C6_10 
REMARK    4  A    between atoms: C6_10  and  N3_11 
REMARK    5  A    between atoms: N3_11  and  C7_14 
REMARK    6  A    between atoms: C7_14  and  C8_15 
REMARK    7  A    between atoms: C8_15  and  C9_16 
REMARK    8  A    between atoms: C9_16  and  N4_17 
ROOT
HETATM    1  N3  UNL     1      -8.596  33.326 -25.308  1.00  0.00    -0.075 N 
ATOM      2  H31 UNL     1      -8.314  32.348 -25.252  1.00  0.00     0.277 HD
ATOM      3  H32 UNL     1      -8.658  33.544 -24.313  1.00  0.00     0.277 HD
ENDROOT
BRANCH   1   4
HETATM    4  C6  UNL     1      -9.882  33.447 -25.932  1.00  0.00     0.234 C 
BRANCH   4   5
HETATM    5  C5  UNL     1      -9.784  33.854 -27.378  1.00  0.00     0.047 C 
BRANCH   5   6
HETATM    6  C4  UNL     1     -10.861  34.752 -27.857  1.00  0.00     0.129 C 
BRANCH   6   7
HETATM    7  N2  UNL     1     -10.980  36.033 -27.243  1.00  0.00    -0.333 N 
HETATM    8  C1  UNL     1     -12.232  36.631 -26.817  1.00  0.00     0.318 C 
HETATM    9  O1  UNL     1     -13.374  36.233 -27.141  1.00  0.00    -0.247 OA
HETATM   10  N1  UNL     1     -11.879  37.723 -25.982  1.00  0.00    -0.341 N 
HETATM   11  C2  UNL     1     -10.529  38.159 -26.316  1.00  0.00     0.144 C 
ATOM     12  H1  UNL     1     -12.474  38.136 -25.264  1.00  0.00     0.164 HD
HETATM   13  C3  UNL     1      -9.899  36.950 -26.978  1.00  0.00     0.147 C 
ENDBRANCH   6   7
ENDBRANCH   5   6
ENDBRANCH   4   5
ENDBRANCH   1   4
BRANCH   1  14
HETATM   14  C7  UNL     1      -7.579  34.106 -25.928  1.00  0.00     0.237 C 
BRANCH  14  15
HETATM   15  C8  UNL     1      -6.675  34.835 -24.965  1.00  0.00     0.072 C 
BRANCH  15  16
HETATM   16  C9  UNL     1      -7.051  36.262 -24.760  1.00  0.00     0.070 C 
BRANCH  16  17
HETATM   17  N4  UNL     1      -6.017  37.201 -24.777  1.00  0.00    -0.344 N 
HETATM   18  C10 UNL     1      -6.119  38.322 -25.605  1.00  0.00     0.112 C 
HETATM   19  C11 UNL     1      -5.270  39.497 -25.220  1.00  0.00     0.105 C 
HETATM   20  N5  UNL     1      -4.236  39.236 -24.306  1.00  0.00    -0.373 N 
HETATM   21  C12 UNL     1      -3.840  37.920 -24.030  1.00  0.00     0.105 C 
ATOM     22  H5  UNL     1      -3.768  40.012 -23.838  1.00  0.00     0.164 HD
HETATM   23  C13 UNL     1      -4.728  36.802 -24.389  1.00  0.00     0.112 C 
ENDBRANCH  16  17
ENDBRANCH  15  16
ENDBRANCH  14  15
ENDBRANCH   1  14
TORSDOF 8
ENDMDL
MODEL 2
REMARK VINA RESULT: -6.684535550      2.649      6.533
REMARK  8 active torsions:
REMARK  status: ('A' for Active; 'I' for Inactive)
REMARK    1  A    between atoms: N2_7  and  C4_8 
REMARK    2  A    between atoms: C4_8  and  C5_9 
REMARK    3  A    between atoms: C5_9  and  C6_10 
REMARK    4  A    between atoms: C6_10  and  N3_11 
REMARK    5  A    between atoms: N3_11  and  C7_14 
REMARK    6  A    between atoms: C7_14  and  C8_15 
REMARK    7  A    between atoms: C8_15  and  C9_16 
REMARK    8  A    between atoms: C9_16  and  N4_17 
ROOT
HETATM    1  N3  UNL     1      -8.107  33.184 -25.223  1.00  0.00    -0.075 N 
ATOM      2  H31 UNL     1      -8.109  33.210 -24.203  1.00  0.00     0.277 HD
ATOM      3  H32 UNL     1      -7.956  32.186 -25.369  1.00  0.00     0.277 HD
ENDROOT
BRANCH   1   4
HETATM    4  C6  UNL     1      -7.008  33.944 -25.745  1.00  0.00     0.234 C 
BRANCH   4   5
HETATM    5  C5  UNL     1      -7.006  35.367 -25.254  1.00  0.00     0.047 C 
BRANCH   5   6
HETATM    6  C4  UNL     1      -6.238  35.607 -24.010  1.00  0.00     0.129 C 
BRANCH   6   7
HETATM    7  N2  UNL     1      -5.021  36.341 -24.113  1.00  0.00    -0.333 N 
HETATM    8  C1  UNL     1      -3.781  35.814 -24.656  1.00  0.00     0.318 C 
HETATM    9  O1  UNL     1      -3.542  34.604 -24.872  1.00  0.00    -0.247 OA
HETATM   10  N1  UNL     1      -2.942  36.937 -24.874  1.00  0.00    -0.341 N 
HETATM   11  C2  UNL     1      -3.365  38.024 -24.002  1.00  0.00     0.144 C 
ATOM     12  H1  UNL     1      -2.166  36.976 -25.536  1.00  0.00     0.164 HD
HETATM   13  C3  UNL     1      -4.808  37.698 -23.672  1.00  0.00     0.147 C 
ENDBRANCH   6   7
ENDBRANCH   5   6
ENDBRANCH   4   5
ENDBRANCH   1   4
BRANCH   1  14
HETATM   14  C7  UNL     1      -9.375  33.579 -25.736  1.00  0.00     0.237 C 
BRANCH  14  15
HETATM   15  C8  UNL     1      -9.555  33.336 -27.214  1.00  0.00     0.072 C 
BRANCH  15  16
HETATM   16  C9  UNL     1      -9.746  34.584 -28.004  1.00  0.00     0.070 C 
BRANCH  16  17
HETATM   17  N4  UNL     1     -10.591  35.556 -27.463  1.00  0.00    -0.344 N 
HETATM   18  C10 UNL     1     -11.962  35.502 -27.729  1.00  0.00     0.112 C 
HETATM   19  C11 UNL     1     -12.845  36.224 -26.754  1.00  0.00     0.105 C 
HETATM   20  N5  UNL     1     -12.203  37.140 -25.904  1.00  0.00    -0.373 N 
HETATM   21  C12 UNL     1     -10.896  37.569 -26.171  1.00  0.00     0.105 C 
ATOM     22  H5  UNL     1     -12.694  37.496 -25.084  1.00  0.00     0.164 HD
HETATM   23  C13 UNL     1     -10.053  36.802 -27.103  1.00  0.00     0.112 C 
ENDBRANCH  16  17
ENDBRANCH  15  16
ENDBRANCH  14  15
ENDBRANCH   1  14
TORSDOF 8
ENDMDL
MODEL 3
REMARK VINA RESULT: -6.655008287      0.469      1.188
REMARK  8 active torsions:
REMARK  status: ('A' for Active; 'I' for Inactive)
REMARK    1  A    between atoms: N2_7  and  C4_8 
REMARK    2  A    between atoms: C4_8  and  C5_9 
REMARK    3  A    between atoms: C5_9  and  C6_10 
REMARK    4  A    between atoms: C6_10  and  N3_11 
REMARK    5  A    between atoms: N3_11  and  C7_14 
REMARK    6  A    between atoms: C7_14  and  C8_15 
REMARK    7  A    between atoms: C8_15  and  C9_16 
REMARK    8  A    between atoms: C9_16  and  N4_17 
ROOT
HETATM    1  N3  UNL     1      -8.762  33.361 -25.254  1.00  0.00    -0.075 N 
ATOM      2  H31 UNL     1      -8.588  32.448 -24.833  1.00  0.00     0.277 HD
ATOM      3  H32 UNL     1      -8.796  33.935 -24.412  1.00  0.00     0.277 HD
ENDROOT
BRANCH   1   4
HETATM    4  C6  UNL     1     -10.028  33.374 -25.927  1.00  0.00     0.234 C 
BRANCH   4   5
HETATM    5  C5  UNL     1      -9.907  33.763 -27.376  1.00  0.00     0.047 C 
BRANCH   5   6
HETATM    6  C4  UNL     1     -10.919  34.733 -27.859  1.00  0.00     0.129 C 
BRANCH   6   7
HETATM    7  N2  UNL     1     -10.990  35.998 -27.207  1.00  0.00    -0.333 N 
HETATM    8  C1  UNL     1     -12.222  36.656 -26.812  1.00  0.00     0.318 C 
HETATM    9  O1  UNL     1     -13.370  36.336 -27.196  1.00  0.00    -0.247 OA
HETATM   10  N1  UNL     1     -11.842  37.698 -25.927  1.00  0.00    -0.341 N 
HETATM   11  C2  UNL     1     -10.457  38.064 -26.191  1.00  0.00     0.144 C 
ATOM     12  H1  UNL     1     -12.442  38.123 -25.220  1.00  0.00     0.164 HD
HETATM   13  C3  UNL     1      -9.870  36.841 -26.866  1.00  0.00     0.147 C 
ENDBRANCH   6   7
ENDBRANCH   5   6
ENDBRANCH   4   5
ENDBRANCH   1   4
BRANCH   1  14
HETATM   14  C7  UNL     1      -7.668  33.748 -26.079  1.00  0.00     0.237 C 
BRANCH  14  15
HETATM   15  C8  UNL     1      -6.553  34.455 -25.348  1.00  0.00     0.072 C 
BRANCH  15  16
HETATM   16  C9  UNL     1      -7.011  35.633 -24.561  1.00  0.00     0.070 C 
BRANCH  16  17
HETATM   17  N4  UNL     1      -6.168  36.747 -24.533  1.00  0.00    -0.344 N 
HETATM   18  C10 UNL     1      -5.193  36.847 -23.537  1.00  0.00     0.112 C 
HETATM   19  C11 UNL     1      -4.038  37.754 -23.844  1.00  0.00     0.105 C 
HETATM   20  N5  UNL     1      -4.223  38.647 -24.913  1.00  0.00    -0.373 N 
HETATM   21  C12 UNL     1      -5.502  38.881 -25.436  1.00  0.00     0.105 C 
ATOM     22  H5  UNL     1      -3.418  39.129 -25.313  1.00  0.00     0.164 HD
HETATM   23  C13 UNL     1      -6.594  37.939 -25.142  1.00  0.00     0.112 C 
ENDBRANCH  16  17
ENDBRANCH  15  16
ENDBRANCH  14  15
ENDBRANCH   1  14
TORSDOF 8
ENDMDL
MODEL 4
REMARK VINA RESULT: -6.609385752      2.289      6.156
REMARK  8 active torsions:
REMARK  status: ('A' for Active; 'I' for Inactive)
REMARK    1  A    between atoms: N2_7  and  C4_8 
REMARK    2  A    between atoms: C4_8  and  C5_9 
REMARK    3  A    between atoms: C5_9  and  C6_10 
REMARK    4  A    between atoms: C6_10  and  N3_11 
REMARK    5  A    between atoms: N3_11  and  C7_14 
REMARK    6  A    between atoms: C7_14  and  C8_15 
REMARK    7  A    between atoms: C8_15  and  C9_16 
REMARK    8  A    between atoms: C9_16  and  N4_17 
ROOT
HETATM    1  N3  UNL     1      -7.969  33.106 -25.418  1.00  0.00    -0.075 N 
ATOM      2  H31 UNL     1      -7.905  32.864 -24.429  1.00  0.00     0.277 HD
ATOM      3  H32 UNL     1      -7.744  32.200 -25.831  1.00  0.00     0.277 HD
ENDROOT
BRANCH   1   4
HETATM    4  C6  UNL     1      -6.975  34.079 -25.765  1.00  0.00     0.234 C 
BRANCH   4   5
HETATM    5  C5  UNL     1      -6.650  35.004 -24.622  1.00  0.00     0.047 C 
BRANCH   5   6
HETATM    6  C4  UNL     1      -6.957  36.434 -24.857  1.00  0.00     0.129 C 
BRANCH   6   7
HETATM    7  N2  UNL     1      -5.932  37.387 -24.586  1.00  0.00    -0.333 N 
HETATM    8  C1  UNL     1      -5.093  37.382 -23.400  1.00  0.00     0.318 C 
HETATM    9  O1  UNL     1      -5.308  36.716 -22.363  1.00  0.00    -0.247 OA
HETATM   10  N1  UNL     1      -4.020  38.269 -23.678  1.00  0.00    -0.341 N 
HETATM   11  C2  UNL     1      -4.439  39.215 -24.705  1.00  0.00     0.144 C 
ATOM     12  H1  UNL     1      -3.104  38.248 -23.231  1.00  0.00     0.164 HD
HETATM   13  C3  UNL     1      -5.582  38.515 -25.413  1.00  0.00     0.147 C 
ENDBRANCH   6   7
ENDBRANCH   5   6
ENDBRANCH   4   5
ENDBRANCH   1   4
BRANCH   1  14
HETATM   14  C7  UNL     1      -9.297  33.494 -25.754  1.00  0.00     0.237 C 
BRANCH  14  15
HETATM   15  C8  UNL     1      -9.655  33.303 -27.208  1.00  0.00     0.072 C 
BRANCH  15  16
HETATM   16  C9  UNL     1      -9.757  34.580 -27.968  1.00  0.00     0.070 C 
BRANCH  16  17
HETATM   17  N4  UNL     1     -10.594  35.568 -27.443  1.00  0.00    -0.344 N 
HETATM   18  C10 UNL     1     -11.962  35.533 -27.729  1.00  0.00     0.112 C 
HETATM   19  C11 UNL     1     -12.848  36.274 -26.770  1.00  0.00     0.105 C 
HETATM   20  N5  UNL     1     -12.204  37.183 -25.915  1.00  0.00    -0.373 N 
HETATM   21  C12 UNL     1     -10.887  37.592 -26.165  1.00  0.00     0.105 C 
ATOM     22  H5  UNL     1     -12.701  37.551 -25.104  1.00  0.00     0.164 HD
HETATM   23  C13 UNL     1     -10.042  36.807 -27.081  1.00  0.00     0.112 C 
ENDBRANCH  16  17
ENDBRANCH  15  16
ENDBRANCH  14  15
ENDBRANCH   1  14
TORSDOF 8
ENDMDL
MODEL 5
REMARK VINA RESULT: -6.474400433      3.508      5.579
REMARK  8 active torsions:
REMARK  status: ('A' for Active; 'I' for Inactive)
REMARK    1  A    between atoms: N2_7  and  C4_8 
REMARK    2  A    between atoms: C4_8  and  C5_9 
REMARK    3  A    between atoms: C5_9  and  C6_10 
REMARK    4  A    between atoms: C6_10  and  N3_11 
REMARK    5  A    between atoms: N3_11  and  C7_14 
REMARK    6  A    between atoms: C7_14  and  C8_15 
REMARK    7  A    between atoms: C8_15  and  C9_16 
REMARK    8  A    between atoms: C9_16  and  N4_17 
ROOT
HETATM    1  N3  UNL     1     -12.361  38.048 -26.943  1.00  0.00    -0.075 N 
ATOM      2  H31 UNL     1     -13.218  38.478 -26.594  1.00  0.00     0.277 HD
ATOM      3  H32 UNL     1     -12.508  38.161 -27.946  1.00  0.00     0.277 HD
ENDROOT
BRANCH   1   4
HETATM    4  C6  UNL     1     -12.315  36.658 -26.592  1.00  0.00     0.234 C 
BRANCH   4   5
HETATM    5  C5  UNL     1     -11.988  35.777 -27.769  1.00  0.00     0.047 C 
BRANCH   5   6
HETATM    6  C4  UNL     1     -10.544  35.613 -28.055  1.00  0.00     0.129 C 
BRANCH   6   7
HETATM    7  N2  UNL     1      -9.788  34.767 -27.192  1.00  0.00    -0.333 N 
HETATM    8  C1  UNL     1      -9.827  33.316 -27.216  1.00  0.00     0.318 C 
HETATM    9  O1  UNL     1     -10.687  32.623 -27.806  1.00  0.00    -0.247 OA
HETATM   10  N1  UNL     1      -8.713  32.883 -26.450  1.00  0.00    -0.341 N 
HETATM   11  C2  UNL     1      -8.335  33.941 -25.522  1.00  0.00     0.144 C 
ATOM     12  H1  UNL     1      -8.252  31.978 -26.535  1.00  0.00     0.164 HD
HETATM   13  C3  UNL     1      -8.897  35.203 -26.145  1.00  0.00     0.147 C 
ENDBRANCH   6   7
ENDBRANCH   5   6
ENDBRANCH   4   5
ENDBRANCH   1   4
BRANCH   1  14
HETATM   14  C7  UNL     1     -11.221  38.787 -26.517  1.00  0.00     0.237 C 
BRANCH  14  15
HETATM   15  C8  UNL     1     -11.171  39.060 -25.034  1.00  0.00     0.072 C 
BRANCH  15  16
HETATM   16  C9  UNL     1     -11.795  40.356 -24.646  1.00  0.00     0.070 C 
BRANCH  16  17
HETATM   17  N4  UNL     1     -11.253  41.018 -23.542  1.00  0.00    -0.344 N 
HETATM   18  C10 UNL     1     -11.070  42.403 -23.591  1.00  0.00     0.112 C 
HETATM   19  C11 UNL     1     -10.976  43.096 -22.264  1.00  0.00     0.105 C 
HETATM   20  N5  UNL     1     -10.738  42.270 -21.153  1.00  0.00    -0.373 N 
HETATM   21  C12 UNL     1     -10.307  40.947 -21.325  1.00  0.00     0.105 C 
ATOM     22  H5  UNL     1     -10.880  42.636 -20.212  1.00  0.00     0.164 HD
HETATM   23  C13 UNL     1     -10.460  40.295 -22.636  1.00  0.00     0.112 C 
ENDBRANCH  16  17
ENDBRANCH  15  16
ENDBRANCH  14  15
ENDBRANCH   1  14
TORSDOF 8
ENDMDL
