MODEL 1
REMARK VINA RESULT: -4.756998607      0.000      0.000
REMARK  14 active torsions:
REMARK  status: ('A' for Active; 'I' for Inactive)
REMARK    1  A    between atoms: C1_2  and  N1_3 
REMARK    2  A    between atoms: N1_3  and  C2_5 
REMARK    3  A    between atoms: C2_5  and  C3_6 
REMARK    4  A    between atoms: C2_5  and  C10_13 
REMARK    5  A    between atoms: C3_6  and  C4_7 
REMARK       I    between atoms: C10_13  and  N2_15 
REMARK    6  A    between atoms: N2_15  and  C11_17 
REMARK    7  A    between atoms: C15_21  and  O3_22 
REMARK    8  A    between atoms: O3_22  and  C16_23 
REMARK    9  A    between atoms: C16_23  and  C17_24 
REMARK   10  A    between atoms: C17_24  and  C18_25 
REMARK   11  A    between atoms: C18_25  and  C19_26 
REMARK   12  A    between atoms: C19_26  and  C20_27 
REMARK   13  A    between atoms: C20_27  and  C21_28 
REMARK   14  A    between atoms: C21_28  and  C22_29 
ROOT
HETATM    1  C11 UNL     1      -1.333  -7.955  28.447  1.00  0.00     0.113 C 
HETATM    2  C12 UNL     1      -0.358  -9.129  28.389  1.00  0.00     0.028 C 
HETATM    3  C13 UNL     1       0.732  -8.584  27.501  1.00  0.00     0.005 C 
HETATM    4  C14 UNL     1       0.879  -7.179  28.039  1.00  0.00     0.034 C 
HETATM    5  C15 UNL     1      -0.433  -6.772  28.609  1.00  0.00     0.144 C 
ENDROOT
BRANCH   1   6
HETATM    6  N2  UNL     1      -2.305  -8.145  29.480  1.00  0.00    -0.352 N 
HETATM    7  C10 UNL     1      -3.596  -8.630  29.141  1.00  0.00     0.240 C 
HETATM    8  O2  UNL     1      -3.936  -8.903  27.986  1.00  0.00    -0.271 OA
ATOM      9  H2  UNL     1      -2.073  -7.933  30.450  1.00  0.00     0.163 HD
BRANCH   7  10
HETATM   10  C2  UNL     1      -4.601  -8.823  30.243  1.00  0.00     0.176 C 
BRANCH  10  11
HETATM   11  N1  UNL     1      -4.356 -10.115  30.874  1.00  0.00    -0.355 N 
ATOM     12  H1  UNL     1      -5.054 -10.496  31.514  1.00  0.00     0.162 HD
BRANCH  11  13
HETATM   13  C1  UNL     1      -3.191 -10.846  30.628  1.00  0.00     0.349 C 
HETATM   14  O1  UNL     1      -2.134 -10.817  31.304  1.00  0.00    -0.284 OA
ENDBRANCH  11  13
ENDBRANCH  10  11
BRANCH  10  15
HETATM   15  C3  UNL     1      -4.397  -7.702  31.230  1.00  0.00     0.039 C 
BRANCH  15  16
HETATM   16  C4  UNL     1      -5.691  -7.452  31.963  1.00  0.00    -0.012 C 
HETATM   17  C5  UNL     1      -6.307  -6.132  31.595  1.00  0.00     0.005 C 
HETATM   18  C6  UNL     1      -7.088  -5.593  32.741  1.00  0.00     0.000 C 
HETATM   19  C7  UNL     1      -7.857  -6.642  33.520  1.00  0.00     0.000 C 
HETATM   20  C8  UNL     1      -6.914  -7.696  34.065  1.00  0.00     0.000 C 
HETATM   21  C9  UNL     1      -5.535  -7.542  33.450  1.00  0.00     0.005 C 
ENDBRANCH  15  16
ENDBRANCH  10  15
ENDBRANCH   7  10
ENDBRANCH   1   6
BRANCH   5  22
HETATM   22  O3  UNL     1      -0.445  -6.280  29.853  1.00  0.00    -0.384 OA
BRANCH  22  23
HETATM   23  C16 UNL     1       0.688  -6.284  30.591  1.00  0.00     0.168 C 
BRANCH  23  24
HETATM   24  C17 UNL     1       0.808  -7.400  31.595  1.00  0.00     0.026 C 
BRANCH  24  25
HETATM   25  C18 UNL     1       2.090  -7.409  32.343  1.00  0.00     0.002 C 
BRANCH  25  26
HETATM   26  C19 UNL     1       2.066  -8.027  33.693  1.00  0.00     0.000 C 
BRANCH  26  27
HETATM   27  C20 UNL     1       0.651  -8.265  34.135  1.00  0.00     0.001 C 
BRANCH  27  28
HETATM   28  C21 UNL     1       0.324  -7.436  35.360  1.00  0.00     0.015 C 
BRANCH  28  29
HETATM   29  C22 UNL     1      -0.292  -6.109  35.000  1.00  0.00     0.048 C 
HETATM   30  C23 UNL     1      -1.587  -6.265  34.221  1.00  0.00     0.025 C 
HETATM   31  C24 UNL     1      -2.395  -6.379  35.493  1.00  0.00     0.075 C 
HETATM   32  S1  UNL     1      -1.180  -5.408  36.405  1.00  0.00    -0.164 SA
ENDBRANCH  28  29
ENDBRANCH  27  28
ENDBRANCH  26  27
ENDBRANCH  25  26
ENDBRANCH  24  25
ENDBRANCH  23  24
ENDBRANCH  22  23
ENDBRANCH   5  22
TORSDOF 14
ENDMDL
MODEL 2
REMARK VINA RESULT: -4.706106359      1.779      2.684
REMARK  14 active torsions:
REMARK  status: ('A' for Active; 'I' for Inactive)
REMARK    1  A    between atoms: C1_2  and  N1_3 
REMARK    2  A    between atoms: N1_3  and  C2_5 
REMARK    3  A    between atoms: C2_5  and  C3_6 
REMARK    4  A    between atoms: C2_5  and  C10_13 
REMARK    5  A    between atoms: C3_6  and  C4_7 
REMARK       I    between atoms: C10_13  and  N2_15 
REMARK    6  A    between atoms: N2_15  and  C11_17 
REMARK    7  A    between atoms: C15_21  and  O3_22 
REMARK    8  A    between atoms: O3_22  and  C16_23 
REMARK    9  A    between atoms: C16_23  and  C17_24 
REMARK   10  A    between atoms: C17_24  and  C18_25 
REMARK   11  A    between atoms: C18_25  and  C19_26 
REMARK   12  A    between atoms: C19_26  and  C20_27 
REMARK   13  A    between atoms: C20_27  and  C21_28 
REMARK   14  A    between atoms: C21_28  and  C22_29 
ROOT
HETATM    1  C11 UNL     1      -1.009  -6.712  29.700  1.00  0.00     0.113 C 
HETATM    2  C12 UNL     1       0.116  -7.742  29.763  1.00  0.00     0.028 C 
HETATM    3  C13 UNL     1       1.310  -6.925  29.338  1.00  0.00     0.005 C 
HETATM    4  C14 UNL     1       1.078  -5.640  30.100  1.00  0.00     0.034 C 
HETATM    5  C15 UNL     1      -0.389  -5.492  30.301  1.00  0.00     0.144 C 
ENDROOT
BRANCH   1   6
HETATM    6  N2  UNL     1      -2.187  -7.197  30.350  1.00  0.00    -0.352 N 
HETATM    7  C10 UNL     1      -3.221  -7.783  29.572  1.00  0.00     0.240 C 
HETATM    8  O2  UNL     1      -3.163  -7.900  28.345  1.00  0.00    -0.271 OA
ATOM      9  H2  UNL     1      -2.284  -7.122  31.363  1.00  0.00     0.163 HD
BRANCH   7  10
HETATM   10  C2  UNL     1      -4.451  -8.287  30.278  1.00  0.00     0.176 C 
BRANCH  10  11
HETATM   11  N1  UNL     1      -4.472  -9.743  30.189  1.00  0.00    -0.355 N 
ATOM     12  H1  UNL     1      -5.286 -10.204  29.781  1.00  0.00     0.162 HD
BRANCH  11  13
HETATM   13  C1  UNL     1      -3.409 -10.525  30.647  1.00  0.00     0.349 C 
HETATM   14  O1  UNL     1      -3.487 -11.517  31.413  1.00  0.00    -0.284 OA
ENDBRANCH  11  13
ENDBRANCH  10  11
BRANCH  10  15
HETATM   15  C3  UNL     1      -4.350  -7.844  31.714  1.00  0.00     0.039 C 
BRANCH  15  16
HETATM   16  C4  UNL     1      -5.734  -7.541  32.232  1.00  0.00    -0.012 C 
HETATM   17  C5  UNL     1      -6.279  -6.255  31.678  1.00  0.00     0.005 C 
HETATM   18  C6  UNL     1      -7.212  -5.631  32.654  1.00  0.00     0.000 C 
HETATM   19  C7  UNL     1      -8.094  -6.618  33.394  1.00  0.00     0.000 C 
HETATM   20  C8  UNL     1      -7.249  -7.624  34.148  1.00  0.00     0.000 C 
HETATM   21  C9  UNL     1      -5.794  -7.515  33.729  1.00  0.00     0.005 C 
ENDBRANCH  15  16
ENDBRANCH  10  15
ENDBRANCH   7  10
ENDBRANCH   1   6
BRANCH   5  22
HETATM   22  O3  UNL     1      -0.824  -5.249  31.543  1.00  0.00    -0.384 OA
BRANCH  22  23
HETATM   23  C16 UNL     1       0.062  -4.986  32.530  1.00  0.00     0.168 C 
BRANCH  23  24
HETATM   24  C17 UNL     1      -0.028  -5.875  33.742  1.00  0.00     0.026 C 
BRANCH  24  25
HETATM   25  C18 UNL     1      -0.161  -7.320  33.427  1.00  0.00     0.002 C 
BRANCH  25  26
HETATM   26  C19 UNL     1       0.972  -8.193  33.827  1.00  0.00     0.000 C 
BRANCH  26  27
HETATM   27  C20 UNL     1       2.193  -7.871  33.016  1.00  0.00     0.001 C 
BRANCH  27  28
HETATM   28  C21 UNL     1       3.434  -7.886  33.885  1.00  0.00     0.015 C 
BRANCH  28  29
HETATM   29  C22 UNL     1       3.310  -6.959  35.066  1.00  0.00     0.048 C 
HETATM   30  C23 UNL     1       4.484  -7.082  36.023  1.00  0.00     0.025 C 
HETATM   31  C24 UNL     1       5.296  -6.084  35.231  1.00  0.00     0.075 C 
HETATM   32  S1  UNL     1       3.800  -5.280  34.624  1.00  0.00    -0.164 SA
ENDBRANCH  28  29
ENDBRANCH  27  28
ENDBRANCH  26  27
ENDBRANCH  25  26
ENDBRANCH  24  25
ENDBRANCH  23  24
ENDBRANCH  22  23
ENDBRANCH   5  22
TORSDOF 14
ENDMDL
MODEL 3
REMARK VINA RESULT: -4.580640295      2.093      2.657
REMARK  14 active torsions:
REMARK  status: ('A' for Active; 'I' for Inactive)
REMARK    1  A    between atoms: C1_2  and  N1_3 
REMARK    2  A    between atoms: N1_3  and  C2_5 
REMARK    3  A    between atoms: C2_5  and  C3_6 
REMARK    4  A    between atoms: C2_5  and  C10_13 
REMARK    5  A    between atoms: C3_6  and  C4_7 
REMARK       I    between atoms: C10_13  and  N2_15 
REMARK    6  A    between atoms: N2_15  and  C11_17 
REMARK    7  A    between atoms: C15_21  and  O3_22 
REMARK    8  A    between atoms: O3_22  and  C16_23 
REMARK    9  A    between atoms: C16_23  and  C17_24 
REMARK   10  A    between atoms: C17_24  and  C18_25 
REMARK   11  A    between atoms: C18_25  and  C19_26 
REMARK   12  A    between atoms: C19_26  and  C20_27 
REMARK   13  A    between atoms: C20_27  and  C21_28 
REMARK   14  A    between atoms: C21_28  and  C22_29 
ROOT
HETATM    1  C11 UNL     1      -1.263  -7.736  29.142  1.00  0.00     0.113 C 
HETATM    2  C12 UNL     1      -0.587  -9.003  28.623  1.00  0.00     0.028 C 
HETATM    3  C13 UNL     1       0.651  -8.448  27.966  1.00  0.00     0.005 C 
HETATM    4  C14 UNL     1       1.090  -7.417  28.982  1.00  0.00     0.034 C 
HETATM    5  C15 UNL     1      -0.124  -6.947  29.702  1.00  0.00     0.144 C 
ENDROOT
BRANCH   1   6
HETATM    6  N2  UNL     1      -2.313  -8.054  30.060  1.00  0.00    -0.352 N 
HETATM    7  C10 UNL     1      -3.594  -8.407  29.559  1.00  0.00     0.240 C 
HETATM    8  O2  UNL     1      -3.861  -8.456  28.354  1.00  0.00    -0.271 OA
ATOM      9  H2  UNL     1      -2.143  -8.026  31.066  1.00  0.00     0.163 HD
BRANCH   7  10
HETATM   10  C2  UNL     1      -4.683  -8.737  30.543  1.00  0.00     0.176 C 
BRANCH  10  11
HETATM   11  N1  UNL     1      -4.503 -10.116  30.988  1.00  0.00    -0.355 N 
ATOM     12  H1  UNL     1      -5.242 -10.562  31.531  1.00  0.00     0.162 HD
BRANCH  11  13
HETATM   13  C1  UNL     1      -3.347 -10.840  30.691  1.00  0.00     0.349 C 
HETATM   14  O1  UNL     1      -2.316 -10.927  31.402  1.00  0.00    -0.284 OA
ENDBRANCH  11  13
ENDBRANCH  10  11
BRANCH  10  15
HETATM   15  C3  UNL     1      -4.539  -7.783  31.700  1.00  0.00     0.039 C 
BRANCH  15  16
HETATM   16  C4  UNL     1      -5.902  -7.516  32.288  1.00  0.00    -0.012 C 
HETATM   17  C5  UNL     1      -6.500  -6.235  31.778  1.00  0.00     0.005 C 
HETATM   18  C6  UNL     1      -7.397  -5.643  32.807  1.00  0.00     0.000 C 
HETATM   19  C7  UNL     1      -8.221  -6.657  33.575  1.00  0.00     0.000 C 
HETATM   20  C8  UNL     1      -7.319  -7.654  34.275  1.00  0.00     0.000 C 
HETATM   21  C9  UNL     1      -5.889  -7.508  33.786  1.00  0.00     0.005 C 
ENDBRANCH  15  16
ENDBRANCH  10  15
ENDBRANCH   7  10
ENDBRANCH   1   6
BRANCH   5  22
HETATM   22  O3  UNL     1      -0.097  -6.958  31.040  1.00  0.00    -0.384 OA
BRANCH  22  23
HETATM   23  C16 UNL     1       1.068  -7.184  31.689  1.00  0.00     0.168 C 
BRANCH  23  24
HETATM   24  C17 UNL     1       0.953  -7.917  32.999  1.00  0.00     0.026 C 
BRANCH  24  25
HETATM   25  C18 UNL     1       2.240  -8.080  33.720  1.00  0.00     0.002 C 
BRANCH  25  26
HETATM   26  C19 UNL     1       3.454  -7.575  33.031  1.00  0.00     0.000 C 
BRANCH  26  27
HETATM   27  C20 UNL     1       4.300  -6.775  33.979  1.00  0.00     0.001 C 
BRANCH  27  28
HETATM   28  C21 UNL     1       4.182  -7.314  35.389  1.00  0.00     0.015 C 
BRANCH  28  29
HETATM   29  C22 UNL     1       4.051  -6.213  36.409  1.00  0.00     0.048 C 
HETATM   30  C23 UNL     1       3.410  -6.693  37.700  1.00  0.00     0.025 C 
HETATM   31  C24 UNL     1       4.743  -7.146  38.250  1.00  0.00     0.075 C 
HETATM   32  S1  UNL     1       5.619  -5.925  37.253  1.00  0.00    -0.164 SA
ENDBRANCH  28  29
ENDBRANCH  27  28
ENDBRANCH  26  27
ENDBRANCH  25  26
ENDBRANCH  24  25
ENDBRANCH  23  24
ENDBRANCH  22  23
ENDBRANCH   5  22
TORSDOF 14
ENDMDL
MODEL 4
REMARK VINA RESULT: -4.579790790      2.280      5.701
REMARK  14 active torsions:
REMARK  status: ('A' for Active; 'I' for Inactive)
REMARK    1  A    between atoms: C1_2  and  N1_3 
REMARK    2  A    between atoms: N1_3  and  C2_5 
REMARK    3  A    between atoms: C2_5  and  C3_6 
REMARK    4  A    between atoms: C2_5  and  C10_13 
REMARK    5  A    between atoms: C3_6  and  C4_7 
REMARK       I    between atoms: C10_13  and  N2_15 
REMARK    6  A    between atoms: N2_15  and  C11_17 
REMARK    7  A    between atoms: C15_21  and  O3_22 
REMARK    8  A    between atoms: O3_22  and  C16_23 
REMARK    9  A    between atoms: C16_23  and  C17_24 
REMARK   10  A    between atoms: C17_24  and  C18_25 
REMARK   11  A    between atoms: C18_25  and  C19_26 
REMARK   12  A    between atoms: C19_26  and  C20_27 
REMARK   13  A    between atoms: C20_27  and  C21_28 
REMARK   14  A    between atoms: C21_28  and  C22_29 
ROOT
HETATM    1  C11 UNL     1      -5.712  -7.692  32.129  1.00  0.00     0.113 C 
HETATM    2  C12 UNL     1      -6.387  -6.357  31.826  1.00  0.00     0.028 C 
HETATM    3  C13 UNL     1      -7.468  -6.309  32.876  1.00  0.00     0.005 C 
HETATM    4  C14 UNL     1      -6.721  -6.807  34.094  1.00  0.00     0.034 C 
HETATM    5  C15 UNL     1      -5.632  -7.703  33.622  1.00  0.00     0.144 C 
ENDROOT
BRANCH   1   6
HETATM    6  N2  UNL     1      -4.464  -7.806  31.438  1.00  0.00    -0.352 N 
HETATM    7  C10 UNL     1      -4.343  -8.730  30.366  1.00  0.00     0.240 C 
HETATM    8  O2  UNL     1      -5.268  -9.455  29.988  1.00  0.00    -0.271 OA
ATOM      9  H2  UNL     1      -3.668  -7.229  31.713  1.00  0.00     0.163 HD
BRANCH   7  10
HETATM   10  C2  UNL     1      -3.022  -8.831  29.653  1.00  0.00     0.176 C 
BRANCH  10  11
HETATM   11  N1  UNL     1      -3.193  -9.680  28.479  1.00  0.00    -0.355 N 
ATOM     12  H1  UNL     1      -3.429 -10.665  28.608  1.00  0.00     0.162 HD
BRANCH  11  13
HETATM   13  C1  UNL     1      -3.042  -9.183  27.183  1.00  0.00     0.349 C 
HETATM   14  O1  UNL     1      -3.792  -9.414  26.202  1.00  0.00    -0.284 OA
ENDBRANCH  11  13
ENDBRANCH  10  11
BRANCH  10  15
HETATM   15  C3  UNL     1      -2.629  -7.435  29.247  1.00  0.00     0.039 C 
BRANCH  15  16
HETATM   16  C4  UNL     1      -1.315  -7.085  29.900  1.00  0.00    -0.012 C 
HETATM   17  C5  UNL     1      -0.760  -8.226  30.706  1.00  0.00     0.005 C 
HETATM   18  C6  UNL     1       0.048  -7.706  31.842  1.00  0.00     0.000 C 
HETATM   19  C7  UNL     1       0.882  -6.485  31.507  1.00  0.00     0.000 C 
HETATM   20  C8  UNL     1      -0.001  -5.355  31.020  1.00  0.00     0.000 C 
HETATM   21  C9  UNL     1      -1.409  -5.858  30.756  1.00  0.00     0.005 C 
ENDBRANCH  15  16
ENDBRANCH  10  15
ENDBRANCH   7  10
ENDBRANCH   1   6
BRANCH   5  22
HETATM   22  O3  UNL     1      -4.395  -7.470  34.076  1.00  0.00    -0.384 OA
BRANCH  22  23
HETATM   23  C16 UNL     1      -4.097  -6.278  34.640  1.00  0.00     0.168 C 
BRANCH  23  24
HETATM   24  C17 UNL     1      -2.753  -5.704  34.280  1.00  0.00     0.026 C 
BRANCH  24  25
HETATM   25  C18 UNL     1      -1.611  -6.339  34.985  1.00  0.00     0.002 C 
BRANCH  25  26
HETATM   26  C19 UNL     1      -0.308  -5.632  34.909  1.00  0.00     0.000 C 
BRANCH  26  27
HETATM   27  C20 UNL     1       0.804  -6.532  35.366  1.00  0.00     0.001 C 
BRANCH  27  28
HETATM   28  C21 UNL     1       2.142  -6.024  34.872  1.00  0.00     0.015 C 
BRANCH  28  29
HETATM   29  C22 UNL     1       3.236  -7.047  35.041  1.00  0.00     0.048 C 
HETATM   30  C23 UNL     1       3.303  -8.021  33.877  1.00  0.00     0.025 C 
HETATM   31  C24 UNL     1       4.194  -7.089  33.088  1.00  0.00     0.075 C 
HETATM   32  S1  UNL     1       4.842  -6.354  34.602  1.00  0.00    -0.164 SA
ENDBRANCH  28  29
ENDBRANCH  27  28
ENDBRANCH  26  27
ENDBRANCH  25  26
ENDBRANCH  24  25
ENDBRANCH  23  24
ENDBRANCH  22  23
ENDBRANCH   5  22
TORSDOF 14
ENDMDL
MODEL 5
REMARK VINA RESULT: -4.539017007      2.284      5.676
REMARK  14 active torsions:
REMARK  status: ('A' for Active; 'I' for Inactive)
REMARK    1  A    between atoms: C1_2  and  N1_3 
REMARK    2  A    between atoms: N1_3  and  C2_5 
REMARK    3  A    between atoms: C2_5  and  C3_6 
REMARK    4  A    between atoms: C2_5  and  C10_13 
REMARK    5  A    between atoms: C3_6  and  C4_7 
REMARK       I    between atoms: C10_13  and  N2_15 
REMARK    6  A    between atoms: N2_15  and  C11_17 
REMARK    7  A    between atoms: C15_21  and  O3_22 
REMARK    8  A    between atoms: O3_22  and  C16_23 
REMARK    9  A    between atoms: C16_23  and  C17_24 
REMARK   10  A    between atoms: C17_24  and  C18_25 
REMARK   11  A    between atoms: C18_25  and  C19_26 
REMARK   12  A    between atoms: C19_26  and  C20_27 
REMARK   13  A    between atoms: C20_27  and  C21_28 
REMARK   14  A    between atoms: C21_28  and  C22_29 
ROOT
HETATM    1  C11 UNL     1      -5.904  -7.740  32.283  1.00  0.00     0.113 C 
HETATM    2  C12 UNL     1      -6.499  -6.348  32.088  1.00  0.00     0.028 C 
HETATM    3  C13 UNL     1      -7.675  -6.378  33.031  1.00  0.00     0.005 C 
HETATM    4  C14 UNL     1      -7.070  -7.054  34.240  1.00  0.00     0.034 C 
HETATM    5  C15 UNL     1      -5.972  -7.937  33.762  1.00  0.00     0.144 C 
ENDROOT
BRANCH   1   6
HETATM    6  N2  UNL     1      -4.599  -7.827  31.702  1.00  0.00    -0.352 N 
HETATM    7  C10 UNL     1      -4.367  -8.749  30.645  1.00  0.00     0.240 C 
HETATM    8  O2  UNL     1      -5.241  -9.493  30.191  1.00  0.00    -0.271 OA
ATOM      9  H2  UNL     1      -3.843  -7.234  32.043  1.00  0.00     0.163 HD
BRANCH   7  10
HETATM   10  C2  UNL     1      -2.988  -8.822  30.049  1.00  0.00     0.176 C 
BRANCH  10  11
HETATM   11  N1  UNL     1      -3.045  -9.652  28.850  1.00  0.00    -0.355 N 
ATOM     12  H1  UNL     1      -3.166 -10.660  28.950  1.00  0.00     0.162 HD
BRANCH  11  13
HETATM   13  C1  UNL     1      -2.937  -9.105  27.570  1.00  0.00     0.349 C 
HETATM   14  O1  UNL     1      -3.777  -9.204  26.642  1.00  0.00    -0.284 OA
ENDBRANCH  11  13
ENDBRANCH  10  11
BRANCH  10  15
HETATM   15  C3  UNL     1      -2.579  -7.414  29.701  1.00  0.00     0.039 C 
BRANCH  15  16
HETATM   16  C4  UNL     1      -1.336  -7.058  30.478  1.00  0.00    -0.012 C 
HETATM   17  C5  UNL     1      -0.714  -8.258  31.135  1.00  0.00     0.005 C 
HETATM   18  C6  UNL     1      -0.012  -7.853  32.383  1.00  0.00     0.000 C 
HETATM   19  C7  UNL     1       0.718  -6.528  32.286  1.00  0.00     0.000 C 
HETATM   20  C8  UNL     1      -0.245  -5.416  31.922  1.00  0.00     0.000 C 
HETATM   21  C9  UNL     1      -1.585  -5.992  31.501  1.00  0.00     0.005 C 
ENDBRANCH  15  16
ENDBRANCH  10  15
ENDBRANCH   7  10
ENDBRANCH   1   6
BRANCH   5  22
HETATM   22  O3  UNL     1      -4.777  -7.819  34.355  1.00  0.00    -0.384 OA
BRANCH  22  23
HETATM   23  C16 UNL     1      -4.518  -6.752  35.145  1.00  0.00     0.168 C 
BRANCH  23  24
HETATM   24  C17 UNL     1      -3.644  -5.688  34.537  1.00  0.00     0.026 C 
BRANCH  24  25
HETATM   25  C18 UNL     1      -2.392  -5.426  35.291  1.00  0.00     0.002 C 
BRANCH  25  26
HETATM   26  C19 UNL     1      -1.436  -6.556  35.403  1.00  0.00     0.000 C 
BRANCH  26  27
HETATM   27  C20 UNL     1      -0.352  -6.230  36.390  1.00  0.00     0.001 C 
BRANCH  27  28
HETATM   28  C21 UNL     1      -0.101  -7.401  37.316  1.00  0.00     0.015 C 
BRANCH  28  29
HETATM   29  C22 UNL     1      -0.492  -7.094  38.739  1.00  0.00     0.048 C 
HETATM   30  C23 UNL     1      -1.968  -7.341  38.999  1.00  0.00     0.025 C 
HETATM   31  C24 UNL     1      -1.718  -8.801  39.304  1.00  0.00     0.075 C 
HETATM   32  S1  UNL     1      -0.034  -8.447  39.841  1.00  0.00    -0.164 SA
ENDBRANCH  28  29
ENDBRANCH  27  28
ENDBRANCH  26  27
ENDBRANCH  25  26
ENDBRANCH  24  25
ENDBRANCH  23  24
ENDBRANCH  22  23
ENDBRANCH   5  22
TORSDOF 14
ENDMDL
