MODEL 1
REMARK VINA RESULT: -8.955073806      0.000      0.000
REMARK  11 active torsions:
REMARK  status: ('A' for Active; 'I' for Inactive)
REMARK    1  A    between atoms: C2_2  and  C3_3 
REMARK    2  A    between atoms: C3_3  and  C4_4 
REMARK    3  A    between atoms: C8_10  and  C9_11 
REMARK    4  A    between atoms: C13_16  and  O4_17 
REMARK    5  A    between atoms: O4_17  and  C14_18 
REMARK    6  A    between atoms: C14_18  and  C15_20 
REMARK    7  A    between atoms: C15_20  and  C16_21 
REMARK    8  A    between atoms: C16_21  and  C17_22 
REMARK    9  A    between atoms: C17_22  and  C18_23 
REMARK   10  A    between atoms: C19_24  and  C20_25 
REMARK   11  A    between atoms: C25_30  and  O6_31 
ROOT
HETATM    1  C4  UNL     1     -28.903  45.563  64.152  1.00  0.00     0.120 A 
HETATM    2  O1  UNL     1     -29.109  45.998  62.866  1.00  0.00    -0.361 OA
HETATM    3  C5  UNL     1     -29.328  46.946  63.856  1.00  0.00     0.196 A 
HETATM    4  C6  UNL     1     -30.682  47.164  64.371  1.00  0.00     0.012 A 
HETATM    5  C7  UNL     1     -31.850  46.448  64.194  1.00  0.00     0.066 A 
HETATM    6  O2  UNL     1     -32.823  47.042  64.869  1.00  0.00    -0.311 OA
HETATM    7  C8  UNL     1     -32.386  48.107  65.485  1.00  0.00     0.119 A 
HETATM    8  C10 UNL     1     -31.027  48.214  65.189  1.00  0.00    -0.014 A 
HETATM    9  C11 UNL     1     -30.126  49.278  65.679  1.00  0.00     0.052 C 
HETATM   10  C12 UNL     1     -32.024  45.224  63.397  1.00  0.00     0.101 C 
HETATM   11  C13 UNL     1     -30.953  44.219  63.671  1.00  0.00     0.169 C 
HETATM   12  C25 UNL     1     -30.009  44.704  64.729  1.00  0.00     0.185 C 
ENDROOT
BRANCH  11  13
HETATM   13  O4  UNL     1     -31.546  42.965  64.034  1.00  0.00    -0.313 OA
BRANCH  13  14
HETATM   14  C14 UNL     1     -32.728  42.538  63.455  1.00  0.00     0.259 C 
HETATM   15  O5  UNL     1     -32.660  42.178  62.260  1.00  0.00    -0.265 OA
BRANCH  14  16
HETATM   16  C15 UNL     1     -34.013  42.496  64.177  1.00  0.00     0.111 C 
BRANCH  16  17
HETATM   17  C16 UNL     1     -34.218  41.342  65.084  1.00  0.00     0.013 C 
BRANCH  17  18
HETATM   18  C17 UNL     1     -34.579  40.048  64.400  1.00  0.00     0.027 C 
BRANCH  18  19
HETATM   19  C18 UNL     1     -34.470  38.893  65.367  1.00  0.00    -0.030 C 
HETATM   20  C19 UNL     1     -35.185  38.881  66.486  1.00  0.00    -0.026 C 
BRANCH  20  21
HETATM   21  C20 UNL     1     -35.091  37.768  67.434  1.00  0.00     0.013 C 
HETATM   22  C21 UNL     1     -36.095  36.623  67.145  1.00  0.00     0.014 C 
HETATM   23  C22 UNL     1     -35.062  35.894  68.007  1.00  0.00    -0.009 A 
HETATM   24  C23 UNL     1     -33.754  35.487  67.648  1.00  0.00     0.010 A 
HETATM   25  C24 UNL     1     -34.146  36.660  66.956  1.00  0.00    -0.002 A 
ENDBRANCH  20  21
ENDBRANCH  18  19
ENDBRANCH  17  18
ENDBRANCH  16  17
ENDBRANCH  14  16
ENDBRANCH  13  14
ENDBRANCH  11  13
BRANCH  12  26
HETATM   26  O6  UNL     1     -29.394  43.577  65.293  1.00  0.00    -0.390 OA
ATOM     27  H6  UNL     1     -29.688  42.825  64.793  1.00  0.00     0.210 HD
ENDBRANCH  12  26
BRANCH   1  28
HETATM   28  C3  UNL     1     -27.521  45.379  64.689  1.00  0.00     0.043 C 
BRANCH  28  29
HETATM   29  C2  UNL     1     -26.615  44.656  63.701  1.00  0.00    -0.001 C 
HETATM   30  C1  UNL     1     -25.587  45.596  63.128  1.00  0.00     0.005 C 
ENDBRANCH  28  29
ENDBRANCH   1  28
BRANCH   7  31
HETATM   31  C9  UNL     1     -33.177  49.014  66.326  1.00  0.00     0.296 C 
HETATM   32  O3  UNL     1     -34.184  49.607  65.922  1.00  0.00    -0.299 OA
ENDBRANCH   7  31
TORSDOF 11
ENDMDL
MODEL 2
REMARK VINA RESULT: -8.822283610      2.234      4.576
REMARK  11 active torsions:
REMARK  status: ('A' for Active; 'I' for Inactive)
REMARK    1  A    between atoms: C2_2  and  C3_3 
REMARK    2  A    between atoms: C3_3  and  C4_4 
REMARK    3  A    between atoms: C8_10  and  C9_11 
REMARK    4  A    between atoms: C13_16  and  O4_17 
REMARK    5  A    between atoms: O4_17  and  C14_18 
REMARK    6  A    between atoms: C14_18  and  C15_20 
REMARK    7  A    between atoms: C15_20  and  C16_21 
REMARK    8  A    between atoms: C16_21  and  C17_22 
REMARK    9  A    between atoms: C17_22  and  C18_23 
REMARK   10  A    between atoms: C19_24  and  C20_25 
REMARK   11  A    between atoms: C25_30  and  O6_31 
ROOT
HETATM    1  C4  UNL     1     -29.937  46.441  63.175  1.00  0.00     0.120 A 
HETATM    2  O1  UNL     1     -29.417  46.973  64.330  1.00  0.00    -0.361 OA
HETATM    3  C5  UNL     1     -28.505  46.776  63.302  1.00  0.00     0.196 A 
HETATM    4  C6  UNL     1     -27.707  45.548  63.258  1.00  0.00     0.012 A 
HETATM    5  C7  UNL     1     -27.805  44.373  63.980  1.00  0.00     0.066 A 
HETATM    6  O2  UNL     1     -26.853  43.544  63.579  1.00  0.00    -0.311 OA
HETATM    7  C8  UNL     1     -26.125  44.084  62.639  1.00  0.00     0.119 A 
HETATM    8  C10 UNL     1     -26.642  45.359  62.411  1.00  0.00    -0.014 A 
HETATM    9  C11 UNL     1     -26.123  46.330  61.425  1.00  0.00     0.052 C 
HETATM   10  C12 UNL     1     -28.789  44.058  65.027  1.00  0.00     0.101 C 
HETATM   11  C13 UNL     1     -30.180  44.413  64.614  1.00  0.00     0.169 C 
HETATM   12  C25 UNL     1     -30.213  44.953  63.216  1.00  0.00     0.185 C 
ENDROOT
BRANCH  11  13
HETATM   13  O4  UNL     1     -31.035  43.271  64.755  1.00  0.00    -0.313 OA
BRANCH  13  14
HETATM   14  C14 UNL     1     -32.187  43.330  65.520  1.00  0.00     0.259 C 
HETATM   15  O5  UNL     1     -33.009  44.220  65.214  1.00  0.00    -0.265 OA
BRANCH  14  16
HETATM   16  C15 UNL     1     -32.462  42.410  66.639  1.00  0.00     0.111 C 
BRANCH  16  17
HETATM   17  C16 UNL     1     -32.453  40.964  66.316  1.00  0.00     0.013 C 
BRANCH  17  18
HETATM   18  C17 UNL     1     -33.607  40.491  65.468  1.00  0.00     0.027 C 
BRANCH  18  19
HETATM   19  C18 UNL     1     -34.130  39.170  65.980  1.00  0.00    -0.030 C 
HETATM   20  C19 UNL     1     -34.295  38.970  67.283  1.00  0.00    -0.026 C 
BRANCH  20  21
HETATM   21  C20 UNL     1     -34.802  37.695  67.796  1.00  0.00     0.013 C 
HETATM   22  C21 UNL     1     -35.995  37.132  66.982  1.00  0.00     0.014 C 
HETATM   23  C22 UNL     1     -35.504  35.869  67.691  1.00  0.00    -0.009 A 
HETATM   24  C23 UNL     1     -34.338  35.110  67.420  1.00  0.00     0.010 A 
HETATM   25  C24 UNL     1     -34.152  36.483  67.120  1.00  0.00    -0.002 A 
ENDBRANCH  20  21
ENDBRANCH  18  19
ENDBRANCH  17  18
ENDBRANCH  16  17
ENDBRANCH  14  16
ENDBRANCH  13  14
ENDBRANCH  11  13
BRANCH  12  26
HETATM   26  O6  UNL     1     -31.514  44.768  62.724  1.00  0.00    -0.390 OA
ATOM     27  H6  UNL     1     -31.535  45.150  61.855  1.00  0.00     0.210 HD
ENDBRANCH  12  26
BRANCH   1  28
HETATM   28  C3  UNL     1     -30.749  47.278  62.241  1.00  0.00     0.043 C 
BRANCH  28  29
HETATM   29  C2  UNL     1     -30.509  46.904  60.783  1.00  0.00    -0.001 C 
HETATM   30  C1  UNL     1     -29.608  47.907  60.113  1.00  0.00     0.005 C 
ENDBRANCH  28  29
ENDBRANCH   1  28
BRANCH   7  31
HETATM   31  C9  UNL     1     -24.982  43.463  61.956  1.00  0.00     0.296 C 
HETATM   32  O3  UNL     1     -24.951  43.260  60.736  1.00  0.00    -0.299 OA
ENDBRANCH   7  31
TORSDOF 11
ENDMDL
MODEL 3
REMARK VINA RESULT: -8.702109123      0.843      1.090
REMARK  11 active torsions:
REMARK  status: ('A' for Active; 'I' for Inactive)
REMARK    1  A    between atoms: C2_2  and  C3_3 
REMARK    2  A    between atoms: C3_3  and  C4_4 
REMARK    3  A    between atoms: C8_10  and  C9_11 
REMARK    4  A    between atoms: C13_16  and  O4_17 
REMARK    5  A    between atoms: O4_17  and  C14_18 
REMARK    6  A    between atoms: C14_18  and  C15_20 
REMARK    7  A    between atoms: C15_20  and  C16_21 
REMARK    8  A    between atoms: C16_21  and  C17_22 
REMARK    9  A    between atoms: C17_22  and  C18_23 
REMARK   10  A    between atoms: C19_24  and  C20_25 
REMARK   11  A    between atoms: C25_30  and  O6_31 
ROOT
HETATM    1  C4  UNL     1     -28.545  45.994  63.850  1.00  0.00     0.120 A 
HETATM    2  O1  UNL     1     -28.789  46.576  62.631  1.00  0.00    -0.361 OA
HETATM    3  C5  UNL     1     -29.062  47.371  63.734  1.00  0.00     0.196 A 
HETATM    4  C6  UNL     1     -30.425  47.431  64.271  1.00  0.00     0.012 A 
HETATM    5  C7  UNL     1     -31.544  46.668  64.001  1.00  0.00     0.066 A 
HETATM    6  O2  UNL     1     -32.550  47.104  64.745  1.00  0.00    -0.311 OA
HETATM    7  C8  UNL     1     -32.179  48.107  65.494  1.00  0.00     0.119 A 
HETATM    8  C10 UNL     1     -30.833  48.341  65.217  1.00  0.00    -0.014 A 
HETATM    9  C11 UNL     1     -30.000  49.391  65.841  1.00  0.00     0.052 C 
HETATM   10  C12 UNL     1     -31.643  45.548  63.052  1.00  0.00     0.101 C 
HETATM   11  C13 UNL     1     -30.506  44.589  63.197  1.00  0.00     0.169 C 
HETATM   12  C25 UNL     1     -29.588  44.996  64.310  1.00  0.00     0.185 C 
ENDROOT
BRANCH  11  13
HETATM   13  O4  UNL     1     -31.012  43.262  63.394  1.00  0.00    -0.313 OA
BRANCH  13  14
HETATM   14  C14 UNL     1     -32.266  42.899  62.936  1.00  0.00     0.259 C 
HETATM   15  O5  UNL     1     -32.350  42.609  61.723  1.00  0.00    -0.265 OA
BRANCH  14  16
HETATM   16  C15 UNL     1     -33.458  42.846  63.802  1.00  0.00     0.111 C 
BRANCH  16  17
HETATM   17  C16 UNL     1     -33.695  41.568  64.513  1.00  0.00     0.013 C 
BRANCH  17  18
HETATM   18  C17 UNL     1     -34.595  40.594  63.796  1.00  0.00     0.027 C 
BRANCH  18  19
HETATM   19  C18 UNL     1     -34.664  39.287  64.550  1.00  0.00    -0.030 C 
HETATM   20  C19 UNL     1     -34.112  39.173  65.752  1.00  0.00    -0.026 C 
BRANCH  20  21
HETATM   21  C20 UNL     1     -34.170  37.913  66.497  1.00  0.00     0.013 C 
HETATM   22  C21 UNL     1     -34.220  38.105  68.034  1.00  0.00     0.014 C 
HETATM   23  C22 UNL     1     -34.766  36.683  67.901  1.00  0.00    -0.009 A 
HETATM   24  C23 UNL     1     -36.038  36.275  67.428  1.00  0.00     0.010 A 
HETATM   25  C24 UNL     1     -35.606  37.471  66.804  1.00  0.00    -0.002 A 
ENDBRANCH  20  21
ENDBRANCH  18  19
ENDBRANCH  17  18
ENDBRANCH  16  17
ENDBRANCH  14  16
ENDBRANCH  13  14
ENDBRANCH  11  13
BRANCH  12  26
HETATM   26  O6  UNL     1     -28.896  43.848  64.725  1.00  0.00    -0.390 OA
ATOM     27  H6  UNL     1     -29.368  43.102  64.376  1.00  0.00     0.210 HD
ENDBRANCH  12  26
BRANCH   1  28
HETATM   28  C3  UNL     1     -27.150  45.834  64.362  1.00  0.00     0.043 C 
BRANCH  28  29
HETATM   29  C2  UNL     1     -26.146  45.641  63.233  1.00  0.00    -0.001 C 
HETATM   30  C1  UNL     1     -25.948  44.179  62.934  1.00  0.00     0.005 C 
ENDBRANCH  28  29
ENDBRANCH   1  28
BRANCH   7  31
HETATM   31  C9  UNL     1     -33.023  48.844  66.444  1.00  0.00     0.296 C 
HETATM   32  O3  UNL     1     -33.360  48.390  67.544  1.00  0.00    -0.299 OA
ENDBRANCH   7  31
TORSDOF 11
ENDMDL
MODEL 4
REMARK VINA RESULT: -8.658765267      0.844      1.259
REMARK  11 active torsions:
REMARK  status: ('A' for Active; 'I' for Inactive)
REMARK    1  A    between atoms: C2_2  and  C3_3 
REMARK    2  A    between atoms: C3_3  and  C4_4 
REMARK    3  A    between atoms: C8_10  and  C9_11 
REMARK    4  A    between atoms: C13_16  and  O4_17 
REMARK    5  A    between atoms: O4_17  and  C14_18 
REMARK    6  A    between atoms: C14_18  and  C15_20 
REMARK    7  A    between atoms: C15_20  and  C16_21 
REMARK    8  A    between atoms: C16_21  and  C17_22 
REMARK    9  A    between atoms: C17_22  and  C18_23 
REMARK   10  A    between atoms: C19_24  and  C20_25 
REMARK   11  A    between atoms: C25_30  and  O6_31 
ROOT
HETATM    1  C4  UNL     1     -28.825  45.920  64.076  1.00  0.00     0.120 A 
HETATM    2  O1  UNL     1     -29.144  46.335  62.806  1.00  0.00    -0.361 OA
HETATM    3  C5  UNL     1     -29.387  47.259  63.812  1.00  0.00     0.196 A 
HETATM    4  C6  UNL     1     -30.723  47.357  64.407  1.00  0.00     0.012 A 
HETATM    5  C7  UNL     1     -31.832  46.541  64.294  1.00  0.00     0.066 A 
HETATM    6  O2  UNL     1     -32.812  47.046  65.028  1.00  0.00    -0.311 OA
HETATM    7  C8  UNL     1     -32.435  48.144  65.623  1.00  0.00     0.119 A 
HETATM    8  C10 UNL     1     -31.111  48.371  65.249  1.00  0.00    -0.014 A 
HETATM    9  C11 UNL     1     -30.280  49.511  65.691  1.00  0.00     0.052 C 
HETATM   10  C12 UNL     1     -31.944  45.306  63.501  1.00  0.00     0.101 C 
HETATM   11  C13 UNL     1     -30.774  44.400  63.708  1.00  0.00     0.169 C 
HETATM   12  C25 UNL     1     -29.816  44.966  64.711  1.00  0.00     0.185 C 
ENDROOT
BRANCH  11  13
HETATM   13  O4  UNL     1     -31.232  43.097  64.097  1.00  0.00    -0.313 OA
BRANCH  13  14
HETATM   14  C14 UNL     1     -32.416  42.934  64.793  1.00  0.00     0.259 C 
HETATM   15  O5  UNL     1     -32.340  43.004  66.039  1.00  0.00    -0.265 OA
BRANCH  14  16
HETATM   16  C15 UNL     1     -33.713  42.691  64.135  1.00  0.00     0.111 C 
BRANCH  16  17
HETATM   17  C16 UNL     1     -33.761  41.561  63.177  1.00  0.00     0.013 C 
BRANCH  17  18
HETATM   18  C17 UNL     1     -34.942  40.637  63.336  1.00  0.00     0.027 C 
BRANCH  18  19
HETATM   19  C18 UNL     1     -34.565  39.442  64.178  1.00  0.00    -0.030 C 
HETATM   20  C19 UNL     1     -34.807  39.435  65.484  1.00  0.00    -0.026 C 
BRANCH  20  21
HETATM   21  C20 UNL     1     -34.448  38.283  66.316  1.00  0.00     0.013 C 
HETATM   22  C21 UNL     1     -34.452  38.592  67.834  1.00  0.00     0.014 C 
HETATM   23  C22 UNL     1     -34.568  37.067  67.847  1.00  0.00    -0.009 A 
HETATM   24  C23 UNL     1     -35.694  36.272  67.516  1.00  0.00     0.010 A 
HETATM   25  C24 UNL     1     -35.670  37.480  66.777  1.00  0.00    -0.002 A 
ENDBRANCH  20  21
ENDBRANCH  18  19
ENDBRANCH  17  18
ENDBRANCH  16  17
ENDBRANCH  14  16
ENDBRANCH  13  14
ENDBRANCH  11  13
BRANCH  12  26
HETATM   26  O6  UNL     1     -29.072  43.897  65.232  1.00  0.00    -0.390 OA
ATOM     27  H6  UNL     1     -28.796  44.154  66.104  1.00  0.00     0.210 HD
ENDBRANCH  12  26
BRANCH   1  28
HETATM   28  C3  UNL     1     -27.404  45.858  64.530  1.00  0.00     0.043 C 
BRANCH  28  29
HETATM   29  C2  UNL     1     -26.443  45.616  63.373  1.00  0.00    -0.001 C 
HETATM   30  C1  UNL     1     -26.220  44.143  63.158  1.00  0.00     0.005 C 
ENDBRANCH  28  29
ENDBRANCH   1  28
BRANCH   7  31
HETATM   31  C9  UNL     1     -33.253  48.978  66.514  1.00  0.00     0.296 C 
HETATM   32  O3  UNL     1     -34.396  49.355  66.229  1.00  0.00    -0.299 OA
ENDBRANCH   7  31
TORSDOF 11
ENDMDL
MODEL 5
REMARK VINA RESULT: -8.606808766      1.876      4.682
REMARK  11 active torsions:
REMARK  status: ('A' for Active; 'I' for Inactive)
REMARK    1  A    between atoms: C2_2  and  C3_3 
REMARK    2  A    between atoms: C3_3  and  C4_4 
REMARK    3  A    between atoms: C8_10  and  C9_11 
REMARK    4  A    between atoms: C13_16  and  O4_17 
REMARK    5  A    between atoms: O4_17  and  C14_18 
REMARK    6  A    between atoms: C14_18  and  C15_20 
REMARK    7  A    between atoms: C15_20  and  C16_21 
REMARK    8  A    between atoms: C16_21  and  C17_22 
REMARK    9  A    between atoms: C17_22  and  C18_23 
REMARK   10  A    between atoms: C19_24  and  C20_25 
REMARK   11  A    between atoms: C25_30  and  O6_31 
ROOT
HETATM    1  C4  UNL     1     -29.325  46.714  63.955  1.00  0.00     0.120 A 
HETATM    2  O1  UNL     1     -29.396  45.994  65.123  1.00  0.00    -0.361 OA
HETATM    3  C5  UNL     1     -28.126  46.117  64.576  1.00  0.00     0.196 A 
HETATM    4  C6  UNL     1     -27.599  45.059  63.709  1.00  0.00     0.012 A 
HETATM    5  C7  UNL     1     -28.213  43.964  63.132  1.00  0.00     0.066 A 
HETATM    6  O2  UNL     1     -27.317  43.294  62.423  1.00  0.00    -0.311 OA
HETATM    7  C8  UNL     1     -26.146  43.866  62.487  1.00  0.00     0.119 A 
HETATM    8  C10 UNL     1     -26.290  44.992  63.297  1.00  0.00    -0.014 A 
HETATM    9  C11 UNL     1     -25.211  45.941  63.644  1.00  0.00     0.052 C 
HETATM   10  C12 UNL     1     -29.626  43.574  63.260  1.00  0.00     0.101 C 
HETATM   11  C13 UNL     1     -30.548  44.731  63.052  1.00  0.00     0.169 C 
HETATM   12  C25 UNL     1     -29.790  45.979  62.715  1.00  0.00     0.185 C 
ENDROOT
BRANCH  11  13
HETATM   13  O4  UNL     1     -31.508  44.410  62.035  1.00  0.00    -0.313 OA
BRANCH  13  14
HETATM   14  C14 UNL     1     -32.098  43.160  61.977  1.00  0.00     0.259 C 
HETATM   15  O5  UNL     1     -32.091  42.596  60.862  1.00  0.00    -0.265 OA
BRANCH  14  16
HETATM   16  C15 UNL     1     -32.710  42.501  63.145  1.00  0.00     0.111 C 
BRANCH  16  17
HETATM   17  C16 UNL     1     -33.753  41.489  62.856  1.00  0.00     0.013 C 
BRANCH  17  18
HETATM   18  C17 UNL     1     -34.695  41.198  63.997  1.00  0.00     0.027 C 
BRANCH  18  19
HETATM   19  C18 UNL     1     -34.382  39.853  64.608  1.00  0.00    -0.030 C 
HETATM   20  C19 UNL     1     -34.886  39.514  65.789  1.00  0.00    -0.026 C 
BRANCH  20  21
HETATM   21  C20 UNL     1     -34.592  38.213  66.395  1.00  0.00     0.013 C 
HETATM   22  C21 UNL     1     -34.409  38.274  67.932  1.00  0.00     0.014 C 
HETATM   23  C22 UNL     1     -34.710  36.788  67.734  1.00  0.00    -0.009 A 
HETATM   24  C23 UNL     1     -35.952  36.181  67.423  1.00  0.00     0.010 A 
HETATM   25  C24 UNL     1     -35.852  37.482  66.871  1.00  0.00    -0.002 A 
ENDBRANCH  20  21
ENDBRANCH  18  19
ENDBRANCH  17  18
ENDBRANCH  16  17
ENDBRANCH  14  16
ENDBRANCH  13  14
ENDBRANCH  11  13
BRANCH  12  26
HETATM   26  O6  UNL     1     -30.671  46.838  62.041  1.00  0.00    -0.390 OA
ATOM     27  H6  UNL     1     -31.170  46.301  61.438  1.00  0.00     0.210 HD
ENDBRANCH  12  26
BRANCH   1  28
HETATM   28  C3  UNL     1     -29.423  48.204  63.963  1.00  0.00     0.043 C 
BRANCH  28  29
HETATM   29  C2  UNL     1     -30.501  48.702  64.917  1.00  0.00    -0.001 C 
HETATM   30  C1  UNL     1     -29.938  49.709  65.886  1.00  0.00     0.005 C 
ENDBRANCH  28  29
ENDBRANCH   1  28
BRANCH   7  31
HETATM   31  C9  UNL     1     -24.915  43.407  61.829  1.00  0.00     0.296 C 
HETATM   32  O3  UNL     1     -24.771  43.384  60.601  1.00  0.00    -0.299 OA
ENDBRANCH   7  31
TORSDOF 11
ENDMDL
