MODEL 1
REMARK VINA RESULT: -6.927533353      0.000      0.000
REMARK  5 active torsions:
REMARK  status: ('A' for Active; 'I' for Inactive)
REMARK    1  A    between atoms: C2_2  and  C3_3 
REMARK    2  A    between atoms: C8_8  and  N1_9 
REMARK    3  A    between atoms: N1_9  and  C9_11 
REMARK    4  A    between atoms: C9_11  and  O1_13 
REMARK    5  A    between atoms: O1_13  and  C10_14 
ROOT
HETATM    1  C3  UNL     1      -0.482  19.783  21.862  1.00  0.00     0.016 C 
HETATM    2  C4  UNL     1      -1.343  20.770  21.127  1.00  0.00     0.009 C 
HETATM    3  C5  UNL     1      -2.109  20.279  19.980  1.00  0.00     0.001 C 
HETATM    4  C6  UNL     1      -1.608  19.114  19.198  1.00  0.00     0.007 C 
HETATM    5  C7  UNL     1      -0.451  18.484  19.863  1.00  0.00     0.017 C 
HETATM    6  C8  UNL     1       0.057  17.184  19.293  1.00  0.00     0.089 C 
HETATM    7  C12 UNL     1      -0.656  16.004  19.950  1.00  0.00     0.029 C 
HETATM    8  C13 UNL     1      -0.293  15.990  21.423  1.00  0.00    -0.016 C 
HETATM    9  C14 UNL     1       0.796  14.951  21.695  1.00  0.00     0.010 C 
HETATM   10  C15 UNL     1       0.127  17.350  21.929  1.00  0.00     0.014 C 
HETATM   11  C16 UNL     1      -0.767  18.376  21.333  1.00  0.00    -0.031 C 
HETATM   12  C17 UNL     1      -2.181  18.092  21.685  1.00  0.00     0.016 C 
ENDROOT
BRANCH   6  13
HETATM   13  N1  UNL     1       0.002  17.105  17.880  1.00  0.00    -0.356 N 
ATOM     14  H1  UNL     1      -0.273  17.928  17.344  1.00  0.00     0.162 HD
BRANCH  13  15
HETATM   15  C9  UNL     1       0.317  15.916  17.198  1.00  0.00     0.210 C 
HETATM   16  S1  UNL     1       1.651  15.028  17.638  1.00  0.00    -0.033 SA
BRANCH  15  17
HETATM   17  O1  UNL     1      -0.482  15.482  16.160  1.00  0.00    -0.328 OA
BRANCH  17  18
HETATM   18  C10 UNL     1      -1.876  15.445  16.311  1.00  0.00     0.173 C 
HETATM   19  C11 UNL     1      -2.304  14.202  17.051  1.00  0.00     0.034 C 
ENDBRANCH  17  18
ENDBRANCH  15  17
ENDBRANCH  13  15
ENDBRANCH   6  13
BRANCH   1  20
HETATM   20  C2  UNL     1      -0.646  19.828  23.338  1.00  0.00    -0.031 C 
HETATM   21  C1  UNL     1      -1.442  20.760  23.899  1.00  0.00     0.007 C 
ENDBRANCH   1  20
TORSDOF 5
ENDMDL
MODEL 2
REMARK VINA RESULT: -6.914376286      0.821      1.073
REMARK  5 active torsions:
REMARK  status: ('A' for Active; 'I' for Inactive)
REMARK    1  A    between atoms: C2_2  and  C3_3 
REMARK    2  A    between atoms: C8_8  and  N1_9 
REMARK    3  A    between atoms: N1_9  and  C9_11 
REMARK    4  A    between atoms: C9_11  and  O1_13 
REMARK    5  A    between atoms: O1_13  and  C10_14 
ROOT
HETATM    1  C3  UNL     1      -0.602  19.915  22.040  1.00  0.00     0.016 C 
HETATM    2  C4  UNL     1      -1.433  20.930  21.308  1.00  0.00     0.009 C 
HETATM    3  C5  UNL     1      -2.158  20.481  20.118  1.00  0.00     0.001 C 
HETATM    4  C6  UNL     1      -1.631  19.342  19.314  1.00  0.00     0.007 C 
HETATM    5  C7  UNL     1      -0.500  18.686  19.999  1.00  0.00     0.017 C 
HETATM    6  C8  UNL     1       0.026  17.404  19.404  1.00  0.00     0.089 C 
HETATM    7  C12 UNL     1      -0.713  16.205  19.993  1.00  0.00     0.029 C 
HETATM    8  C13 UNL     1      -0.405  16.139  21.477  1.00  0.00    -0.016 C 
HETATM    9  C14 UNL     1       0.671  15.087  21.753  1.00  0.00     0.010 C 
HETATM   10  C15 UNL     1      -0.001  17.479  22.044  1.00  0.00     0.014 C 
HETATM   11  C16 UNL     1      -0.870  18.528  21.452  1.00  0.00    -0.031 C 
HETATM   12  C17 UNL     1      -2.297  18.237  21.742  1.00  0.00     0.016 C 
ENDROOT
BRANCH   6  13
HETATM   13  N1  UNL     1       0.022  17.374  17.987  1.00  0.00    -0.356 N 
ATOM     14  H1  UNL     1      -0.068  18.248  17.470  1.00  0.00     0.162 HD
BRANCH  13  15
HETATM   15  C9  UNL     1       0.138  16.165  17.278  1.00  0.00     0.210 C 
HETATM   16  S1  UNL     1       1.420  15.147  17.566  1.00  0.00    -0.033 SA
BRANCH  15  17
HETATM   17  O1  UNL     1      -0.812  15.820  16.340  1.00  0.00    -0.328 OA
BRANCH  17  18
HETATM   18  C10 UNL     1      -1.464  16.815  15.597  1.00  0.00     0.173 C 
HETATM   19  C11 UNL     1      -0.594  17.295  14.461  1.00  0.00     0.034 C 
ENDBRANCH  17  18
ENDBRANCH  15  17
ENDBRANCH  13  15
ENDBRANCH   6  13
BRANCH   1  20
HETATM   20  C2  UNL     1      -0.820  19.910  23.509  1.00  0.00    -0.031 C 
HETATM   21  C1  UNL     1      -1.585  20.862  24.080  1.00  0.00     0.007 C 
ENDBRANCH   1  20
TORSDOF 5
ENDMDL
MODEL 3
REMARK VINA RESULT: -6.869878362      2.471      6.240
REMARK  5 active torsions:
REMARK  status: ('A' for Active; 'I' for Inactive)
REMARK    1  A    between atoms: C2_2  and  C3_3 
REMARK    2  A    between atoms: C8_8  and  N1_9 
REMARK    3  A    between atoms: N1_9  and  C9_11 
REMARK    4  A    between atoms: C9_11  and  O1_13 
REMARK    5  A    between atoms: O1_13  and  C10_14 
ROOT
HETATM    1  C3  UNL     1       0.644  15.898  15.376  1.00  0.00     0.016 C 
HETATM    2  C4  UNL     1       1.307  14.578  15.104  1.00  0.00     0.009 C 
HETATM    3  C5  UNL     1       1.423  13.635  16.218  1.00  0.00     0.001 C 
HETATM    4  C6  UNL     1       1.494  14.144  17.616  1.00  0.00     0.007 C 
HETATM    5  C7  UNL     1       1.225  15.595  17.668  1.00  0.00     0.017 C 
HETATM    6  C8  UNL     1       1.080  16.228  19.029  1.00  0.00     0.089 C 
HETATM    7  C12 UNL     1      -0.379  16.186  19.479  1.00  0.00     0.029 C 
HETATM    8  C13 UNL     1      -1.195  17.040  18.526  1.00  0.00    -0.016 C 
HETATM    9  C14 UNL     1      -1.474  18.411  19.145  1.00  0.00     0.010 C 
HETATM   10  C15 UNL     1      -0.538  17.187  17.174  1.00  0.00     0.014 C 
HETATM   11  C16 UNL     1       0.040  15.876  16.781  1.00  0.00    -0.031 C 
HETATM   12  C17 UNL     1      -1.021  14.837  16.747  1.00  0.00     0.016 C 
ENDROOT
BRANCH   6  13
HETATM   13  N1  UNL     1       1.945  15.694  20.016  1.00  0.00    -0.356 N 
ATOM     14  H1  UNL     1       2.954  15.744  19.875  1.00  0.00     0.162 HD
BRANCH  13  15
HETATM   15  C9  UNL     1       1.444  15.097  21.186  1.00  0.00     0.210 C 
HETATM   16  S1  UNL     1       1.500  13.446  21.372  1.00  0.00    -0.033 SA
BRANCH  15  17
HETATM   17  O1  UNL     1       0.902  15.880  22.185  1.00  0.00    -0.328 OA
BRANCH  17  18
HETATM   18  C10 UNL     1       1.463  17.130  22.483  1.00  0.00     0.173 C 
HETATM   19  C11 UNL     1       0.419  18.217  22.424  1.00  0.00     0.034 C 
ENDBRANCH  17  18
ENDBRANCH  15  17
ENDBRANCH  13  15
ENDBRANCH   6  13
BRANCH   1  20
HETATM   20  C2  UNL     1      -0.385  16.270  14.370  1.00  0.00    -0.031 C 
HETATM   21  C1  UNL     1      -0.449  17.534  13.909  1.00  0.00     0.007 C 
ENDBRANCH   1  20
TORSDOF 5
ENDMDL
MODEL 4
REMARK VINA RESULT: -6.854549720      2.835      6.057
REMARK  5 active torsions:
REMARK  status: ('A' for Active; 'I' for Inactive)
REMARK    1  A    between atoms: C2_2  and  C3_3 
REMARK    2  A    between atoms: C8_8  and  N1_9 
REMARK    3  A    between atoms: N1_9  and  C9_11 
REMARK    4  A    between atoms: C9_11  and  O1_13 
REMARK    5  A    between atoms: O1_13  and  C10_14 
ROOT
HETATM    1  C3  UNL     1       0.219  16.493  15.355  1.00  0.00     0.016 C 
HETATM    2  C4  UNL     1       0.804  15.285  14.680  1.00  0.00     0.009 C 
HETATM    3  C5  UNL     1       1.057  14.103  15.506  1.00  0.00     0.001 C 
HETATM    4  C6  UNL     1       1.343  14.262  16.960  1.00  0.00     0.007 C 
HETATM    5  C7  UNL     1       1.120  15.655  17.396  1.00  0.00     0.017 C 
HETATM    6  C8  UNL     1       1.190  15.940  18.876  1.00  0.00     0.089 C 
HETATM    7  C12 UNL     1      -0.188  15.775  19.512  1.00  0.00     0.029 C 
HETATM    8  C13 UNL     1      -1.113  16.823  18.922  1.00  0.00    -0.016 C 
HETATM    9  C14 UNL     1      -1.266  18.002  19.885  1.00  0.00     0.010 C 
HETATM   10  C15 UNL     1      -0.657  17.298  17.563  1.00  0.00     0.014 C 
HETATM   11  C16 UNL     1      -0.174  16.127  16.787  1.00  0.00    -0.031 C 
HETATM   12  C17 UNL     1      -1.253  15.114  16.661  1.00  0.00     0.016 C 
ENDROOT
BRANCH   6  13
HETATM   13  N1  UNL     1       2.176  15.195  19.568  1.00  0.00    -0.356 N 
ATOM     14  H1  UNL     1       2.830  14.618  19.038  1.00  0.00     0.162 HD
BRANCH  13  15
HETATM   15  C9  UNL     1       2.274  15.232  20.970  1.00  0.00     0.210 C 
HETATM   16  S1  UNL     1       2.660  16.651  21.744  1.00  0.00    -0.033 SA
BRANCH  15  17
HETATM   17  O1  UNL     1       2.051  14.088  21.709  1.00  0.00    -0.328 OA
BRANCH  17  18
HETATM   18  C10 UNL     1       1.628  12.911  21.075  1.00  0.00     0.173 C 
HETATM   19  C11 UNL     1       1.180  11.886  22.088  1.00  0.00     0.034 C 
ENDBRANCH  17  18
ENDBRANCH  15  17
ENDBRANCH  13  15
ENDBRANCH   6  13
BRANCH   1  20
HETATM   20  C2  UNL     1      -0.935  17.084  14.630  1.00  0.00    -0.031 C 
HETATM   21  C1  UNL     1      -0.726  17.856  13.546  1.00  0.00     0.007 C 
ENDBRANCH   1  20
TORSDOF 5
ENDMDL
MODEL 5
REMARK VINA RESULT: -6.772971244      2.044      4.081
REMARK  5 active torsions:
REMARK  status: ('A' for Active; 'I' for Inactive)
REMARK    1  A    between atoms: C2_2  and  C3_3 
REMARK    2  A    between atoms: C8_8  and  N1_9 
REMARK    3  A    between atoms: N1_9  and  C9_11 
REMARK    4  A    between atoms: C9_11  and  O1_13 
REMARK    5  A    between atoms: O1_13  and  C10_14 
ROOT
HETATM    1  C3  UNL     1      -1.691  17.980  20.469  1.00  0.00     0.016 C 
HETATM    2  C4  UNL     1      -1.017  17.790  21.798  1.00  0.00     0.009 C 
HETATM    3  C5  UNL     1       0.255  17.066  21.815  1.00  0.00     0.001 C 
HETATM    4  C6  UNL     1       0.542  16.046  20.768  1.00  0.00     0.007 C 
HETATM    5  C7  UNL     1      -0.483  16.071  19.706  1.00  0.00     0.017 C 
HETATM    6  C8  UNL     1      -0.239  15.225  18.481  1.00  0.00     0.089 C 
HETATM    7  C12 UNL     1       0.525  16.026  17.429  1.00  0.00     0.029 C 
HETATM    8  C13 UNL     1      -0.353  17.178  16.979  1.00  0.00    -0.016 C 
HETATM    9  C14 UNL     1      -1.024  16.848  15.644  1.00  0.00     0.010 C 
HETATM   10  C15 UNL     1      -1.384  17.559  18.015  1.00  0.00     0.014 C 
HETATM   11  C16 UNL     1      -0.750  17.513  19.357  1.00  0.00    -0.031 C 
HETATM   12  C17 UNL     1       0.417  18.430  19.406  1.00  0.00     0.016 C 
ENDROOT
BRANCH   6  13
HETATM   13  N1  UNL     1       0.388  13.982  18.746  1.00  0.00    -0.356 N 
ATOM     14  H1  UNL     1      -0.092  13.295  19.327  1.00  0.00     0.162 HD
BRANCH  13  15
HETATM   15  C9  UNL     1       1.658  13.675  18.227  1.00  0.00     0.210 C 
HETATM   16  S1  UNL     1       1.797  12.827  16.804  1.00  0.00    -0.033 SA
BRANCH  15  17
HETATM   17  O1  UNL     1       2.795  14.078  18.897  1.00  0.00    -0.328 OA
BRANCH  17  18
HETATM   18  C10 UNL     1       3.190  13.421  20.071  1.00  0.00     0.173 C 
HETATM   19  C11 UNL     1       3.602  14.414  21.130  1.00  0.00     0.034 C 
ENDBRANCH  17  18
ENDBRANCH  15  17
ENDBRANCH  13  15
ENDBRANCH   6  13
BRANCH   1  20
HETATM   20  C2  UNL     1      -2.143  19.373  20.220  1.00  0.00    -0.031 C 
HETATM   21  C1  UNL     1      -3.121  19.908  20.976  1.00  0.00     0.007 C 
ENDBRANCH   1  20
TORSDOF 5
ENDMDL
