MODEL 1
REMARK VINA RESULT: -7.258257967      0.000      0.000
REMARK  5 active torsions:
REMARK  status: ('A' for Active; 'I' for Inactive)
REMARK    1  A    between atoms: C2_2  and  C3_3 
REMARK    2  A    between atoms: C3_3  and  O1_4 
REMARK    3  A    between atoms: O1_4  and  C4_5 
REMARK    4  A    between atoms: C8_10  and  C9_11 
REMARK    5  A    between atoms: C17_19  and  O3_21 
ROOT
HETATM    1  C4  UNL     1      -3.259  20.815  21.416  1.00  0.00     0.294 C 
HETATM    2  O2  UNL     1      -3.134  19.397  21.500  1.00  0.00    -0.343 OA
HETATM    3  C5  UNL     1      -1.884  18.932  21.200  1.00  0.00     0.082 C 
HETATM    4  C6  UNL     1      -1.398  19.334  19.865  1.00  0.00     0.007 C 
HETATM    5  C7  UNL     1      -1.089  18.489  18.885  1.00  0.00    -0.022 C 
HETATM    6  C8  UNL     1      -1.218  17.033  19.079  1.00  0.00     0.015 C 
HETATM    7  C13 UNL     1      -0.881  16.731  20.513  1.00  0.00     0.012 C 
HETATM    8  C14 UNL     1      -1.922  17.426  21.364  1.00  0.00     0.043 C 
HETATM    9  C15 UNL     1      -0.884  19.430  22.261  1.00  0.00     0.045 C 
HETATM   10  C16 UNL     1      -0.916  20.901  22.402  1.00  0.00     0.046 C 
HETATM   11  C17 UNL     1      -2.265  21.528  22.244  1.00  0.00     0.104 C 
HETATM   12  C18 UNL     1      -2.858  21.736  23.630  1.00  0.00     0.051 C 
ENDROOT
BRANCH   1  13
HETATM   13  O1  UNL     1      -4.536  21.019  21.935  1.00  0.00    -0.358 OA
BRANCH  13  14
HETATM   14  C3  UNL     1      -5.529  21.293  21.060  1.00  0.00     0.170 C 
BRANCH  14  15
HETATM   15  C2  UNL     1      -6.307  22.525  21.388  1.00  0.00     0.022 C 
HETATM   16  C1  UNL     1      -5.474  23.755  21.030  1.00  0.00     0.007 C 
ENDBRANCH  14  15
ENDBRANCH  13  14
ENDBRANCH   1  13
BRANCH  11  17
HETATM   17  O3  UNL     1      -2.025  22.806  21.703  1.00  0.00    -0.385 OA
ATOM     18  H3  UNL     1      -1.117  22.874  21.430  1.00  0.00     0.210 HD
ENDBRANCH  11  17
BRANCH   6  19
HETATM   19  C9  UNL     1      -0.396  16.234  18.104  1.00  0.00    -0.044 C 
HETATM   20  C10 UNL     1      -0.863  14.814  17.972  1.00  0.00     0.015 C 
HETATM   21  C11 UNL     1       1.068  16.214  18.475  1.00  0.00     0.015 C 
HETATM   22  C12 UNL     1      -0.499  16.876  16.737  1.00  0.00     0.015 C 
ENDBRANCH   6  19
TORSDOF 5
ENDMDL
MODEL 2
REMARK VINA RESULT: -7.186132565      0.847      1.281
REMARK  5 active torsions:
REMARK  status: ('A' for Active; 'I' for Inactive)
REMARK    1  A    between atoms: C2_2  and  C3_3 
REMARK    2  A    between atoms: C3_3  and  O1_4 
REMARK    3  A    between atoms: O1_4  and  C4_5 
REMARK    4  A    between atoms: C8_10  and  C9_11 
REMARK    5  A    between atoms: C17_19  and  O3_21 
ROOT
HETATM    1  C4  UNL     1      -2.838  20.256  21.724  1.00  0.00     0.294 C 
HETATM    2  O2  UNL     1      -2.789  18.836  21.610  1.00  0.00    -0.343 OA
HETATM    3  C5  UNL     1      -1.598  18.359  21.138  1.00  0.00     0.082 C 
HETATM    4  C6  UNL     1      -1.205  18.914  19.828  1.00  0.00     0.007 C 
HETATM    5  C7  UNL     1      -1.031  18.195  18.722  1.00  0.00    -0.022 C 
HETATM    6  C8  UNL     1      -1.227  16.733  18.737  1.00  0.00     0.015 C 
HETATM    7  C13 UNL     1      -0.786  16.226  20.082  1.00  0.00     0.012 C 
HETATM    8  C14 UNL     1      -1.709  16.848  21.108  1.00  0.00     0.043 C 
HETATM    9  C15 UNL     1      -0.484  18.663  22.158  1.00  0.00     0.045 C 
HETATM   10  C16 UNL     1      -0.419  20.101  22.491  1.00  0.00     0.046 C 
HETATM   11  C17 UNL     1      -1.737  20.806  22.541  1.00  0.00     0.104 C 
HETATM   12  C18 UNL     1      -2.196  20.852  23.992  1.00  0.00     0.051 C 
ENDROOT
BRANCH   1  13
HETATM   13  O1  UNL     1      -4.052  20.448  22.380  1.00  0.00    -0.358 OA
BRANCH  13  14
HETATM   14  C3  UNL     1      -5.027  21.103  21.712  1.00  0.00     0.170 C 
BRANCH  14  15
HETATM   15  C2  UNL     1      -4.535  21.917  20.560  1.00  0.00     0.022 C 
HETATM   16  C1  UNL     1      -4.605  23.398  20.927  1.00  0.00     0.007 C 
ENDBRANCH  14  15
ENDBRANCH  13  14
ENDBRANCH   1  13
BRANCH  11  17
HETATM   17  O3  UNL     1      -1.471  22.132  22.152  1.00  0.00    -0.385 OA
ATOM     18  H3  UNL     1      -2.161  22.705  22.467  1.00  0.00     0.210 HD
ENDBRANCH  11  17
BRANCH   6  19
HETATM   19  C9  UNL     1      -0.539  16.036  17.595  1.00  0.00    -0.044 C 
HETATM   20  C10 UNL     1      -0.599  16.814  16.314  1.00  0.00     0.015 C 
HETATM   21  C11 UNL     1      -1.114  14.662  17.338  1.00  0.00     0.015 C 
HETATM   22  C12 UNL     1       0.921  15.847  17.945  1.00  0.00     0.015 C 
ENDBRANCH   6  19
TORSDOF 5
ENDMDL
MODEL 3
REMARK VINA RESULT: -7.166014016      2.939      7.044
REMARK  5 active torsions:
REMARK  status: ('A' for Active; 'I' for Inactive)
REMARK    1  A    between atoms: C2_2  and  C3_3 
REMARK    2  A    between atoms: C3_3  and  O1_4 
REMARK    3  A    between atoms: O1_4  and  C4_5 
REMARK    4  A    between atoms: C8_10  and  C9_11 
REMARK    5  A    between atoms: C17_19  and  O3_21 
ROOT
HETATM    1  C4  UNL     1      -0.317  14.945  18.385  1.00  0.00     0.294 C 
HETATM    2  O2  UNL     1      -0.525  16.344  18.206  1.00  0.00    -0.343 OA
HETATM    3  C5  UNL     1      -0.221  17.095  19.307  1.00  0.00     0.082 C 
HETATM    4  C6  UNL     1      -0.954  16.697  20.526  1.00  0.00     0.007 C 
HETATM    5  C7  UNL     1      -1.792  17.484  21.196  1.00  0.00    -0.022 C 
HETATM    6  C8  UNL     1      -2.054  18.863  20.743  1.00  0.00     0.015 C 
HETATM    7  C13 UNL     1      -0.781  19.398  20.148  1.00  0.00     0.012 C 
HETATM    8  C14 UNL     1      -0.471  18.543  18.938  1.00  0.00     0.043 C 
HETATM    9  C15 UNL     1       1.291  17.004  19.588  1.00  0.00     0.045 C 
HETATM   10  C16 UNL     1       1.743  15.603  19.721  1.00  0.00     0.046 C 
HETATM   11  C17 UNL     1       1.054  14.621  18.829  1.00  0.00     0.104 C 
HETATM   12  C18 UNL     1       1.920  14.411  17.594  1.00  0.00     0.051 C 
ENDROOT
BRANCH   1  13
HETATM   13  O1  UNL     1      -0.520  14.460  17.094  1.00  0.00    -0.358 OA
BRANCH  13  14
HETATM   14  C3  UNL     1      -1.221  15.236  16.238  1.00  0.00     0.170 C 
BRANCH  14  15
HETATM   15  C2  UNL     1      -0.498  15.554  14.970  1.00  0.00     0.022 C 
HETATM   16  C1  UNL     1      -0.574  17.057  14.712  1.00  0.00     0.007 C 
ENDBRANCH  14  15
ENDBRANCH  13  14
ENDBRANCH   1  13
BRANCH  11  17
HETATM   17  O3  UNL     1       1.049  13.405  19.538  1.00  0.00    -0.385 OA
ATOM     18  H3  UNL     1       1.674  13.448  20.253  1.00  0.00     0.210 HD
ENDBRANCH  11  17
BRANCH   6  19
HETATM   19  C9  UNL     1      -2.606  19.744  21.831  1.00  0.00    -0.044 C 
HETATM   20  C10 UNL     1      -2.894  18.997  23.099  1.00  0.00     0.015 C 
HETATM   21  C11 UNL     1      -3.873  20.449  21.403  1.00  0.00     0.015 C 
HETATM   22  C12 UNL     1      -1.589  20.817  22.155  1.00  0.00     0.015 C 
ENDBRANCH   6  19
TORSDOF 5
ENDMDL
MODEL 4
REMARK VINA RESULT: -7.165844593      2.828      7.131
REMARK  5 active torsions:
REMARK  status: ('A' for Active; 'I' for Inactive)
REMARK    1  A    between atoms: C2_2  and  C3_3 
REMARK    2  A    between atoms: C3_3  and  O1_4 
REMARK    3  A    between atoms: O1_4  and  C4_5 
REMARK    4  A    between atoms: C8_10  and  C9_11 
REMARK    5  A    between atoms: C17_19  and  O3_21 
ROOT
HETATM    1  C4  UNL     1       0.985  17.502  21.074  1.00  0.00     0.294 C 
HETATM    2  O2  UNL     1      -0.318  17.351  21.633  1.00  0.00    -0.343 OA
HETATM    3  C5  UNL     1      -1.035  18.514  21.688  1.00  0.00     0.082 C 
HETATM    4  C6  UNL     1      -0.365  19.598  22.432  1.00  0.00     0.007 C 
HETATM    5  C7  UNL     1      -0.846  20.172  23.532  1.00  0.00    -0.022 C 
HETATM    6  C8  UNL     1      -2.137  19.742  24.100  1.00  0.00     0.015 C 
HETATM    7  C13 UNL     1      -3.035  19.356  22.958  1.00  0.00     0.012 C 
HETATM    8  C14 UNL     1      -2.389  18.170  22.275  1.00  0.00     0.043 C 
HETATM    9  C15 UNL     1      -1.327  19.004  20.257  1.00  0.00     0.045 C 
HETATM   10  C16 UNL     1      -0.091  19.145  19.459  1.00  0.00     0.046 C 
HETATM   11  C17 UNL     1       0.967  18.124  19.735  1.00  0.00     0.104 C 
HETATM   12  C18 UNL     1       0.843  17.019  18.695  1.00  0.00     0.051 C 
ENDROOT
BRANCH   1  13
HETATM   13  O1  UNL     1       1.405  16.177  20.971  1.00  0.00    -0.358 OA
BRANCH  13  14
HETATM   14  C3  UNL     1       0.727  15.250  21.683  1.00  0.00     0.170 C 
BRANCH  14  15
HETATM   15  C2  UNL     1       1.285  13.868  21.572  1.00  0.00     0.022 C 
HETATM   16  C1  UNL     1       2.710  13.945  21.027  1.00  0.00     0.007 C 
ENDBRANCH  14  15
ENDBRANCH  13  14
ENDBRANCH   1  13
BRANCH  11  17
HETATM   17  O3  UNL     1       2.191  18.777  19.497  1.00  0.00    -0.385 OA
ATOM     18  H3  UNL     1       2.777  18.199  19.021  1.00  0.00     0.210 HD
ENDBRANCH  11  17
BRANCH   6  19
HETATM   19  C9  UNL     1      -2.754  20.773  25.007  1.00  0.00    -0.044 C 
HETATM   20  C10 UNL     1      -3.532  21.816  24.261  1.00  0.00     0.015 C 
HETATM   21  C11 UNL     1      -1.720  21.476  25.856  1.00  0.00     0.015 C 
HETATM   22  C12 UNL     1      -3.710  20.082  25.954  1.00  0.00     0.015 C 
ENDBRANCH   6  19
TORSDOF 5
ENDMDL
MODEL 5
REMARK VINA RESULT: -7.050186768      3.288      7.156
REMARK  5 active torsions:
REMARK  status: ('A' for Active; 'I' for Inactive)
REMARK    1  A    between atoms: C2_2  and  C3_3 
REMARK    2  A    between atoms: C3_3  and  O1_4 
REMARK    3  A    between atoms: O1_4  and  C4_5 
REMARK    4  A    between atoms: C8_10  and  C9_11 
REMARK    5  A    between atoms: C17_19  and  O3_21 
ROOT
HETATM    1  C4  UNL     1       0.671  14.658  18.832  1.00  0.00     0.294 C 
HETATM    2  O2  UNL     1       0.748  16.081  18.769  1.00  0.00    -0.343 OA
HETATM    3  C5  UNL     1       0.649  16.695  19.987  1.00  0.00     0.082 C 
HETATM    4  C6  UNL     1      -0.580  16.358  20.732  1.00  0.00     0.007 C 
HETATM    5  C7  UNL     1      -1.511  17.236  21.095  1.00  0.00    -0.022 C 
HETATM    6  C8  UNL     1      -1.366  18.665  20.761  1.00  0.00     0.015 C 
HETATM    7  C13 UNL     1       0.097  19.003  20.818  1.00  0.00     0.012 C 
HETATM    8  C14 UNL     1       0.778  18.185  19.742  1.00  0.00     0.043 C 
HETATM    9  C15 UNL     1       1.869  16.320  20.850  1.00  0.00     0.045 C 
HETATM   10  C16 UNL     1       2.029  14.856  20.972  1.00  0.00     0.046 C 
HETATM   11  C17 UNL     1       1.663  14.069  19.753  1.00  0.00     0.104 C 
HETATM   12  C18 UNL     1       2.936  13.788  18.969  1.00  0.00     0.051 C 
ENDROOT
BRANCH   1  13
HETATM   13  O1  UNL     1       0.975  14.299  17.520  1.00  0.00    -0.358 OA
BRANCH  13  14
HETATM   14  C3  UNL     1       0.123  14.697  16.550  1.00  0.00     0.170 C 
BRANCH  14  15
HETATM   15  C2  UNL     1      -1.315  14.440  16.859  1.00  0.00     0.022 C 
HETATM   16  C1  UNL     1      -2.148  15.635  16.397  1.00  0.00     0.007 C 
ENDBRANCH  14  15
ENDBRANCH  13  14
ENDBRANCH   1  13
BRANCH  11  17
HETATM   17  O3  UNL     1       1.192  12.831  20.231  1.00  0.00    -0.385 OA
ATOM     18  H3  UNL     1       1.645  12.604  21.035  1.00  0.00     0.210 HD
ENDBRANCH  11  17
BRANCH   6  19
HETATM   19  C9  UNL     1      -2.207  19.561  21.631  1.00  0.00    -0.044 C 
HETATM   20  C10 UNL     1      -3.376  20.154  20.901  1.00  0.00     0.015 C 
HETATM   21  C11 UNL     1      -1.403  20.692  22.229  1.00  0.00     0.015 C 
HETATM   22  C12 UNL     1      -2.756  18.748  22.784  1.00  0.00     0.015 C 
ENDBRANCH   6  19
TORSDOF 5
ENDMDL
