MODEL 1
REMARK VINA RESULT: -7.370771919      0.000      0.000
REMARK  4 active torsions:
REMARK  status: ('A' for Active; 'I' for Inactive)
REMARK    1  A    between atoms: C2_2  and  C5_5 
REMARK    2  A    between atoms: C7_7  and  C8_8 
REMARK    3  A    between atoms: C8_8  and  C9_10 
REMARK    4  A    between atoms: C13_14  and  C15_16 
ROOT
HETATM    1  C8  UNL     1      -1.808  17.976  20.726  1.00  0.00     0.166 C 
HETATM    2  O1  UNL     1      -2.007  17.430  21.835  1.00  0.00    -0.292 OA
ENDROOT
BRANCH   1   3
HETATM    3  C7  UNL     1      -0.864  17.352  19.732  1.00  0.00     0.018 A 
HETATM    4  C6  UNL     1      -1.259  17.005  18.480  1.00  0.00     0.031 A 
HETATM    5  C5  UNL     1      -0.316  16.455  17.658  1.00  0.00    -0.009 A 
HETATM    6  S1  UNL     1       1.083  16.428  18.619  1.00  0.00    -0.105 SA
HETATM    7  C16 UNL     1       0.448  17.114  20.043  1.00  0.00     0.065 A 
BRANCH   5   8
HETATM    8  C2  UNL     1      -0.514  15.989  16.228  1.00  0.00    -0.018 C 
HETATM    9  C1  UNL     1      -0.758  17.152  15.326  1.00  0.00     0.020 C 
HETATM   10  C3  UNL     1      -1.667  15.004  16.236  1.00  0.00     0.020 C 
HETATM   11  C4  UNL     1       0.731  15.187  15.853  1.00  0.00     0.020 C 
ENDBRANCH   5   8
ENDBRANCH   1   3
BRANCH   1  12
HETATM   12  C9  UNL     1      -2.504  19.228  20.407  1.00  0.00     0.089 A 
HETATM   13  C10 UNL     1      -3.117  20.135  21.393  1.00  0.00    -0.018 A 
HETATM   14  C11 UNL     1      -3.070  19.812  22.859  1.00  0.00     0.017 C 
HETATM   15  C12 UNL     1      -4.454  20.809  21.008  1.00  0.00     0.017 C 
HETATM   16  C13 UNL     1      -1.917  20.555  20.635  1.00  0.00     0.064 A 
HETATM   17  C14 UNL     1      -2.128  21.554  19.478  1.00  0.00     0.028 C 
BRANCH  16  18
HETATM   18  C15 UNL     1      -0.677  20.824  21.358  1.00  0.00     0.183 C 
HETATM   19  O2  UNL     1      -0.128  21.981  21.292  1.00  0.00    -0.647 OA
HETATM   20  O3  UNL     1       0.019  19.916  22.160  1.00  0.00    -0.647 OA
ENDBRANCH  16  18
ENDBRANCH   1  12
TORSDOF 4
ENDMDL
MODEL 2
REMARK VINA RESULT: -7.105934702      2.484      6.410
REMARK  4 active torsions:
REMARK  status: ('A' for Active; 'I' for Inactive)
REMARK    1  A    between atoms: C2_2  and  C5_5 
REMARK    2  A    between atoms: C7_7  and  C8_8 
REMARK    3  A    between atoms: C8_8  and  C9_10 
REMARK    4  A    between atoms: C13_14  and  C15_16 
ROOT
HETATM    1  C8  UNL     1      -0.124  17.292  18.142  1.00  0.00     0.166 C 
HETATM    2  O1  UNL     1       1.015  16.790  18.275  1.00  0.00    -0.292 OA
ENDROOT
BRANCH   1   3
HETATM    3  C7  UNL     1      -0.860  17.832  19.341  1.00  0.00     0.018 A 
HETATM    4  C6  UNL     1      -1.403  19.076  19.356  1.00  0.00     0.031 A 
HETATM    5  C5  UNL     1      -2.055  19.459  20.493  1.00  0.00    -0.009 A 
HETATM    6  S1  UNL     1      -1.909  18.108  21.510  1.00  0.00    -0.105 SA
HETATM    7  C16 UNL     1      -1.025  17.084  20.476  1.00  0.00     0.065 A 
BRANCH   5   8
HETATM    8  C2  UNL     1      -2.737  20.790  20.748  1.00  0.00    -0.018 C 
HETATM    9  C1  UNL     1      -4.147  20.581  21.191  1.00  0.00     0.020 C 
HETATM   10  C3  UNL     1      -2.640  21.593  19.466  1.00  0.00     0.020 C 
HETATM   11  C4  UNL     1      -1.885  21.528  21.779  1.00  0.00     0.020 C 
ENDBRANCH   5   8
ENDBRANCH   1   3
BRANCH   1  12
HETATM   12  C9  UNL     1      -0.734  17.348  16.808  1.00  0.00     0.089 A 
HETATM   13  C10 UNL     1      -0.335  16.520  15.656  1.00  0.00    -0.018 A 
HETATM   14  C11 UNL     1       0.780  15.523  15.783  1.00  0.00     0.017 C 
HETATM   15  C12 UNL     1      -0.336  17.190  14.263  1.00  0.00     0.017 C 
HETATM   16  C13 UNL     1      -1.653  16.321  16.301  1.00  0.00     0.064 A 
HETATM   17  C14 UNL     1      -2.889  16.878  15.565  1.00  0.00     0.028 C 
BRANCH  16  18
HETATM   18  C15 UNL     1      -1.943  15.044  16.947  1.00  0.00     0.183 C 
HETATM   19  O2  UNL     1      -2.813  14.247  16.444  1.00  0.00    -0.647 OA
HETATM   20  O3  UNL     1      -1.347  14.561  18.115  1.00  0.00    -0.647 OA
ENDBRANCH  16  18
ENDBRANCH   1  12
TORSDOF 4
ENDMDL
MODEL 3
REMARK VINA RESULT: -7.095284267      3.441      7.554
REMARK  4 active torsions:
REMARK  status: ('A' for Active; 'I' for Inactive)
REMARK    1  A    between atoms: C2_2  and  C5_5 
REMARK    2  A    between atoms: C7_7  and  C8_8 
REMARK    3  A    between atoms: C8_8  and  C9_10 
REMARK    4  A    between atoms: C13_14  and  C15_16 
ROOT
HETATM    1  C8  UNL     1      -0.390  19.833  22.832  1.00  0.00     0.166 C 
HETATM    2  O1  UNL     1       0.326  19.230  23.665  1.00  0.00    -0.292 OA
ENDROOT
BRANCH   1   3
HETATM    3  C7  UNL     1      -1.374  20.876  23.292  1.00  0.00     0.018 A 
HETATM    4  C6  UNL     1      -1.587  21.139  24.607  1.00  0.00     0.031 A 
HETATM    5  C5  UNL     1      -2.496  22.112  24.911  1.00  0.00    -0.009 A 
HETATM    6  S1  UNL     1      -3.033  22.642  23.391  1.00  0.00    -0.105 SA
HETATM    7  C16 UNL     1      -2.097  21.621  22.400  1.00  0.00     0.065 A 
BRANCH   5   8
HETATM    8  C2  UNL     1      -2.902  22.580  26.295  1.00  0.00    -0.018 C 
HETATM    9  C1  UNL     1      -4.005  21.731  26.834  1.00  0.00     0.020 C 
HETATM   10  C3  UNL     1      -3.294  24.039  26.176  1.00  0.00     0.020 C 
HETATM   11  C4  UNL     1      -1.641  22.545  27.156  1.00  0.00     0.020 C 
ENDBRANCH   5   8
ENDBRANCH   1   3
BRANCH   1  12
HETATM   12  C9  UNL     1      -0.259  19.510  21.407  1.00  0.00     0.089 A 
HETATM   13  C10 UNL     1       0.396  18.307  20.864  1.00  0.00    -0.018 A 
HETATM   14  C11 UNL     1       1.005  17.290  21.784  1.00  0.00     0.017 C 
HETATM   15  C12 UNL     1       1.230  18.470  19.573  1.00  0.00     0.017 C 
HETATM   16  C13 UNL     1      -1.069  18.484  20.738  1.00  0.00     0.064 A 
HETATM   17  C14 UNL     1      -1.612  18.900  19.355  1.00  0.00     0.028 C 
BRANCH  16  18
HETATM   18  C15 UNL     1      -1.960  17.535  21.401  1.00  0.00     0.183 C 
HETATM   19  O2  UNL     1      -2.916  17.957  22.145  1.00  0.00    -0.647 OA
HETATM   20  O3  UNL     1      -1.889  16.143  21.312  1.00  0.00    -0.647 OA
ENDBRANCH  16  18
ENDBRANCH   1  12
TORSDOF 4
ENDMDL
MODEL 4
REMARK VINA RESULT: -6.964913562      1.855      3.256
REMARK  4 active torsions:
REMARK  status: ('A' for Active; 'I' for Inactive)
REMARK    1  A    between atoms: C2_2  and  C5_5 
REMARK    2  A    between atoms: C7_7  and  C8_8 
REMARK    3  A    between atoms: C8_8  and  C9_10 
REMARK    4  A    between atoms: C13_14  and  C15_16 
ROOT
HETATM    1  C8  UNL     1      -0.641  18.992  19.750  1.00  0.00     0.166 C 
HETATM    2  O1  UNL     1      -1.367  19.915  19.314  1.00  0.00    -0.292 OA
ENDROOT
BRANCH   1   3
HETATM    3  C7  UNL     1      -0.275  17.831  18.863  1.00  0.00     0.018 A 
HETATM    4  C6  UNL     1      -1.168  17.260  18.016  1.00  0.00     0.031 A 
HETATM    5  C5  UNL     1      -0.726  16.218  17.251  1.00  0.00    -0.009 A 
HETATM    6  S1  UNL     1       0.899  16.050  17.710  1.00  0.00    -0.105 SA
HETATM    7  C16 UNL     1       0.988  17.301  18.861  1.00  0.00     0.065 A 
BRANCH   5   8
HETATM    8  C2  UNL     1      -1.530  15.423  16.240  1.00  0.00    -0.018 C 
HETATM    9  C1  UNL     1      -2.172  14.244  16.890  1.00  0.00     0.020 C 
HETATM   10  C3  UNL     1      -0.582  15.031  15.124  1.00  0.00     0.020 C 
HETATM   11  C4  UNL     1      -2.537  16.393  15.623  1.00  0.00     0.020 C 
ENDBRANCH   5   8
ENDBRANCH   1   3
BRANCH   1  12
HETATM   12  C9  UNL     1      -0.153  19.055  21.133  1.00  0.00     0.089 A 
HETATM   13  C10 UNL     1      -1.005  19.078  22.335  1.00  0.00    -0.018 A 
HETATM   14  C11 UNL     1      -2.501  19.044  22.210  1.00  0.00     0.017 C 
HETATM   15  C12 UNL     1      -0.558  19.980  23.508  1.00  0.00     0.017 C 
HETATM   16  C13 UNL     1      -0.158  17.900  22.040  1.00  0.00     0.064 A 
HETATM   17  C14 UNL     1       1.132  17.734  22.870  1.00  0.00     0.028 C 
BRANCH  16  18
HETATM   18  C15 UNL     1      -0.797  16.613  21.776  1.00  0.00     0.183 C 
HETATM   19  O2  UNL     1      -0.113  15.529  21.826  1.00  0.00    -0.647 OA
HETATM   20  O3  UNL     1      -2.143  16.414  21.461  1.00  0.00    -0.647 OA
ENDBRANCH  16  18
ENDBRANCH   1  12
TORSDOF 4
ENDMDL
MODEL 5
REMARK VINA RESULT: -6.949023918      0.992      1.622
REMARK  4 active torsions:
REMARK  status: ('A' for Active; 'I' for Inactive)
REMARK    1  A    between atoms: C2_2  and  C5_5 
REMARK    2  A    between atoms: C7_7  and  C8_8 
REMARK    3  A    between atoms: C8_8  and  C9_10 
REMARK    4  A    between atoms: C13_14  and  C15_16 
ROOT
HETATM    1  C8  UNL     1      -1.726  18.436  20.438  1.00  0.00     0.166 C 
HETATM    2  O1  UNL     1      -2.482  17.886  21.272  1.00  0.00    -0.292 OA
ENDROOT
BRANCH   1   3
HETATM    3  C7  UNL     1      -0.845  17.600  19.547  1.00  0.00     0.018 A 
HETATM    4  C6  UNL     1      -1.242  17.194  18.314  1.00  0.00     0.031 A 
HETATM    5  C5  UNL     1      -0.358  16.447  17.588  1.00  0.00    -0.009 A 
HETATM    6  S1  UNL     1       0.991  16.322  18.610  1.00  0.00    -0.105 SA
HETATM    7  C16 UNL     1       0.411  17.217  19.938  1.00  0.00     0.065 A 
BRANCH   5   8
HETATM    8  C2  UNL     1      -0.571  15.881  16.197  1.00  0.00    -0.018 C 
HETATM    9  C1  UNL     1       0.642  15.144  15.739  1.00  0.00     0.020 C 
HETATM   10  C3  UNL     1      -0.925  17.044  15.291  1.00  0.00     0.020 C 
HETATM   11  C4  UNL     1      -1.818  15.002  16.269  1.00  0.00     0.020 C 
ENDBRANCH   5   8
ENDBRANCH   1   3
BRANCH   1  12
HETATM   12  C9  UNL     1      -1.709  19.900  20.340  1.00  0.00     0.089 A 
HETATM   13  C10 UNL     1      -2.673  20.807  20.989  1.00  0.00    -0.018 A 
HETATM   14  C11 UNL     1      -3.792  20.258  21.826  1.00  0.00     0.017 C 
HETATM   15  C12 UNL     1      -3.123  22.054  20.194  1.00  0.00     0.017 C 
HETATM   16  C13 UNL     1      -1.261  20.773  21.433  1.00  0.00     0.064 A 
HETATM   17  C14 UNL     1      -0.354  21.940  20.987  1.00  0.00     0.028 C 
BRANCH  16  18
HETATM   18  C15 UNL     1      -0.954  20.344  22.795  1.00  0.00     0.183 C 
HETATM   19  O2  UNL     1      -0.139  19.375  22.999  1.00  0.00    -0.647 OA
HETATM   20  O3  UNL     1      -1.472  20.901  23.967  1.00  0.00    -0.647 OA
ENDBRANCH  16  18
ENDBRANCH   1  12
TORSDOF 4
ENDMDL
