MODEL 1
REMARK VINA RESULT: -5.773355362      0.000      0.000
REMARK  9 active torsions:
REMARK  status: ('A' for Active; 'I' for Inactive)
REMARK    1  A    between atoms: O1_2  and  C2_3 
REMARK    2  A    between atoms: C2_3  and  C3_4 
REMARK    3  A    between atoms: C7_8  and  O2_9 
REMARK    4  A    between atoms: C8_11  and  O3_12 
REMARK    5  A    between atoms: C23_29  and  C24_30 
REMARK    6  A    between atoms: C24_30  and  C25_31 
REMARK    7  A    between atoms: C25_31  and  C26_32 
REMARK    8  A    between atoms: C26_32  and  C28_34 
REMARK    9  A    between atoms: C28_34  and  C29_35 
ROOT
HETATM    1  C3  UNL     1       9.119  26.086   3.074  1.00  0.00     0.016 C 
HETATM    2  C4  UNL     1       7.744  25.495   2.830  1.00  0.00    -0.070 C 
HETATM    3  C5  UNL     1       7.249  25.504   1.385  1.00  0.00     0.044 C 
HETATM    4  C6  UNL     1       6.633  25.783   3.739  1.00  0.00     0.039 C 
HETATM    5  C7  UNL     1       5.814  26.984   3.742  1.00  0.00     0.082 C 
HETATM    6  C8  UNL     1       6.018  27.720   5.043  1.00  0.00     0.129 C 
HETATM    7  C9  UNL     1       5.399  29.036   5.143  1.00  0.00     0.016 C 
HETATM    8  C10 UNL     1       6.023  29.680   6.123  1.00  0.00    -0.003 C 
HETATM    9  C11 UNL     1       7.100  28.800   6.719  1.00  0.00     0.070 C 
HETATM   10  C12 UNL     1       6.451  28.129   7.927  1.00  0.00     0.036 C 
HETATM   11  C13 UNL     1       8.228  29.512   7.204  1.00  0.00     0.073 C 
HETATM   12  N1  UNL     1       9.153  30.090   7.579  1.00  0.00    -0.196 NA
HETATM   13  C14 UNL     1       7.364  27.781   5.597  1.00  0.00     0.061 C 
HETATM   14  C15 UNL     1       8.549  28.057   4.735  1.00  0.00    -0.004 C 
HETATM   15  C16 UNL     1       8.553  29.315   3.975  1.00  0.00     0.011 C 
HETATM   16  C17 UNL     1       9.344  26.890   4.276  1.00  0.00     0.005 C 
HETATM   17  C18 UNL     1      10.802  27.313   4.340  1.00  0.00     0.007 C 
HETATM   18  C19 UNL     1      11.886  26.492   3.861  1.00  0.00     0.010 C 
HETATM   19  C20 UNL     1      11.567  25.289   3.042  1.00  0.00    -0.040 C 
HETATM   20  C21 UNL     1      12.506  24.243   3.693  1.00  0.00     0.015 C 
HETATM   21  C22 UNL     1      12.089  25.243   1.641  1.00  0.00     0.015 C 
HETATM   22  C23 UNL     1      10.099  24.914   3.193  1.00  0.00     0.031 C 
ENDROOT
BRANCH   6  23
HETATM   23  O3  UNL     1       5.287  26.943   6.005  1.00  0.00    -0.378 OA
ATOM     24  H3  UNL     1       5.731  27.114   6.827  1.00  0.00     0.211 HD
ENDBRANCH   6  23
BRANCH   5  25
HETATM   25  O2  UNL     1       5.742  27.780   2.627  1.00  0.00    -0.361 OA
ATOM     26  H2  UNL     1       4.907  28.127   2.337  1.00  0.00     0.217 HD
ENDBRANCH   5  25
BRANCH   1  27
HETATM   27  C2  UNL     1       9.278  26.895   1.824  1.00  0.00     0.182 C 
BRANCH  27  28
HETATM   28  O1  UNL     1       8.444  27.894   1.481  1.00  0.00    -0.395 OA
HETATM   29  C1  UNL     1       8.962  28.431   0.277  1.00  0.00     0.201 C 
ENDBRANCH  27  28
ENDBRANCH   1  27
BRANCH  22  30
HETATM   30  C24 UNL     1      10.051  24.029   4.325  1.00  0.00    -0.020 C 
BRANCH  30  31
HETATM   31  C25 UNL     1       9.852  24.252   5.720  1.00  0.00    -0.001 C 
BRANCH  31  32
HETATM   32  C26 UNL     1      10.787  24.363   6.698  1.00  0.00    -0.078 C 
HETATM   33  C27 UNL     1      11.627  23.151   6.922  1.00  0.00     0.044 C 
BRANCH  32  34
HETATM   34  C28 UNL     1      11.002  25.552   7.507  1.00  0.00     0.103 C 
BRANCH  34  35
HETATM   35  C29 UNL     1       9.705  26.188   7.836  1.00  0.00     0.235 C 
HETATM   36  O4  UNL     1       8.985  25.802   8.737  1.00  0.00    -0.307 OA
ENDBRANCH  34  35
ENDBRANCH  32  34
ENDBRANCH  31  32
ENDBRANCH  30  31
ENDBRANCH  22  30
TORSDOF 9
ENDMDL
MODEL 2
REMARK VINA RESULT: -5.334137400      2.300      5.505
REMARK  9 active torsions:
REMARK  status: ('A' for Active; 'I' for Inactive)
REMARK    1  A    between atoms: O1_2  and  C2_3 
REMARK    2  A    between atoms: C2_3  and  C3_4 
REMARK    3  A    between atoms: C7_8  and  O2_9 
REMARK    4  A    between atoms: C8_11  and  O3_12 
REMARK    5  A    between atoms: C23_29  and  C24_30 
REMARK    6  A    between atoms: C24_30  and  C25_31 
REMARK    7  A    between atoms: C25_31  and  C26_32 
REMARK    8  A    between atoms: C26_32  and  C28_34 
REMARK    9  A    between atoms: C28_34  and  C29_35 
ROOT
HETATM    1  C3  UNL     1       7.220  26.989   3.551  1.00  0.00     0.016 C 
HETATM    2  C4  UNL     1       6.855  27.632   4.874  1.00  0.00    -0.070 C 
HETATM    3  C5  UNL     1       6.638  29.143   4.857  1.00  0.00     0.044 C 
HETATM    4  C6  UNL     1       7.536  27.241   6.110  1.00  0.00     0.039 C 
HETATM    5  C7  UNL     1       8.839  27.705   6.558  1.00  0.00     0.082 C 
HETATM    6  C8  UNL     1       9.791  26.537   6.608  1.00  0.00     0.129 C 
HETATM    7  C9  UNL     1      11.189  26.856   6.876  1.00  0.00     0.016 C 
HETATM    8  C10 UNL     1      11.906  25.817   6.462  1.00  0.00    -0.003 C 
HETATM    9  C11 UNL     1      10.993  24.751   5.892  1.00  0.00     0.070 C 
HETATM   10  C12 UNL     1      10.736  23.782   7.044  1.00  0.00     0.036 C 
HETATM   11  C13 UNL     1      11.573  23.993   4.842  1.00  0.00     0.073 C 
HETATM   12  N1  UNL     1      12.038  23.392   3.974  1.00  0.00    -0.196 NA
HETATM   13  C14 UNL     1       9.723  25.544   5.544  1.00  0.00     0.061 C 
HETATM   14  C15 UNL     1       9.579  25.945   4.115  1.00  0.00    -0.004 C 
HETATM   15  C16 UNL     1      10.616  26.819   3.550  1.00  0.00     0.011 C 
HETATM   16  C17 UNL     1       8.212  25.913   3.532  1.00  0.00     0.005 C 
HETATM   17  C18 UNL     1       8.362  25.382   2.118  1.00  0.00     0.007 C 
HETATM   18  C19 UNL     1       7.270  25.311   1.179  1.00  0.00     0.010 C 
HETATM   19  C20 UNL     1       5.996  26.013   1.506  1.00  0.00    -0.040 C 
HETATM   20  C21 UNL     1       4.964  24.925   1.122  1.00  0.00     0.015 C 
HETATM   21  C22 UNL     1       5.549  27.105   0.588  1.00  0.00     0.015 C 
HETATM   22  C23 UNL     1       5.943  26.357   2.989  1.00  0.00     0.031 C 
ENDROOT
BRANCH   6  23
HETATM   23  O3  UNL     1       9.394  25.810   7.781  1.00  0.00    -0.378 OA
ATOM     24  H3  UNL     1      10.017  26.081   8.445  1.00  0.00     0.211 HD
ENDBRANCH   6  23
BRANCH   5  25
HETATM   25  O2  UNL     1       9.370  28.870   6.063  1.00  0.00    -0.361 OA
ATOM     26  H2  UNL     1      10.305  29.031   6.113  1.00  0.00     0.217 HD
ENDBRANCH   5  25
BRANCH   1  27
HETATM   27  C2  UNL     1       7.692  28.194   2.798  1.00  0.00     0.182 C 
BRANCH  27  28
HETATM   28  O1  UNL     1       8.958  28.345   2.368  1.00  0.00    -0.395 OA
HETATM   29  C1  UNL     1       8.860  28.661   0.990  1.00  0.00     0.201 C 
ENDBRANCH  27  28
ENDBRANCH   1  27
BRANCH  22  30
HETATM   30  C24 UNL     1       5.352  25.209   3.620  1.00  0.00    -0.020 C 
BRANCH  30  31
HETATM   31  C25 UNL     1       4.098  24.999   4.270  1.00  0.00    -0.001 C 
BRANCH  31  32
HETATM   32  C26 UNL     1       3.108  25.900   4.501  1.00  0.00    -0.078 C 
HETATM   33  C27 UNL     1       2.400  26.398   3.286  1.00  0.00     0.044 C 
BRANCH  32  34
HETATM   34  C28 UNL     1       2.720  26.385   5.815  1.00  0.00     0.103 C 
BRANCH  34  35
HETATM   35  C29 UNL     1       3.533  27.566   6.184  1.00  0.00     0.235 C 
HETATM   36  O4  UNL     1       4.193  27.628   7.204  1.00  0.00    -0.307 OA
ENDBRANCH  34  35
ENDBRANCH  32  34
ENDBRANCH  31  32
ENDBRANCH  30  31
ENDBRANCH  22  30
TORSDOF 9
ENDMDL
MODEL 3
REMARK VINA RESULT: -5.303968710      3.905      6.139
REMARK  9 active torsions:
REMARK  status: ('A' for Active; 'I' for Inactive)
REMARK    1  A    between atoms: O1_2  and  C2_3 
REMARK    2  A    between atoms: C2_3  and  C3_4 
REMARK    3  A    between atoms: C7_8  and  O2_9 
REMARK    4  A    between atoms: C8_11  and  O3_12 
REMARK    5  A    between atoms: C23_29  and  C24_30 
REMARK    6  A    between atoms: C24_30  and  C25_31 
REMARK    7  A    between atoms: C25_31  and  C26_32 
REMARK    8  A    between atoms: C26_32  and  C28_34 
REMARK    9  A    between atoms: C28_34  and  C29_35 
ROOT
HETATM    1  C3  UNL     1       5.265  26.552   3.258  1.00  0.00     0.016 C 
HETATM    2  C4  UNL     1       4.475  27.264   4.338  1.00  0.00    -0.070 C 
HETATM    3  C5  UNL     1       3.976  26.401   5.495  1.00  0.00     0.044 C 
HETATM    4  C6  UNL     1       3.462  28.263   3.990  1.00  0.00     0.039 C 
HETATM    5  C7  UNL     1       2.101  27.993   3.557  1.00  0.00     0.082 C 
HETATM    6  C8  UNL     1       1.923  28.489   2.144  1.00  0.00     0.129 C 
HETATM    7  C9  UNL     1       0.664  28.145   1.494  1.00  0.00     0.016 C 
HETATM    8  C10 UNL     1       0.859  28.271   0.186  1.00  0.00    -0.003 C 
HETATM    9  C11 UNL     1       2.283  28.709  -0.085  1.00  0.00     0.070 C 
HETATM   10  C12 UNL     1       2.220  30.230  -0.213  1.00  0.00     0.036 C 
HETATM   11  C13 UNL     1       2.818  28.219  -1.305  1.00  0.00     0.073 C 
HETATM   12  N1  UNL     1       3.258  27.802  -2.286  1.00  0.00    -0.196 NA
HETATM   13  C14 UNL     1       3.016  28.294   1.201  1.00  0.00     0.061 C 
HETATM   14  C15 UNL     1       3.765  27.006   1.134  1.00  0.00    -0.004 C 
HETATM   15  C16 UNL     1       2.992  25.788   0.848  1.00  0.00     0.011 C 
HETATM   16  C17 UNL     1       5.058  26.930   1.860  1.00  0.00     0.005 C 
HETATM   17  C18 UNL     1       6.002  26.137   0.973  1.00  0.00     0.007 C 
HETATM   18  C19 UNL     1       7.328  25.744   1.379  1.00  0.00     0.010 C 
HETATM   19  C20 UNL     1       7.714  25.897   2.811  1.00  0.00    -0.040 C 
HETATM   20  C21 UNL     1       9.124  26.520   2.662  1.00  0.00     0.015 C 
HETATM   21  C22 UNL     1       8.077  24.659   3.568  1.00  0.00     0.015 C 
HETATM   22  C23 UNL     1       6.747  26.830   3.528  1.00  0.00     0.031 C 
ENDROOT
BRANCH   6  23
HETATM   23  O3  UNL     1       1.839  29.916   2.280  1.00  0.00    -0.378 OA
ATOM     24  H3  UNL     1       0.946  30.121   2.027  1.00  0.00     0.211 HD
ENDBRANCH   6  23
BRANCH   5  25
HETATM   25  O2  UNL     1       1.512  26.785   3.830  1.00  0.00    -0.361 OA
ATOM     26  H2  UNL     1       1.795  25.998   3.378  1.00  0.00     0.217 HD
ENDBRANCH   5  25
BRANCH   1  27
HETATM   27  C2  UNL     1       4.847  25.139   3.521  1.00  0.00     0.182 C 
BRANCH  27  28
HETATM   28  O1  UNL     1       3.571  24.718   3.430  1.00  0.00    -0.395 OA
HETATM   29  C1  UNL     1       3.595  23.343   3.770  1.00  0.00     0.201 C 
ENDBRANCH  27  28
ENDBRANCH   1  27
BRANCH  22  30
HETATM   30  C24 UNL     1       7.293  28.147   3.347  1.00  0.00    -0.020 C 
BRANCH  30  31
HETATM   31  C25 UNL     1       7.794  29.121   4.263  1.00  0.00    -0.001 C 
BRANCH  31  32
HETATM   32  C26 UNL     1       7.883  29.039   5.616  1.00  0.00    -0.078 C 
HETATM   33  C27 UNL     1       6.629  29.353   6.360  1.00  0.00     0.044 C 
BRANCH  32  34
HETATM   34  C28 UNL     1       9.086  28.678   6.346  1.00  0.00     0.103 C 
BRANCH  34  35
HETATM   35  C29 UNL     1       9.042  29.241   7.716  1.00  0.00     0.235 C 
HETATM   36  O4  UNL     1       9.580  30.286   8.023  1.00  0.00    -0.307 OA
ENDBRANCH  34  35
ENDBRANCH  32  34
ENDBRANCH  31  32
ENDBRANCH  30  31
ENDBRANCH  22  30
TORSDOF 9
ENDMDL
MODEL 4
REMARK VINA RESULT: -5.124004014      2.499      5.826
REMARK  9 active torsions:
REMARK  status: ('A' for Active; 'I' for Inactive)
REMARK    1  A    between atoms: O1_2  and  C2_3 
REMARK    2  A    between atoms: C2_3  and  C3_4 
REMARK    3  A    between atoms: C7_8  and  O2_9 
REMARK    4  A    between atoms: C8_11  and  O3_12 
REMARK    5  A    between atoms: C23_29  and  C24_30 
REMARK    6  A    between atoms: C24_30  and  C25_31 
REMARK    7  A    between atoms: C25_31  and  C26_32 
REMARK    8  A    between atoms: C26_32  and  C28_34 
REMARK    9  A    between atoms: C28_34  and  C29_35 
ROOT
HETATM    1  C3  UNL     1       6.953  27.015   3.587  1.00  0.00     0.016 C 
HETATM    2  C4  UNL     1       6.659  27.653   4.930  1.00  0.00    -0.070 C 
HETATM    3  C5  UNL     1       6.424  29.162   4.926  1.00  0.00     0.044 C 
HETATM    4  C6  UNL     1       7.415  27.270   6.123  1.00  0.00     0.039 C 
HETATM    5  C7  UNL     1       8.736  27.748   6.495  1.00  0.00     0.082 C 
HETATM    6  C8  UNL     1       9.703  26.591   6.489  1.00  0.00     0.129 C 
HETATM    7  C9  UNL     1      11.110  26.925   6.675  1.00  0.00     0.016 C 
HETATM    8  C10 UNL     1      11.813  25.894   6.219  1.00  0.00    -0.003 C 
HETATM    9  C11 UNL     1      10.881  24.819   5.702  1.00  0.00     0.070 C 
HETATM   10  C12 UNL     1      10.703  23.847   6.866  1.00  0.00     0.036 C 
HETATM   11  C13 UNL     1      11.407  24.067   4.620  1.00  0.00     0.073 C 
HETATM   12  N1  UNL     1      11.827  23.472   3.726  1.00  0.00    -0.196 NA
HETATM   13  C14 UNL     1       9.584  25.598   5.429  1.00  0.00     0.061 C 
HETATM   14  C15 UNL     1       9.352  25.997   4.012  1.00  0.00    -0.004 C 
HETATM   15  C16 UNL     1      10.345  26.883   3.388  1.00  0.00     0.011 C 
HETATM   16  C17 UNL     1       7.955  25.950   3.510  1.00  0.00     0.005 C 
HETATM   17  C18 UNL     1       8.027  25.420   2.088  1.00  0.00     0.007 C 
HETATM   18  C19 UNL     1       6.883  25.338   1.214  1.00  0.00     0.010 C 
HETATM   19  C20 UNL     1       5.623  26.026   1.616  1.00  0.00    -0.040 C 
HETATM   20  C21 UNL     1       4.582  24.926   1.292  1.00  0.00     0.015 C 
HETATM   21  C22 UNL     1       5.111  27.113   0.726  1.00  0.00     0.015 C 
HETATM   22  C23 UNL     1       5.652  26.369   3.100  1.00  0.00     0.031 C 
ENDROOT
BRANCH   6  23
HETATM   23  O3  UNL     1       9.383  25.859   7.682  1.00  0.00    -0.378 OA
ATOM     24  H3  UNL     1       9.868  26.306   8.366  1.00  0.00     0.211 HD
ENDBRANCH   6  23
BRANCH   5  25
HETATM   25  O2  UNL     1       9.224  28.919   5.971  1.00  0.00    -0.361 OA
ATOM     26  H2  UNL     1       9.938  29.377   6.400  1.00  0.00     0.217 HD
ENDBRANCH   5  25
BRANCH   1  27
HETATM   27  C2  UNL     1       7.366  28.225   2.809  1.00  0.00     0.182 C 
BRANCH  27  28
HETATM   28  O1  UNL     1       8.578  28.799   2.928  1.00  0.00    -0.395 OA
HETATM   29  C1  UNL     1       9.001  29.081   1.605  1.00  0.00     0.201 C 
ENDBRANCH  27  28
ENDBRANCH   1  27
BRANCH  22  30
HETATM   30  C24 UNL     1       5.112  25.213   3.763  1.00  0.00    -0.020 C 
BRANCH  30  31
HETATM   31  C25 UNL     1       3.919  25.001   4.519  1.00  0.00    -0.001 C 
BRANCH  31  32
HETATM   32  C26 UNL     1       2.953  25.899   4.840  1.00  0.00    -0.078 C 
HETATM   33  C27 UNL     1       3.295  26.839   5.947  1.00  0.00     0.044 C 
BRANCH  32  34
HETATM   34  C28 UNL     1       1.657  25.989   4.189  1.00  0.00     0.103 C 
BRANCH  34  35
HETATM   35  C29 UNL     1       1.780  26.708   2.900  1.00  0.00     0.235 C 
HETATM   36  O4  UNL     1       2.305  27.800   2.795  1.00  0.00    -0.307 OA
ENDBRANCH  34  35
ENDBRANCH  32  34
ENDBRANCH  31  32
ENDBRANCH  30  31
ENDBRANCH  22  30
TORSDOF 9
ENDMDL
MODEL 5
REMARK VINA RESULT: -5.053242388      4.379      7.013
REMARK  9 active torsions:
REMARK  status: ('A' for Active; 'I' for Inactive)
REMARK    1  A    between atoms: O1_2  and  C2_3 
REMARK    2  A    between atoms: C2_3  and  C3_4 
REMARK    3  A    between atoms: C7_8  and  O2_9 
REMARK    4  A    between atoms: C8_11  and  O3_12 
REMARK    5  A    between atoms: C23_29  and  C24_30 
REMARK    6  A    between atoms: C24_30  and  C25_31 
REMARK    7  A    between atoms: C25_31  and  C26_32 
REMARK    8  A    between atoms: C26_32  and  C28_34 
REMARK    9  A    between atoms: C28_34  and  C29_35 
ROOT
HETATM    1  C3  UNL     1       2.863  27.868   5.483  1.00  0.00     0.016 C 
HETATM    2  C4  UNL     1       2.632  28.109   6.961  1.00  0.00    -0.070 C 
HETATM    3  C5  UNL     1       1.522  27.290   7.617  1.00  0.00     0.044 C 
HETATM    4  C6  UNL     1       2.638  29.467   7.509  1.00  0.00     0.039 C 
HETATM    5  C7  UNL     1       1.539  30.417   7.464  1.00  0.00     0.082 C 
HETATM    6  C8  UNL     1       1.948  31.609   6.635  1.00  0.00     0.129 C 
HETATM    7  C9  UNL     1       0.902  32.583   6.346  1.00  0.00     0.016 C 
HETATM    8  C10 UNL     1       1.311  33.286   5.296  1.00  0.00    -0.003 C 
HETATM    9  C11 UNL     1       2.669  32.795   4.841  1.00  0.00     0.070 C 
HETATM   10  C12 UNL     1       3.680  33.714   5.521  1.00  0.00     0.036 C 
HETATM   11  C13 UNL     1       2.888  32.911   3.443  1.00  0.00     0.073 C 
HETATM   12  N1  UNL     1       3.056  32.986   2.305  1.00  0.00    -0.196 NA
HETATM   13  C14 UNL     1       2.730  31.375   5.428  1.00  0.00     0.061 C 
HETATM   14  C15 UNL     1       2.395  30.268   4.487  1.00  0.00    -0.004 C 
HETATM   15  C16 UNL     1       1.050  30.267   3.895  1.00  0.00     0.011 C 
HETATM   16  C17 UNL     1       3.169  29.007   4.616  1.00  0.00     0.005 C 
HETATM   17  C18 UNL     1       3.428  28.516   3.202  1.00  0.00     0.007 C 
HETATM   18  C19 UNL     1       4.053  27.252   2.904  1.00  0.00     0.010 C 
HETATM   19  C20 UNL     1       4.233  26.264   4.006  1.00  0.00    -0.040 C 
HETATM   20  C21 UNL     1       5.690  25.808   3.746  1.00  0.00     0.015 C 
HETATM   21  C22 UNL     1       3.541  24.944   3.876  1.00  0.00     0.015 C 
HETATM   22  C23 UNL     1       4.077  26.941   5.361  1.00  0.00     0.031 C 
ENDROOT
BRANCH   6  23
HETATM   23  O3  UNL     1       2.844  32.339   7.488  1.00  0.00    -0.378 OA
ATOM     24  H3  UNL     1       3.235  31.671   8.039  1.00  0.00     0.211 HD
ENDBRANCH   6  23
BRANCH   5  25
HETATM   25  O2  UNL     1       0.252  29.983   7.266  1.00  0.00    -0.361 OA
ATOM     26  H2  UNL     1      -0.223  29.551   7.966  1.00  0.00     0.217 HD
ENDBRANCH   5  25
BRANCH   1  27
HETATM   27  C2  UNL     1       1.561  27.225   5.118  1.00  0.00     0.182 C 
BRANCH  27  28
HETATM   28  O1  UNL     1       0.993  27.348   3.904  1.00  0.00    -0.395 OA
HETATM   29  C1  UNL     1       0.094  26.259   3.788  1.00  0.00     0.201 C 
ENDBRANCH  27  28
ENDBRANCH   1  27
BRANCH  22  30
HETATM   30  C24 UNL     1       5.394  27.406   5.702  1.00  0.00    -0.020 C 
BRANCH  30  31
HETATM   31  C25 UNL     1       5.912  28.095   6.840  1.00  0.00    -0.001 C 
BRANCH  31  32
HETATM   32  C26 UNL     1       6.662  29.227   6.871  1.00  0.00    -0.078 C 
HETATM   33  C27 UNL     1       5.946  30.456   7.321  1.00  0.00     0.044 C 
BRANCH  32  34
HETATM   34  C28 UNL     1       8.065  29.301   6.501  1.00  0.00     0.103 C 
BRANCH  34  35
HETATM   35  C29 UNL     1       8.911  29.373   7.716  1.00  0.00     0.235 C 
HETATM   36  O4  UNL     1       9.454  30.395   8.089  1.00  0.00    -0.307 OA
ENDBRANCH  34  35
ENDBRANCH  32  34
ENDBRANCH  31  32
ENDBRANCH  30  31
ENDBRANCH  22  30
TORSDOF 9
ENDMDL
