MODEL 1
REMARK VINA RESULT: -8.547964178      0.000      0.000
REMARK  12 active torsions:
REMARK  status: ('A' for Active; 'I' for Inactive)
REMARK    1  A    between atoms: C2_2  and  C3_3 
REMARK    2  A    between atoms: C3_3  and  C4_4 
REMARK    3  A    between atoms: C4_4  and  C5_5 
REMARK    4  A    between atoms: C5_5  and  C6_6 
REMARK    5  A    between atoms: C6_6  and  C7_7 
REMARK    6  A    between atoms: C7_7  and  N1_8 
REMARK    7  A    between atoms: N1_8  and  C8_10 
REMARK    8  A    between atoms: C11_18  and  N4_19 
REMARK    9  A    between atoms: C13_25  and  C14_26 
REMARK   10  A    between atoms: C14_26  and  C15_27 
REMARK   11  A    between atoms: C19_31  and  C20_32 
REMARK   12  A    between atoms: C20_32  and  N6_33 
ROOT
HETATM    1  C8  UNL     1      44.828  22.282  37.873  1.00  0.00     0.681 A 
HETATM    2  N2  UNL     1      45.524  23.290  38.378  1.00  0.00    -0.176 N 
ATOM      3  H2  UNL     1      45.411  24.211  37.955  1.00  0.00     0.186 HD
HETATM    4  C9  UNL     1      46.388  23.170  39.437  1.00  0.00     0.132 A 
HETATM    5  N3  UNL     1      46.983  24.171  39.824  1.00  0.00    -0.384 N 
ATOM      6  H31 UNL     1      47.626  24.081  40.611  1.00  0.00     0.157 HD
ATOM      7  H32 UNL     1      46.886  25.100  39.417  1.00  0.00     0.157 HD
HETATM    8  C10 UNL     1      46.520  21.907  39.991  1.00  0.00     0.096 A 
HETATM    9  C11 UNL     1      47.343  21.610  41.052  1.00  0.00     0.118 A 
HETATM   10  N5  UNL     1      47.415  20.376  41.524  1.00  0.00    -0.328 N 
ATOM     11  H5  UNL     1      48.037  20.197  42.312  1.00  0.00     0.169 HD
HETATM   12  C12 UNL     1      46.699  19.324  41.011  1.00  0.00     0.104 A 
HETATM   13  C13 UNL     1      46.953  18.049  41.636  1.00  0.00     0.028 C 
HETATM   14  N8  UNL     1      45.913  19.626  39.989  1.00  0.00    -0.328 N 
ATOM     15  H8  UNL     1      45.361  18.878  39.571  1.00  0.00     0.169 HD
HETATM   16  C24 UNL     1      45.802  20.857  39.474  1.00  0.00     0.140 A 
HETATM   17  N9  UNL     1      44.976  21.048  38.439  1.00  0.00    -0.176 N 
ATOM     18  H9  UNL     1      44.449  20.258  38.066  1.00  0.00     0.186 HD
ENDROOT
BRANCH  13  19
HETATM   19  C14 UNL     1      45.997  16.945  41.573  1.00  0.00     0.088 C 
BRANCH  19  20
HETATM   20  C15 UNL     1      46.436  15.731  40.812  1.00  0.00     0.013 A 
HETATM   21  C16 UNL     1      46.661  14.492  41.365  1.00  0.00     0.025 A 
HETATM   22  C17 UNL     1      47.079  13.433  40.585  1.00  0.00     0.004 A 
HETATM   23  C18 UNL     1      47.277  13.605  39.241  1.00  0.00     0.027 A 
HETATM   24  C19 UNL     1      47.049  14.860  38.674  1.00  0.00     0.027 A 
HETATM   25  N7  UNL     1      46.649  15.835  39.475  1.00  0.00    -0.361 N 
ATOM     26  H7  UNL     1      46.487  16.748  39.049  1.00  0.00     0.165 HD
BRANCH  24  27
HETATM   27  C20 UNL     1      47.265  15.062  37.204  1.00  0.00     0.176 C 
BRANCH  27  28
HETATM   28  N6  UNL     1      47.151  16.398  36.764  1.00  0.00    -0.385 N 
HETATM   29  C21 UNL     1      48.164  16.904  35.905  1.00  0.00     0.145 C 
HETATM   30  C22 UNL     1      47.337  17.794  34.965  1.00  0.00     0.189 C 
HETATM   31  O1  UNL     1      46.207  18.097  35.732  1.00  0.00    -0.371 OA
HETATM   32  C23 UNL     1      45.886  16.838  36.290  1.00  0.00     0.288 C 
ENDBRANCH  27  28
ENDBRANCH  24  27
ENDBRANCH  19  20
ENDBRANCH  13  19
BRANCH   9  33
HETATM   33  N4  UNL     1      48.045  22.579  41.575  1.00  0.00    -0.385 N 
ATOM     34  H42 UNL     1      48.024  23.520  41.182  1.00  0.00     0.157 HD
ATOM     35  H41 UNL     1      48.619  22.369  42.392  1.00  0.00     0.157 HD
ENDBRANCH   9  33
BRANCH   1  36
HETATM   36  N1  UNL     1      44.022  22.416  36.874  1.00  0.00    -0.226 N 
ATOM     37  H1  UNL     1      43.039  22.589  37.083  1.00  0.00     0.177 HD
BRANCH  36  38
HETATM   38  C7  UNL     1      44.397  22.342  35.508  1.00  0.00     0.138 C 
BRANCH  38  39
HETATM   39  C6  UNL     1      44.707  23.618  34.828  1.00  0.00     0.020 C 
BRANCH  39  40
HETATM   40  C5  UNL     1      45.998  23.653  34.073  1.00  0.00     0.002 C 
BRANCH  40  41
HETATM   41  C4  UNL     1      46.202  24.795  33.157  1.00  0.00     0.000 C 
BRANCH  41  42
HETATM   42  C3  UNL     1      46.304  26.131  33.791  1.00  0.00    -0.000 C 
BRANCH  42  43
HETATM   43  C2  UNL     1      45.500  27.225  33.253  1.00  0.00    -0.005 C 
HETATM   44  C1  UNL     1      44.591  26.970  32.112  1.00  0.00     0.005 C 
ENDBRANCH  42  43
ENDBRANCH  41  42
ENDBRANCH  40  41
ENDBRANCH  39  40
ENDBRANCH  38  39
ENDBRANCH  36  38
ENDBRANCH   1  36
TORSDOF 12
ENDMDL
MODEL 2
REMARK VINA RESULT: -8.383982039      2.720      3.926
REMARK  12 active torsions:
REMARK  status: ('A' for Active; 'I' for Inactive)
REMARK    1  A    between atoms: C2_2  and  C3_3 
REMARK    2  A    between atoms: C3_3  and  C4_4 
REMARK    3  A    between atoms: C4_4  and  C5_5 
REMARK    4  A    between atoms: C5_5  and  C6_6 
REMARK    5  A    between atoms: C6_6  and  C7_7 
REMARK    6  A    between atoms: C7_7  and  N1_8 
REMARK    7  A    between atoms: N1_8  and  C8_10 
REMARK    8  A    between atoms: C11_18  and  N4_19 
REMARK    9  A    between atoms: C13_25  and  C14_26 
REMARK   10  A    between atoms: C14_26  and  C15_27 
REMARK   11  A    between atoms: C19_31  and  C20_32 
REMARK   12  A    between atoms: C20_32  and  N6_33 
ROOT
HETATM    1  C8  UNL     1      44.823  22.387  38.644  1.00  0.00     0.681 A 
HETATM    2  N2  UNL     1      45.026  22.617  39.934  1.00  0.00    -0.176 N 
ATOM      3  H2  UNL     1      44.750  23.523  40.309  1.00  0.00     0.186 HD
HETATM    4  C9  UNL     1      45.587  21.707  40.794  1.00  0.00     0.132 A 
HETATM    5  N3  UNL     1      45.730  22.024  41.970  1.00  0.00    -0.384 N 
ATOM      6  H31 UNL     1      46.147  21.348  42.610  1.00  0.00     0.157 HD
ATOM      7  H32 UNL     1      45.461  22.924  42.367  1.00  0.00     0.157 HD
HETATM    8  C10 UNL     1      45.952  20.484  40.254  1.00  0.00     0.096 A 
HETATM    9  C11 UNL     1      46.527  19.463  40.972  1.00  0.00     0.118 A 
HETATM   10  N5  UNL     1      46.849  18.322  40.383  1.00  0.00    -0.328 N 
ATOM     11  H5  UNL     1      47.274  17.590  40.951  1.00  0.00     0.169 HD
HETATM   12  C12 UNL     1      46.643  18.073  39.050  1.00  0.00     0.104 A 
HETATM   13  C13 UNL     1      47.105  16.785  38.591  1.00  0.00     0.028 C 
HETATM   14  N8  UNL     1      46.090  19.066  38.373  1.00  0.00    -0.328 N 
ATOM     15  H8  UNL     1      45.917  18.930  37.377  1.00  0.00     0.169 HD
HETATM   16  C24 UNL     1      45.744  20.238  38.919  1.00  0.00     0.140 A 
HETATM   17  N9  UNL     1      45.191  21.173  38.138  1.00  0.00    -0.176 N 
ATOM     18  H9  UNL     1      45.042  20.976  37.149  1.00  0.00     0.186 HD
ENDROOT
BRANCH  13  19
HETATM   19  C14 UNL     1      46.579  16.153  37.382  1.00  0.00     0.088 C 
BRANCH  19  20
HETATM   20  C15 UNL     1      47.392  16.332  36.135  1.00  0.00     0.013 A 
HETATM   21  C16 UNL     1      47.454  17.489  35.395  1.00  0.00     0.025 A 
HETATM   22  C17 UNL     1      48.221  17.558  34.248  1.00  0.00     0.004 A 
HETATM   23  C18 UNL     1      48.933  16.464  33.833  1.00  0.00     0.027 A 
HETATM   24  C19 UNL     1      48.875  15.288  34.582  1.00  0.00     0.027 A 
HETATM   25  N7  UNL     1      48.122  15.287  35.670  1.00  0.00    -0.361 N 
ATOM     26  H7  UNL     1      48.086  14.420  36.208  1.00  0.00     0.165 HD
BRANCH  24  27
HETATM   27  C20 UNL     1      49.648  14.083  34.135  1.00  0.00     0.176 C 
BRANCH  27  28
HETATM   28  N6  UNL     1      48.935  13.193  33.304  1.00  0.00    -0.385 N 
HETATM   29  C21 UNL     1      49.521  12.829  32.061  1.00  0.00     0.145 C 
HETATM   30  C22 UNL     1      49.103  11.354  31.958  1.00  0.00     0.189 C 
HETATM   31  O1  UNL     1      47.962  11.293  32.765  1.00  0.00    -0.371 OA
HETATM   32  C23 UNL     1      48.367  12.035  33.900  1.00  0.00     0.288 C 
ENDBRANCH  27  28
ENDBRANCH  24  27
ENDBRANCH  19  20
ENDBRANCH  13  19
BRANCH   9  33
HETATM   33  N4  UNL     1      46.744  19.653  42.247  1.00  0.00    -0.385 N 
ATOM     34  H42 UNL     1      47.687  19.620  42.635  1.00  0.00     0.157 HD
ATOM     35  H41 UNL     1      45.940  19.837  42.848  1.00  0.00     0.157 HD
ENDBRANCH   9  33
BRANCH   1  36
HETATM   36  N1  UNL     1      44.296  23.258  37.851  1.00  0.00    -0.226 N 
ATOM     37  H1  UNL     1      43.830  24.060  38.275  1.00  0.00     0.177 HD
BRANCH  36  38
HETATM   38  C7  UNL     1      44.316  23.188  36.434  1.00  0.00     0.138 C 
BRANCH  38  39
HETATM   39  C6  UNL     1      45.484  23.784  35.749  1.00  0.00     0.020 C 
BRANCH  39  40
HETATM   40  C5  UNL     1      45.821  23.201  34.415  1.00  0.00     0.002 C 
BRANCH  40  41
HETATM   41  C4  UNL     1      46.601  24.053  33.493  1.00  0.00     0.000 C 
BRANCH  41  42
HETATM   42  C3  UNL     1      45.856  24.630  32.349  1.00  0.00    -0.000 C 
BRANCH  42  43
HETATM   43  C2  UNL     1      45.499  26.045  32.386  1.00  0.00    -0.005 C 
HETATM   44  C1  UNL     1      45.871  26.860  33.565  1.00  0.00     0.005 C 
ENDBRANCH  42  43
ENDBRANCH  41  42
ENDBRANCH  40  41
ENDBRANCH  39  40
ENDBRANCH  38  39
ENDBRANCH  36  38
ENDBRANCH   1  36
TORSDOF 12
ENDMDL
MODEL 3
REMARK VINA RESULT: -8.340970538      5.493      8.889
REMARK  12 active torsions:
REMARK  status: ('A' for Active; 'I' for Inactive)
REMARK    1  A    between atoms: C2_2  and  C3_3 
REMARK    2  A    between atoms: C3_3  and  C4_4 
REMARK    3  A    between atoms: C4_4  and  C5_5 
REMARK    4  A    between atoms: C5_5  and  C6_6 
REMARK    5  A    between atoms: C6_6  and  C7_7 
REMARK    6  A    between atoms: C7_7  and  N1_8 
REMARK    7  A    between atoms: N1_8  and  C8_10 
REMARK    8  A    between atoms: C11_18  and  N4_19 
REMARK    9  A    between atoms: C13_25  and  C14_26 
REMARK   10  A    between atoms: C14_26  and  C15_27 
REMARK   11  A    between atoms: C19_31  and  C20_32 
REMARK   12  A    between atoms: C20_32  and  N6_33 
ROOT
HETATM    1  C8  UNL     1      46.203  23.434  37.476  1.00  0.00     0.681 A 
HETATM    2  N2  UNL     1      45.159  22.780  37.964  1.00  0.00    -0.176 N 
ATOM      3  H2  UNL     1      44.323  22.711  37.385  1.00  0.00     0.186 HD
HETATM    4  C9  UNL     1      45.135  22.191  39.203  1.00  0.00     0.132 A 
HETATM    5  N3  UNL     1      44.113  21.610  39.556  1.00  0.00    -0.384 N 
ATOM      6  H31 UNL     1      44.095  21.172  40.477  1.00  0.00     0.157 HD
ATOM      7  H32 UNL     1      43.266  21.529  38.994  1.00  0.00     0.157 HD
HETATM    8  C10 UNL     1      46.287  22.301  39.966  1.00  0.00     0.096 A 
HETATM    9  C11 UNL     1      46.432  21.773  41.227  1.00  0.00     0.118 A 
HETATM   10  N5  UNL     1      47.565  21.923  41.894  1.00  0.00    -0.328 N 
ATOM     11  H5  UNL     1      47.632  21.516  42.826  1.00  0.00     0.169 HD
HETATM   12  C12 UNL     1      48.653  22.596  41.399  1.00  0.00     0.104 A 
HETATM   13  C13 UNL     1      49.776  22.687  42.300  1.00  0.00     0.028 C 
HETATM   14  N8  UNL     1      48.496  23.099  40.185  1.00  0.00    -0.328 N 
ATOM     15  H8  UNL     1      49.277  23.610  39.773  1.00  0.00     0.169 HD
HETATM   16  C24 UNL     1      47.374  22.976  39.467  1.00  0.00     0.140 A 
HETATM   17  N9  UNL     1      47.326  23.527  38.249  1.00  0.00    -0.176 N 
ATOM     18  H9  UNL     1      48.141  24.024  37.891  1.00  0.00     0.186 HD
ENDROOT
BRANCH  13  19
HETATM   19  C14 UNL     1      51.139  22.927  41.826  1.00  0.00     0.088 C 
BRANCH  19  20
HETATM   20  C15 UNL     1      51.726  24.267  42.152  1.00  0.00     0.013 A 
HETATM   21  C16 UNL     1      52.362  25.088  41.251  1.00  0.00     0.025 A 
HETATM   22  C17 UNL     1      52.887  26.303  41.646  1.00  0.00     0.004 A 
HETATM   23  C18 UNL     1      52.778  26.706  42.951  1.00  0.00     0.027 A 
HETATM   24  C19 UNL     1      52.131  25.877  43.868  1.00  0.00     0.027 A 
HETATM   25  N7  UNL     1      51.651  24.726  43.427  1.00  0.00    -0.361 N 
ATOM     26  H7  UNL     1      51.181  24.128  44.108  1.00  0.00     0.165 HD
BRANCH  24  27
HETATM   27  C20 UNL     1      52.008  26.307  45.300  1.00  0.00     0.176 C 
BRANCH  27  28
HETATM   28  N6  UNL     1      53.232  26.440  45.989  1.00  0.00    -0.385 N 
HETATM   29  C21 UNL     1      53.561  27.715  46.522  1.00  0.00     0.145 C 
HETATM   30  C22 UNL     1      54.250  27.318  47.836  1.00  0.00     0.189 C 
HETATM   31  O1  UNL     1      54.698  26.018  47.576  1.00  0.00    -0.371 OA
HETATM   32  C23 UNL     1      53.572  25.442  46.943  1.00  0.00     0.288 C 
ENDBRANCH  27  28
ENDBRANCH  24  27
ENDBRANCH  19  20
ENDBRANCH  13  19
BRANCH   9  33
HETATM   33  N4  UNL     1      45.422  21.123  41.741  1.00  0.00    -0.385 N 
ATOM     34  H42 UNL     1      45.325  20.115  41.621  1.00  0.00     0.157 HD
ATOM     35  H41 UNL     1      44.728  21.653  42.270  1.00  0.00     0.157 HD
ENDBRANCH   9  33
BRANCH   1  36
HETATM   36  N1  UNL     1      46.204  23.984  36.308  1.00  0.00    -0.226 N 
ATOM     37  H1  UNL     1      46.694  24.872  36.208  1.00  0.00     0.177 HD
BRANCH  36  38
HETATM   38  C7  UNL     1      45.576  23.448  35.154  1.00  0.00     0.138 C 
BRANCH  38  39
HETATM   39  C6  UNL     1      46.309  23.569  33.876  1.00  0.00     0.020 C 
BRANCH  39  40
HETATM   40  C5  UNL     1      45.833  24.647  32.955  1.00  0.00     0.002 C 
BRANCH  40  41
HETATM   41  C4  UNL     1      45.928  26.036  33.449  1.00  0.00     0.000 C 
BRANCH  41  42
HETATM   42  C3  UNL     1      45.030  27.023  32.804  1.00  0.00    -0.000 C 
BRANCH  42  43
HETATM   43  C2  UNL     1      44.668  26.830  31.403  1.00  0.00    -0.005 C 
HETATM   44  C1  UNL     1      43.310  27.199  30.942  1.00  0.00     0.005 C 
ENDBRANCH  42  43
ENDBRANCH  41  42
ENDBRANCH  40  41
ENDBRANCH  39  40
ENDBRANCH  38  39
ENDBRANCH  36  38
ENDBRANCH   1  36
TORSDOF 12
ENDMDL
MODEL 4
REMARK VINA RESULT: -8.336398659      2.409      4.094
REMARK  12 active torsions:
REMARK  status: ('A' for Active; 'I' for Inactive)
REMARK    1  A    between atoms: C2_2  and  C3_3 
REMARK    2  A    between atoms: C3_3  and  C4_4 
REMARK    3  A    between atoms: C4_4  and  C5_5 
REMARK    4  A    between atoms: C5_5  and  C6_6 
REMARK    5  A    between atoms: C6_6  and  C7_7 
REMARK    6  A    between atoms: C7_7  and  N1_8 
REMARK    7  A    between atoms: N1_8  and  C8_10 
REMARK    8  A    between atoms: C11_18  and  N4_19 
REMARK    9  A    between atoms: C13_25  and  C14_26 
REMARK   10  A    between atoms: C14_26  and  C15_27 
REMARK   11  A    between atoms: C19_31  and  C20_32 
REMARK   12  A    between atoms: C20_32  and  N6_33 
ROOT
HETATM    1  C8  UNL     1      46.201  23.798  36.577  1.00  0.00     0.681 A 
HETATM    2  N2  UNL     1      44.984  23.347  36.848  1.00  0.00    -0.176 N 
ATOM      3  H2  UNL     1      44.263  23.454  36.135  1.00  0.00     0.186 HD
HETATM    4  C9  UNL     1      44.637  22.744  38.030  1.00  0.00     0.132 A 
HETATM    5  N3  UNL     1      43.479  22.364  38.176  1.00  0.00    -0.384 N 
ATOM      6  H31 UNL     1      43.221  21.916  39.055  1.00  0.00     0.157 HD
ATOM      7  H32 UNL     1      42.742  22.461  37.478  1.00  0.00     0.157 HD
HETATM    8  C10 UNL     1      45.639  22.612  38.979  1.00  0.00     0.096 A 
HETATM    9  C11 UNL     1      45.462  22.036  40.214  1.00  0.00     0.118 A 
HETATM   10  N5  UNL     1      46.470  21.948  41.067  1.00  0.00    -0.328 N 
ATOM     11  H5  UNL     1      46.298  21.514  41.974  1.00  0.00     0.169 HD
HETATM   12  C12 UNL     1      47.734  22.410  40.799  1.00  0.00     0.104 A 
HETATM   13  C13 UNL     1      48.681  22.261  41.877  1.00  0.00     0.028 C 
HETATM   14  N8  UNL     1      47.886  22.963  39.605  1.00  0.00    -0.328 N 
ATOM     15  H8  UNL     1      48.808  23.323  39.358  1.00  0.00     0.169 HD
HETATM   16  C24 UNL     1      46.902  23.076  38.705  1.00  0.00     0.140 A 
HETATM   17  N9  UNL     1      47.170  23.654  37.529  1.00  0.00    -0.176 N 
ATOM     18  H9  UNL     1      48.113  23.993  37.341  1.00  0.00     0.186 HD
ENDROOT
BRANCH  13  19
HETATM   19  C14 UNL     1      50.125  22.244  41.650  1.00  0.00     0.088 C 
BRANCH  19  20
HETATM   20  C15 UNL     1      50.667  21.049  40.925  1.00  0.00     0.013 A 
HETATM   21  C16 UNL     1      51.980  20.884  40.550  1.00  0.00     0.025 A 
HETATM   22  C17 UNL     1      52.386  19.752  39.871  1.00  0.00     0.004 A 
HETATM   23  C18 UNL     1      51.479  18.774  39.562  1.00  0.00     0.027 A 
HETATM   24  C19 UNL     1      50.146  18.936  39.942  1.00  0.00     0.027 A 
HETATM   25  N7  UNL     1      49.820  20.043  40.590  1.00  0.00    -0.361 N 
ATOM     26  H7  UNL     1      48.842  20.150  40.861  1.00  0.00     0.165 HD
BRANCH  24  27
HETATM   27  C20 UNL     1      49.143  17.873  39.606  1.00  0.00     0.176 C 
BRANCH  27  28
HETATM   28  N6  UNL     1      48.128  18.274  38.711  1.00  0.00    -0.385 N 
HETATM   29  C21 UNL     1      47.839  17.426  37.609  1.00  0.00     0.145 C 
HETATM   30  C22 UNL     1      46.313  17.577  37.511  1.00  0.00     0.189 C 
HETATM   31  O1  UNL     1      46.081  18.819  38.112  1.00  0.00    -0.371 OA
HETATM   32  C23 UNL     1      46.905  18.746  39.259  1.00  0.00     0.288 C 
ENDBRANCH  27  28
ENDBRANCH  24  27
ENDBRANCH  19  20
ENDBRANCH  13  19
BRANCH   9  33
HETATM   33  N4  UNL     1      44.275  21.581  40.517  1.00  0.00    -0.385 N 
ATOM     34  H42 UNL     1      44.007  21.401  41.485  1.00  0.00     0.157 HD
ATOM     35  H41 UNL     1      43.619  21.409  39.755  1.00  0.00     0.157 HD
ENDBRANCH   9  33
BRANCH   1  36
HETATM   36  N1  UNL     1      46.507  24.365  35.459  1.00  0.00    -0.226 N 
ATOM     37  H1  UNL     1      47.138  25.165  35.494  1.00  0.00     0.177 HD
BRANCH  36  38
HETATM   38  C7  UNL     1      46.032  23.962  34.184  1.00  0.00     0.138 C 
BRANCH  38  39
HETATM   39  C6  UNL     1      46.170  24.936  33.079  1.00  0.00     0.020 C 
BRANCH  39  40
HETATM   40  C5  UNL     1      46.484  26.340  33.488  1.00  0.00     0.002 C 
BRANCH  40  41
HETATM   41  C4  UNL     1      45.462  27.364  33.191  1.00  0.00     0.000 C 
BRANCH  41  42
HETATM   42  C3  UNL     1      44.196  26.872  32.596  1.00  0.00    -0.000 C 
BRANCH  42  43
HETATM   43  C2  UNL     1      43.853  27.285  31.239  1.00  0.00    -0.005 C 
HETATM   44  C1  UNL     1      44.489  26.608  30.086  1.00  0.00     0.005 C 
ENDBRANCH  42  43
ENDBRANCH  41  42
ENDBRANCH  40  41
ENDBRANCH  39  40
ENDBRANCH  38  39
ENDBRANCH  36  38
ENDBRANCH   1  36
TORSDOF 12
ENDMDL
MODEL 5
REMARK VINA RESULT: -8.330439108      2.678      3.634
REMARK  12 active torsions:
REMARK  status: ('A' for Active; 'I' for Inactive)
REMARK    1  A    between atoms: C2_2  and  C3_3 
REMARK    2  A    between atoms: C3_3  and  C4_4 
REMARK    3  A    between atoms: C4_4  and  C5_5 
REMARK    4  A    between atoms: C5_5  and  C6_6 
REMARK    5  A    between atoms: C6_6  and  C7_7 
REMARK    6  A    between atoms: C7_7  and  N1_8 
REMARK    7  A    between atoms: N1_8  and  C8_10 
REMARK    8  A    between atoms: C11_18  and  N4_19 
REMARK    9  A    between atoms: C13_25  and  C14_26 
REMARK   10  A    between atoms: C14_26  and  C15_27 
REMARK   11  A    between atoms: C19_31  and  C20_32 
REMARK   12  A    between atoms: C20_32  and  N6_33 
ROOT
HETATM    1  C8  UNL     1      44.790  22.470  38.484  1.00  0.00     0.681 A 
HETATM    2  N2  UNL     1      45.063  22.671  39.765  1.00  0.00    -0.176 N 
ATOM      3  H2  UNL     1      44.882  23.596  40.154  1.00  0.00     0.186 HD
HETATM    4  C9  UNL     1      45.574  21.710  40.599  1.00  0.00     0.132 A 
HETATM    5  N3  UNL     1      45.791  22.005  41.770  1.00  0.00    -0.384 N 
ATOM      6  H31 UNL     1      46.171  21.291  42.391  1.00  0.00     0.157 HD
ATOM      7  H32 UNL     1      45.618  22.923  42.181  1.00  0.00     0.157 HD
HETATM    8  C10 UNL     1      45.808  20.463  40.041  1.00  0.00     0.096 A 
HETATM    9  C11 UNL     1      46.319  19.390  40.733  1.00  0.00     0.118 A 
HETATM   10  N5  UNL     1      46.516  18.230  40.128  1.00  0.00    -0.328 N 
ATOM     11  H5  UNL     1      46.896  17.459  40.676  1.00  0.00     0.169 HD
HETATM   12  C12 UNL     1      46.236  18.009  38.803  1.00  0.00     0.104 A 
HETATM   13  C13 UNL     1      46.564  16.689  38.322  1.00  0.00     0.028 C 
HETATM   14  N8  UNL     1      45.747  19.052  38.151  1.00  0.00    -0.328 N 
ATOM     15  H8  UNL     1      45.523  18.938  37.163  1.00  0.00     0.169 HD
HETATM   16  C24 UNL     1      45.527  20.246  38.715  1.00  0.00     0.140 A 
HETATM   17  N9  UNL     1      45.029  21.231  37.960  1.00  0.00    -0.176 N 
ATOM     18  H9  UNL     1      44.825  21.055  36.976  1.00  0.00     0.186 HD
ENDROOT
BRANCH  13  19
HETATM   19  C14 UNL     1      45.938  16.114  37.132  1.00  0.00     0.088 C 
BRANCH  19  20
HETATM   20  C15 UNL     1      46.833  15.316  36.233  1.00  0.00     0.013 A 
HETATM   21  C16 UNL     1      46.908  13.943  36.212  1.00  0.00     0.025 A 
HETATM   22  C17 UNL     1      47.775  13.293  35.356  1.00  0.00     0.004 A 
HETATM   23  C18 UNL     1      48.577  14.015  34.512  1.00  0.00     0.027 A 
HETATM   24  C19 UNL     1      48.503  15.409  34.529  1.00  0.00     0.027 A 
HETATM   25  N7  UNL     1      47.652  15.971  35.372  1.00  0.00    -0.361 N 
ATOM     26  H7  UNL     1      47.609  16.991  35.375  1.00  0.00     0.165 HD
BRANCH  24  27
HETATM   27  C20 UNL     1      49.379  16.210  33.611  1.00  0.00     0.176 C 
BRANCH  27  28
HETATM   28  N6  UNL     1      50.132  15.449  32.693  1.00  0.00    -0.385 N 
HETATM   29  C21 UNL     1      49.751  15.492  31.324  1.00  0.00     0.145 C 
HETATM   30  C22 UNL     1      51.124  15.454  30.634  1.00  0.00     0.189 C 
HETATM   31  O1  UNL     1      51.941  14.846  31.593  1.00  0.00    -0.371 OA
HETATM   32  C23 UNL     1      51.549  15.515  32.777  1.00  0.00     0.288 C 
ENDBRANCH  27  28
ENDBRANCH  24  27
ENDBRANCH  19  20
ENDBRANCH  13  19
BRANCH   9  33
HETATM   33  N4  UNL     1      46.601  19.552  41.998  1.00  0.00    -0.385 N 
ATOM     34  H42 UNL     1      47.340  20.188  42.299  1.00  0.00     0.157 HD
ATOM     35  H41 UNL     1      46.060  19.023  42.683  1.00  0.00     0.157 HD
ENDBRANCH   9  33
BRANCH   1  36
HETATM   36  N1  UNL     1      44.312  23.389  37.715  1.00  0.00    -0.226 N 
ATOM     37  H1  UNL     1      43.827  24.169  38.159  1.00  0.00     0.177 HD
BRANCH  36  38
HETATM   38  C7  UNL     1      44.408  23.400  36.299  1.00  0.00     0.138 C 
BRANCH  38  39
HETATM   39  C6  UNL     1      45.706  23.808  35.719  1.00  0.00     0.020 C 
BRANCH  39  40
HETATM   40  C5  UNL     1      45.903  23.477  34.274  1.00  0.00     0.002 C 
BRANCH  40  41
HETATM   41  C4  UNL     1      46.035  24.616  33.342  1.00  0.00     0.000 C 
BRANCH  41  42
HETATM   42  C3  UNL     1      46.254  25.945  33.961  1.00  0.00    -0.000 C 
BRANCH  42  43
HETATM   43  C2  UNL     1      45.499  27.087  33.453  1.00  0.00    -0.005 C 
HETATM   44  C1  UNL     1      44.709  26.946  32.209  1.00  0.00     0.005 C 
ENDBRANCH  42  43
ENDBRANCH  41  42
ENDBRANCH  40  41
ENDBRANCH  39  40
ENDBRANCH  38  39
ENDBRANCH  36  38
ENDBRANCH   1  36
TORSDOF 12
ENDMDL
