MODEL 1
REMARK VINA RESULT: -7.423618033      0.000      0.000
REMARK  6 active torsions:
REMARK  status: ('A' for Active; 'I' for Inactive)
REMARK    1  A    between atoms: C2_2  and  C3_3 
REMARK    2  A    between atoms: C3_3  and  N1_4 
REMARK    3  A    between atoms: C7_11  and  C8_12 
REMARK    4  A    between atoms: N3_22  and  C16_23 
REMARK    5  A    between atoms: C16_23  and  C17_24 
REMARK    6  A    between atoms: C17_24  and  N4_25 
ROOT
HETATM    1  N1  UNL     1       8.239  -9.877  37.422  1.00  0.00    -0.264 N 
HETATM    2  C4  UNL     1       9.140  -9.043  36.943  1.00  0.00     0.280 A 
HETATM    3  O1  UNL     1       8.885  -7.817  36.803  1.00  0.00    -0.265 OA
HETATM    4  C5  UNL     1      10.368  -9.503  36.589  1.00  0.00     0.130 A 
HETATM    5  N2  UNL     1      11.449  -8.861  36.128  1.00  0.00    -0.348 N 
ATOM      6  H2  UNL     1      11.497  -7.858  35.948  1.00  0.00     0.166 HD
HETATM    7  C6  UNL     1      12.450  -9.715  35.936  1.00  0.00     0.063 A 
HETATM    8  C7  UNL     1      13.725  -9.537  35.470  1.00  0.00     0.069 A 
HETATM    9  C9  UNL     1      14.573 -10.608  35.327  1.00  0.00     0.028 A 
HETATM   10  C10 UNL     1      14.112 -11.853  35.651  1.00  0.00    -0.054 A 
HETATM   11  C11 UNL     1      15.045 -13.016  35.515  1.00  0.00     0.049 C 
HETATM   12  C12 UNL     1      12.831 -12.072  36.124  1.00  0.00    -0.041 A 
HETATM   13  C13 UNL     1      12.419 -13.465  36.008  1.00  0.00     0.050 C 
HETATM   14  C14 UNL     1      12.009 -11.011  36.287  1.00  0.00     0.028 A 
HETATM   15  C15 UNL     1      10.711 -10.869  36.718  1.00  0.00     0.084 A 
HETATM   16  N3  UNL     1       9.786 -11.714  37.228  1.00  0.00    -0.291 N 
HETATM   17  C20 UNL     1       8.580 -11.163  37.548  1.00  0.00     0.332 A 
HETATM   18  O4  UNL     1       7.671 -11.918  38.004  1.00  0.00    -0.246 OA
ENDROOT
BRANCH  16  19
HETATM   19  C16 UNL     1      10.075 -13.018  37.709  1.00  0.00     0.178 C 
BRANCH  19  20
HETATM   20  C17 UNL     1       9.440 -14.171  36.942  1.00  0.00     0.077 C 
BRANCH  20  21
HETATM   21  N4  UNL     1       8.716 -15.162  37.615  1.00  0.00    -0.400 N 
HETATM   22  C18 UNL     1       8.800 -15.175  39.051  1.00  0.00     0.148 C 
HETATM   23  C19 UNL     1       7.365 -15.353  37.132  1.00  0.00     0.148 C 
ENDBRANCH  20  21
ENDBRANCH  19  20
ENDBRANCH  16  19
BRANCH   1  24
HETATM   24  C3  UNL     1       6.905  -9.473  37.830  1.00  0.00     0.137 C 
BRANCH  24  25
HETATM   25  C2  UNL     1       6.802  -8.861  39.175  1.00  0.00     0.016 C 
HETATM   26  C1  UNL     1       5.766  -7.771  39.257  1.00  0.00     0.006 C 
ENDBRANCH  24  25
ENDBRANCH   1  24
BRANCH   8  27
HETATM   27  C8  UNL     1      14.196  -8.194  35.119  1.00  0.00     0.211 C 
HETATM   28  O2  UNL     1      13.627  -7.164  35.491  1.00  0.00    -0.644 OA
HETATM   29  O3  UNL     1      15.342  -8.035  34.327  1.00  0.00    -0.644 OA
ENDBRANCH   8  27
TORSDOF 6
ENDMDL
MODEL 2
REMARK VINA RESULT: -7.327633737      2.335      6.335
REMARK  6 active torsions:
REMARK  status: ('A' for Active; 'I' for Inactive)
REMARK    1  A    between atoms: C2_2  and  C3_3 
REMARK    2  A    between atoms: C3_3  and  N1_4 
REMARK    3  A    between atoms: C7_11  and  C8_12 
REMARK    4  A    between atoms: N3_22  and  C16_23 
REMARK    5  A    between atoms: C16_23  and  C17_24 
REMARK    6  A    between atoms: C17_24  and  N4_25 
ROOT
HETATM    1  N1  UNL     1      14.973  -9.260  35.422  1.00  0.00    -0.264 N 
HETATM    2  C4  UNL     1      13.804  -8.654  35.379  1.00  0.00     0.280 A 
HETATM    3  O1  UNL     1      13.694  -7.478  34.941  1.00  0.00    -0.265 OA
HETATM    4  C5  UNL     1      12.690  -9.299  35.816  1.00  0.00     0.130 A 
HETATM    5  N2  UNL     1      11.406  -8.922  35.835  1.00  0.00    -0.348 N 
ATOM      6  H2  UNL     1      11.060  -8.017  35.514  1.00  0.00     0.166 HD
HETATM    7  C6  UNL     1      10.644  -9.892  36.332  1.00  0.00     0.063 A 
HETATM    8  C7  UNL     1       9.296  -9.968  36.561  1.00  0.00     0.069 A 
HETATM    9  C9  UNL     1       8.746 -11.090  37.130  1.00  0.00     0.028 A 
HETATM   10  C10 UNL     1       9.574 -12.123  37.469  1.00  0.00    -0.054 A 
HETATM   11  C11 UNL     1       8.969 -13.354  38.069  1.00  0.00     0.049 C 
HETATM   12  C12 UNL     1      10.940 -12.082  37.254  1.00  0.00    -0.041 A 
HETATM   13  C13 UNL     1      11.664 -13.068  38.046  1.00  0.00     0.050 C 
HETATM   14  C14 UNL     1      11.472 -10.985  36.670  1.00  0.00     0.028 A 
HETATM   15  C15 UNL     1      12.751 -10.617  36.323  1.00  0.00     0.084 A 
HETATM   16  N3  UNL     1      13.953 -11.238  36.345  1.00  0.00    -0.291 N 
HETATM   17  C20 UNL     1      15.015 -10.510  35.894  1.00  0.00     0.332 A 
HETATM   18  O4  UNL     1      16.165 -11.037  35.919  1.00  0.00    -0.246 OA
ENDROOT
BRANCH  16  19
HETATM   19  C16 UNL     1      14.126 -12.637  36.518  1.00  0.00     0.178 C 
BRANCH  19  20
HETATM   20  C17 UNL     1      13.883 -13.499  35.286  1.00  0.00     0.077 C 
BRANCH  20  21
HETATM   21  N4  UNL     1      14.950 -14.128  34.634  1.00  0.00    -0.400 N 
HETATM   22  C18 UNL     1      15.433 -13.516  33.425  1.00  0.00     0.148 C 
HETATM   23  C19 UNL     1      16.020 -14.558  35.509  1.00  0.00     0.148 C 
ENDBRANCH  20  21
ENDBRANCH  19  20
ENDBRANCH  16  19
BRANCH   1  24
HETATM   24  C3  UNL     1      16.211  -8.650  34.972  1.00  0.00     0.137 C 
BRANCH  24  25
HETATM   25  C2  UNL     1      16.824  -7.674  35.904  1.00  0.00     0.016 C 
HETATM   26  C1  UNL     1      17.114  -6.342  35.264  1.00  0.00     0.006 C 
ENDBRANCH  24  25
ENDBRANCH   1  24
BRANCH   8  27
HETATM   27  C8  UNL     1       8.428  -8.845  36.198  1.00  0.00     0.211 C 
HETATM   28  O2  UNL     1       8.246  -8.485  35.032  1.00  0.00    -0.644 OA
HETATM   29  O3  UNL     1       7.756  -8.124  37.196  1.00  0.00    -0.644 OA
ENDBRANCH   8  27
TORSDOF 6
ENDMDL
MODEL 3
REMARK VINA RESULT: -7.273349734      0.619      1.054
REMARK  6 active torsions:
REMARK  status: ('A' for Active; 'I' for Inactive)
REMARK    1  A    between atoms: C2_2  and  C3_3 
REMARK    2  A    between atoms: C3_3  and  N1_4 
REMARK    3  A    between atoms: C7_11  and  C8_12 
REMARK    4  A    between atoms: N3_22  and  C16_23 
REMARK    5  A    between atoms: C16_23  and  C17_24 
REMARK    6  A    between atoms: C17_24  and  N4_25 
ROOT
HETATM    1  N1  UNL     1       8.210  -9.766  37.305  1.00  0.00    -0.264 N 
HETATM    2  C4  UNL     1       9.124  -8.999  36.745  1.00  0.00     0.280 A 
HETATM    3  O1  UNL     1       8.858  -7.822  36.384  1.00  0.00    -0.265 OA
HETATM    4  C5  UNL     1      10.380  -9.479  36.546  1.00  0.00     0.130 A 
HETATM    5  N2  UNL     1      11.476  -8.894  36.047  1.00  0.00    -0.348 N 
ATOM      6  H2  UNL     1      11.519  -7.935  35.703  1.00  0.00     0.166 HD
HETATM    7  C6  UNL     1      12.502  -9.740  36.063  1.00  0.00     0.063 A 
HETATM    8  C7  UNL     1      13.801  -9.609  35.648  1.00  0.00     0.069 A 
HETATM    9  C9  UNL     1      14.674 -10.664  35.739  1.00  0.00     0.028 A 
HETATM   10  C10 UNL     1      14.216 -11.849  36.243  1.00  0.00    -0.054 A 
HETATM   11  C11 UNL     1      15.175 -12.992  36.361  1.00  0.00     0.049 C 
HETATM   12  C12 UNL     1      12.911 -12.020  36.670  1.00  0.00    -0.041 A 
HETATM   13  C13 UNL     1      12.531 -13.424  36.769  1.00  0.00     0.050 C 
HETATM   14  C14 UNL     1      12.063 -10.970  36.603  1.00  0.00     0.028 A 
HETATM   15  C15 UNL     1      10.739 -10.793  36.926  1.00  0.00     0.084 A 
HETATM   16  N3  UNL     1       9.798 -11.565  37.517  1.00  0.00    -0.291 N 
HETATM   17  C20 UNL     1       8.565 -11.002  37.668  1.00  0.00     0.332 A 
HETATM   18  O4  UNL     1       7.643 -11.694  38.192  1.00  0.00    -0.246 OA
ENDROOT
BRANCH  16  19
HETATM   19  C16 UNL     1      10.079 -12.761  38.229  1.00  0.00     0.178 C 
BRANCH  19  20
HETATM   20  C17 UNL     1       9.310 -14.000  37.787  1.00  0.00     0.077 C 
BRANCH  20  21
HETATM   21  N4  UNL     1       8.680 -14.821  38.730  1.00  0.00    -0.400 N 
HETATM   22  C18 UNL     1       7.319 -15.205  38.461  1.00  0.00     0.148 C 
HETATM   23  C19 UNL     1       9.489 -15.924  39.203  1.00  0.00     0.148 C 
ENDBRANCH  20  21
ENDBRANCH  19  20
ENDBRANCH  16  19
BRANCH   1  24
HETATM   24  C3  UNL     1       6.847  -9.335  37.560  1.00  0.00     0.137 C 
BRANCH  24  25
HETATM   25  C2  UNL     1       6.691  -8.241  38.546  1.00  0.00     0.016 C 
HETATM   26  C1  UNL     1       7.165  -8.610  39.927  1.00  0.00     0.006 C 
ENDBRANCH  24  25
ENDBRANCH   1  24
BRANCH   8  27
HETATM   27  C8  UNL     1      14.269  -8.332  35.102  1.00  0.00     0.211 C 
HETATM   28  O2  UNL     1      15.207  -8.245  34.305  1.00  0.00    -0.644 OA
HETATM   29  O3  UNL     1      13.645  -7.135  35.481  1.00  0.00    -0.644 OA
ENDBRANCH   8  27
TORSDOF 6
ENDMDL
MODEL 4
REMARK VINA RESULT: -7.248703945      2.187      5.977
REMARK  6 active torsions:
REMARK  status: ('A' for Active; 'I' for Inactive)
REMARK    1  A    between atoms: C2_2  and  C3_3 
REMARK    2  A    between atoms: C3_3  and  N1_4 
REMARK    3  A    between atoms: C7_11  and  C8_12 
REMARK    4  A    between atoms: N3_22  and  C16_23 
REMARK    5  A    between atoms: C16_23  and  C17_24 
REMARK    6  A    between atoms: C17_24  and  N4_25 
ROOT
HETATM    1  N1  UNL     1      14.940  -9.369  35.478  1.00  0.00    -0.264 N 
HETATM    2  C4  UNL     1      13.779  -8.747  35.418  1.00  0.00     0.280 A 
HETATM    3  O1  UNL     1      13.689  -7.576  34.964  1.00  0.00    -0.265 OA
HETATM    4  C5  UNL     1      12.653  -9.371  35.854  1.00  0.00     0.130 A 
HETATM    5  N2  UNL     1      11.374  -8.977  35.859  1.00  0.00    -0.348 N 
ATOM      6  H2  UNL     1      11.043  -8.072  35.524  1.00  0.00     0.166 HD
HETATM    7  C6  UNL     1      10.595  -9.930  36.362  1.00  0.00     0.063 A 
HETATM    8  C7  UNL     1       9.245  -9.985  36.582  1.00  0.00     0.069 A 
HETATM    9  C9  UNL     1       8.675 -11.091  37.161  1.00  0.00     0.028 A 
HETATM   10  C10 UNL     1       9.486 -12.131  37.520  1.00  0.00    -0.054 A 
HETATM   11  C11 UNL     1       8.860 -13.346  38.131  1.00  0.00     0.049 C 
HETATM   12  C12 UNL     1      10.854 -12.112  37.315  1.00  0.00    -0.041 A 
HETATM   13  C13 UNL     1      11.559 -13.098  38.124  1.00  0.00     0.050 C 
HETATM   14  C14 UNL     1      11.406 -11.030  36.721  1.00  0.00     0.028 A 
HETATM   15  C15 UNL     1      12.692 -10.684  36.379  1.00  0.00     0.084 A 
HETATM   16  N3  UNL     1      13.885 -11.321  36.418  1.00  0.00    -0.291 N 
HETATM   17  C20 UNL     1      14.960 -10.613  35.966  1.00  0.00     0.332 A 
HETATM   18  O4  UNL     1      16.103 -11.155  36.007  1.00  0.00    -0.246 OA
ENDROOT
BRANCH  16  19
HETATM   19  C16 UNL     1      14.038 -12.719  36.610  1.00  0.00     0.178 C 
BRANCH  19  20
HETATM   20  C17 UNL     1      13.794 -13.594  35.387  1.00  0.00     0.077 C 
BRANCH  20  21
HETATM   21  N4  UNL     1      13.460 -14.946  35.533  1.00  0.00    -0.400 N 
HETATM   22  C18 UNL     1      14.046 -15.652  36.641  1.00  0.00     0.148 C 
HETATM   23  C19 UNL     1      12.052 -15.238  35.365  1.00  0.00     0.148 C 
ENDBRANCH  20  21
ENDBRANCH  19  20
ENDBRANCH  16  19
BRANCH   1  24
HETATM   24  C3  UNL     1      16.190  -8.782  35.030  1.00  0.00     0.137 C 
BRANCH  24  25
HETATM   25  C2  UNL     1      16.819  -7.818  35.963  1.00  0.00     0.016 C 
HETATM   26  C1  UNL     1      17.116  -6.484  35.331  1.00  0.00     0.006 C 
ENDBRANCH  24  25
ENDBRANCH   1  24
BRANCH   8  27
HETATM   27  C8  UNL     1       8.395  -8.855  36.198  1.00  0.00     0.211 C 
HETATM   28  O2  UNL     1       8.266  -8.477  35.030  1.00  0.00    -0.644 OA
HETATM   29  O3  UNL     1       7.680  -8.148  37.175  1.00  0.00    -0.644 OA
ENDBRANCH   8  27
TORSDOF 6
ENDMDL
MODEL 5
REMARK VINA RESULT: -6.884114473      2.656      6.668
REMARK  6 active torsions:
REMARK  status: ('A' for Active; 'I' for Inactive)
REMARK    1  A    between atoms: C2_2  and  C3_3 
REMARK    2  A    between atoms: C3_3  and  N1_4 
REMARK    3  A    between atoms: C7_11  and  C8_12 
REMARK    4  A    between atoms: N3_22  and  C16_23 
REMARK    5  A    between atoms: C16_23  and  C17_24 
REMARK    6  A    between atoms: C17_24  and  N4_25 
ROOT
HETATM    1  N1  UNL     1      13.053 -11.146  36.207  1.00  0.00    -0.264 N 
HETATM    2  C4  UNL     1      12.929 -12.342  35.667  1.00  0.00     0.280 A 
HETATM    3  O1  UNL     1      13.852 -12.842  34.971  1.00  0.00    -0.265 OA
HETATM    4  C5  UNL     1      11.788 -13.055  35.854  1.00  0.00     0.130 A 
HETATM    5  N2  UNL     1      11.443 -14.285  35.455  1.00  0.00    -0.348 N 
ATOM      6  H2  UNL     1      12.032 -14.901  34.893  1.00  0.00     0.166 HD
HETATM    7  C6  UNL     1      10.226 -14.592  35.892  1.00  0.00     0.063 A 
HETATM    8  C7  UNL     1       9.451 -15.710  35.729  1.00  0.00     0.069 A 
HETATM    9  C9  UNL     1       8.187 -15.768  36.260  1.00  0.00     0.028 A 
HETATM   10  C10 UNL     1       7.716 -14.684  36.947  1.00  0.00    -0.054 A 
HETATM   11  C11 UNL     1       6.346 -14.758  37.543  1.00  0.00     0.049 C 
HETATM   12  C12 UNL     1       8.468 -13.537  37.131  1.00  0.00    -0.041 A 
HETATM   13  C13 UNL     1       7.657 -12.386  37.506  1.00  0.00     0.050 C 
HETATM   14  C14 UNL     1       9.722 -13.496  36.628  1.00  0.00     0.028 A 
HETATM   15  C15 UNL     1      10.714 -12.544  36.621  1.00  0.00     0.084 A 
HETATM   16  N3  UNL     1      10.859 -11.324  37.187  1.00  0.00    -0.291 N 
HETATM   17  C20 UNL     1      12.035 -10.680  36.937  1.00  0.00     0.332 A 
HETATM   18  O4  UNL     1      12.208  -9.523  37.423  1.00  0.00    -0.246 OA
ENDROOT
BRANCH  16  19
HETATM   19  C16 UNL     1      10.028 -10.821  38.222  1.00  0.00     0.178 C 
BRANCH  19  20
HETATM   20  C17 UNL     1       9.324  -9.501  37.934  1.00  0.00     0.077 C 
BRANCH  20  21
HETATM   21  N4  UNL     1       8.144  -9.160  38.607  1.00  0.00    -0.400 N 
HETATM   22  C18 UNL     1       8.232  -8.970  40.030  1.00  0.00     0.148 C 
HETATM   23  C19 UNL     1       7.353  -8.139  37.954  1.00  0.00     0.148 C 
ENDBRANCH  20  21
ENDBRANCH  19  20
ENDBRANCH  16  19
BRANCH   1  24
HETATM   24  C3  UNL     1      14.236 -10.318  36.063  1.00  0.00     0.137 C 
BRANCH  24  25
HETATM   25  C2  UNL     1      14.298  -9.490  34.835  1.00  0.00     0.016 C 
HETATM   26  C1  UNL     1      14.371  -8.013  35.115  1.00  0.00     0.006 C 
ENDBRANCH  24  25
ENDBRANCH   1  24
BRANCH   8  27
HETATM   27  C8  UNL     1       9.972 -16.858  34.982  1.00  0.00     0.211 C 
HETATM   28  O2  UNL     1       9.785 -18.027  35.329  1.00  0.00    -0.644 OA
HETATM   29  O3  UNL     1      10.719 -16.655  33.813  1.00  0.00    -0.644 OA
ENDBRANCH   8  27
TORSDOF 6
ENDMDL
