MODEL 1
REMARK VINA RESULT: -7.160334736      0.000      0.000
REMARK  7 active torsions:
REMARK  status: ('A' for Active; 'I' for Inactive)
REMARK    1  A    between atoms: C2_2  and  C3_3 
REMARK    2  A    between atoms: C6_8  and  C7_9 
REMARK    3  A    between atoms: C7_9  and  S1_10 
REMARK    4  A    between atoms: S1_10  and  C8_11 
REMARK    5  A    between atoms: C9_12  and  C10_13 
REMARK    6  A    between atoms: C12_19  and  C13_20 
REMARK    7  A    between atoms: C13_20  and  O4_22 
ROOT
HETATM    1  C8  UNL     1       9.763 -11.366  36.942  1.00  0.00     0.022 C 
HETATM    2  C9  UNL     1      11.078 -11.214  37.210  1.00  0.00     0.128 C 
HETATM    3  N2  UNL     1      11.606 -12.509  37.518  1.00  0.00    -0.304 N 
HETATM    4  C11 UNL     1      12.290 -13.645  37.992  1.00  0.00     0.233 C 
HETATM    5  O3  UNL     1      13.396 -13.781  38.528  1.00  0.00    -0.272 OA
HETATM    6  C12 UNL     1      11.187 -14.576  37.590  1.00  0.00     0.131 C 
HETATM    7  C15 UNL     1      10.782 -13.421  36.711  1.00  0.00     0.121 C 
HETATM    8  C16 UNL     1       9.423 -12.794  36.955  1.00  0.00     0.010 C 
HETATM    9  C17 UNL     1       8.732 -13.342  38.136  1.00  0.00     0.023 C 
HETATM   10  C18 UNL     1       8.618 -13.138  35.693  1.00  0.00     0.023 C 
ENDROOT
BRANCH   1  11
HETATM   11  S1  UNL     1       8.768  -9.936  36.602  1.00  0.00    -0.126 SA
BRANCH  11  12
HETATM   12  C7  UNL     1       7.259  -9.983  37.594  1.00  0.00     0.127 C 
BRANCH  12  13
HETATM   13  C6  UNL     1       7.231  -9.022  38.720  1.00  0.00     0.016 A 
HETATM   14  C4  UNL     1       8.031  -8.923  39.834  1.00  0.00     0.019 A 
HETATM   15  N1  UNL     1       7.648  -8.096  40.751  1.00  0.00    -0.357 N 
HETATM   16  C5  UNL     1       9.316  -9.700  39.942  1.00  0.00     0.069 C 
HETATM   17  C3  UNL     1       6.552  -7.384  40.617  1.00  0.00     0.051 A 
ATOM     18  H1  UNL     1       8.209  -7.994  41.596  1.00  0.00     0.166 HD
HETATM   19  S2  UNL     1       5.992  -7.904  39.069  1.00  0.00    -0.079 SA
BRANCH  17  20
HETATM   20  C2  UNL     1       5.885  -6.382  41.536  1.00  0.00     0.060 C 
HETATM   21  C1  UNL     1       4.446  -6.770  41.630  1.00  0.00     0.012 C 
ENDBRANCH  17  20
ENDBRANCH  12  13
ENDBRANCH  11  12
ENDBRANCH   1  11
BRANCH   2  22
HETATM   22  C10 UNL     1      11.870 -10.002  37.258  1.00  0.00     0.228 C 
HETATM   23  O1  UNL     1      12.273  -9.650  38.443  1.00  0.00    -0.643 OA
HETATM   24  O2  UNL     1      12.224  -9.191  36.233  1.00  0.00    -0.643 OA
ENDBRANCH   2  22
BRANCH   6  25
HETATM   25  C13 UNL     1      11.631 -15.803  36.855  1.00  0.00     0.129 C 
HETATM   26  C14 UNL     1      10.460 -16.691  36.566  1.00  0.00     0.040 C 
BRANCH  25  27
HETATM   27  O4  UNL     1      12.571 -16.545  37.584  1.00  0.00    -0.395 OA
ATOM     28  H4  UNL     1      13.397 -16.628  37.123  1.00  0.00     0.210 HD
ENDBRANCH  25  27
ENDBRANCH   6  25
TORSDOF 7
ENDMDL
MODEL 2
REMARK VINA RESULT: -7.087960287      1.788      2.187
REMARK  7 active torsions:
REMARK  status: ('A' for Active; 'I' for Inactive)
REMARK    1  A    between atoms: C2_2  and  C3_3 
REMARK    2  A    between atoms: C6_8  and  C7_9 
REMARK    3  A    between atoms: C7_9  and  S1_10 
REMARK    4  A    between atoms: S1_10  and  C8_11 
REMARK    5  A    between atoms: C9_12  and  C10_13 
REMARK    6  A    between atoms: C12_19  and  C13_20 
REMARK    7  A    between atoms: C13_20  and  O4_22 
ROOT
HETATM    1  C8  UNL     1      10.863 -11.480  36.680  1.00  0.00     0.022 C 
HETATM    2  C9  UNL     1      12.022 -11.630  36.003  1.00  0.00     0.128 C 
HETATM    3  N2  UNL     1      12.165 -13.022  35.703  1.00  0.00    -0.304 N 
HETATM    4  C11 UNL     1      12.576 -14.343  35.436  1.00  0.00     0.233 C 
HETATM    5  O3  UNL     1      13.654 -14.814  35.058  1.00  0.00    -0.272 OA
HETATM    6  C12 UNL     1      11.231 -14.914  35.772  1.00  0.00     0.131 C 
HETATM    7  C15 UNL     1      10.779 -13.492  35.559  1.00  0.00     0.121 C 
HETATM    8  C16 UNL     1      10.159 -12.767  36.736  1.00  0.00     0.010 C 
HETATM    9  C17 UNL     1      10.207 -13.541  37.989  1.00  0.00     0.023 C 
HETATM   10  C18 UNL     1       8.693 -12.565  36.323  1.00  0.00     0.023 C 
ENDROOT
BRANCH   1  11
HETATM   11  S1  UNL     1      10.407  -9.877  37.291  1.00  0.00    -0.126 SA
BRANCH  11  12
HETATM   12  C7  UNL     1       9.577 -10.037  38.889  1.00  0.00     0.127 C 
BRANCH  12  13
HETATM   13  C6  UNL     1       8.341  -9.234  39.025  1.00  0.00     0.016 A 
HETATM   14  C4  UNL     1       7.552  -8.635  38.071  1.00  0.00     0.019 A 
HETATM   15  N1  UNL     1       6.636  -7.830  38.499  1.00  0.00    -0.357 N 
HETATM   16  C5  UNL     1       7.718  -8.955  36.609  1.00  0.00     0.069 C 
HETATM   17  C3  UNL     1       6.468  -7.604  39.783  1.00  0.00     0.051 A 
ATOM     18  H1  UNL     1       6.031  -7.360  37.826  1.00  0.00     0.166 HD
HETATM   19  S2  UNL     1       7.694  -8.604  40.471  1.00  0.00    -0.079 SA
BRANCH  17  20
HETATM   20  C2  UNL     1       5.502  -6.706  40.527  1.00  0.00     0.060 C 
HETATM   21  C1  UNL     1       4.197  -7.431  40.590  1.00  0.00     0.012 C 
ENDBRANCH  17  20
ENDBRANCH  12  13
ENDBRANCH  11  12
ENDBRANCH   1  11
BRANCH   2  22
HETATM   22  C10 UNL     1      13.017 -10.636  35.658  1.00  0.00     0.228 C 
HETATM   23  O1  UNL     1      13.365 -10.612  34.406  1.00  0.00    -0.643 OA
HETATM   24  O2  UNL     1      13.633  -9.749  36.474  1.00  0.00    -0.643 OA
ENDBRANCH   2  22
BRANCH   6  25
HETATM   25  C13 UNL     1      10.697 -15.901  34.781  1.00  0.00     0.129 C 
HETATM   26  C14 UNL     1       9.579 -16.694  35.385  1.00  0.00     0.040 C 
BRANCH  25  27
HETATM   27  O4  UNL     1      11.683 -16.800  34.347  1.00  0.00    -0.395 OA
ATOM     28  H4  UNL     1      11.509 -17.688  34.636  1.00  0.00     0.210 HD
ENDBRANCH  25  27
ENDBRANCH   6  25
TORSDOF 7
ENDMDL
MODEL 3
REMARK VINA RESULT: -7.052833923      2.262      2.852
REMARK  7 active torsions:
REMARK  status: ('A' for Active; 'I' for Inactive)
REMARK    1  A    between atoms: C2_2  and  C3_3 
REMARK    2  A    between atoms: C6_8  and  C7_9 
REMARK    3  A    between atoms: C7_9  and  S1_10 
REMARK    4  A    between atoms: S1_10  and  C8_11 
REMARK    5  A    between atoms: C9_12  and  C10_13 
REMARK    6  A    between atoms: C12_19  and  C13_20 
REMARK    7  A    between atoms: C13_20  and  O4_22 
ROOT
HETATM    1  C8  UNL     1      10.840 -12.772  37.165  1.00  0.00     0.022 C 
HETATM    2  C9  UNL     1      11.290 -12.317  35.976  1.00  0.00     0.128 C 
HETATM    3  N2  UNL     1      12.480 -13.048  35.660  1.00  0.00    -0.304 N 
HETATM    4  C11 UNL     1      13.731 -13.532  35.231  1.00  0.00     0.233 C 
HETATM    5  O3  UNL     1      14.502 -13.157  34.341  1.00  0.00    -0.272 OA
HETATM    6  C12 UNL     1      13.737 -14.641  36.239  1.00  0.00     0.131 C 
HETATM    7  C15 UNL     1      12.257 -14.361  36.284  1.00  0.00     0.121 C 
HETATM    8  C16 UNL     1      11.668 -13.902  37.603  1.00  0.00     0.010 C 
HETATM    9  C17 UNL     1      12.683 -13.668  38.645  1.00  0.00     0.023 C 
HETATM   10  C18 UNL     1      10.760 -15.064  38.034  1.00  0.00     0.023 C 
ENDROOT
BRANCH   1  11
HETATM   11  S1  UNL     1       9.414 -12.018  37.908  1.00  0.00    -0.126 SA
BRANCH  11  12
HETATM   12  C7  UNL     1       9.794 -10.318  38.390  1.00  0.00     0.127 C 
BRANCH  12  13
HETATM   13  C6  UNL     1       8.609  -9.453  38.584  1.00  0.00     0.016 A 
HETATM   14  C4  UNL     1       7.883  -8.712  37.682  1.00  0.00     0.019 A 
HETATM   15  N1  UNL     1       7.010  -7.895  38.172  1.00  0.00    -0.357 N 
HETATM   16  C5  UNL     1       8.063  -8.895  36.198  1.00  0.00     0.069 C 
HETATM   17  C3  UNL     1       6.826  -7.786  39.469  1.00  0.00     0.051 A 
ATOM     18  H1  UNL     1       6.452  -7.322  37.539  1.00  0.00     0.166 HD
HETATM   19  S2  UNL     1       7.969  -8.927  40.074  1.00  0.00    -0.079 SA
BRANCH  17  20
HETATM   20  C2  UNL     1       5.901  -6.904  40.282  1.00  0.00     0.060 C 
HETATM   21  C1  UNL     1       4.521  -7.449  40.113  1.00  0.00     0.012 C 
ENDBRANCH  17  20
ENDBRANCH  12  13
ENDBRANCH  11  12
ENDBRANCH   1  11
BRANCH   2  22
HETATM   22  C10 UNL     1      10.764 -11.256  35.142  1.00  0.00     0.228 C 
HETATM   23  O1  UNL     1      11.221 -10.067  35.405  1.00  0.00    -0.643 OA
HETATM   24  O2  UNL     1       9.855 -11.347  34.143  1.00  0.00    -0.643 OA
ENDBRANCH   2  22
BRANCH   6  25
HETATM   25  C13 UNL     1      14.108 -15.987  35.697  1.00  0.00     0.129 C 
HETATM   26  C14 UNL     1      14.166 -16.997  36.801  1.00  0.00     0.040 C 
BRANCH  25  27
HETATM   27  O4  UNL     1      15.356 -15.972  35.055  1.00  0.00    -0.395 OA
ATOM     28  H4  UNL     1      15.613 -16.836  34.753  1.00  0.00     0.210 HD
ENDBRANCH  25  27
ENDBRANCH   6  25
TORSDOF 7
ENDMDL
MODEL 4
REMARK VINA RESULT: -6.979452486      2.176      2.877
REMARK  7 active torsions:
REMARK  status: ('A' for Active; 'I' for Inactive)
REMARK    1  A    between atoms: C2_2  and  C3_3 
REMARK    2  A    between atoms: C6_8  and  C7_9 
REMARK    3  A    between atoms: C7_9  and  S1_10 
REMARK    4  A    between atoms: S1_10  and  C8_11 
REMARK    5  A    between atoms: C9_12  and  C10_13 
REMARK    6  A    between atoms: C12_19  and  C13_20 
REMARK    7  A    between atoms: C13_20  and  O4_22 
ROOT
HETATM    1  C8  UNL     1      10.328 -11.646  37.368  1.00  0.00     0.022 C 
HETATM    2  C9  UNL     1      10.610 -10.918  36.266  1.00  0.00     0.128 C 
HETATM    3  N2  UNL     1      11.842 -11.410  35.731  1.00  0.00    -0.304 N 
HETATM    4  C11 UNL     1      13.096 -11.634  35.129  1.00  0.00     0.233 C 
HETATM    5  O3  UNL     1      13.732 -10.997  34.282  1.00  0.00    -0.272 OA
HETATM    6  C12 UNL     1      13.326 -12.904  35.892  1.00  0.00     0.131 C 
HETATM    7  C15 UNL     1      11.834 -12.836  36.093  1.00  0.00     0.121 C 
HETATM    8  C16 UNL     1      11.319 -12.718  37.513  1.00  0.00     0.010 C 
HETATM    9  C17 UNL     1      12.392 -12.554  38.510  1.00  0.00     0.023 C 
HETATM   10  C18 UNL     1      10.597 -14.051  37.763  1.00  0.00     0.023 C 
ENDROOT
BRANCH   1  11
HETATM   11  S1  UNL     1       8.898 -11.243  38.341  1.00  0.00    -0.126 SA
BRANCH  11  12
HETATM   12  C7  UNL     1       9.176  -9.698  39.238  1.00  0.00     0.127 C 
BRANCH  12  13
HETATM   13  C6  UNL     1       7.946  -8.936  39.547  1.00  0.00     0.016 A 
HETATM   14  C4  UNL     1       6.969  -8.435  38.719  1.00  0.00     0.019 A 
HETATM   15  N1  UNL     1       6.106  -7.638  39.256  1.00  0.00    -0.357 N 
HETATM   16  C5  UNL     1       6.886  -8.849  37.273  1.00  0.00     0.069 C 
HETATM   17  C3  UNL     1       6.160  -7.329  40.533  1.00  0.00     0.051 A 
ATOM     18  H1  UNL     1       5.367  -7.239  38.677  1.00  0.00     0.166 HD
HETATM   19  S2  UNL     1       7.539  -8.232  41.045  1.00  0.00    -0.079 SA
BRANCH  17  20
HETATM   20  C2  UNL     1       5.299  -6.419  41.384  1.00  0.00     0.060 C 
HETATM   21  C1  UNL     1       5.622  -6.726  42.810  1.00  0.00     0.012 C 
ENDBRANCH  17  20
ENDBRANCH  12  13
ENDBRANCH  11  12
ENDBRANCH   1  11
BRANCH   2  22
HETATM   22  C10 UNL     1       9.889  -9.797  35.699  1.00  0.00     0.228 C 
HETATM   23  O1  UNL     1      10.184  -8.636  36.204  1.00  0.00    -0.643 OA
HETATM   24  O2  UNL     1       8.945  -9.812  34.729  1.00  0.00    -0.643 OA
ENDBRANCH   2  22
BRANCH   6  25
HETATM   25  C13 UNL     1      13.800 -14.060  35.068  1.00  0.00     0.129 C 
HETATM   26  C14 UNL     1      14.656 -14.973  35.892  1.00  0.00     0.040 C 
BRANCH  25  27
HETATM   27  O4  UNL     1      14.550 -13.645  33.958  1.00  0.00    -0.395 OA
ATOM     28  H4  UNL     1      14.535 -14.286  33.256  1.00  0.00     0.210 HD
ENDBRANCH  25  27
ENDBRANCH   6  25
TORSDOF 7
ENDMDL
MODEL 5
REMARK VINA RESULT: -6.939779160      2.703      3.797
REMARK  7 active torsions:
REMARK  status: ('A' for Active; 'I' for Inactive)
REMARK    1  A    between atoms: C2_2  and  C3_3 
REMARK    2  A    between atoms: C6_8  and  C7_9 
REMARK    3  A    between atoms: C7_9  and  S1_10 
REMARK    4  A    between atoms: S1_10  and  C8_11 
REMARK    5  A    between atoms: C9_12  and  C10_13 
REMARK    6  A    between atoms: C12_19  and  C13_20 
REMARK    7  A    between atoms: C13_20  and  O4_22 
ROOT
HETATM    1  C8  UNL     1      10.099 -13.424  37.272  1.00  0.00     0.022 C 
HETATM    2  C9  UNL     1      10.677 -14.122  36.270  1.00  0.00     0.128 C 
HETATM    3  N2  UNL     1       9.831 -15.241  35.985  1.00  0.00    -0.304 N 
HETATM    4  C11 UNL     1       9.234 -16.471  35.647  1.00  0.00     0.233 C 
HETATM    5  O3  UNL     1       9.631 -17.423  34.965  1.00  0.00    -0.272 OA
HETATM    6  C12 UNL     1       7.979 -16.163  36.406  1.00  0.00     0.131 C 
HETATM    7  C15 UNL     1       8.482 -14.746  36.299  1.00  0.00     0.121 C 
HETATM    8  C16 UNL     1       8.792 -14.011  37.588  1.00  0.00     0.010 C 
HETATM    9  C17 UNL     1       8.673 -14.860  38.787  1.00  0.00     0.023 C 
HETATM   10  C18 UNL     1       7.734 -12.899  37.649  1.00  0.00     0.023 C 
ENDROOT
BRANCH   1  11
HETATM   11  S1  UNL     1      10.931 -12.006  37.943  1.00  0.00    -0.126 SA
BRANCH  11  12
HETATM   12  C7  UNL     1      10.435 -10.517  37.047  1.00  0.00     0.127 C 
BRANCH  12  13
HETATM   13  C6  UNL     1       9.258  -9.820  37.612  1.00  0.00     0.016 A 
HETATM   14  C4  UNL     1       8.357  -8.963  37.025  1.00  0.00     0.019 A 
HETATM   15  N1  UNL     1       7.538  -8.352  37.817  1.00  0.00    -0.357 N 
HETATM   16  C5  UNL     1       8.298  -8.797  35.530  1.00  0.00     0.069 C 
HETATM   17  C3  UNL     1       7.566  -8.549  39.116  1.00  0.00     0.051 A 
ATOM     18  H1  UNL     1       6.856  -7.703  37.425  1.00  0.00     0.166 HD
HETATM   19  S2  UNL     1       8.848  -9.694  39.262  1.00  0.00    -0.079 SA
BRANCH  17  20
HETATM   20  C2  UNL     1       6.747  -7.952  40.242  1.00  0.00     0.060 C 
HETATM   21  C1  UNL     1       5.442  -7.527  39.652  1.00  0.00     0.012 C 
ENDBRANCH  17  20
ENDBRANCH  12  13
ENDBRANCH  11  12
ENDBRANCH   1  11
BRANCH   2  22
HETATM   22  C10 UNL     1      11.938 -13.888  35.598  1.00  0.00     0.228 C 
HETATM   23  O1  UNL     1      12.694 -14.936  35.457  1.00  0.00    -0.643 OA
HETATM   24  O2  UNL     1      12.428 -12.721  35.118  1.00  0.00    -0.643 OA
ENDBRANCH   2  22
BRANCH   6  25
HETATM   25  C13 UNL     1       6.708 -16.439  35.665  1.00  0.00     0.129 C 
HETATM   26  C14 UNL     1       5.524 -16.031  36.489  1.00  0.00     0.040 C 
BRANCH  25  27
HETATM   27  O4  UNL     1       6.567 -17.797  35.345  1.00  0.00    -0.395 OA
ATOM     28  H4  UNL     1       5.781 -17.966  34.838  1.00  0.00     0.210 HD
ENDBRANCH  25  27
ENDBRANCH   6  25
TORSDOF 7
ENDMDL
