MODEL 1
REMARK VINA RESULT: -5.912968283      0.000      0.000
REMARK  1 active torsions:
REMARK  status: ('A' for Active; 'I' for Inactive)
REMARK    1  A    between atoms: N1_1  and  C1_4 
REMARK       I    between atoms: N4_13  and  C4_14 
REMARK       I    between atoms: C4_14  and  N5_15 
REMARK       I    between atoms: C4_14  and  N6_19 
ROOT
HETATM    1  C1  UNL     1      15.284  56.512  54.123  1.00  0.00     0.699 A 
HETATM    2  N2  UNL     1      16.605  56.476  53.986  1.00  0.00    -0.150 N 
ATOM      3  H2  UNL     1      17.211  56.642  54.789  1.00  0.00     0.188 HD
HETATM    4  C2  UNL     1      17.132  56.217  52.775  1.00  0.00     0.329 A 
HETATM    5  O1  UNL     1      18.392  56.175  52.609  1.00  0.00    -0.261 OA
HETATM    6  C3  UNL     1      16.256  56.002  51.735  1.00  0.00     0.329 A 
HETATM    7  O2  UNL     1      16.761  55.760  50.607  1.00  0.00    -0.261 OA
HETATM    8  N3  UNL     1      14.926  56.045  51.910  1.00  0.00    -0.242 N 
ATOM      9  H3  UNL     1      14.306  55.880  51.117  1.00  0.00     0.191 HD
HETATM   10  N4  UNL     1      14.411  56.301  53.106  1.00  0.00    -0.063 N 
HETATM   11  C4  UNL     1      12.977  56.359  53.344  1.00  0.00     0.516 C 
HETATM   12  N5  UNL     1      12.256  55.301  52.709  1.00  0.00    -0.031 N 
ATOM     13  H51 UNL     1      11.251  55.341  52.876  1.00  0.00     0.279 HD
ATOM     14  H52 UNL     1      12.632  54.393  52.980  1.00  0.00     0.279 HD
ATOM     15  H53 UNL     1      12.457  55.274  51.710  1.00  0.00     0.279 HD
HETATM   16  N6  UNL     1      12.431  57.666  52.985  1.00  0.00    -0.031 N 
ATOM     17  H61 UNL     1      11.426  57.706  53.153  1.00  0.00     0.279 HD
ATOM     18  H62 UNL     1      12.661  57.916  52.024  1.00  0.00     0.279 HD
ATOM     19  H63 UNL     1      12.921  58.421  53.466  1.00  0.00     0.279 HD
ENDROOT
BRANCH   1  20
HETATM   20  N1  UNL     1      14.764  56.758  55.273  1.00  0.00    -0.233 N 
ATOM     21  H12 UNL     1      13.828  57.164  55.264  1.00  0.00     0.174 HD
ATOM     22  H11 UNL     1      15.285  56.545  56.124  1.00  0.00     0.174 HD
ENDBRANCH   1  20
TORSDOF 1
ENDMDL
MODEL 2
REMARK VINA RESULT: -5.347740498      3.084      4.522
REMARK  1 active torsions:
REMARK  status: ('A' for Active; 'I' for Inactive)
REMARK    1  A    between atoms: N1_1  and  C1_4 
REMARK       I    between atoms: N4_13  and  C4_14 
REMARK       I    between atoms: C4_14  and  N5_15 
REMARK       I    between atoms: C4_14  and  N6_19 
ROOT
HETATM    1  C1  UNL     1      12.589  56.070  52.860  1.00  0.00     0.699 A 
HETATM    2  N2  UNL     1      11.717  56.305  53.834  1.00  0.00    -0.150 N 
ATOM      3  H2  UNL     1      10.736  56.050  53.721  1.00  0.00     0.188 HD
HETATM    4  C2  UNL     1      12.144  56.884  54.972  1.00  0.00     0.329 A 
HETATM    5  O1  UNL     1      11.335  57.123  55.924  1.00  0.00    -0.261 OA
HETATM    6  C3  UNL     1      13.480  57.202  55.058  1.00  0.00     0.329 A 
HETATM    7  O2  UNL     1      13.868  57.743  56.127  1.00  0.00    -0.261 OA
HETATM    8  N3  UNL     1      14.334  56.950  54.054  1.00  0.00    -0.242 N 
ATOM      9  H3  UNL     1      15.319  57.198  54.152  1.00  0.00     0.191 HD
HETATM   10  N4  UNL     1      13.908  56.379  52.934  1.00  0.00    -0.063 N 
HETATM   11  C4  UNL     1      14.795  56.086  51.819  1.00  0.00     0.516 C 
HETATM   12  N5  UNL     1      16.041  55.516  52.223  1.00  0.00    -0.031 N 
ATOM     13  H51 UNL     1      16.663  55.310  51.442  1.00  0.00     0.279 HD
ATOM     14  H52 UNL     1      15.891  54.685  52.795  1.00  0.00     0.279 HD
ATOM     15  H53 UNL     1      16.506  56.110  52.910  1.00  0.00     0.279 HD
HETATM   16  N6  UNL     1      14.996  57.262  50.976  1.00  0.00    -0.031 N 
ATOM     17  H61 UNL     1      15.618  57.057  50.194  1.00  0.00     0.279 HD
ATOM     18  H62 UNL     1      15.328  58.059  51.519  1.00  0.00     0.279 HD
ATOM     19  H63 UNL     1      14.108  57.649  50.656  1.00  0.00     0.279 HD
ENDROOT
BRANCH   1  20
HETATM   20  N1  UNL     1      12.198  55.518  51.767  1.00  0.00    -0.233 N 
ATOM     21  H12 UNL     1      11.916  56.152  51.020  1.00  0.00     0.174 HD
ATOM     22  H11 UNL     1      12.184  54.501  51.687  1.00  0.00     0.174 HD
ENDBRANCH   1  20
TORSDOF 1
ENDMDL
MODEL 3
REMARK VINA RESULT: -5.059935166      1.687      1.872
REMARK  1 active torsions:
REMARK  status: ('A' for Active; 'I' for Inactive)
REMARK    1  A    between atoms: N1_1  and  C1_4 
REMARK       I    between atoms: N4_13  and  C4_14 
REMARK       I    between atoms: C4_14  and  N5_15 
REMARK       I    between atoms: C4_14  and  N6_19 
ROOT
HETATM    1  C1  UNL     1      14.476  55.547  54.082  1.00  0.00     0.699 A 
HETATM    2  N2  UNL     1      15.579  55.475  53.346  1.00  0.00    -0.150 N 
ATOM      3  H2  UNL     1      16.394  54.964  53.686  1.00  0.00     0.188 HD
HETATM    4  C2  UNL     1      15.609  56.084  52.147  1.00  0.00     0.329 A 
HETATM    5  O1  UNL     1      16.650  56.035  51.417  1.00  0.00    -0.261 OA
HETATM    6  C3  UNL     1      14.476  56.756  51.749  1.00  0.00     0.329 A 
HETATM    7  O2  UNL     1      14.515  57.322  50.625  1.00  0.00    -0.261 OA
HETATM    8  N3  UNL     1      13.377  56.808  52.519  1.00  0.00    -0.242 N 
ATOM      9  H3  UNL     1      12.554  57.315  52.192  1.00  0.00     0.191 HD
HETATM   10  N4  UNL     1      13.353  56.205  53.701  1.00  0.00    -0.063 N 
HETATM   11  C4  UNL     1      12.186  56.234  54.570  1.00  0.00     0.516 C 
HETATM   12  N5  UNL     1      10.958  56.011  53.873  1.00  0.00    -0.031 N 
ATOM     13  H51 UNL     1      10.141  56.030  54.482  1.00  0.00     0.279 HD
ATOM     14  H52 UNL     1      10.995  55.140  53.344  1.00  0.00     0.279 HD
ATOM     15  H53 UNL     1      10.853  56.671  53.103  1.00  0.00     0.279 HD
HETATM   16  N6  UNL     1      12.138  57.466  55.354  1.00  0.00    -0.031 N 
ATOM     17  H61 UNL     1      11.320  57.485  55.963  1.00  0.00     0.279 HD
ATOM     18  H62 UNL     1      12.180  58.291  54.757  1.00  0.00     0.279 HD
ATOM     19  H63 UNL     1      13.001  57.608  55.880  1.00  0.00     0.279 HD
ENDROOT
BRANCH   1  20
HETATM   20  N1  UNL     1      14.430  54.970  55.230  1.00  0.00    -0.233 N 
ATOM     21  H12 UNL     1      13.499  54.763  55.592  1.00  0.00     0.174 HD
ATOM     22  H11 UNL     1      15.295  54.747  55.723  1.00  0.00     0.174 HD
ENDBRANCH   1  20
TORSDOF 1
ENDMDL
MODEL 4
REMARK VINA RESULT: -4.663537992      1.102      2.672
REMARK  1 active torsions:
REMARK  status: ('A' for Active; 'I' for Inactive)
REMARK    1  A    between atoms: N1_1  and  C1_4 
REMARK       I    between atoms: N4_13  and  C4_14 
REMARK       I    between atoms: C4_14  and  N5_15 
REMARK       I    between atoms: C4_14  and  N6_19 
ROOT
HETATM    1  C1  UNL     1      14.540  55.890  52.577  1.00  0.00     0.699 A 
HETATM    2  N2  UNL     1      15.315  55.740  51.508  1.00  0.00    -0.150 N 
ATOM      3  H2  UNL     1      14.910  55.474  50.610  1.00  0.00     0.188 HD
HETATM    4  C2  UNL     1      16.640  55.942  51.625  1.00  0.00     0.329 A 
HETATM    5  O1  UNL     1      17.410  55.806  50.621  1.00  0.00    -0.261 OA
HETATM    6  C3  UNL     1      17.120  56.298  52.864  1.00  0.00     0.329 A 
HETATM    7  O2  UNL     1      18.362  56.486  52.961  1.00  0.00    -0.261 OA
HETATM    8  N3  UNL     1      16.308  56.442  53.923  1.00  0.00    -0.242 N 
ATOM      9  H3  UNL     1      16.698  56.708  54.827  1.00  0.00     0.191 HD
HETATM   10  N4  UNL     1      15.002  56.241  53.803  1.00  0.00    -0.063 N 
HETATM   11  C4  UNL     1      14.082  56.385  54.921  1.00  0.00     0.516 C 
HETATM   12  N5  UNL     1      14.335  57.546  55.714  1.00  0.00    -0.031 N 
ATOM     13  H51 UNL     1      13.690  57.647  56.498  1.00  0.00     0.279 HD
ATOM     14  H52 UNL     1      14.336  58.386  55.137  1.00  0.00     0.279 HD
ATOM     15  H53 UNL     1      15.302  57.562  56.036  1.00  0.00     0.279 HD
HETATM   16  N6  UNL     1      14.050  55.176  55.741  1.00  0.00    -0.031 N 
ATOM     17  H61 UNL     1      13.405  55.277  56.525  1.00  0.00     0.279 HD
ATOM     18  H62 UNL     1      14.983  54.913  56.056  1.00  0.00     0.279 HD
ATOM     19  H63 UNL     1      13.834  54.350  55.182  1.00  0.00     0.279 HD
ENDROOT
BRANCH   1  20
HETATM   20  N1  UNL     1      13.272  55.701  52.483  1.00  0.00    -0.233 N 
ATOM     21  H12 UNL     1      12.972  54.737  52.334  1.00  0.00     0.174 HD
ATOM     22  H11 UNL     1      12.632  56.491  52.558  1.00  0.00     0.174 HD
ENDBRANCH   1  20
TORSDOF 1
ENDMDL
MODEL 5
REMARK VINA RESULT: -4.249948915      3.103      4.207
REMARK  1 active torsions:
REMARK  status: ('A' for Active; 'I' for Inactive)
REMARK    1  A    between atoms: N1_1  and  C1_4 
REMARK       I    between atoms: N4_13  and  C4_14 
REMARK       I    between atoms: C4_14  and  N5_15 
REMARK       I    between atoms: C4_14  and  N6_19 
ROOT
HETATM    1  C1  UNL     1      14.502  56.754  54.291  1.00  0.00     0.699 A 
HETATM    2  N2  UNL     1      13.544  56.900  55.199  1.00  0.00    -0.150 N 
ATOM      3  H2  UNL     1      13.780  57.013  56.185  1.00  0.00     0.188 HD
HETATM    4  C2  UNL     1      12.258  56.898  54.803  1.00  0.00     0.329 A 
HETATM    5  O1  UNL     1      11.316  57.036  55.647  1.00  0.00    -0.261 OA
HETATM    6  C3  UNL     1      12.009  56.742  53.459  1.00  0.00     0.329 A 
HETATM    7  O2  UNL     1      10.802  56.742  53.099  1.00  0.00    -0.261 OA
HETATM    8  N3  UNL     1      13.003  56.597  52.568  1.00  0.00    -0.242 N 
ATOM      9  H3  UNL     1      12.782  56.484  51.578  1.00  0.00     0.191 HD
HETATM   10  N4  UNL     1      14.269  56.600  52.963  1.00  0.00    -0.063 N 
HETATM   11  C4  UNL     1      15.380  56.446  52.036  1.00  0.00     0.516 C 
HETATM   12  N5  UNL     1      15.231  57.220  50.844  1.00  0.00    -0.031 N 
ATOM     13  H51 UNL     1      16.009  57.113  50.194  1.00  0.00     0.279 HD
ATOM     14  H52 UNL     1      15.078  58.204  51.067  1.00  0.00     0.279 HD
ATOM     15  H53 UNL     1      14.344  57.013  50.386  1.00  0.00     0.279 HD
HETATM   16  N6  UNL     1      15.626  55.039  51.730  1.00  0.00    -0.031 N 
ATOM     17  H61 UNL     1      16.404  54.931  51.080  1.00  0.00     0.279 HD
ATOM     18  H62 UNL     1      14.783  54.578  51.385  1.00  0.00     0.279 HD
ATOM     19  H63 UNL     1      15.768  54.491  52.579  1.00  0.00     0.279 HD
ENDROOT
BRANCH   1  20
HETATM   20  N1  UNL     1      15.736  56.754  54.653  1.00  0.00    -0.233 N 
ATOM     21  H12 UNL     1      15.982  57.395  55.407  1.00  0.00     0.174 HD
ATOM     22  H11 UNL     1      16.402  56.135  54.191  1.00  0.00     0.174 HD
ENDBRANCH   1  20
TORSDOF 1
ENDMDL
