REMARK  0 active torsions:
REMARK  status: ('A' for Active; 'I' for Inactive)
ROOT
HETATM    1  C1  UNL     1      -1.478   0.942   0.254  1.00  0.00     0.005 C 
HETATM    2  C2  UNL     1      -1.789  -0.552   0.085  1.00  0.00     0.006 C 
HETATM    3  C3  UNL     1      -0.711  -1.110  -0.786  1.00  0.00    -0.006 C 
HETATM    4  C4  UNL     1       0.619  -1.247  -0.047  1.00  0.00    -0.009 C 
HETATM    5  C5  UNL     1       0.674  -0.027   0.826  1.00  0.00     0.010 C 
HETATM    6  C6  UNL     1      -0.021   0.969  -0.120  1.00  0.00    -0.010 C 
HETATM    7  C7  UNL     1      -0.026   0.134  -1.372  1.00  0.00    -0.006 C 
HETATM    8  C8  UNL     1       1.244  -0.705  -1.339  1.00  0.00     0.010 C 
ENDROOT
TORSDOF 0
