REMARK  5 active torsions:
REMARK  status: ('A' for Active; 'I' for Inactive)
REMARK       I    between atoms: N1_2  and  C2_4 
REMARK    1  A    between atoms: C2_4  and  C3_6 
REMARK    2  A    between atoms: C3_6  and  N2_7 
REMARK    3  A    between atoms: C3_6  and  C4_11 
REMARK    4  A    between atoms: C4_11  and  C16_25 
REMARK    5  A    between atoms: C12_19  and  C13_20 
ROOT
HETATM    1  C4  UNL     1      -0.419  -1.016  -1.255  1.00  0.00     0.006 C 
HETATM    2  C5  UNL     1      -1.011  -1.146   0.114  1.00  0.00     0.019 C 
HETATM    3  C6  UNL     1      -0.155   0.044   0.431  1.00  0.00     0.014 C 
HETATM    4  C7  UNL     1       1.015   0.108  -0.625  1.00  0.00     0.001 C 
HETATM    5  C8  UNL     1       0.648   0.822  -1.885  1.00  0.00     0.004 A 
HETATM    6  C9  UNL     1      -0.138   1.745  -1.145  1.00  0.00     0.018 A 
HETATM    7  C10 UNL     1       0.588   2.243   0.065  1.00  0.00    -0.024 C 
HETATM    8  C11 UNL     1       1.236   1.423   1.157  1.00  0.00    -0.009 C 
HETATM    9  C12 UNL     1       0.836   0.004   1.431  1.00  0.00     0.070 C 
HETATM   10  C14 UNL     1       1.336  -1.245   0.764  1.00  0.00     0.031 C 
HETATM   11  C15 UNL     1       0.934  -1.300  -0.733  1.00  0.00     0.003 C 
HETATM   12  C16 UNL     1      -0.684   0.462  -1.641  1.00  0.00     0.010 A 
ENDROOT
BRANCH   1  13
HETATM   13  C3  UNL     1      -0.911  -1.909  -2.283  1.00  0.00     0.283 C 
BRANCH  13  14
HETATM   14  C2  UNL     1      -0.680  -3.325  -1.897  1.00  0.00     0.248 C 
HETATM   15  N1  UNL     1      -1.780  -4.240  -1.925  1.00  0.00    -0.364 N 
HETATM   16  C1  UNL     1      -1.668  -5.633  -1.571  1.00  0.00     0.149 C 
ATOM     17  H1  UNL     1      -2.693  -3.887  -2.211  1.00  0.00     0.161 HD
HETATM   18  O1  UNL     1       0.409  -3.801  -1.543  1.00  0.00    -0.271 OA
ENDBRANCH  13  14
BRANCH  13  19
HETATM   19  N2  UNL     1      -2.299  -1.699  -2.658  1.00  0.00    -0.066 N 
ATOM     20  H23 UNL     1      -2.594  -2.344  -3.391  1.00  0.00     0.275 HD
ATOM     21  H22 UNL     1      -2.939  -2.000  -1.923  1.00  0.00     0.275 HD
ATOM     22  H21 UNL     1      -2.458  -0.727  -2.923  1.00  0.00     0.275 HD
ENDBRANCH  13  19
ENDBRANCH   1  13
BRANCH   9  23
HETATM   23  C13 UNL     1       0.432  -0.293   2.801  1.00  0.00     0.186 C 
HETATM   24  O2  UNL     1       0.922  -1.317   3.374  1.00  0.00    -0.647 OA
HETATM   25  O3  UNL     1      -0.468   0.504   3.496  1.00  0.00    -0.647 OA
ENDBRANCH   9  23
TORSDOF 5
