REMARK  1 active torsions:
REMARK  status: ('A' for Active; 'I' for Inactive)
REMARK    1  A    between atoms: C2_2  and  N1_3 
ROOT
HETATM    1  C1  UNL     1      -1.376   2.649  -0.113  1.00  0.00     0.047 C 
HETATM    2  C2  UNL     1      -0.316   1.779  -0.744  1.00  0.00     0.129 C 
HETATM    3  C3  UNL     1       0.931   1.796   0.075  1.00  0.00     0.031 A 
HETATM    4  C4  UNL     1       1.437   1.059   1.147  1.00  0.00    -0.003 A 
HETATM    5  C5  UNL     1       1.069   0.310   2.336  1.00  0.00     0.006 C 
HETATM    6  C6  UNL     1      -0.172  -0.413   2.699  1.00  0.00     0.007 C 
HETATM    7  C7  UNL     1      -0.621  -1.596   1.820  1.00  0.00     0.013 C 
HETATM    8  C8  UNL     1       0.123  -1.282   0.663  1.00  0.00     0.028 C 
HETATM    9  C9  UNL     1       0.242  -1.671  -0.716  1.00  0.00     0.195 C 
HETATM   10  N2  UNL     1      -1.011  -1.987  -1.308  1.00  0.00    -0.069 N 
ATOM     11  H21 UNL     1      -0.956  -2.742  -1.992  1.00  0.00     0.277 HD
ATOM     12  H22 UNL     1      -1.351  -1.265  -1.943  1.00  0.00     0.277 HD
HETATM   13  C10 UNL     1      -1.936  -2.271  -0.199  1.00  0.00     0.254 C 
HETATM   14  C11 UNL     1      -1.828  -1.296   0.905  1.00  0.00     0.050 C 
HETATM   15 BR1  UNL     1      -3.406  -0.812   1.829  1.00  0.00    -0.083 Br
HETATM   16  C12 UNL     1      -0.836  -0.217   0.534  1.00  0.00     0.020 C 
HETATM   17  C13 UNL     1      -0.710   0.332  -0.824  1.00  0.00     0.034 C 
HETATM   18  C14 UNL     1       0.713  -0.220  -1.054  1.00  0.00     0.028 C 
HETATM   19  C15 UNL     1       1.622   0.414  -0.141  1.00  0.00     0.003 A 
ENDROOT
BRANCH   2  20
HETATM   20  N1  UNL     1      -0.149   2.237  -2.112  1.00  0.00    -0.070 N 
ATOM     21  H13 UNL     1      -1.022   2.251  -2.639  1.00  0.00     0.275 HD
ATOM     22  H12 UNL     1       0.059   3.233  -2.178  1.00  0.00     0.275 HD
ATOM     23  H11 UNL     1       0.567   1.649  -2.538  1.00  0.00     0.275 HD
ENDBRANCH   2  20
TORSDOF 1
