REMARK  1 active torsions:
REMARK  status: ('A' for Active; 'I' for Inactive)
REMARK    1  A    between atoms: C7_8  and  C8_9 
ROOT
HETATM    1  C1  UNL     1      -1.903   1.287  -0.197  1.00  0.00     0.017 C 
HETATM    2  C2  UNL     1      -1.622  -0.120   0.275  1.00  0.00    -0.024 C 
HETATM    3  C3  UNL     1      -2.218   0.001   1.689  1.00  0.00     0.017 C 
HETATM    4  C4  UNL     1      -0.237  -0.653   0.214  1.00  0.00     0.031 C 
HETATM    5  C5  UNL     1      -0.299  -1.557   1.337  1.00  0.00     0.064 C 
HETATM    6  C6  UNL     1      -1.288  -2.151   0.549  1.00  0.00     0.009 C 
HETATM    7 CL1  UNL     1      -2.153  -3.571   1.154  1.00  0.00    -0.092 Cl
HETATM    8  C7  UNL     1      -1.521  -1.690  -0.951  1.00  0.00     0.033 C 
HETATM    9  C9  UNL     1      -0.417  -1.022  -1.752  1.00  0.00     0.060 C 
HETATM   10  C10 UNL     1       0.649  -0.003  -1.753  1.00  0.00     0.178 C 
HETATM   11  F1  UNL     1       1.349  -0.276  -2.960  1.00  0.00    -0.249 F 
HETATM   12  C11 UNL     1       1.771   0.272  -0.730  1.00  0.00     0.050 C 
HETATM   13  C12 UNL     1       1.800   0.107   0.748  1.00  0.00     0.001 C 
HETATM   14  C13 UNL     1       3.303  -0.418   0.983  1.00  0.00     0.019 C 
HETATM   15  C14 UNL     1       2.043   1.237   1.688  1.00  0.00     0.092 C 
HETATM   16 BR1  UNL     1       1.051   2.676   2.204  1.00  0.00    -0.088 Br
HETATM   17  C15 UNL     1       2.242   0.333   2.947  1.00  0.00     0.184 C 
HETATM   18  O1  UNL     1       1.642  -0.929   2.682  1.00  0.00    -0.383 OA
HETATM   19  C16 UNL     1       0.850  -0.627   1.711  1.00  0.00     0.140 C 
HETATM   20  C17 UNL     1       0.584  -2.144  -1.751  1.00  0.00     0.107 A 
HETATM   21  N1  UNL     1       0.541  -3.025  -0.835  1.00  0.00    -0.408 N 
ATOM     22  H1  UNL     1       0.459  -4.018  -0.615  1.00  0.00     0.154 HD
HETATM   23  C18 UNL     1       0.683  -1.719  -0.325  1.00  0.00     0.105 A 
HETATM   24  C19 UNL     1      -2.646  -0.779  -0.661  1.00  0.00     0.106 C 
HETATM   25 CL3  UNL     1      -4.052  -1.339   0.129  1.00  0.00    -0.123 Cl
ENDROOT
BRANCH   8  26
HETATM   26  C8  UNL     1      -2.053  -2.757  -1.793  1.00  0.00     0.131 C 
HETATM   27 CL2  UNL     1      -3.615  -3.438  -1.276  1.00  0.00    -0.129 Cl
ENDBRANCH   8  26
TORSDOF 1
