REMARK  7 active torsions:
REMARK  status: ('A' for Active; 'I' for Inactive)
REMARK    1  A    between atoms: C2_2  and  C4_4 
REMARK    2  A    between atoms: C4_4  and  N1_5 
REMARK    3  A    between atoms: C4_4  and  C21_29 
REMARK       I    between atoms: N1_5  and  C5_7 
REMARK    4  A    between atoms: C5_7  and  C6_9 
REMARK    5  A    between atoms: N2_10  and  C7_11 
REMARK    6  A    between atoms: C7_11  and  O2_12 
REMARK    7  A    between atoms: C8_14  and  C9_16 
ROOT
HETATM    1  C6  UNL     1       0.339   2.654  -1.194  1.00  0.00     0.232 C 
HETATM    2  N2  UNL     1      -0.126   2.074   0.055  1.00  0.00    -0.333 N 
HETATM    3  C15 UNL     1      -1.492   2.469   0.378  1.00  0.00     0.105 C 
HETATM    4  C16 UNL     1      -2.422   1.818  -0.559  1.00  0.00     0.092 C 
HETATM    5  S1  UNL     1      -1.440   3.399  -2.009  1.00  0.00    -0.185 SA
HETATM    6  C17 UNL     1      -2.060   4.759  -0.488  1.00  0.00     0.076 C 
HETATM    7  C18 UNL     1      -1.734   3.874   0.639  1.00  0.00    -0.018 C 
HETATM    8  C19 UNL     1      -0.571   4.510   1.351  1.00  0.00     0.018 C 
HETATM    9  C20 UNL     1      -2.939   3.994   1.596  1.00  0.00     0.018 C 
ENDROOT
BRANCH   1  10
HETATM   10  C5  UNL     1       0.748   1.808  -2.271  1.00  0.00     0.250 C 
HETATM   11  N1  UNL     1       0.716   0.434  -2.487  1.00  0.00    -0.344 N 
ATOM     12  H1  UNL     1       0.324  -0.141  -1.741  1.00  0.00     0.163 HD
HETATM   13  O1  UNL     1       1.258   2.471  -3.257  1.00  0.00    -0.270 OA
BRANCH  11  14
HETATM   14  C4  UNL     1       1.182  -0.254  -3.660  1.00  0.00     0.189 C 
BRANCH  14  15
HETATM   15  C2  UNL     1       2.364  -1.147  -3.457  1.00  0.00     0.010 C 
HETATM   16  C1  UNL     1       3.566  -0.343  -2.956  1.00  0.00     0.012 C 
HETATM   17  C3  UNL     1       2.158  -2.265  -2.503  1.00  0.00     0.012 C 
ENDBRANCH  14  15
BRANCH  14  18
HETATM   18  C21 UNL     1       0.055  -1.048  -4.209  1.00  0.00     0.197 C 
HETATM   19  O3  UNL     1      -1.089  -1.057  -3.665  1.00  0.00    -0.646 OA
HETATM   20  O4  UNL     1       0.192  -1.826  -5.352  1.00  0.00    -0.646 OA
ENDBRANCH  14  18
ENDBRANCH  11  14
ENDBRANCH   1  10
BRANCH   2  21
HETATM   21  C7  UNL     1       0.748   1.235   0.803  1.00  0.00     0.161 C 
HETATM   22  C8  UNL     1       0.619   0.541   2.062  1.00  0.00     0.079 C 
HETATM   23  N3  UNL     1      -0.414   0.942   2.980  1.00  0.00    -0.102 NA
BRANCH  21  24
HETATM   24  O2  UNL     1       1.916   1.040   0.248  1.00  0.00    -0.345 OA
ATOM     25  H2  UNL     1       2.499   0.480   0.747  1.00  0.00     0.219 HD
ENDBRANCH  21  24
BRANCH  22  26
HETATM   26  C9  UNL     1       0.692  -0.982   1.961  1.00  0.00     0.037 C 
HETATM   27  C10 UNL     1       0.559  -1.609   3.339  1.00  0.00     0.010 C 
HETATM   28  C11 UNL     1       0.987  -3.063   3.318  1.00  0.00     0.001 C 
HETATM   29  C12 UNL     1       0.714  -3.621   1.933  1.00  0.00     0.000 C 
HETATM   30  C13 UNL     1      -0.638  -3.006   1.538  1.00  0.00     0.001 C 
HETATM   31  C14 UNL     1      -0.490  -1.541   1.200  1.00  0.00     0.010 C 
ENDBRANCH  22  26
ENDBRANCH   2  21
TORSDOF 7
