REMARK  17 active torsions:
REMARK  status: ('A' for Active; 'I' for Inactive)
REMARK       I    between atoms: C2_2  and  N1_4 
REMARK    1  A    between atoms: N1_4  and  C3_6 
REMARK    2  A    between atoms: C3_6  and  C4_7 
REMARK    3  A    between atoms: C4_7  and  C5_8 
REMARK    4  A    between atoms: C5_8  and  O3_10 
REMARK    5  A    between atoms: O3_10  and  C6_11 
REMARK    6  A    between atoms: C6_11  and  N2_12 
REMARK    7  A    between atoms: C7_13  and  N3_14 
REMARK    8  A    between atoms: C8_15  and  O4_16 
REMARK    9  A    between atoms: C12_22  and  O5_23 
REMARK   10  A    between atoms: C13_25  and  C14_26 
REMARK   11  A    between atoms: C14_26  and  O7_28 
REMARK   12  A    between atoms: O7_28  and  C15_29 
REMARK   13  A    between atoms: C15_29  and  C16_30 
REMARK   14  A    between atoms: N7_34  and  C17_35 
REMARK   15  A    between atoms: C21_43  and  C22_44 
REMARK       I    between atoms: C22_44  and  N10_46 
REMARK   16  A    between atoms: C23_48  and  C24_50 
REMARK   17  A    between atoms: C25_55  and  N14_56 
ROOT
HETATM    1  N2  UNL     1       1.645   4.044   0.069  1.00  0.00    -0.118 N 
HETATM    2  C7  UNL     1       0.670   3.405  -0.577  1.00  0.00     0.183 A 
HETATM    3  C21 UNL     1      -0.459   4.191  -0.570  1.00  0.00     0.163 A 
HETATM    4  N13 UNL     1      -0.159   5.313   0.080  1.00  0.00    -0.182 N 
ATOM      5  H13 UNL     1      -0.792   6.094   0.250  1.00  0.00     0.184 HD
HETATM    6  C25 UNL     1       1.131   5.236   0.475  1.00  0.00     0.686 A 
ENDROOT
BRANCH   2   7
HETATM    7  N3  UNL     1       0.753   2.184  -1.238  1.00  0.00    -0.226 N 
HETATM    8  C8  UNL     1       0.579   1.259  -1.005  1.00  0.00     0.210 A 
HETATM    9  C9  UNL     1       0.817   0.195  -2.109  1.00  0.00     0.105 A 
HETATM   10  C12 UNL     1       0.532  -0.171  -1.323  1.00  0.00     0.161 A 
HETATM   11  N4  UNL     1       0.864   1.180  -1.920  1.00  0.00     0.000 N 
HETATM   12  C10 UNL     1       1.267   0.426  -3.439  1.00  0.00    -0.004 A 
HETATM   13  C13 UNL     1       0.658  -1.051  -2.023  1.00  0.00     0.057 A 
HETATM   14  C11 UNL     1       1.298   1.490  -3.172  1.00  0.00    -0.003 A 
BRANCH   8  15
HETATM   15  O4  UNL     1       0.166   1.356   0.320  1.00  0.00    -0.365 OA
ATOM     16  H4  UNL     1      -0.004   0.450   0.548  1.00  0.00     0.212 HD
ENDBRANCH   8  15
BRANCH  13  17
HETATM   17  C14 UNL     1       0.475  -2.468  -1.866  1.00  0.00     0.290 C 
HETATM   18  O6  UNL     1      -0.638  -2.962  -1.826  1.00  0.00    -0.260 OA
BRANCH  17  19
HETATM   19  O7  UNL     1       1.544  -3.312  -1.754  1.00  0.00    -0.310 OA
BRANCH  19  20
HETATM   20  C15 UNL     1       1.607  -4.670  -1.576  1.00  0.00     0.258 C 
BRANCH  20  21
HETATM   21  C16 UNL     1       0.870  -5.381  -2.634  1.00  0.00     0.135 A 
HETATM   22  N5  UNL     1       1.313  -5.778  -3.827  1.00  0.00    -0.268 N 
HETATM   23  N6  UNL     1       0.316  -6.421  -4.477  1.00  0.00     0.003 NA
ATOM     24  H5  UNL     1       2.253  -5.622  -4.191  1.00  0.00     0.185 HD
HETATM   25  N7  UNL     1      -0.764  -6.440  -3.713  1.00  0.00    -0.178 N 
HETATM   26  N9  UNL     1      -0.427  -5.815  -2.612  1.00  0.00    -0.266 N 
ATOM     27  H9  UNL     1      -1.061  -5.668  -1.826  1.00  0.00     0.190 HD
BRANCH  25  28
HETATM   28  C17 UNL     1      -2.054  -7.030  -4.030  1.00  0.00     0.089 A 
HETATM   29  C18 UNL     1      -3.079  -6.424  -4.735  1.00  0.00     0.051 A 
HETATM   30  C19 UNL     1      -4.166  -7.279  -4.840  1.00  0.00     0.090 A 
HETATM   31  N8  UNL     1      -3.799  -8.416  -4.192  1.00  0.00    -0.373 N 
HETATM   32  C20 UNL     1      -2.550  -8.268  -3.713  1.00  0.00     0.120 A 
ATOM     33  H8  UNL     1      -4.378  -9.249  -4.086  1.00  0.00     0.164 HD
ENDBRANCH  25  28
ENDBRANCH  20  21
ENDBRANCH  19  20
ENDBRANCH  17  19
ENDBRANCH  13  17
BRANCH  10  34
HETATM   34  O5  UNL     1       0.099  -0.790  -0.165  1.00  0.00    -0.378 OA
ATOM     35  H5  UNL     1      -0.109  -1.638   0.210  1.00  0.00     0.211 HD
ENDBRANCH  10  34
ENDBRANCH   2   7
BRANCH   1  36
HETATM   36  C6  UNL     1       2.975   3.582   0.275  1.00  0.00     0.264 C 
BRANCH  36  37
HETATM   37  O3  UNL     1       3.254   2.828   1.367  1.00  0.00    -0.273 OA
BRANCH  37  38
HETATM   38  C5  UNL     1       3.203   2.937   2.695  1.00  0.00     0.266 C 
HETATM   39  O2  UNL     1       2.756   4.000   3.195  1.00  0.00    -0.265 OA
BRANCH  38  40
HETATM   40  C4  UNL     1       3.656   1.886   3.672  1.00  0.00     0.131 C 
BRANCH  40  41
HETATM   41  C3  UNL     1       3.660   0.516   3.105  1.00  0.00     0.132 C 
BRANCH  41  42
HETATM   42  N1  UNL     1       2.346   0.067   2.764  1.00  0.00    -0.361 N 
HETATM   43  C2  UNL     1       1.316  -0.086   3.724  1.00  0.00     0.213 C 
HETATM   44  C1  UNL     1      -0.030  -0.542   3.398  1.00  0.00     0.117 C 
HETATM   45  O1  UNL     1       1.558   0.183   4.941  1.00  0.00    -0.274 OA
ATOM     46  H1  UNL     1       2.142  -0.152   1.789  1.00  0.00     0.162 HD
ENDBRANCH  41  42
ENDBRANCH  40  41
ENDBRANCH  38  40
ENDBRANCH  37  38
ENDBRANCH  36  37
ENDBRANCH   1  36
BRANCH   3  47
HETATM   47  C22 UNL     1      -1.747   3.826  -1.173  1.00  0.00     0.278 C 
HETATM   48  O8  UNL     1      -1.721   3.269  -2.330  1.00  0.00    -0.266 OA
HETATM   49  N10 UNL     1      -2.940   4.071  -0.520  1.00  0.00    -0.306 N 
HETATM   50  C23 UNL     1      -3.347   3.801   0.635  1.00  0.00     0.184 C 
ATOM     51  H10 UNL     1      -3.624   4.569  -1.089  1.00  0.00     0.170 HD
HETATM   52  N11 UNL     1      -2.545   3.113   1.572  1.00  0.00    -0.077 NA
BRANCH  50  53
HETATM   53  C24 UNL     1      -4.717   4.197   1.056  1.00  0.00     0.296 C 
HETATM   54  N12 UNL     1      -5.180   3.895   2.343  1.00  0.00    -0.055 NA
HETATM   55  O9  UNL     1      -5.450   4.801   0.252  1.00  0.00    -0.268 OA
ENDBRANCH  50  53
ENDBRANCH   3  47
BRANCH   6  56
HETATM   56  N14 UNL     1       1.768   6.207   1.091  1.00  0.00    -0.234 N 
ATOM     57 2H14 UNL     1       2.742   6.149   1.389  1.00  0.00     0.174 HD
ATOM     58 1H14 UNL     1       1.383   7.101   1.395  1.00  0.00     0.174 HD
ENDBRANCH   6  56
TORSDOF 17
