REMARK  2 active torsions:
REMARK  status: ('A' for Active; 'I' for Inactive)
REMARK    1  A    between atoms: C1_2  and  C2_3 
REMARK    2  A    between atoms: C10_15  and  C11_16 
ROOT
HETATM    1  O1  UNL     1      -0.233  -1.043  -1.882  1.00  0.00    -0.300 OA
HETATM    2  C1  UNL     1      -0.037  -1.696  -0.845  1.00  0.00     0.134 C 
HETATM    3  C3  UNL     1       1.407  -1.932  -0.489  1.00  0.00     0.058 C 
HETATM    4  C4  UNL     1       1.286  -2.475   0.941  1.00  0.00     0.020 C 
HETATM    5  C5  UNL     1       0.817  -1.020   1.196  1.00  0.00     0.027 C 
HETATM    6  C6  UNL     1       1.902  -0.705   0.248  1.00  0.00     0.005 C 
HETATM    7  C7  UNL     1       1.922   0.598  -0.406  1.00  0.00     0.023 C 
HETATM    8  C8  UNL     1       1.563   1.774   0.454  1.00  0.00     0.075 C 
HETATM    9 BR1  UNL     1       2.443   1.484   2.182  1.00  0.00    -0.090 Br
HETATM   10  C9  UNL     1       0.131   2.076   0.643  1.00  0.00     0.105 C 
HETATM   11 BR2  UNL     1      -0.223   2.272   2.542  1.00  0.00    -0.087 Br
HETATM   12  C10 UNL     1      -0.857   1.222  -0.065  1.00  0.00     0.171 C 
HETATM   13  O2  UNL     1      -1.200   0.036   0.415  1.00  0.00    -0.367 OA
HETATM   14  C17 UNL     1      -0.488  -1.061   0.450  1.00  0.00     0.192 C 
ENDROOT
BRANCH  12  15
HETATM   15  C11 UNL     1      -2.156   2.015  -0.043  1.00  0.00    -0.028 A 
HETATM   16  C12 UNL     1      -2.990   1.923   1.061  1.00  0.00     0.010 A 
HETATM   17  C13 UNL     1      -4.185   2.629   1.134  1.00  0.00     0.001 A 
HETATM   18  C14 UNL     1      -4.569   3.442   0.100  1.00  0.00     0.000 A 
HETATM   19  C15 UNL     1      -3.734   3.529  -0.996  1.00  0.00     0.001 A 
HETATM   20  C16 UNL     1      -2.551   2.826  -1.062  1.00  0.00     0.010 A 
ENDBRANCH  12  15
BRANCH   2  21
HETATM   21  C2  UNL     1      -0.733  -3.021  -1.131  1.00  0.00     0.243 C 
HETATM   22 CL1  UNL     1       0.092  -3.686  -2.588  1.00  0.00    -0.100 Cl
HETATM   23 CL2  UNL     1      -2.419  -2.716  -1.620  1.00  0.00    -0.100 Cl
ENDBRANCH   2  21
TORSDOF 2
