REMARK  15 active torsions:
REMARK  status: ('A' for Active; 'I' for Inactive)
REMARK    1  A    between atoms: C2_2  and  C3_3 
REMARK    2  A    between atoms: C4_4  and  C5_5 
REMARK    3  A    between atoms: C5_5  and  O1_6 
REMARK    4  A    between atoms: C5_5  and  C22_31 
REMARK    5  A    between atoms: O1_6  and  C6_7 
REMARK    6  A    between atoms: C6_7  and  C7_8 
REMARK    7  A    between atoms: C7_8  and  O3_10 
REMARK    8  A    between atoms: O3_10  and  C8_11 
REMARK    9  A    between atoms: C16_20  and  O5_21 
REMARK   10  A    between atoms: C25_34  and  C26_35 
REMARK   11  A    between atoms: C26_35  and  O7_36 
REMARK   12  A    between atoms: O7_36  and  C27_37 
REMARK   13  A    between atoms: C27_37  and  C28_39 
REMARK   14  A    between atoms: C28_39  and  C29_40 
REMARK   15  A    between atoms: C29_40  and  C30_41 
ROOT
HETATM    1  C7  UNL     1      -1.745   1.646  -1.787  1.00  0.00     0.283 C 
HETATM    2  O2  UNL     1      -2.691   2.125  -1.072  1.00  0.00    -0.263 OA
ENDROOT
BRANCH   1   3
HETATM    3  C6  UNL     1      -0.400   2.273  -1.804  1.00  0.00     0.279 C 
BRANCH   3   4
HETATM    4  O1  UNL     1       0.424   1.571  -2.637  1.00  0.00    -0.372 OA
BRANCH   4   5
HETATM    5  C5  UNL     1       1.705   2.067  -2.742  1.00  0.00     0.148 C 
BRANCH   5   6
HETATM    6  C4  UNL     1       2.636   0.982  -2.356  1.00  0.00     0.006 C 
HETATM    7  C3  UNL     1       2.565   0.340  -1.187  1.00  0.00     0.005 C 
BRANCH   7   8
HETATM    8  C2  UNL     1       3.521  -0.698  -0.916  1.00  0.00    -0.064 C 
HETATM    9  C1  UNL     1       4.565  -1.020  -1.954  1.00  0.00     0.048 C 
HETATM   10  C25 UNL     1       3.516  -1.369   0.201  1.00  0.00     0.006 C 
BRANCH  10  11
HETATM   11  C26 UNL     1       2.561  -1.160   1.290  1.00  0.00     0.206 C 
BRANCH  11  12
HETATM   12  O7  UNL     1       3.311  -0.793   2.453  1.00  0.00    -0.318 OA
BRANCH  12  13
HETATM   13  C27 UNL     1       2.612  -0.540   3.622  1.00  0.00     0.259 C 
HETATM   14  O8  UNL     1       1.365  -0.643   3.608  1.00  0.00    -0.265 OA
BRANCH  13  15
HETATM   15  C28 UNL     1       3.350  -0.167   4.817  1.00  0.00     0.112 C 
BRANCH  15  16
HETATM   16  C29 UNL     1       3.794   1.224   4.996  1.00  0.00     0.018 C 
BRANCH  16  17
HETATM   17  C30 UNL     1       2.764   2.285   5.055  1.00  0.00    -0.051 C 
HETATM   18  C31 UNL     1       3.492   3.634   5.296  1.00  0.00     0.014 C 
HETATM   19  C32 UNL     1       2.066   2.442   3.731  1.00  0.00     0.014 C 
HETATM   20  C33 UNL     1       1.730   2.081   6.122  1.00  0.00     0.014 C 
ENDBRANCH  16  17
ENDBRANCH  15  16
ENDBRANCH  13  15
ENDBRANCH  12  13
ENDBRANCH  11  12
ENDBRANCH  10  11
ENDBRANCH   7   8
ENDBRANCH   5   6
BRANCH   5  21
HETATM   21  C22 UNL     1       2.033   2.452  -4.182  1.00  0.00     0.010 C 
HETATM   22  C23 UNL     1       1.145   3.555  -4.695  1.00  0.00     0.012 C 
HETATM   23  C24 UNL     1       3.465   2.980  -4.261  1.00  0.00     0.012 C 
ENDBRANCH   5  21
ENDBRANCH   4   5
ENDBRANCH   3   4
ENDBRANCH   1   3
BRANCH   1  24
HETATM   24  O3  UNL     1      -2.098   0.540  -2.503  1.00  0.00    -0.313 OA
BRANCH  24  25
HETATM   25  C8  UNL     1      -3.400  -0.065  -2.487  1.00  0.00     0.148 C 
HETATM   26  C9  UNL     1      -4.148   0.248  -3.782  1.00  0.00     0.112 C 
HETATM   27  C10 UNL     1      -5.266  -0.731  -3.618  1.00  0.00     0.139 C 
HETATM   28  O4  UNL     1      -6.450  -0.524  -3.791  1.00  0.00    -0.297 OA
HETATM   29  C11 UNL     1      -4.582  -1.948  -3.213  1.00  0.00     0.036 C 
HETATM   30  C12 UNL     1      -4.117  -2.563  -4.560  1.00  0.00     0.025 C 
HETATM   31  C13 UNL     1      -5.173  -3.015  -2.485  1.00  0.00     0.059 C 
HETATM   32  C20 UNL     1      -3.356  -1.498  -2.445  1.00  0.00     0.006 C 
HETATM   33  C14 UNL     1      -5.794  -3.090  -1.185  1.00  0.00    -0.003 C 
HETATM   34  C18 UNL     1      -3.866  -3.524  -1.693  1.00  0.00     0.101 C 
HETATM   35  C15 UNL     1      -5.726  -2.336  -0.075  1.00  0.00     0.072 C 
HETATM   36  C19 UNL     1      -5.824  -4.631  -1.096  1.00  0.00     0.244 C 
HETATM   37  C16 UNL     1      -4.669  -1.283  -0.475  1.00  0.00     0.129 C 
HETATM   38  C17 UNL     1      -3.640  -2.262  -1.095  1.00  0.00     0.050 C 
HETATM   39  N1  UNL     1      -4.404  -4.828  -1.479  1.00  0.00    -0.352 N 
HETATM   40  O6  UNL     1      -6.767  -5.307  -0.791  1.00  0.00    -0.268 OA
ATOM     41  H1  UNL     1      -3.912  -5.717  -1.571  1.00  0.00     0.163 HD
HETATM   42  C21 UNL     1      -2.055  -1.986  -2.970  1.00  0.00     0.020 C 
BRANCH  37  43
HETATM   43  O5  UNL     1      -4.165  -0.641   0.639  1.00  0.00    -0.395 OA
ATOM     44  H5  UNL     1      -3.515   0.007   0.393  1.00  0.00     0.210 HD
ENDBRANCH  37  43
ENDBRANCH  24  25
ENDBRANCH   1  24
TORSDOF 15
