REMARK  10 active torsions:
REMARK  status: ('A' for Active; 'I' for Inactive)
REMARK    1  A    between atoms: C2_2  and  C3_3 
REMARK    2  A    between atoms: C3_3  and  N1_4 
REMARK    3  A    between atoms: N1_4  and  C4_5 
REMARK    4  A    between atoms: N1_4  and  C7_8 
REMARK    5  A    between atoms: C4_5  and  C5_6 
REMARK    6  A    between atoms: C7_8  and  C8_9 
REMARK    7  A    between atoms: C8_9  and  C9_10 
REMARK    8  A    between atoms: C9_10  and  N2_11 
REMARK    9  A    between atoms: C13_18  and  C14_19 
REMARK   10  A    between atoms: C13_18  and  C16_21 
ROOT
HETATM    1  N2  UNL     1      -0.451   1.821   0.609  1.00  0.00     0.222 N 
HETATM    2  C10 UNL     1      -0.754   2.955   1.530  1.00  0.00     0.412 C 
HETATM    3  O1  UNL     1      -1.847   3.297   1.781  1.00  0.00    -0.258 OA
HETATM    4  C11 UNL     1       0.658   3.019   1.621  1.00  0.00     0.407 A 
HETATM    5  N3  UNL     1       0.963   2.000   0.804  1.00  0.00     0.261 N 
HETATM    6  C12 UNL     1       1.736   1.314   0.266  1.00  0.00     0.415 C 
HETATM    7  O2  UNL     1       2.371   1.007  -0.780  1.00  0.00    -0.258 OA
HETATM    8  C13 UNL     1       0.942   2.200   0.362  1.00  0.00     0.368 C 
HETATM    9  C16 UNL     1       1.641   2.879   1.533  1.00  0.00     0.381 A 
HETATM   10  O3  UNL     1       2.833   3.073   2.000  1.00  0.00    -0.265 OA
ENDROOT
BRANCH   1  11
HETATM   11  C9  UNL     1      -1.359   0.867   0.151  1.00  0.00     0.248 C 
BRANCH  11  12
HETATM   12  C8  UNL     1      -1.667  -0.265   1.009  1.00  0.00     0.031 C 
BRANCH  12  13
HETATM   13  C7  UNL     1      -0.819  -1.381   1.374  1.00  0.00     0.302 C 
BRANCH  13  14
HETATM   14  N1  UNL     1      -0.550  -2.355   0.290  1.00  0.00     0.098 N 
BRANCH  14  15
HETATM   15  C3  UNL     1       0.252  -3.474   0.793  1.00  0.00     0.299 C 
BRANCH  15  16
HETATM   16  C2  UNL     1       1.692  -3.401   0.621  1.00  0.00    -0.007 C 
HETATM   17  C1  UNL     1       2.364  -2.486  -0.014  1.00  0.00     0.008 C 
ENDBRANCH  15  16
ENDBRANCH  14  15
BRANCH  14  18
HETATM   18  C4  UNL     1      -1.888  -3.033   0.139  1.00  0.00     0.299 C 
BRANCH  18  19
HETATM   19  C5  UNL     1      -2.443  -3.484   1.411  1.00  0.00    -0.007 C 
HETATM   20  C6  UNL     1      -3.583  -3.132   1.936  1.00  0.00     0.008 C 
ENDBRANCH  18  19
ENDBRANCH  14  18
ENDBRANCH  13  14
ENDBRANCH  12  13
ENDBRANCH  11  12
ENDBRANCH   1  11
BRANCH   8  21
HETATM   21  C14 UNL     1       0.903   3.169  -0.855  1.00  0.00     0.025 C 
HETATM   22  C15 UNL     1       1.666   4.199  -0.795  1.00  0.00     0.010 C 
ENDBRANCH   8  21
TORSDOF 10
