REMARK  13 active torsions:
REMARK  status: ('A' for Active; 'I' for Inactive)
REMARK    1  A    between atoms: C2_2  and  O1_3 
REMARK    2  A    between atoms: N2_21  and  C15_22 
REMARK    3  A    between atoms: C15_22  and  C16_23 
REMARK    4  A    between atoms: C16_23  and  C17_24 
REMARK    5  A    between atoms: C17_24  and  C18_25 
REMARK    6  A    between atoms: C18_25  and  C19_26 
REMARK    7  A    between atoms: C19_26  and  C20_27 
REMARK    8  A    between atoms: C20_27  and  C21_28 
REMARK    9  A    between atoms: C21_28  and  C22_29 
REMARK   10  A    between atoms: C22_29  and  C23_30 
REMARK   11  A    between atoms: C23_30  and  C24_31 
REMARK   12  A    between atoms: C24_31  and  N3_32 
REMARK   13  A    between atoms: C32_40  and  O5_41 
ROOT
HETATM    1  C1  UNL     1       1.745   6.332   2.707  1.00  0.00     0.082 C 
HETATM    2  C2  UNL     1       0.951   5.150   3.133  1.00  0.00     0.186 C 
HETATM    3  O2  UNL     1       0.736   4.329   2.080  1.00  0.00    -0.341 OA
HETATM    4  C3  UNL     1       1.843   3.483   2.151  1.00  0.00     0.078 A 
HETATM    5  C4  UNL     1       3.019   3.932   1.368  1.00  0.00     0.047 C 
HETATM    6  C5  UNL     1       1.436   2.190   2.462  1.00  0.00     0.043 A 
HETATM    7  C6  UNL     1       0.220   1.674   2.630  1.00  0.00     0.023 C 
HETATM    8  O3  UNL     1      -0.288   1.120   3.972  1.00  0.00     0.000 OA
HETATM    9  C7  UNL     1      -0.111   1.373   5.334  1.00  0.00     0.109 A 
HETATM   10  C8  UNL     1      -1.009   1.725   6.244  1.00  0.00     0.157 A 
HETATM   11  O4  UNL     1      -0.496   2.221   7.293  1.00  0.00    -0.293 OA
HETATM   12  C9  UNL     1      -2.280   1.538   5.940  1.00  0.00     0.051 A 
HETATM   13  C10 UNL     1      -2.269   0.988   4.647  1.00  0.00     0.009 A 
HETATM   14  C11 UNL     1      -1.088   0.778   4.024  1.00  0.00    -0.046 A 
HETATM   15  C12 UNL     1       0.371   1.100   4.640  1.00  0.00     0.093 A 
HETATM   16  N1  UNL     1       1.806   0.930   4.269  1.00  0.00    -0.394 N 
HETATM   17  C13 UNL     1       2.898   0.010   3.823  1.00  0.00     0.138 C 
HETATM   18  C14 UNL     1       2.227  -0.901   2.735  1.00  0.00     0.141 C 
HETATM   19  N2  UNL     1       0.828  -0.671   2.757  1.00  0.00    -0.386 N 
HETATM   20  C28 UNL     1       0.109   0.249   2.104  1.00  0.00     0.092 C 
HETATM   21  C29 UNL     1      -1.310   0.288   2.604  1.00  0.00     0.062 C 
HETATM   22  C30 UNL     1       2.783   2.067   4.268  1.00  0.00     0.134 C 
HETATM   23  C31 UNL     1       2.175   3.088   3.484  1.00  0.00     0.045 A 
HETATM   24  C32 UNL     1       1.631   4.271   4.149  1.00  0.00     0.193 C 
ENDROOT
BRANCH  19  25
HETATM   25  C15 UNL     1       0.176  -1.885   3.015  1.00  0.00     0.058 C 
BRANCH  25  26
HETATM   26  C16 UNL     1       0.247  -2.934   1.934  1.00  0.00     0.044 C 
BRANCH  26  27
HETATM   27  C17 UNL     1      -0.336  -2.545   0.630  1.00  0.00     0.005 C 
BRANCH  27  28
HETATM   28  C18 UNL     1      -0.245  -3.657  -0.400  1.00  0.00     0.000 C 
BRANCH  28  29
HETATM   29  C19 UNL     1      -0.839  -3.255  -1.727  1.00  0.00     0.000 C 
BRANCH  29  30
HETATM   30  C20 UNL     1      -2.285  -2.903  -1.636  1.00  0.00     0.000 C 
BRANCH  30  31
HETATM   31  C21 UNL     1      -2.865  -2.495  -2.977  1.00  0.00     0.000 C 
BRANCH  31  32
HETATM   32  C22 UNL     1      -2.765  -3.567  -4.018  1.00  0.00     0.002 C 
BRANCH  32  33
HETATM   33  C23 UNL     1      -3.351  -3.081  -5.307  1.00  0.00     0.028 C 
BRANCH  33  34
HETATM   34  C24 UNL     1      -2.641  -1.948  -5.935  1.00  0.00     0.236 C 
BRANCH  34  35
HETATM   35  N3  UNL     1      -1.311  -2.145  -6.401  1.00  0.00    -0.079 N 
HETATM   36  C25 UNL     1      -1.116  -1.397  -7.677  1.00  0.00     0.271 C 
HETATM   37  C26 UNL     1      -0.359  -1.536  -5.496  1.00  0.00     0.271 C 
HETATM   38  C27 UNL     1      -0.900  -3.497  -6.622  1.00  0.00     0.271 C 
ENDBRANCH  34  35
ENDBRANCH  33  34
ENDBRANCH  32  33
ENDBRANCH  31  32
ENDBRANCH  30  31
ENDBRANCH  29  30
ENDBRANCH  28  29
ENDBRANCH  27  28
ENDBRANCH  26  27
ENDBRANCH  25  26
ENDBRANCH  19  25
BRANCH  24  39
HETATM   39  O5  UNL     1       2.777   5.000   4.572  1.00  0.00    -0.389 OA
ATOM     40  H5  UNL     1       3.206   4.445   5.213  1.00  0.00     0.210 HD
ENDBRANCH  24  39
BRANCH   2  41
HETATM   41  O1  UNL     1      -0.319   5.554   3.600  1.00  0.00    -0.363 OA
ATOM     42  H1  UNL     1      -0.827   4.798   3.872  1.00  0.00     0.213 HD
ENDBRANCH   2  41
TORSDOF 13
