REMARK  2 active torsions:
REMARK  status: ('A' for Active; 'I' for Inactive)
REMARK    1  A    between atoms: C10_14  and  O1_15 
REMARK    2  A    between atoms: C10_14  and  C11_17 
ROOT
HETATM    1  C1  UNL     1      -0.029  -1.076  -2.965  1.00  0.00     0.020 C 
HETATM    2  C2  UNL     1      -0.348   0.198  -2.212  1.00  0.00     0.010 A 
HETATM    3  C3  UNL     1      -1.177   0.900  -3.158  1.00  0.00     0.058 A 
HETATM    4  C4  UNL     1      -1.559   0.729  -1.755  1.00  0.00     0.113 A 
HETATM    5  F1  UNL     1      -2.396   1.784  -1.686  1.00  0.00    -0.242 F 
HETATM    6  C5  UNL     1      -2.164  -0.312  -0.949  1.00  0.00     0.051 C 
HETATM    7  C6  UNL     1      -1.511  -0.416   0.382  1.00  0.00     0.030 C 
HETATM    8  C7  UNL     1      -0.526  -1.544   0.305  1.00  0.00     0.200 C 
HETATM    9  N1  UNL     1      -0.203  -2.233   1.559  1.00  0.00    -0.063 N 
ATOM     10  H11 UNL     1       0.082  -3.211   1.614  1.00  0.00     0.278 HD
ATOM     11  H12 UNL     1      -0.894  -2.482   2.266  1.00  0.00     0.278 HD
HETATM   12  C8  UNL     1       0.733  -1.089   1.683  1.00  0.00     0.232 C 
HETATM   13  C9  UNL     1       0.853  -1.267   0.173  1.00  0.00     0.091 C 
HETATM   14  C10 UNL     1       1.558  -0.225  -0.571  1.00  0.00     0.137 C 
HETATM   15  C12 UNL     1       0.823   0.705  -1.448  1.00  0.00     0.037 C 
HETATM   16  C13 UNL     1       1.731   1.283  -2.531  1.00  0.00     0.025 C 
HETATM   17  C14 UNL     1       0.548   1.948  -0.621  1.00  0.00    -0.002 C 
HETATM   18 BR1  UNL     1       0.266   3.537  -1.736  1.00  0.00    -0.055 Br
HETATM   19  C15 UNL     1      -0.273   1.880   0.562  1.00  0.00    -0.004 C 
HETATM   20  C16 UNL     1      -0.938   0.701   1.093  1.00  0.00     0.053 C 
HETATM   21  C17 UNL     1      -0.076   0.031   2.194  1.00  0.00     0.161 C 
HETATM   22  C18 UNL     1      -1.056  -0.542   3.239  1.00  0.00     0.043 C 
HETATM   23  C19 UNL     1      -0.158  -0.797   4.425  1.00  0.00     0.030 C 
HETATM   24  C20 UNL     1       0.763   0.411   4.334  1.00  0.00     0.233 C 
HETATM   25  N2  UNL     1       0.591   0.961   3.038  1.00  0.00    -0.064 N 
ATOM     26  H21 UNL     1       0.112   1.861   3.067  1.00  0.00     0.278 HD
ATOM     27  H22 UNL     1       1.475   1.274   2.637  1.00  0.00     0.278 HD
ENDROOT
BRANCH  14  28
HETATM   28  O1  UNL     1       2.136   0.516   0.514  1.00  0.00    -0.383 OA
ATOM     29  H1  UNL     1       2.594   1.193   0.030  1.00  0.00     0.210 HD
ENDBRANCH  14  28
BRANCH  14  30
HETATM   30  C11 UNL     1       2.833  -0.847  -1.139  1.00  0.00     0.388 C 
HETATM   31  F2  UNL     1       3.557  -1.336  -0.003  1.00  0.00    -0.211 F 
HETATM   32  F3  UNL     1       3.747  -0.008  -1.672  1.00  0.00    -0.211 F 
ENDBRANCH  14  30
TORSDOF 2
