REMARK  18 active torsions:
REMARK  status: ('A' for Active; 'I' for Inactive)
REMARK    1  A    between atoms: C2_2  and  C3_3 
REMARK    2  A    between atoms: C3_3  and  C4_4 
REMARK    3  A    between atoms: C4_4  and  C5_5 
REMARK    4  A    between atoms: C5_5  and  C6_6 
REMARK    5  A    between atoms: C6_6  and  N1_7 
REMARK       I    between atoms: N1_7  and  C7_9 
REMARK    6  A    between atoms: C7_9  and  C8_11 
REMARK    7  A    between atoms: N2_15  and  C12_16 
REMARK    8  A    between atoms: C12_16  and  O2_17 
REMARK    9  A    between atoms: C12_16  and  C13_19 
REMARK   10  A    between atoms: C13_19  and  C14_20 
REMARK   11  A    between atoms: C19_25  and  C20_26 
REMARK   12  A    between atoms: C20_26  and  O3_27 
REMARK   13  A    between atoms: C20_26  and  N3_29 
REMARK   14  A    between atoms: C24_33  and  C25_34 
REMARK       I    between atoms: N5_38  and  C27_39 
REMARK   15  A    between atoms: C27_39  and  C28_41 
REMARK       I    between atoms: C28_41  and  N6_43 
REMARK   16  A    between atoms: N6_43  and  C29_45 
REMARK   17  A    between atoms: C29_45  and  O7_46 
REMARK   18  A    between atoms: C29_45  and  C30_48 
ROOT
HETATM    1  C25 UNL     1      -3.904  -3.936  -1.416  1.00  0.00     0.313 C 
HETATM    2  O4  UNL     1      -2.846  -4.488  -1.049  1.00  0.00    -0.255 OA
HETATM    3  N4  UNL     1      -4.939  -4.542  -2.080  1.00  0.00    -0.393 NA
HETATM    4  C26 UNL     1      -5.936  -5.130  -2.721  1.00  0.00     0.233 C 
ENDROOT
BRANCH   1   5
HETATM    5  C24 UNL     1      -3.955  -2.463  -1.046  1.00  0.00     0.193 C 
HETATM    6  N3  UNL     1      -2.608  -1.952  -0.767  1.00  0.00    -0.349 N 
HETATM    7  C21 UNL     1      -2.461  -1.935   0.656  1.00  0.00     0.126 C 
HETATM    8  C22 UNL     1      -3.874  -1.484   1.088  1.00  0.00     0.022 C 
HETATM    9  C23 UNL     1      -4.714  -2.384   0.228  1.00  0.00     0.038 C 
BRANCH   6  10
HETATM   10  C20 UNL     1      -1.689  -1.586  -1.739  1.00  0.00     0.138 C 
BRANCH  10  11
HETATM   11  C19 UNL     1      -0.309  -1.143  -1.701  1.00  0.00     0.171 C 
HETATM   12  C10 UNL     1      -0.301   0.335  -1.905  1.00  0.00     0.060 C 
HETATM   13  C9  UNL     1       0.385   0.945  -0.746  1.00  0.00     0.126 C 
HETATM   14  C11 UNL     1      -1.491   1.112  -1.411  1.00  0.00     0.134 C 
HETATM   15  C8  UNL     1       1.026  -0.188  -0.011  1.00  0.00     0.204 C 
HETATM   16  N2  UNL     1      -0.811   1.542  -0.222  1.00  0.00    -0.357 N 
HETATM   17  N5  UNL     1       0.486  -1.405  -0.564  1.00  0.00    -0.316 N 
HETATM   18  C27 UNL     1       0.741  -2.689  -0.019  1.00  0.00     0.313 C 
HETATM   19  O5  UNL     1       0.337  -3.712  -0.681  1.00  0.00    -0.262 OA
BRANCH  15  20
HETATM   20  C7  UNL     1       2.485  -0.096  -0.431  1.00  0.00     0.242 C 
HETATM   21  N1  UNL     1       3.552   0.322   0.341  1.00  0.00    -0.359 N 
ATOM     22  H1  UNL     1       3.367   0.581   1.310  1.00  0.00     0.162 HD
HETATM   23  O1  UNL     1       2.716  -0.455  -1.643  1.00  0.00    -0.271 OA
BRANCH  21  24
HETATM   24  C6  UNL     1       4.920   0.417  -0.137  1.00  0.00     0.122 C 
BRANCH  24  25
HETATM   25  C5  UNL     1       5.115   1.415  -1.238  1.00  0.00     0.020 C 
BRANCH  25  26
HETATM   26  C4  UNL     1       6.529   1.377  -1.708  1.00  0.00     0.002 C 
BRANCH  26  27
HETATM   27  C3  UNL     1       7.578   1.623  -0.695  1.00  0.00    -0.000 C 
BRANCH  27  28
HETATM   28  C2  UNL     1       7.526   2.941   0.013  1.00  0.00    -0.005 C 
HETATM   29  C1  UNL     1       8.699   2.971   1.000  1.00  0.00     0.005 C 
ENDBRANCH  27  28
ENDBRANCH  26  27
ENDBRANCH  25  26
ENDBRANCH  24  25
ENDBRANCH  21  24
ENDBRANCH  15  20
BRANCH  18  30
HETATM   30  C28 UNL     1       1.414  -3.013   1.234  1.00  0.00     0.315 C 
HETATM   31  O6  UNL     1       1.758  -2.076   1.947  1.00  0.00    -0.262 OA
HETATM   32  N6  UNL     1       1.666  -4.346   1.618  1.00  0.00    -0.303 N 
ATOM     33  H6  UNL     1       1.353  -5.045   0.944  1.00  0.00     0.171 HD
BRANCH  32  34
HETATM   34  C29 UNL     1       2.262  -4.869   2.746  1.00  0.00     0.123 C 
BRANCH  34  35
HETATM   35  O7  UNL     1       2.297  -6.207   2.738  1.00  0.00    -0.349 OA
ATOM     36  H7  UNL     1       2.708  -6.567   3.515  1.00  0.00     0.219 HD
ENDBRANCH  34  35
BRANCH  34  37
HETATM   37  C30 UNL     1       2.845  -4.239   3.919  1.00  0.00     0.067 C 
HETATM   38  C31 UNL     1       4.040  -3.383   3.725  1.00  0.00     0.040 C 
HETATM   39  C32 UNL     1       3.906  -2.346   4.794  1.00  0.00    -0.030 C 
HETATM   40  C33 UNL     1       2.733  -2.412   5.391  1.00  0.00    -0.030 C 
HETATM   41  C34 UNL     1       1.887  -3.497   4.824  1.00  0.00     0.040 C 
ENDBRANCH  34  37
ENDBRANCH  32  34
ENDBRANCH  18  30
BRANCH  16  42
HETATM   42  C12 UNL     1      -1.139   2.231   0.961  1.00  0.00     0.114 C 
BRANCH  42  43
HETATM   43  O2  UNL     1      -0.163   2.336   1.837  1.00  0.00    -0.349 OA
ATOM     44  H2  UNL     1      -0.384   2.801   2.635  1.00  0.00     0.219 HD
ENDBRANCH  42  43
BRANCH  42  45
HETATM   45  C13 UNL     1      -2.386   2.844   1.366  1.00  0.00     0.088 C 
BRANCH  45  46
HETATM   46  C14 UNL     1      -3.279   3.252   0.233  1.00  0.00    -0.007 C 
HETATM   47  C15 UNL     1      -4.568   3.900   0.787  1.00  0.00     0.005 C 
HETATM   48  C16 UNL     1      -5.160   4.472  -0.482  1.00  0.00     0.000 C 
HETATM   49  C17 UNL     1      -3.990   4.899  -1.307  1.00  0.00     0.000 C 
HETATM   50  C18 UNL     1      -2.739   4.427  -0.556  1.00  0.00     0.005 C 
ENDBRANCH  45  46
ENDBRANCH  42  45
ENDBRANCH  16  42
ENDBRANCH  10  11
BRANCH  10  51
HETATM   51  O3  UNL     1      -2.164  -1.650  -2.962  1.00  0.00    -0.348 OA
ATOM     52  H3  UNL     1      -3.068  -1.940  -2.987  1.00  0.00     0.219 HD
ENDBRANCH  10  51
ENDBRANCH   6  10
ENDBRANCH   1   5
TORSDOF 17
