REMARK  3 active torsions:
REMARK  status: ('A' for Active; 'I' for Inactive)
REMARK    1  A    between atoms: C8_10  and  C9_11 
REMARK    2  A    between atoms: C9_11  and  O3_12 
REMARK    3  A    between atoms: O3_12  and  C10_13 
ROOT
HETATM    1  C1  UNL     1       2.575   1.477   1.827  1.00  0.00     0.049 C 
HETATM    2  C2  UNL     1       1.841   0.745   1.110  1.00  0.00     0.077 C 
HETATM    3  O1  UNL     1       0.507   1.349   0.706  1.00  0.00    -0.344 OA
HETATM    4  C3  UNL     1      -0.559   0.674  -0.101  1.00  0.00     0.166 C 
HETATM    5  C4  UNL     1      -1.562   0.087   0.871  1.00  0.00     0.038 C 
HETATM    6  C5  UNL     1      -1.101  -1.351   0.852  1.00  0.00     0.043 C 
HETATM    7  C6  UNL     1       0.355  -1.032   0.977  1.00  0.00     0.088 C 
HETATM    8  C7  UNL     1       0.681  -1.099   2.407  1.00  0.00     0.049 C 
HETATM    9  O2  UNL     1       0.778  -0.110   0.123  1.00  0.00    -0.361 OA
HETATM   10  C8  UNL     1       1.170   0.227  -1.081  1.00  0.00     0.119 C 
HETATM   11  C12 UNL     1       2.467  -0.436  -1.478  1.00  0.00     0.079 C 
HETATM   12  C13 UNL     1       3.315  -0.907  -0.395  1.00  0.00     0.170 A 
HETATM   13  O5  UNL     1       3.621  -0.701   0.857  1.00  0.00    -0.359 OA
HETATM   14  C14 UNL     1       2.360  -0.665   0.719  1.00  0.00     0.163 A 
HETATM   15  C15 UNL     1       1.329  -1.703   0.261  1.00  0.00     0.201 C 
HETATM   16  O6  UNL     1       0.517  -1.626  -0.925  1.00  0.00    -0.363 OA
HETATM   17  C16 UNL     1      -0.119  -0.402  -1.138  1.00  0.00     0.117 C 
HETATM   18  C17 UNL     1      -0.929  -0.503  -2.309  1.00  0.00     0.052 C 
ENDROOT
BRANCH  10  19
HETATM   19  C9  UNL     1       1.090   1.453  -1.840  1.00  0.00     0.220 C 
BRANCH  19  20
HETATM   20  O3  UNL     1      -0.093   1.995  -2.237  1.00  0.00    -0.319 OA
BRANCH  20  21
HETATM   21  C10 UNL     1      -0.108   3.163  -2.967  1.00  0.00     0.254 C 
HETATM   22  C11 UNL     1      -1.375   3.775  -3.412  1.00  0.00     0.126 C 
HETATM   23  O4  UNL     1       0.975   3.724  -3.264  1.00  0.00    -0.266 OA
ENDBRANCH  20  21
ENDBRANCH  19  20
ENDBRANCH  10  19
TORSDOF 3
