REMARK  8 active torsions:
REMARK  status: ('A' for Active; 'I' for Inactive)
REMARK    1  A    between atoms: C7_7  and  N1_8 
REMARK    2  A    between atoms: C8_10  and  C10_12 
REMARK    3  A    between atoms: C10_12  and  O1_13 
REMARK    4  A    between atoms: C10_12  and  C11_15 
REMARK    5  A    between atoms: C11_15  and  C13_17 
REMARK    6  A    between atoms: C16_20  and  O2_21 
REMARK    7  A    between atoms: C19_25  and  O3_27 
REMARK    8  A    between atoms: C19_25  and  C21_29 
ROOT
HETATM    1  C11 UNL     1       0.145  -0.019  -0.012  1.00  0.00     0.043 C 
HETATM    2  C12 UNL     1       0.726  -1.443   0.001  1.00  0.00     0.017 C 
ENDROOT
BRANCH   1   3
HETATM    3  C10 UNL     1      -0.829   0.247   1.061  1.00  0.00     0.170 C 
BRANCH   3   4
HETATM    4  C8  UNL     1      -2.036  -0.560   1.070  1.00  0.00     0.008 C 
HETATM    5  N1  UNL     1      -3.141  -0.157   0.789  1.00  0.00    -0.386 N 
ATOM      6  H1  UNL     1      -3.739  -0.975   0.901  1.00  0.00     0.160 HD
HETATM    7  C9  UNL     1      -1.936  -2.024   1.456  1.00  0.00     0.066 C 
BRANCH   5   8
HETATM    8  C7  UNL     1      -3.990   0.820   0.403  1.00  0.00     0.110 C 
HETATM    9  C2  UNL     1      -5.418   0.289   0.279  1.00  0.00    -0.065 C 
HETATM   10  C1  UNL     1      -6.359   0.611   1.352  1.00  0.00     0.045 C 
HETATM   11  C3  UNL     1      -5.673  -0.423  -0.802  1.00  0.00    -0.022 C 
HETATM   12  C4  UNL     1      -4.641  -0.696  -1.841  1.00  0.00     0.027 C 
HETATM   13  C5  UNL     1      -3.697   0.453  -2.067  1.00  0.00     0.006 C 
HETATM   14  C6  UNL     1      -3.746   1.464  -0.951  1.00  0.00     0.030 C 
ENDBRANCH   5   8
ENDBRANCH   3   4
BRANCH   3  15
HETATM   15  O1  UNL     1      -1.200   1.576   1.174  1.00  0.00    -0.389 OA
ATOM     16  H1  UNL     1      -0.410   2.104   1.168  1.00  0.00     0.210 HD
ENDBRANCH   3  15
ENDBRANCH   1   3
BRANCH   1  17
HETATM   17  C13 UNL     1       1.279   0.909  -0.070  1.00  0.00    -0.071 A 
HETATM   18  C14 UNL     1       2.220   1.681  -0.121  1.00  0.00     0.020 A 
HETATM   19  C15 UNL     1       3.313   1.716   0.921  1.00  0.00     0.049 C 
HETATM   20  C21 UNL     1       2.016   2.517  -1.421  1.00  0.00     0.050 A 
HETATM   21  C18 UNL     1       2.146   1.298  -1.212  1.00  0.00     0.020 A 
HETATM   22  C19 UNL     1       2.336   2.895  -1.011  1.00  0.00     0.056 A 
HETATM   23  C16 UNL     1       4.025   0.519   0.277  1.00  0.00     0.120 C 
HETATM   24  C17 UNL     1       3.521   0.686  -1.150  1.00  0.00     0.049 C 
HETATM   25  C20 UNL     1       1.648   3.685   0.067  1.00  0.00     0.045 C 
BRANCH  23  26
HETATM   26  O2  UNL     1       5.373   0.610   0.246  1.00  0.00    -0.396 OA
ATOM     27  H2  UNL     1       5.814  -0.131  -0.153  1.00  0.00     0.210 HD
ENDBRANCH  23  26
BRANCH  22  28
HETATM   28  O3  UNL     1       3.652   3.356  -1.309  1.00  0.00    -0.390 OA
ATOM     29  H3  UNL     1       3.763   4.292  -1.191  1.00  0.00     0.210 HD
ENDBRANCH  22  28
ENDBRANCH   1  17
TORSDOF 8
