REMARK  3 active torsions:
REMARK  status: ('A' for Active; 'I' for Inactive)
REMARK    1  A    between atoms: N1_1  and  C1_4 
REMARK    2  A    between atoms: N5_21  and  C12_22 
REMARK    3  A    between atoms: C15_25  and  C16_26 
ROOT
HETATM    1  C1  UNL     1       1.808  -1.088   0.053  1.00  0.00     0.113 C 
HETATM    2  C2  UNL     1       2.853  -1.804   0.578  1.00  0.00     0.024 A 
HETATM    3  C3  UNL     1       3.373  -2.812   0.102  1.00  0.00    -0.035 A 
HETATM    4  C4  UNL     1       4.441  -3.496   0.989  1.00  0.00     0.086 A 
HETATM    5  N2  UNL     1       5.379  -4.346   1.344  1.00  0.00    -0.394 N 
ATOM      6  H2  UNL     1       6.098  -4.698   1.976  1.00  0.00     0.155 HD
HETATM    7  C5  UNL     1       4.935  -4.370   0.664  1.00  0.00     0.073 A 
HETATM    8  C6  UNL     1       4.377  -3.034   1.483  1.00  0.00     0.073 A 
HETATM    9  C7  UNL     1       3.632  -1.937   1.666  1.00  0.00     0.016 A 
HETATM   10  C8  UNL     1       3.855  -1.185   2.910  1.00  0.00     0.105 A 
HETATM   11  N3  UNL     1       4.744  -1.952   3.360  1.00  0.00    -0.367 N 
ATOM     12  H3  UNL     1       5.261  -1.890   4.237  1.00  0.00     0.161 HD
HETATM   13  C9  UNL     1       4.844  -2.945   2.314  1.00  0.00     0.135 A 
HETATM   14  N4  UNL     1       3.256   0.024   3.285  1.00  0.00    -0.374 N 
ATOM     15  H4  UNL     1       3.528   0.314   4.224  1.00  0.00     0.161 HD
HETATM   16  C10 UNL     1       2.342   0.966   2.663  1.00  0.00     0.141 C 
HETATM   17  C11 UNL     1       2.564   1.222   1.184  1.00  0.00     0.150 C 
HETATM   18  N5  UNL     1       1.707   0.309   0.361  1.00  0.00    -0.331 N 
HETATM   19  C28 UNL     1       4.347  -4.440  -0.496  1.00  0.00     0.035 C 
HETATM   20  C29 UNL     1       4.558  -4.650  -1.902  1.00  0.00     0.003 C 
HETATM   21  C30 UNL     1       4.184  -3.203  -2.224  1.00  0.00     0.004 C 
HETATM   22  C31 UNL     1       2.968  -2.917  -1.330  1.00  0.00     0.038 C 
ENDROOT
BRANCH  18  23
HETATM   23  C12 UNL     1       0.567   0.931  -0.091  1.00  0.00     0.036 A 
HETATM   24  C13 UNL     1      -0.643   0.291   0.108  1.00  0.00     0.030 A 
HETATM   25  C14 UNL     1      -1.818   0.895  -0.279  1.00  0.00     0.017 A 
HETATM   26  C15 UNL     1      -1.839   2.148  -0.872  1.00  0.00     0.008 A 
HETATM   27  C26 UNL     1      -0.631   2.743  -1.052  1.00  0.00     0.017 A 
HETATM   28  C27 UNL     1       0.581   2.181  -0.684  1.00  0.00     0.030 A 
BRANCH  26  29
HETATM   29  C16 UNL     1      -3.104   2.757  -1.222  1.00  0.00     0.116 A 
HETATM   30  N6  UNL     1      -4.322   2.191  -1.032  1.00  0.00    -0.338 N 
HETATM   31  C17 UNL     1      -5.310   2.994  -1.439  1.00  0.00     0.088 A 
ATOM     32  H6  UNL     1      -4.466   1.266  -0.628  1.00  0.00     0.167 HD
HETATM   33  C18 UNL     1      -4.674   4.137  -1.916  1.00  0.00     0.063 A 
HETATM   34  C25 UNL     1      -6.672   2.865  -1.451  1.00  0.00     0.071 A 
HETATM   35  C19 UNL     1      -5.426   5.167  -2.411  1.00  0.00     0.033 A 
HETATM   36  N8  UNL     1      -3.362   3.953  -1.767  1.00  0.00    -0.340 N 
HETATM   37  C20 UNL     1      -6.825   5.074  -2.440  1.00  0.00     0.016 A 
HETATM   38  C21 UNL     1      -7.406   3.911  -1.952  1.00  0.00    -0.007 A 
HETATM   39  C22 UNL     1      -8.817   3.822  -1.993  1.00  0.00     0.015 A 
HETATM   40  C23 UNL     1      -9.445   2.689  -1.528  1.00  0.00     0.018 A 
HETATM   41  C24 UNL     1      -8.652   1.661  -1.029  1.00  0.00     0.088 A 
HETATM   42  N7  UNL     1      -7.320   1.780  -1.008  1.00  0.00    -0.363 N 
ATOM     43  H7  UNL     1      -6.770   1.006  -0.636  1.00  0.00     0.165 HD
ATOM     44  H8  UNL     1      -2.649   4.633  -2.033  1.00  0.00     0.167 HD
ENDBRANCH  26  29
ENDBRANCH  18  23
BRANCH   1  45
HETATM   45  N1  UNL     1       1.201  -1.734  -0.399  1.00  0.00    -0.385 N 
ATOM     46  H12 UNL     1       1.273  -2.728  -0.618  1.00  0.00     0.157 HD
ATOM     47  H11 UNL     1       0.424  -1.201  -0.790  1.00  0.00     0.157 HD
ENDBRANCH   1  45
TORSDOF 3
