REMARK  4 active torsions:
REMARK  status: ('A' for Active; 'I' for Inactive)
REMARK    1  A    between atoms: C1_2  and  C2_4 
REMARK    2  A    between atoms: C8_10  and  N2_11 
REMARK       I    between atoms: N2_11  and  C9_13 
REMARK       I    between atoms: C9_13  and  N3_15 
REMARK    3  A    between atoms: N3_15  and  C10_17 
REMARK    4  A    between atoms: C14_21  and  N4_22 
ROOT
HETATM    1  N2  UNL     1       1.347  -0.304  -0.145  1.00  0.00    -0.338 N 
ATOM      2  H2  UNL     1       1.883  -0.102   0.699  1.00  0.00     0.164 HD
HETATM    3  C9  UNL     1       0.094  -0.900   0.035  1.00  0.00     0.317 C 
HETATM    4  O2  UNL     1      -0.567  -1.148  -1.033  1.00  0.00    -0.247 OA
HETATM    5  N3  UNL     1      -0.508  -1.251   1.243  1.00  0.00    -0.333 N 
ATOM      6  H3  UNL     1       0.038  -1.044   2.079  1.00  0.00     0.165 HD
ENDROOT
BRANCH   1   7
HETATM    7  C8  UNL     1       1.955   0.051  -1.391  1.00  0.00     0.094 C 
HETATM    8  C6  UNL     1       2.103   1.556  -1.447  1.00  0.00     0.010 C 
HETATM    9  C5  UNL     1       3.174   1.965  -0.488  1.00  0.00     0.011 C 
HETATM   10  C7  UNL     1       2.444   2.014  -2.855  1.00  0.00     0.025 C 
HETATM   11  C4  UNL     1       4.489   1.325  -0.872  1.00  0.00    -0.013 C 
HETATM   12  C3  UNL     1       4.806   1.817  -2.275  1.00  0.00     0.023 C 
HETATM   13  C20 UNL     1       4.418  -0.165  -0.892  1.00  0.00     0.011 C 
HETATM   14  C2  UNL     1       3.747   1.318  -3.234  1.00  0.00     0.040 C 
HETATM   15  C21 UNL     1       3.563  -0.171  -3.155  1.00  0.00     0.025 C 
HETATM   16  C19 UNL     1       3.259  -0.611  -1.712  1.00  0.00     0.010 C 
BRANCH  14  17
HETATM   17  C1  UNL     1       4.166   1.696  -4.583  1.00  0.00     0.239 C 
HETATM   18  N1  UNL     1       4.353   3.058  -4.911  1.00  0.00    -0.061 NA
HETATM   19  O1  UNL     1       4.362   0.821  -5.455  1.00  0.00    -0.276 OA
ENDBRANCH  14  17
ENDBRANCH   1   7
BRANCH   5  20
HETATM   20  C10 UNL     1      -1.761  -1.850   1.476  1.00  0.00     0.042 A 
HETATM   21  C11 UNL     1      -1.914  -3.225   0.830  1.00  0.00     0.032 A 
HETATM   22  C12 UNL     1      -3.131  -2.723   0.082  1.00  0.00     0.011 A 
HETATM   23  C13 UNL     1      -2.978  -1.418   0.812  1.00  0.00     0.038 A 
HETATM   24  C14 UNL     1      -3.717  -1.437   2.155  1.00  0.00     0.106 C 
HETATM   25  C18 UNL     1      -2.373  -1.701   2.828  1.00  0.00     0.058 C 
BRANCH  24  26
HETATM   26  N4  UNL     1      -4.352  -0.207   2.511  1.00  0.00    -0.263 N 
HETATM   27  C15 UNL     1      -3.832   1.114   2.531  1.00  0.00     0.245 A 
HETATM   28  O3  UNL     1      -2.646   1.400   2.234  1.00  0.00    -0.271 OA
HETATM   29  C16 UNL     1      -4.858   2.079   2.939  1.00  0.00     0.227 A 
HETATM   30  N5  UNL     1      -6.034   1.259   3.217  1.00  0.00    -0.334 N 
HETATM   31  C17 UNL     1      -5.719  -0.097   2.940  1.00  0.00     0.325 A 
ATOM     32  H5  UNL     1      -6.933   1.604   3.554  1.00  0.00     0.164 HD
HETATM   33  O4  UNL     1      -6.542  -1.039   3.064  1.00  0.00    -0.247 OA
ENDBRANCH  24  26
ENDBRANCH   5  20
TORSDOF 4
