REMARK  7 active torsions:
REMARK  status: ('A' for Active; 'I' for Inactive)
REMARK    1  A    between atoms: C2_2  and  C4_4 
REMARK    2  A    between atoms: C4_4  and  C5_5 
REMARK    3  A    between atoms: C5_5  and  C6_6 
REMARK    4  A    between atoms: C5_5  and  C7_8 
REMARK    5  A    between atoms: C7_8  and  O2_10 
REMARK    6  A    between atoms: O2_10  and  C8_11 
REMARK    7  A    between atoms: C33_41  and  O6_42 
ROOT
HETATM    1  C8  UNL     1       0.198   0.946   0.250  1.00  0.00     0.147 C 
HETATM    2  C9  UNL     1       0.313   0.780  -1.181  1.00  0.00     0.021 C 
HETATM    3  C10 UNL     1      -0.102  -0.283  -2.071  1.00  0.00    -0.069 C 
HETATM    4  C11 UNL     1       0.998  -1.112  -2.741  1.00  0.00     0.038 C 
HETATM    5  C12 UNL     1       0.973  -2.558  -2.222  1.00  0.00     0.050 C 
HETATM    6  C13 UNL     1       1.586  -2.781  -0.947  1.00  0.00     0.146 C 
HETATM    7  C14 UNL     1       3.111  -2.847  -1.114  1.00  0.00     0.054 C 
HETATM    8  O3  UNL     1       1.221  -3.935  -0.248  1.00  0.00    -0.222 OA
HETATM    9  O4  UNL     1       1.970  -3.316   0.684  1.00  0.00    -0.203 OA
HETATM   10  C15 UNL     1       1.119  -2.203   0.334  1.00  0.00     0.205 C 
HETATM   11  N1  UNL     1      -0.127  -2.555   0.892  1.00  0.00    -0.376 N 
ATOM     12  H1  UNL     1      -0.468  -3.512   0.796  1.00  0.00     0.157 HD
HETATM   13  C16 UNL     1      -0.916  -1.598   1.587  1.00  0.00     0.047 A 
HETATM   14  C17 UNL     1      -1.497  -1.896   2.905  1.00  0.00     0.044 A 
HETATM   15  C18 UNL     1      -0.147  -1.362   2.793  1.00  0.00    -0.006 A 
HETATM   16  C19 UNL     1       0.651  -2.428   3.563  1.00  0.00     0.018 C 
HETATM   17  C20 UNL     1       0.493  -0.099   2.575  1.00  0.00     0.069 C 
HETATM   18  C21 UNL     1      -0.278   1.117   3.124  1.00  0.00     0.061 C 
HETATM   19  C22 UNL     1       0.637   2.194   3.608  1.00  0.00     0.046 C 
HETATM   20  C23 UNL     1      -0.808   0.630   4.491  1.00  0.00     0.046 C 
HETATM   21  O5  UNL     1      -1.173   1.351   2.182  1.00  0.00    -0.371 OA
HETATM   22  C24 UNL     1      -1.159   0.710   0.905  1.00  0.00     0.175 C 
HETATM   23  C25 UNL     1      -1.775  -0.569   0.974  1.00  0.00     0.015 C 
HETATM   24  C26 UNL     1      -3.073  -0.198   1.769  1.00  0.00     0.021 C 
HETATM   25  C27 UNL     1      -2.513  -1.284  -0.140  1.00  0.00     0.041 C 
HETATM   26  C28 UNL     1      -3.026  -0.577  -1.288  1.00  0.00    -0.029 C 
HETATM   27  C29 UNL     1      -2.449   0.370  -2.190  1.00  0.00    -0.017 C 
HETATM   28  C30 UNL     1      -1.233   0.065  -3.015  1.00  0.00    -0.007 C 
HETATM   29  C31 UNL     1      -0.847   1.331  -3.760  1.00  0.00     0.024 C 
HETATM   30  C32 UNL     1      -1.589  -0.960  -4.007  1.00  0.00     0.024 C 
HETATM   31  C33 UNL     1       1.089   0.226   1.195  1.00  0.00     0.111 C 
HETATM   32  C34 UNL     1       1.818  -0.970   0.672  1.00  0.00     0.081 C 
HETATM   33  C35 UNL     1       3.159  -1.136   1.388  1.00  0.00     0.018 C 
ENDROOT
BRANCH   1  34
HETATM   34  O2  UNL     1       0.134   2.365   0.376  1.00  0.00    -0.300 OA
BRANCH  34  35
HETATM   35  C7  UNL     1       0.904   3.360  -0.044  1.00  0.00     0.265 C 
HETATM   36  O1  UNL     1       1.893   2.987  -0.678  1.00  0.00    -0.265 OA
BRANCH  35  37
HETATM   37  C5  UNL     1       0.732   4.823   0.134  1.00  0.00     0.100 C 
BRANCH  37  38
HETATM   38  C4  UNL     1      -0.697   5.255  -0.070  1.00  0.00     0.019 C 
BRANCH  38  39
HETATM   39  C2  UNL     1      -1.324   4.762  -1.319  1.00  0.00    -0.022 C 
HETATM   40  C1  UNL     1      -2.761   5.301  -1.353  1.00  0.00     0.009 C 
HETATM   41  C3  UNL     1      -0.658   5.203  -2.577  1.00  0.00     0.009 C 
ENDBRANCH  38  39
ENDBRANCH  37  38
BRANCH  37  42
HETATM   42  C6  UNL     1       1.368   5.318   1.388  1.00  0.00     0.129 C 
HETATM   43 CL1  UNL     1       3.053   4.703   1.391  1.00  0.00    -0.130 Cl
ENDBRANCH  37  42
ENDBRANCH  35  37
ENDBRANCH  34  35
ENDBRANCH   1  34
BRANCH  31  44
HETATM   44  O6  UNL     1       2.143   1.149   1.407  1.00  0.00    -0.385 OA
ATOM     45  H6  UNL     1       2.713   0.688   2.012  1.00  0.00     0.210 HD
ENDBRANCH  31  44
TORSDOF 7
