REMARK  10 active torsions:
REMARK  status: ('A' for Active; 'I' for Inactive)
REMARK    1  A    between atoms: C2_2  and  C3_3 
REMARK    2  A    between atoms: C11_13  and  C12_14 
REMARK    3  A    between atoms: C12_14  and  O3_15 
REMARK    4  A    between atoms: O3_15  and  C13_16 
REMARK    5  A    between atoms: C16_20  and  C18_22 
REMARK    6  A    between atoms: C18_22  and  C19_23 
REMARK    7  A    between atoms: C19_23  and  C20_24 
REMARK    8  A    between atoms: C22_27  and  O6_28 
REMARK    9  A    between atoms: C26_33  and  C28_35 
REMARK   10  A    between atoms: C30_37  and  O7_38 
ROOT
HETATM    1  C3  UNL     1       1.698   2.452   1.853  1.00  0.00     0.007 C 
HETATM    2  C4  UNL     1       1.036   3.537   2.753  1.00  0.00     0.022 C 
HETATM    3  C5  UNL     1       1.015   2.647   0.546  1.00  0.00     0.099 C 
HETATM    4  C6  UNL     1       1.247   1.485  -0.307  1.00  0.00     0.154 C 
HETATM    5  O1  UNL     1       2.052   1.734  -1.203  1.00  0.00    -0.293 OA
HETATM    6  C7  UNL     1       0.647   0.100  -0.215  1.00  0.00    -0.020 C 
HETATM    7  C8  UNL     1      -0.824   0.095  -0.241  1.00  0.00     0.030 C 
HETATM    8  C9  UNL     1      -1.639  -0.811   0.565  1.00  0.00     0.042 C 
HETATM    9  C10 UNL     1      -1.792  -2.211   0.249  1.00  0.00     0.133 C 
HETATM   10  O2  UNL     1      -2.688  -2.414  -0.834  1.00  0.00    -0.371 OA
HETATM   11  C11 UNL     1      -1.619  -2.522  -1.656  1.00  0.00     0.092 C 
HETATM   12  C15 UNL     1      -1.189  -1.273  -2.328  1.00  0.00     0.050 C 
HETATM   13  C16 UNL     1      -1.436   0.027  -1.649  1.00  0.00    -0.033 C 
HETATM   14  C17 UNL     1      -0.736   1.044  -2.583  1.00  0.00     0.016 C 
HETATM   15  C21 UNL     1      -0.847  -3.013  -0.473  1.00  0.00     0.080 C 
HETATM   16  C22 UNL     1       0.597  -2.787  -0.359  1.00  0.00     0.128 C 
HETATM   17  C23 UNL     1       1.014  -2.112   0.910  1.00  0.00     0.047 C 
HETATM   18  C24 UNL     1       1.448  -0.652   0.736  1.00  0.00    -0.001 C 
HETATM   19  C25 UNL     1       2.800  -0.856  -0.021  1.00  0.00     0.021 C 
HETATM   20  C26 UNL     1       1.842  -0.128   2.068  1.00  0.00     0.011 C 
HETATM   21  C27 UNL     1       1.279  -1.021   3.194  1.00  0.00     0.023 C 
HETATM   22  C30 UNL     1       1.404   1.194   2.549  1.00  0.00     0.143 C 
ENDROOT
BRANCH  11  23
HETATM   23  C12 UNL     1      -1.719  -3.609  -2.699  1.00  0.00     0.217 C 
BRANCH  23  24
HETATM   24  O3  UNL     1      -2.755  -3.470  -3.588  1.00  0.00    -0.319 OA
BRANCH  24  25
HETATM   25  C13 UNL     1      -4.093  -3.540  -3.383  1.00  0.00     0.254 C 
HETATM   26  C14 UNL     1      -5.077  -3.335  -4.528  1.00  0.00     0.126 C 
HETATM   27  O4  UNL     1      -4.540  -3.777  -2.232  1.00  0.00    -0.266 OA
ENDBRANCH  24  25
ENDBRANCH  23  24
ENDBRANCH  11  23
BRANCH  13  28
HETATM   28  C18 UNL     1      -2.855   0.428  -1.703  1.00  0.00     0.016 C 
BRANCH  28  29
HETATM   29  C19 UNL     1      -3.148   1.840  -1.249  1.00  0.00     0.070 C 
BRANCH  29  30
HETATM   30  C20 UNL     1      -4.627   2.091  -1.371  1.00  0.00     0.231 C 
HETATM   31  O5  UNL     1      -5.355   1.207  -1.784  1.00  0.00    -0.307 OA
ENDBRANCH  29  30
ENDBRANCH  28  29
ENDBRANCH  13  28
BRANCH  16  32
HETATM   32  O6  UNL     1       1.270  -4.045  -0.437  1.00  0.00    -0.395 OA
ATOM     33  H6  UNL     1       2.206  -3.899  -0.363  1.00  0.00     0.210 HD
ENDBRANCH  16  32
BRANCH  20  34
HETATM   34  C28 UNL     1       3.311  -0.216   2.335  1.00  0.00    -0.024 C 
HETATM   35  C29 UNL     1       3.883  -0.953   3.272  1.00  0.00     0.008 C 
ENDBRANCH  20  34
BRANCH  22  36
HETATM   36  O7  UNL     1       0.086   1.257   3.028  1.00  0.00    -0.393 OA
ATOM     37  H7  UNL     1      -0.104   0.443   3.479  1.00  0.00     0.210 HD
ENDBRANCH  22  36
BRANCH   1  38
HETATM   38  C2  UNL     1       3.131   2.833   1.894  1.00  0.00    -0.025 C 
HETATM   39  C1  UNL     1       3.789   3.542   1.025  1.00  0.00     0.008 C 
ENDBRANCH   1  38
TORSDOF 10
