REMARK  4 active torsions:
REMARK  status: ('A' for Active; 'I' for Inactive)
REMARK    1  A    between atoms: C2_2  and  C3_3 
REMARK    2  A    between atoms: C3_3  and  O1_5 
REMARK    3  A    between atoms: C3_3  and  C5_7 
REMARK    4  A    between atoms: C8_10  and  C18_20 
ROOT
HETATM    1  C5  UNL     1       0.943   0.003   1.496  1.00  0.00     0.008 C 
HETATM    2  C6  UNL     1       1.155   0.387   2.965  1.00  0.00     0.023 C 
HETATM    3  C7  UNL     1       0.120   1.008   0.800  1.00  0.00    -0.008 C 
HETATM    4  C8  UNL     1      -1.275   1.189   0.587  1.00  0.00    -0.039 C 
HETATM    5  C9  UNL     1      -1.689   0.855  -0.870  1.00  0.00     0.036 C 
HETATM    6  C10 UNL     1      -1.029   1.872  -1.821  1.00  0.00     0.019 C 
HETATM    7  C11 UNL     1      -1.276  -0.486  -1.240  1.00  0.00    -0.012 C 
HETATM    8  C12 UNL     1      -1.105  -1.576  -0.245  1.00  0.00    -0.050 C 
HETATM    9  C13 UNL     1      -1.836  -2.840  -0.778  1.00  0.00     0.046 C 
HETATM   10  C14 UNL     1      -1.056  -1.399   1.170  1.00  0.00     0.120 C 
HETATM   11  C15 UNL     1      -2.037  -2.366   1.759  1.00  0.00     0.046 C 
HETATM   12  C16 UNL     1      -3.364  -1.591   1.725  1.00  0.00     0.007 C 
HETATM   13  C17 UNL     1      -3.387  -0.255   1.035  1.00  0.00     0.046 C 
HETATM   14  C18 UNL     1      -2.454   0.816   1.400  1.00  0.00     0.116 C 
HETATM   15  C19 UNL     1      -3.226   2.038   1.955  1.00  0.00     0.054 C 
HETATM   16  O2  UNL     1      -1.947   0.249   2.602  1.00  0.00    -0.224 OA
HETATM   17  O3  UNL     1      -1.249  -0.543   2.102  1.00  0.00    -0.224 OA
HETATM   18  C20 UNL     1       0.432  -1.448   1.559  1.00  0.00     0.062 C 
ENDROOT
BRANCH   1  19
HETATM   19  C3  UNL     1       2.322  -0.043   0.881  1.00  0.00     0.065 C 
HETATM   20  C4  UNL     1       3.066  -1.195   1.507  1.00  0.00     0.047 C 
BRANCH  19  21
HETATM   21  C2  UNL     1       3.138   1.167   0.851  1.00  0.00     0.034 C 
HETATM   22  C1  UNL     1       3.687   1.817   2.038  1.00  0.00     0.008 C 
ENDBRANCH  19  21
BRANCH  19  23
HETATM   23  O1  UNL     1       2.255  -0.416  -0.496  1.00  0.00    -0.389 OA
ATOM     24  H1  UNL     1       1.724  -1.203  -0.476  1.00  0.00     0.210 HD
ENDBRANCH  19  23
ENDBRANCH   1  19
TORSDOF 4
