REMARK  15 active torsions:
REMARK  status: ('A' for Active; 'I' for Inactive)
REMARK    1  A    between atoms: C2_2  and  C3_3 
REMARK    2  A    between atoms: C3_3  and  C4_4 
REMARK    3  A    between atoms: C4_4  and  C5_5 
REMARK    4  A    between atoms: C5_5  and  C6_6 
REMARK    5  A    between atoms: C6_6  and  C7_7 
REMARK    6  A    between atoms: C7_7  and  C8_8 
REMARK    7  A    between atoms: C8_8  and  C9_9 
REMARK    8  A    between atoms: C9_9  and  C10_10 
REMARK    9  A    between atoms: C10_10  and  O1_11 
REMARK   10  A    between atoms: O1_11  and  C11_12 
REMARK   11  A    between atoms: C12_13  and  O2_14 
REMARK   12  A    between atoms: C12_13  and  C13_16 
REMARK   13  A    between atoms: C16_22  and  O6_23 
REMARK   14  A    between atoms: O6_23  and  C17_24 
REMARK   15  A    between atoms: C20_29  and  C21_30 
ROOT
HETATM    1  C11 UNL     1      -0.454  -0.327   1.258  1.00  0.00     0.184 C 
HETATM    2  C12 UNL     1      -0.781  -0.237   2.707  1.00  0.00     0.233 C 
HETATM    3  C14 UNL     1      -0.321  -1.275   3.617  1.00  0.00     0.178 C 
HETATM    4  O5  UNL     1      -1.128  -1.365   4.557  1.00  0.00    -0.294 OA
HETATM    5  C15 UNL     1       0.780  -2.235   3.774  1.00  0.00     0.130 C 
HETATM    6  C16 UNL     1       0.967  -3.179   2.592  1.00  0.00     0.148 A 
HETATM    7  C19 UNL     1      -0.125  -3.038   1.642  1.00  0.00     0.184 A 
HETATM    8  O8  UNL     1      -1.305  -3.353   1.782  1.00  0.00    -0.293 OA
HETATM    9  C20 UNL     1       0.823  -2.447   0.669  1.00  0.00     0.133 A 
HETATM   10  C22 UNL     1       0.848  -0.908   0.794  1.00  0.00     0.017 C 
HETATM   11  C23 UNL     1       0.959  -0.397  -0.665  1.00  0.00     0.020 C 
HETATM   12  C24 UNL     1       2.046  -1.039   1.553  1.00  0.00     0.019 C 
HETATM   13  C25 UNL     1       3.401  -0.556   1.253  1.00  0.00    -0.042 C 
HETATM   14  C26 UNL     1       3.455   0.955   1.595  1.00  0.00     0.015 C 
HETATM   15  C27 UNL     1       4.151  -0.670   0.040  1.00  0.00     0.015 C 
HETATM   16  C28 UNL     1       4.293  -1.130   2.396  1.00  0.00     0.009 C 
HETATM   17  C29 UNL     1       4.153  -2.580   2.520  1.00  0.00     0.002 C 
HETATM   18  C30 UNL     1       3.182  -3.236   1.518  1.00  0.00     0.015 C 
HETATM   19  C31 UNL     1       1.908  -2.570   1.585  1.00  0.00     0.030 A 
ENDROOT
BRANCH   1  20
HETATM   20  O1  UNL     1      -1.398  -0.840   0.468  1.00  0.00    -0.381 OA
BRANCH  20  21
HETATM   21  C10 UNL     1      -2.241  -0.272  -0.368  1.00  0.00     0.168 C 
BRANCH  21  22
HETATM   22  C9  UNL     1      -3.338   0.623   0.055  1.00  0.00     0.026 C 
BRANCH  22  23
HETATM   23  C8  UNL     1      -4.245   1.142  -0.999  1.00  0.00     0.002 C 
BRANCH  23  24
HETATM   24  C7  UNL     1      -3.729   1.930  -2.113  1.00  0.00     0.000 C 
BRANCH  24  25
HETATM   25  C6  UNL     1      -2.827   1.371  -3.126  1.00  0.00     0.000 C 
BRANCH  25  26
HETATM   26  C5  UNL     1      -2.567   2.541  -4.140  1.00  0.00     0.000 C 
BRANCH  26  27
HETATM   27  C4  UNL     1      -1.662   2.084  -5.211  1.00  0.00     0.000 C 
BRANCH  27  28
HETATM   28  C3  UNL     1      -1.375   3.056  -6.296  1.00  0.00    -0.000 C 
BRANCH  28  29
HETATM   29  C2  UNL     1      -0.737   4.344  -5.969  1.00  0.00    -0.005 C 
HETATM   30  C1  UNL     1      -1.483   5.285  -5.090  1.00  0.00     0.005 C 
ENDBRANCH  28  29
ENDBRANCH  27  28
ENDBRANCH  26  27
ENDBRANCH  25  26
ENDBRANCH  24  25
ENDBRANCH  23  24
ENDBRANCH  22  23
ENDBRANCH  21  22
ENDBRANCH  20  21
ENDBRANCH   1  20
BRANCH   2  31
HETATM   31  O2  UNL     1      -2.206  -0.353   2.722  1.00  0.00    -0.370 OA
ATOM     32  H2  UNL     1      -2.415  -0.296   3.647  1.00  0.00     0.212 HD
ENDBRANCH   2  31
BRANCH   2  33
HETATM   33  C13 UNL     1      -0.621   1.137   3.298  1.00  0.00     0.220 C 
HETATM   34  O3  UNL     1      -1.649   1.804   3.547  1.00  0.00    -0.645 OA
HETATM   35  O4  UNL     1       0.617   1.697   3.580  1.00  0.00    -0.645 OA
ENDBRANCH   2  33
BRANCH   9  36
HETATM   36  C21 UNL     1       0.740  -2.982  -0.667  1.00  0.00     0.191 C 
HETATM   37  O9  UNL     1      -0.226  -3.792  -0.917  1.00  0.00    -0.647 OA
HETATM   38  O10 UNL     1       1.549  -2.769  -1.757  1.00  0.00    -0.647 OA
ENDBRANCH   9  36
BRANCH   6  39
HETATM   39  O6  UNL     1       1.227  -4.416   3.100  1.00  0.00    -0.301 OA
BRANCH  39  40
HETATM   40  C17 UNL     1       1.311  -5.645   2.624  1.00  0.00     0.256 C 
HETATM   41  C18 UNL     1       1.655  -6.874   3.419  1.00  0.00     0.126 C 
HETATM   42  O7  UNL     1       1.092  -5.834   1.415  1.00  0.00    -0.266 OA
ENDBRANCH  39  40
ENDBRANCH   6  39
TORSDOF 15
