REMARK  6 active torsions:
REMARK  status: ('A' for Active; 'I' for Inactive)
REMARK    1  A    between atoms: C2_2  and  C3_3 
REMARK    2  A    between atoms: C9_10  and  O1_11 
REMARK    3  A    between atoms: C13_16  and  N2_17 
REMARK       I    between atoms: N2_17  and  C14_18 
REMARK    4  A    between atoms: C14_18  and  C15_20 
REMARK    5  A    between atoms: C15_20  and  C16_21 
REMARK    6  A    between atoms: C16_21  and  N3_22 
ROOT
HETATM    1  C3  UNL     1       5.207  -0.157  -1.529  1.00  0.00     0.085 C 
HETATM    2  N1  UNL     1       4.217  -0.869  -2.129  1.00  0.00    -0.382 N 
HETATM    3  C4  UNL     1       3.675  -2.076  -1.579  1.00  0.00     0.135 C 
HETATM    4  C5  UNL     1       2.295  -1.976  -2.011  1.00  0.00     0.016 C 
HETATM    5  C6  UNL     1       1.362  -3.036  -2.203  1.00  0.00     0.022 C 
HETATM    6  C7  UNL     1       0.328  -2.183  -2.973  1.00  0.00     0.026 C 
HETATM    7  C8  UNL     1       1.262  -1.579  -4.072  1.00  0.00     0.048 C 
HETATM    8  C9  UNL     1       2.585  -1.600  -3.501  1.00  0.00     0.088 C 
HETATM    9  C10 UNL     1       3.287  -0.325  -3.076  1.00  0.00     0.119 C 
HETATM   10  C11 UNL     1       2.129   0.362  -2.340  1.00  0.00     0.037 C 
HETATM   11  C12 UNL     1       1.529  -0.786  -1.549  1.00  0.00     0.037 C 
HETATM   12  C13 UNL     1       0.091  -1.057  -2.090  1.00  0.00     0.176 C 
ENDROOT
BRANCH  12  13
HETATM   13  N2  UNL     1      -0.856  -1.025  -1.051  1.00  0.00    -0.409 NA
HETATM   14  C14 UNL     1      -1.757  -1.000  -0.056  1.00  0.00     0.288 C 
HETATM   15  O2  UNL     1      -1.656  -1.637   1.028  1.00  0.00    -0.258 OA
BRANCH  14  16
HETATM   16  C15 UNL     1      -3.012  -0.175  -0.131  1.00  0.00     0.146 C 
BRANCH  16  17
HETATM   17  C16 UNL     1      -3.430   0.580   1.038  1.00  0.00     0.247 C 
BRANCH  17  18
HETATM   18  N3  UNL     1      -3.757   0.047   2.290  1.00  0.00    -0.070 N 
HETATM   19  C17 UNL     1      -4.335  -1.259   2.376  1.00  0.00     0.272 C 
HETATM   20  C18 UNL     1      -4.826   0.949   2.828  1.00  0.00     0.237 C 
HETATM   21  C19 UNL     1      -4.600   1.053   4.298  1.00  0.00     0.029 C 
HETATM   22  C20 UNL     1      -3.084   1.097   4.348  1.00  0.00     0.029 C 
HETATM   23  C21 UNL     1      -2.643   0.205   3.235  1.00  0.00     0.237 C 
ENDBRANCH  17  18
ENDBRANCH  16  17
ENDBRANCH  14  16
ENDBRANCH  12  13
BRANCH   8  24
HETATM   24  O1  UNL     1       3.481  -2.513  -4.055  1.00  0.00    -0.387 OA
ATOM     25  H1  UNL     1       3.657  -2.285  -4.960  1.00  0.00     0.210 HD
ENDBRANCH   8  24
BRANCH   1  26
HETATM   26  C2  UNL     1       4.955   0.496  -0.219  1.00  0.00     0.007 C 
HETATM   27  C1  UNL     1       5.632   0.233   0.883  1.00  0.00     0.012 C 
ENDBRANCH   1  26
TORSDOF 6
