REMARK  8 active torsions:
REMARK  status: ('A' for Active; 'I' for Inactive)
REMARK    1  A    between atoms: O1_2  and  C2_3 
REMARK    2  A    between atoms: C2_3  and  O2_4 
REMARK    3  A    between atoms: C2_3  and  C3_6 
REMARK    4  A    between atoms: C6_9  and  O3_10 
REMARK    5  A    between atoms: C9_14  and  O4_15 
REMARK    6  A    between atoms: C10_17  and  O5_18 
REMARK    7  A    between atoms: C21_30  and  O7_31 
REMARK    8  A    between atoms: O7_31  and  C22_32 
ROOT
HETATM    1  C3  UNL     1       2.257  -1.195   0.592  1.00  0.00     0.053 C 
HETATM    2  C4  UNL     1       2.705  -0.863   2.013  1.00  0.00     0.013 C 
HETATM    3  C5  UNL     1       1.625  -0.741   3.002  1.00  0.00     0.033 C 
HETATM    4  C6  UNL     1       0.333  -0.538   2.274  1.00  0.00     0.130 C 
HETATM    5  C7  UNL     1       0.474   0.352   1.046  1.00  0.00     0.021 C 
HETATM    6  C8  UNL     1       0.935   1.642   1.775  1.00  0.00     0.021 C 
HETATM    7  C9  UNL     1      -0.881   0.852   0.668  1.00  0.00     0.159 C 
HETATM    8  C10 UNL     1      -1.910  -0.077   0.197  1.00  0.00     0.159 C 
HETATM    9  C12 UNL     1      -1.835   0.180  -1.270  1.00  0.00     0.070 C 
HETATM   10  C13 UNL     1      -2.588  -0.676  -2.213  1.00  0.00     0.178 C 
HETATM   11  O6  UNL     1      -1.307  -1.091  -2.457  1.00  0.00    -0.384 OA
HETATM   12  C14 UNL     1      -0.526  -0.085  -1.785  1.00  0.00     0.135 C 
HETATM   13  C15 UNL     1       0.666  -0.709  -1.257  1.00  0.00     0.035 C 
HETATM   14  C16 UNL     1       1.515  -0.917  -2.470  1.00  0.00    -0.041 C 
HETATM   15  C17 UNL     1       2.367  -2.139  -2.576  1.00  0.00     0.015 C 
HETATM   16  C18 UNL     1       0.743  -1.040  -3.790  1.00  0.00     0.015 C 
HETATM   17  C19 UNL     1       2.316   0.324  -2.841  1.00  0.00     0.012 C 
HETATM   18  C20 UNL     1       3.159   0.627  -1.711  1.00  0.00     0.034 C 
HETATM   19  C21 UNL     1       2.235   0.992  -0.517  1.00  0.00     0.142 C 
HETATM   20  C24 UNL     1       1.379  -0.125  -0.024  1.00  0.00     0.013 C 
ENDROOT
BRANCH   1  21
HETATM   21  C2  UNL     1       1.955  -2.577   0.655  1.00  0.00     0.261 C 
BRANCH  21  22
HETATM   22  O1  UNL     1       0.939  -3.459   0.694  1.00  0.00    -0.366 OA
HETATM   23  C1  UNL     1       0.907  -4.830   0.754  1.00  0.00     0.204 C 
ENDBRANCH  21  22
BRANCH  21  24
HETATM   24  O2  UNL     1       3.047  -3.310   0.686  1.00  0.00    -0.371 OA
ATOM     25  H2  UNL     1       3.764  -2.687   0.658  1.00  0.00     0.212 HD
ENDBRANCH  21  24
ENDBRANCH   1  21
BRANCH  19  26
HETATM   26  O7  UNL     1       3.278   1.487   0.260  1.00  0.00    -0.315 OA
BRANCH  26  27
HETATM   27  C22 UNL     1       3.651   2.780   0.322  1.00  0.00     0.255 C 
HETATM   28  C23 UNL     1       4.770   3.214   1.180  1.00  0.00     0.126 C 
HETATM   29  O8  UNL     1       3.053   3.641  -0.350  1.00  0.00    -0.266 OA
ENDBRANCH  26  27
ENDBRANCH  19  26
BRANCH   4  30
HETATM   30  O3  UNL     1      -0.469   0.131   3.245  1.00  0.00    -0.395 OA
ATOM     31  H3  UNL     1      -1.289   0.260   2.783  1.00  0.00     0.210 HD
ENDBRANCH   4  30
BRANCH   7  32
HETATM   32  O4  UNL     1      -1.516   1.576   1.711  1.00  0.00    -0.392 OA
ATOM     33  H4  UNL     1      -2.378   1.894   1.470  1.00  0.00     0.210 HD
ENDBRANCH   7  32
BRANCH   8  34
HETATM   34  O5  UNL     1      -1.864  -1.387   0.441  1.00  0.00    -0.388 OA
HETATM   35  C11 UNL     1      -3.039  -1.943   1.002  1.00  0.00     0.202 C 
ENDBRANCH   8  34
TORSDOF 8
