REMARK  2 active torsions:
REMARK  status: ('A' for Active; 'I' for Inactive)
REMARK    1  A    between atoms: O1_2  and  C2_3 
REMARK    2  A    between atoms: C17_23  and  O6_24 
ROOT
HETATM    1  C2  UNL     1      -0.631   1.529   2.028  1.00  0.00     0.233 C 
HETATM    2  S1  UNL     1      -0.018   2.858   0.712  1.00  0.00    -0.052 SA
HETATM    3  C3  UNL     1      -0.066   2.607  -1.162  1.00  0.00     0.211 C 
HETATM    4  O2  UNL     1       1.079   2.751  -1.737  1.00  0.00    -0.281 OA
HETATM    5  C4  UNL     1      -0.993   1.460  -1.627  1.00  0.00     0.071 C 
HETATM    6  C5  UNL     1      -0.702   0.152  -1.453  1.00  0.00    -0.003 C 
HETATM    7  C6  UNL     1      -1.369  -1.153  -1.685  1.00  0.00    -0.001 C 
HETATM    8  C7  UNL     1      -0.633  -2.239  -2.325  1.00  0.00     0.024 C 
HETATM    9  C8  UNL     1      -2.757  -1.231  -2.248  1.00  0.00     0.024 C 
HETATM   10  C9  UNL     1      -1.568  -1.560  -0.103  1.00  0.00    -0.014 C 
HETATM   11  C10 UNL     1      -1.136  -1.058   1.088  1.00  0.00     0.017 C 
HETATM   12  C11 UNL     1      -0.304   0.037   1.754  1.00  0.00     0.167 C 
HETATM   13  O3  UNL     1       0.845  -0.559   2.057  1.00  0.00    -0.332 OA
HETATM   14  C12 UNL     1       1.518  -1.137   0.949  1.00  0.00     0.162 C 
HETATM   15  C13 UNL     1       2.961  -0.634   0.986  1.00  0.00     0.078 C 
HETATM   16  C14 UNL     1       1.672  -2.609   1.437  1.00  0.00     0.078 C 
HETATM   17  O4  UNL     1       0.987  -1.259  -0.253  1.00  0.00    -0.316 OA
HETATM   18  C15 UNL     1       0.843  -0.219  -1.166  1.00  0.00     0.193 C 
HETATM   19  C16 UNL     1       1.662  -0.207  -2.346  1.00  0.00     0.085 C 
HETATM   20  O5  UNL     1       1.000   0.678  -0.294  1.00  0.00    -0.318 OA
HETATM   21  C17 UNL     1       0.073   0.707   0.526  1.00  0.00     0.302 C 
ENDROOT
BRANCH   1  22
HETATM   22  O1  UNL     1       0.313   1.811   3.020  1.00  0.00    -0.376 OA
HETATM   23  C1  UNL     1      -0.351   2.345   4.086  1.00  0.00     0.203 C 
ENDBRANCH   1  22
BRANCH  21  24
HETATM   24  O6  UNL     1      -1.259   0.985   0.520  1.00  0.00    -0.368 OA
ATOM     25  H6  UNL     1      -1.012   1.424  -0.285  1.00  0.00     0.212 HD
ENDBRANCH  21  24
TORSDOF 2
