REMARK  14 active torsions:
REMARK  status: ('A' for Active; 'I' for Inactive)
REMARK    1  A    between atoms: O1_2  and  C2_3 
REMARK    2  A    between atoms: C8_9  and  C9_10 
REMARK    3  A    between atoms: C10_11  and  C11_12 
REMARK    4  A    between atoms: C11_12  and  C12_13 
REMARK    5  A    between atoms: C12_13  and  C13_14 
REMARK    6  A    between atoms: C13_14  and  C14_15 
REMARK    7  A    between atoms: C14_15  and  C15_16 
REMARK    8  A    between atoms: C15_16  and  C16_17 
REMARK    9  A    between atoms: C19_22  and  O4_23 
REMARK   10  A    between atoms: C24_29  and  O5_30 
REMARK   11  A    between atoms: O5_30  and  C25_31 
REMARK   12  A    between atoms: C25_31  and  C26_33 
REMARK   13  A    between atoms: C26_33  and  N1_34 
REMARK   14  A    between atoms: C31_40  and  O8_41 
ROOT
HETATM    1  C2  UNL     1       0.194   1.619   2.015  1.00  0.00     0.092 C 
HETATM    2  C3  UNL     1      -1.119   1.540   2.633  1.00  0.00     0.041 C 
HETATM    3  C4  UNL     1      -1.243   0.386   3.582  1.00  0.00     0.015 C 
HETATM    4  C5  UNL     1      -0.689  -0.827   2.905  1.00  0.00    -0.013 C 
HETATM    5  C6  UNL     1      -0.608  -1.919   3.975  1.00  0.00     0.018 C 
HETATM    6  C7  UNL     1      -1.699  -1.157   1.828  1.00  0.00     0.046 C 
HETATM    7  C8  UNL     1      -1.242  -0.950   0.458  1.00  0.00    -0.067 C 
HETATM    8  C17 UNL     1      -0.112  -0.003   0.220  1.00  0.00     0.026 C 
HETATM    9  C18 UNL     1       0.694  -0.664  -0.875  1.00  0.00     0.024 C 
HETATM   10  C19 UNL     1      -0.613   1.403  -0.165  1.00  0.00     0.146 C 
HETATM   11  C20 UNL     1       0.206   2.295   0.584  1.00  0.00     0.059 C 
HETATM   12  C21 UNL     1       0.252   3.702   0.847  1.00  0.00     0.026 C 
HETATM   13  C22 UNL     1       1.730   3.669   0.607  1.00  0.00     0.027 C 
HETATM   14  C23 UNL     1       2.755   4.228   1.462  1.00  0.00     0.014 C 
HETATM   15  C24 UNL     1       1.626   2.282   0.133  1.00  0.00     0.148 C 
HETATM   16  C29 UNL     1       1.997   1.067   0.979  1.00  0.00     0.178 C 
HETATM   17  O7  UNL     1       3.115   0.742   1.256  1.00  0.00    -0.293 OA
HETATM   18  C30 UNL     1       0.746   0.359   1.397  1.00  0.00     0.096 C 
HETATM   19  C31 UNL     1       0.737  -0.677   2.378  1.00  0.00     0.146 C 
ENDROOT
BRANCH   7  20
HETATM   20  C9  UNL     1      -2.289  -0.802  -0.579  1.00  0.00    -0.000 C 
HETATM   21  C10 UNL     1      -3.527  -0.481  -0.421  1.00  0.00    -0.026 C 
BRANCH  21  22
HETATM   22  C11 UNL     1      -4.580  -0.334  -1.445  1.00  0.00     0.027 C 
BRANCH  22  23
HETATM   23  C12 UNL     1      -4.239  -0.650  -2.840  1.00  0.00     0.004 C 
BRANCH  23  24
HETATM   24  C13 UNL     1      -3.902  -2.113  -3.109  1.00  0.00     0.001 C 
BRANCH  24  25
HETATM   25  C14 UNL     1      -3.536  -2.288  -4.554  1.00  0.00     0.010 C 
BRANCH  25  26
HETATM   26  C15 UNL     1      -3.181  -3.686  -4.942  1.00  0.00     0.113 C 
BRANCH  26  27
HETATM   27  C16 UNL     1      -1.999  -4.207  -4.239  1.00  0.00     0.172 C 
HETATM   28  O2  UNL     1      -1.342  -3.495  -3.454  1.00  0.00    -0.648 OA
HETATM   29  O3  UNL     1      -1.597  -5.534  -4.452  1.00  0.00    -0.648 OA
ENDBRANCH  26  27
ENDBRANCH  25  26
ENDBRANCH  24  25
ENDBRANCH  23  24
ENDBRANCH  22  23
ENDBRANCH  21  22
ENDBRANCH   7  20
BRANCH  10  30
HETATM   30  O4  UNL     1      -0.613   1.423  -1.554  1.00  0.00    -0.393 OA
ATOM     31  H4  UNL     1      -0.922   2.290  -1.791  1.00  0.00     0.210 HD
ENDBRANCH  10  30
BRANCH  19  32
HETATM   32  O8  UNL     1       0.988  -1.919   1.722  1.00  0.00    -0.393 OA
ATOM     33  H8  UNL     1       1.875  -1.826   1.394  1.00  0.00     0.210 HD
ENDBRANCH  19  32
BRANCH   1  34
HETATM   34  O1  UNL     1       1.081   2.144   2.826  1.00  0.00    -0.383 OA
HETATM   35  C1  UNL     1       1.553   1.873   4.004  1.00  0.00     0.202 C 
ENDBRANCH   1  34
BRANCH  15  36
HETATM   36  O5  UNL     1       2.226   2.081  -1.012  1.00  0.00    -0.296 OA
BRANCH  36  37
HETATM   37  C25 UNL     1       2.350   2.520  -2.236  1.00  0.00     0.299 C 
HETATM   38  O6  UNL     1       1.586   3.510  -2.376  1.00  0.00    -0.259 OA
BRANCH  37  39
HETATM   39  C26 UNL     1       3.169   2.091  -3.395  1.00  0.00     0.167 C 
BRANCH  39  40
HETATM   40  N1  UNL     1       4.236   1.246  -3.086  1.00  0.00    -0.394 N 
HETATM   41  C27 UNL     1       4.010  -0.075  -2.661  1.00  0.00     0.148 C 
HETATM   42  C28 UNL     1       5.413   1.875  -2.567  1.00  0.00     0.148 C 
ENDBRANCH  39  40
ENDBRANCH  37  39
ENDBRANCH  36  37
ENDBRANCH  15  36
TORSDOF 14
