REMARK  3 active torsions:
REMARK  status: ('A' for Active; 'I' for Inactive)
REMARK    1  A    between atoms: C2_2  and  O2_4 
REMARK    2  A    between atoms: O2_4  and  C3_5 
REMARK    3  A    between atoms: C8_10  and  O3_11 
ROOT
HETATM    1  C3  UNL     1       2.707  -0.383  -0.344  1.00  0.00     0.132 C 
HETATM    2  C4  UNL     1       2.195  -0.523  -1.781  1.00  0.00     0.033 C 
HETATM    3  C5  UNL     1       0.898   0.210  -1.836  1.00  0.00     0.014 C 
HETATM    4  C6  UNL     1      -0.106  -0.210  -0.802  1.00  0.00    -0.014 C 
HETATM    5  C7  UNL     1      -0.569  -1.623  -1.197  1.00  0.00     0.018 C 
HETATM    6  C8  UNL     1      -1.304   0.667  -0.943  1.00  0.00     0.127 C 
HETATM    7  C9  UNL     1      -2.280   0.555   0.218  1.00  0.00     0.038 C 
HETATM    8  C10 UNL     1      -2.089   1.700   1.133  1.00  0.00     0.001 C 
HETATM    9  C11 UNL     1      -3.170   2.018   2.114  1.00  0.00    -0.008 C 
HETATM   10  C12 UNL     1      -2.074   2.674   2.927  1.00  0.00     0.015 C 
HETATM   11  C13 UNL     1      -1.481   1.343   2.474  1.00  0.00    -0.036 C 
HETATM   12  C14 UNL     1      -0.206   0.908   2.648  1.00  0.00     0.010 C 
HETATM   13  C15 UNL     1       0.609   0.923   1.339  1.00  0.00     0.006 C 
HETATM   14  C16 UNL     1       0.432  -0.324   0.577  1.00  0.00    -0.002 C 
HETATM   15  C17 UNL     1       1.746  -1.099   0.529  1.00  0.00     0.038 C 
HETATM   16  C18 UNL     1      -2.788   0.759   2.841  1.00  0.00     0.015 C 
ENDROOT
BRANCH   1  17
HETATM   17  O2  UNL     1       4.039  -0.745  -0.209  1.00  0.00    -0.316 OA
BRANCH  17  18
HETATM   18  C2  UNL     1       5.081   0.091   0.130  1.00  0.00     0.255 C 
HETATM   19  C1  UNL     1       6.485  -0.377   0.253  1.00  0.00     0.126 C 
HETATM   20  O1  UNL     1       4.832   1.286   0.341  1.00  0.00    -0.266 OA
ENDBRANCH  17  18
ENDBRANCH   1  17
BRANCH   6  21
HETATM   21  O3  UNL     1      -0.997   1.993  -1.239  1.00  0.00    -0.395 OA
ATOM     22  H3  UNL     1      -1.760   2.552  -1.329  1.00  0.00     0.210 HD
ENDBRANCH   6  21
TORSDOF 3
