REMARK  10 active torsions:
REMARK  status: ('A' for Active; 'I' for Inactive)
REMARK    1  A    between atoms: C2_2  and  O1_3 
REMARK    2  A    between atoms: O1_3  and  C3_4 
REMARK    3  A    between atoms: C3_4  and  O2_5 
REMARK    4  A    between atoms: C3_4  and  C5_7 
REMARK    5  A    between atoms: N1_10  and  C8_11 
REMARK    6  A    between atoms: C14_17  and  C15_18 
REMARK    7  A    between atoms: C15_18  and  O3_19 
REMARK    8  A    between atoms: C17_24  and  O4_25 
REMARK    9  A    between atoms: O4_25  and  C18_26 
REMARK   10  A    between atoms: C18_26  and  C19_27 
ROOT
HETATM    1  C8  UNL     1      -1.252   1.387   0.711  1.00  0.00     0.083 C 
HETATM    2  C9  UNL     1      -1.886   2.528   0.007  1.00  0.00     0.063 C 
HETATM    3  C10 UNL     1      -3.277   2.591   0.712  1.00  0.00     0.080 C 
HETATM    4  C11 UNL     1      -3.094   3.240   2.030  1.00  0.00     0.029 C 
HETATM    5  C12 UNL     1      -1.887   2.549   2.848  1.00  0.00     0.039 C 
HETATM    6  C13 UNL     1      -1.935   1.305   2.015  1.00  0.00    -0.043 C 
HETATM    7  C14 UNL     1      -2.767   0.343   2.122  1.00  0.00    -0.027 C 
HETATM    8  C16 UNL     1      -3.152   0.111   0.567  1.00  0.00     0.141 C 
HETATM    9  N2  UNL     1      -3.894   1.359   0.469  1.00  0.00    -0.407 N 
ATOM     10  H2  UNL     1      -4.882   1.335   0.218  1.00  0.00     0.154 HD
HETATM   11  C17 UNL     1      -1.766   0.022   0.091  1.00  0.00     0.186 C 
ENDROOT
BRANCH   1  12
HETATM   12  N1  UNL     1       0.124   1.339   0.620  1.00  0.00    -0.397 N 
HETATM   13  C7  UNL     1       0.492   1.614  -0.756  1.00  0.00     0.118 C 
HETATM   14  C6  UNL     1       1.390   2.848  -0.800  1.00  0.00     0.029 C 
HETATM   15  C5  UNL     1       2.745   2.402  -0.193  1.00  0.00     0.044 C 
HETATM   16  C26 UNL     1       2.461   1.443   0.918  1.00  0.00     0.029 C 
HETATM   17  C25 UNL     1       1.059   1.823   1.499  1.00  0.00     0.118 C 
BRANCH  15  18
HETATM   18  C3  UNL     1       3.690   2.090  -1.272  1.00  0.00     0.263 C 
BRANCH  18  19
HETATM   19  O1  UNL     1       3.188   1.100  -2.156  1.00  0.00    -0.361 OA
BRANCH  19  20
HETATM   20  C2  UNL     1       4.079   0.099  -2.428  1.00  0.00     0.166 C 
HETATM   21  C1  UNL     1       3.488  -0.813  -3.543  1.00  0.00     0.033 C 
ENDBRANCH  19  20
ENDBRANCH  18  19
BRANCH  18  22
HETATM   22  O2  UNL     1       3.843   3.231  -2.080  1.00  0.00    -0.366 OA
HETATM   23  C4  UNL     1       4.994   3.431  -2.720  1.00  0.00     0.204 C 
ENDBRANCH  18  22
ENDBRANCH  15  18
ENDBRANCH   1  12
BRANCH  11  24
HETATM   24  O4  UNL     1      -0.942  -0.836   0.591  1.00  0.00    -0.352 OA
BRANCH  24  25
HETATM   25  C18 UNL     1      -0.173  -1.635   1.054  1.00  0.00     0.148 C 
BRANCH  25  26
HETATM   26  C19 UNL     1      -0.168  -3.084   0.873  1.00  0.00     0.007 A 
HETATM   27  C20 UNL     1      -1.203  -3.798   1.543  1.00  0.00     0.017 A 
HETATM   28  C21 UNL     1      -1.245  -5.170   1.460  1.00  0.00     0.025 A 
HETATM   29  C22 UNL     1      -0.319  -5.893   0.763  1.00  0.00     0.035 A 
HETATM   30 CL1  UNL     1      -0.323  -7.635   0.645  1.00  0.00    -0.084 Cl
HETATM   31  C23 UNL     1       0.677  -5.224   0.122  1.00  0.00     0.048 A 
HETATM   32  C24 UNL     1       0.719  -3.843   0.194  1.00  0.00     0.047 A 
HETATM   33 CL2  UNL     1       2.055  -3.049  -0.589  1.00  0.00    -0.083 Cl
ENDBRANCH  25  26
ENDBRANCH  24  25
ENDBRANCH  11  24
BRANCH   7  34
HETATM   34  C15 UNL     1      -3.672  -0.291   3.077  1.00  0.00     0.201 C 
BRANCH  34  35
HETATM   35  O3  UNL     1      -5.010  -0.251   2.595  1.00  0.00    -0.397 OA
ATOM     36  H3  UNL     1      -5.599  -0.663   3.216  1.00  0.00     0.209 HD
ENDBRANCH  34  35
ENDBRANCH   7  34
TORSDOF 10
