REMARK  4 active torsions:
REMARK  status: ('A' for Active; 'I' for Inactive)
REMARK    1  A    between atoms: C2_2  and  N1_4 
REMARK    2  A    between atoms: N1_4  and  C4_6 
REMARK    3  A    between atoms: C7_9  and  O1_10 
REMARK    4  A    between atoms: C10_14  and  C11_15 
ROOT
HETATM    1  C4  UNL     1      -1.064   0.379  -1.690  1.00  0.00     0.091 C 
HETATM    2  C5  UNL     1      -1.909  -0.251  -0.575  1.00  0.00     0.017 C 
HETATM    3  C6  UNL     1      -1.265  -1.215   0.308  1.00  0.00     0.045 C 
HETATM    4  C7  UNL     1      -0.477  -0.328   1.259  1.00  0.00     0.068 C 
HETATM    5  C8  UNL     1       0.477   0.173   0.324  1.00  0.00     0.050 C 
HETATM    6  C9  UNL     1      -0.387   1.271  -0.260  1.00  0.00    -0.011 A 
HETATM    7  C10 UNL     1      -1.807   1.899  -0.130  1.00  0.00     0.102 C 
HETATM    8  C12 UNL     1      -2.247   0.768   0.536  1.00  0.00     0.019 C 
HETATM    9  C13 UNL     1      -0.958   1.053   1.281  1.00  0.00     0.009 A 
HETATM   10  C14 UNL     1      -0.092   1.936   0.268  1.00  0.00     0.015 A 
HETATM   11  C15 UNL     1      -0.115   1.518  -1.254  1.00  0.00     0.024 A 
ENDROOT
BRANCH   1  12
HETATM   12  N1  UNL     1      -0.427  -0.615  -2.488  1.00  0.00    -0.389 N 
ATOM     13  H1  UNL     1      -0.578  -1.603  -2.282  1.00  0.00     0.159 HD
BRANCH  12  14
HETATM   14  C2  UNL     1       0.414  -0.241  -3.565  1.00  0.00    -0.009 C 
HETATM   15  C1  UNL     1       1.459  -0.961  -3.822  1.00  0.00     0.037 C 
HETATM   16  C3  UNL     1       0.111   0.955  -4.390  1.00  0.00     0.067 C 
ENDBRANCH  12  14
ENDBRANCH   1  12
BRANCH   4  17
HETATM   17  O1  UNL     1      -0.137  -0.897   2.421  1.00  0.00    -0.389 OA
ATOM     18  H1  UNL     1       0.355  -0.343   3.015  1.00  0.00     0.210 HD
ENDBRANCH   4  17
BRANCH   7  19
HETATM   19  C11 UNL     1      -1.890   3.168   0.579  1.00  0.00     0.178 C 
HETATM   20  O2  UNL     1      -2.613   3.289   1.578  1.00  0.00    -0.648 OA
HETATM   21  O3  UNL     1      -1.169   4.260   0.157  1.00  0.00    -0.648 OA
ENDBRANCH   7  19
TORSDOF 4
