REMARK  14 active torsions:
REMARK  status: ('A' for Active; 'I' for Inactive)
REMARK    1  A    between atoms: C2_2  and  C3_3 
REMARK    2  A    between atoms: C3_3  and  C4_4 
REMARK    3  A    between atoms: C4_4  and  C5_5 
REMARK    4  A    between atoms: C5_5  and  C6_6 
REMARK    5  A    between atoms: C6_6  and  C7_7 
REMARK    6  A    between atoms: C7_7  and  C8_8 
REMARK       I    between atoms: C8_8  and  N1_10 
REMARK    7  A    between atoms: N1_10  and  C9_12 
REMARK    8  A    between atoms: C10_13  and  O2_14 
REMARK    9  A    between atoms: C11_16  and  O3_17 
REMARK   10  A    between atoms: C20_29  and  C21_30 
REMARK   11  A    between atoms: C21_30  and  C22_31 
REMARK   12  A    between atoms: C22_31  and  C23_32 
REMARK   13  A    between atoms: C23_32  and  N3_33 
REMARK   14  A    between atoms: N3_33  and  C26_36 
ROOT
HETATM    1  C9  UNL     1      -0.304   2.033  -1.246  1.00  0.00     0.120 C 
HETATM    2  C10 UNL     1      -1.143   2.269  -2.415  1.00  0.00     0.170 C 
HETATM    3  C11 UNL     1      -1.329   1.092  -3.309  1.00  0.00     0.157 C 
HETATM    4  C12 UNL     1      -0.124   0.231  -3.482  1.00  0.00     0.052 C 
HETATM    5  C13 UNL     1       0.562   0.454  -4.672  1.00  0.00    -0.013 C 
HETATM    6  C14 UNL     1       1.372   1.652  -4.173  1.00  0.00     0.066 A 
HETATM    7  N2  UNL     1       1.627   2.367  -4.792  1.00  0.00    -0.394 N 
ATOM      8  H2  UNL     1       1.718   2.911  -5.650  1.00  0.00     0.155 HD
HETATM    9  C15 UNL     1       1.749   2.002  -3.532  1.00  0.00     0.066 A 
HETATM   10  C16 UNL     1       2.477   2.926  -2.838  1.00  0.00    -0.006 A 
HETATM   11  C17 UNL     1       1.960   2.019  -2.770  1.00  0.00     0.035 A 
HETATM   12  C18 UNL     1       1.949   1.373  -1.386  1.00  0.00     0.026 C 
HETATM   13  C19 UNL     1       0.613   0.911  -1.495  1.00  0.00     0.026 C 
HETATM   14  C20 UNL     1       1.133   0.639  -2.880  1.00  0.00     0.021 A 
ENDROOT
BRANCH   1  15
HETATM   15  N1  UNL     1      -1.108   1.536  -0.136  1.00  0.00    -0.353 N 
HETATM   16  C8  UNL     1      -0.876   1.786   1.226  1.00  0.00     0.217 C 
HETATM   17  O1  UNL     1       0.088   2.487   1.572  1.00  0.00    -0.274 OA
ATOM     18  H1  UNL     1      -1.912   0.954  -0.370  1.00  0.00     0.163 HD
BRANCH  16  19
HETATM   19  C7  UNL     1      -1.746   1.235   2.288  1.00  0.00     0.103 C 
BRANCH  19  20
HETATM   20  C6  UNL     1      -1.200   1.419   3.672  1.00  0.00     0.009 C 
BRANCH  20  21
HETATM   21  C5  UNL     1      -2.223   0.793   4.625  1.00  0.00     0.000 C 
BRANCH  21  22
HETATM   22  C4  UNL     1      -1.683   0.912   6.036  1.00  0.00     0.000 C 
BRANCH  22  23
HETATM   23  C3  UNL     1      -2.663   0.325   7.034  1.00  0.00    -0.000 C 
BRANCH  23  24
HETATM   24  C2  UNL     1      -2.081   0.429   8.438  1.00  0.00    -0.005 C 
HETATM   25  C1  UNL     1      -1.813   1.854   8.830  1.00  0.00     0.005 C 
ENDBRANCH  23  24
ENDBRANCH  22  23
ENDBRANCH  21  22
ENDBRANCH  20  21
ENDBRANCH  19  20
ENDBRANCH  16  19
ENDBRANCH   1  15
BRANCH   2  26
HETATM   26  O2  UNL     1      -2.408   2.698  -2.039  1.00  0.00    -0.391 OA
ATOM     27  H2  UNL     1      -2.955   2.852  -2.801  1.00  0.00     0.210 HD
ENDBRANCH   2  26
BRANCH   3  28
HETATM   28  O3  UNL     1      -1.782   1.601  -4.519  1.00  0.00    -0.392 OA
ATOM     29  H3  UNL     1      -1.901   0.850  -5.089  1.00  0.00     0.210 HD
ENDBRANCH   3  28
BRANCH  14  30
HETATM   30  C21 UNL     1       2.099  -0.459  -2.956  1.00  0.00     0.017 C 
BRANCH  30  31
HETATM   31  C22 UNL     1       1.621  -1.644  -2.211  1.00  0.00     0.029 C 
BRANCH  31  32
HETATM   32  C23 UNL     1       2.735  -2.689  -2.421  1.00  0.00     0.238 C 
BRANCH  32  33
HETATM   33  N3  UNL     1       2.411  -3.912  -1.769  1.00  0.00    -0.062 N 
HETATM   34  C24 UNL     1       1.977  -4.944  -2.723  1.00  0.00     0.273 C 
HETATM   35  C25 UNL     1       1.397  -3.804  -0.755  1.00  0.00     0.273 C 
BRANCH  33  36
HETATM   36  C26 UNL     1       3.618  -4.405  -1.134  1.00  0.00     0.350 C 
HETATM   37 CL1  UNL     1       4.812  -4.962  -2.304  1.00  0.00    -0.101 Cl
ENDBRANCH  33  36
ENDBRANCH  32  33
ENDBRANCH  31  32
ENDBRANCH  30  31
ENDBRANCH  14  30
TORSDOF 14
