REMARK  3 active torsions:
REMARK  status: ('A' for Active; 'I' for Inactive)
REMARK    1  A    between atoms: S1_2  and  N1_3 
REMARK    2  A    between atoms: C6_14  and  C7_15 
REMARK    3  A    between atoms: C7_15  and  C8_16 
ROOT
HETATM    1  N1  UNL     1       2.380  -0.648   2.994  1.00  0.00    -0.256 N 
HETATM    2  C2  UNL     1       2.607  -1.706   2.015  1.00  0.00     0.354 A 
HETATM    3  C3  UNL     1       2.155  -1.461   0.545  1.00  0.00     0.341 A 
HETATM    4  C4  UNL     1       2.320  -1.980  -0.047  1.00  0.00     0.379 A 
HETATM    5  N2  UNL     1       2.008  -2.056  -1.336  1.00  0.00    -0.191 N 
ATOM      6  H2  UNL     1       2.284  -2.780  -1.999  1.00  0.00     0.180 HD
HETATM    7  C5  UNL     1       1.260  -0.987  -1.575  1.00  0.00     0.679 A 
HETATM    8  N3  UNL     1       0.711  -0.588  -2.583  1.00  0.00    -0.234 N 
ATOM      9  H31 UNL     1       0.136   0.234  -2.767  1.00  0.00     0.174 HD
ATOM     10  H32 UNL     1       0.670  -0.946  -3.537  1.00  0.00     0.174 HD
HETATM   11  N4  UNL     1       1.316  -0.500  -0.276  1.00  0.00    -0.127 N 
HETATM   12  C6  UNL     1       0.719   0.667   0.245  1.00  0.00     0.102 A 
HETATM   13  N5  UNL     1       0.943   0.877   1.542  1.00  0.00    -0.324 N 
ATOM     14  H5  UNL     1       0.604   1.652   2.112  1.00  0.00     0.165 HD
HETATM   15  C14 UNL     1       1.797  -0.265   1.980  1.00  0.00     0.358 A 
HETATM   16  N6  UNL     1       2.044  -1.076   1.021  1.00  0.00     0.083 N 
ENDROOT
BRANCH  12  17
HETATM   17  C7  UNL     1      -0.089   1.697  -0.363  1.00  0.00     0.081 C 
BRANCH  17  18
HETATM   18  C8  UNL     1      -1.540   1.614  -0.241  1.00  0.00    -0.007 C 
HETATM   19  C9  UNL     1      -2.073   2.837  -0.969  1.00  0.00     0.005 C 
HETATM   20  C10 UNL     1      -3.458   2.605  -1.471  1.00  0.00     0.000 C 
HETATM   21  C11 UNL     1      -3.356   1.552  -2.554  1.00  0.00     0.000 C 
HETATM   22  C12 UNL     1      -2.905   0.287  -1.915  1.00  0.00     0.000 C 
HETATM   23  C13 UNL     1      -2.304   0.407  -0.558  1.00  0.00     0.005 C 
ENDBRANCH  17  18
ENDBRANCH  12  17
BRANCH   1  24
HETATM   24  S1  UNL     1       3.123  -0.990   4.476  1.00  0.00    -0.056 SA
HETATM   25  C1  UNL     1       4.924  -1.203   4.307  1.00  0.00     0.115 C 
ENDBRANCH   1  24
TORSDOF 3
