REMARK  6 active torsions:
REMARK  status: ('A' for Active; 'I' for Inactive)
REMARK    1  A    between atoms: N1_7  and  C6_8 
REMARK    2  A    between atoms: C6_8  and  C7_9 
REMARK    3  A    between atoms: C8_10  and  C9_11 
REMARK    4  A    between atoms: C10_12  and  C11_13 
REMARK       I    between atoms: N2_15  and  C13_16 
REMARK    5  A    between atoms: C13_16  and  C14_18 
REMARK    6  A    between atoms: C22_28  and  N3_29 
ROOT
HETATM    1  C7  UNL     1      -3.015  -0.483  -0.992  1.00  0.00     0.002 C 
HETATM    2  C8  UNL     1      -2.099   0.181  -1.688  1.00  0.00     0.062 C 
ENDROOT
BRANCH   1   3
HETATM    3  C6  UNL     1      -2.622  -1.506   0.019  1.00  0.00     0.163 C 
BRANCH   3   4
HETATM    4  N1  UNL     1      -3.093  -1.179   1.344  1.00  0.00    -0.283 N 
HETATM    5  C5  UNL     1      -4.386  -1.646   1.771  1.00  0.00     0.227 C 
HETATM    6  C4  UNL     1      -4.873  -1.200   3.099  1.00  0.00     0.114 C 
HETATM    7  O1  UNL     1      -5.043  -2.396   1.024  1.00  0.00    -0.273 OA
HETATM    8  C2  UNL     1      -4.451   0.238   3.291  1.00  0.00    -0.010 C 
HETATM    9  C1  UNL     1      -4.844   1.103   2.119  1.00  0.00     0.018 C 
HETATM   10  C3  UNL     1      -5.154   0.759   4.515  1.00  0.00     0.018 C 
HETATM   11  C22 UNL     1      -2.948   0.285   3.436  1.00  0.00     0.184 C 
HETATM   12  C21 UNL     1      -2.355  -0.414   2.272  1.00  0.00     0.250 C 
HETATM   13  O3  UNL     1      -1.103  -0.316   2.105  1.00  0.00    -0.271 OA
BRANCH  11  14
HETATM   14  N3  UNL     1      -2.509   1.647   3.424  1.00  0.00    -0.353 N 
HETATM   15  C23 UNL     1      -1.807   2.181   4.373  1.00  0.00     0.197 C 
HETATM   16  N4  UNL     1      -1.400   1.468   5.522  1.00  0.00    -0.067 NA
HETATM   17  N5  UNL     1      -1.441   3.551   4.226  1.00  0.00    -0.067 NA
ATOM     18  H3  UNL     1      -2.762   2.229   2.625  1.00  0.00     0.162 HD
ENDBRANCH  11  14
ENDBRANCH   3   4
ENDBRANCH   1   3
BRANCH   2  19
HETATM   19  C9  UNL     1      -0.695  -0.045  -1.511  1.00  0.00    -0.078 C 
HETATM   20  C10 UNL     1       0.487  -0.257  -1.359  1.00  0.00    -0.095 C 
BRANCH  20  21
HETATM   21  C11 UNL     1       1.923  -0.534  -1.157  1.00  0.00     0.092 C 
HETATM   22  C12 UNL     1       2.395  -1.337  -2.349  1.00  0.00     0.144 C 
HETATM   23  N2  UNL     1       3.677  -0.959  -2.871  1.00  0.00    -0.345 N 
HETATM   24  C13 UNL     1       4.043  -1.490  -4.127  1.00  0.00     0.230 C 
HETATM   25  C15 UNL     1       4.612  -0.074  -2.195  1.00  0.00     0.097 C 
HETATM   26  O2  UNL     1       5.155  -1.183  -4.616  1.00  0.00    -0.273 OA
HETATM   27  C16 UNL     1       4.189   1.381  -2.193  1.00  0.00     0.015 C 
HETATM   28  C20 UNL     1       4.118  -0.062  -0.752  1.00  0.00     0.024 A 
HETATM   29  C17 UNL     1       2.708   1.521  -2.293  1.00  0.00     0.019 C 
HETATM   30  C19 UNL     1       3.879   1.276  -0.691  1.00  0.00     0.009 A 
HETATM   31  C18 UNL     1       2.711   0.640  -1.013  1.00  0.00    -0.014 A 
BRANCH  24  32
HETATM   32  C14 UNL     1       3.164  -2.401  -4.899  1.00  0.00     0.188 C 
HETATM   33 BR1  UNL     1       3.980  -2.920  -6.549  1.00  0.00    -0.087 Br
ENDBRANCH  24  32
ENDBRANCH  20  21
ENDBRANCH   2  19
TORSDOF 6
