REMARK  8 active torsions:
REMARK  status: ('A' for Active; 'I' for Inactive)
REMARK    1  A    between atoms: O1_2  and  C2_3 
REMARK    2  A    between atoms: C3_4  and  C4_5 
REMARK    3  A    between atoms: C6_8  and  C7_9 
REMARK    4  A    between atoms: C7_9  and  O3_11 
REMARK    5  A    between atoms: O3_11  and  S1_12 
REMARK    6  A    between atoms: S1_12  and  N1_13 
REMARK    7  A    between atoms: S2_19  and  O6_20 
REMARK    8  A    between atoms: S2_19  and  O7_22 
ROOT
HETATM    1  C2  UNL     1      -0.445  -0.912   1.109  1.00  0.00     0.171 A 
HETATM    2  C3  UNL     1       0.205  -0.259   1.907  1.00  0.00     0.090 A 
HETATM    3  C5  UNL     1       1.297   0.089   0.762  1.00  0.00     0.082 A 
HETATM    4  C6  UNL     1       0.695   0.532  -0.130  1.00  0.00     0.042 A 
HETATM    5  C8  UNL     1       0.401   0.381   1.264  1.00  0.00     0.093 A 
HETATM    6  S2  UNL     1       1.888   0.097   2.419  1.00  0.00    -0.127 SA
HETATM    7  C9  UNL     1       3.214  -0.794   1.643  1.00  0.00     0.097 A 
HETATM    8  C10 UNL     1       2.706   0.066   0.625  1.00  0.00     0.087 A 
ENDROOT
BRANCH   4   9
HETATM    9  C7  UNL     1      -0.104   1.091  -1.247  1.00  0.00     0.305 C 
HETATM   10  O2  UNL     1      -1.340   1.256  -1.266  1.00  0.00    -0.259 OA
BRANCH   9  11
HETATM   11  O3  UNL     1       0.527   1.493  -2.424  1.00  0.00    -0.176 OA
BRANCH  11  12
HETATM   12  S1  UNL     1      -0.393   2.123  -3.674  1.00  0.00     0.363 S 
HETATM   13  O4  UNL     1       0.188   3.389  -4.213  1.00  0.00    -0.175 OA
HETATM   14  O5  UNL     1      -1.823   2.378  -3.294  1.00  0.00    -0.175 OA
BRANCH  12  15
HETATM   15  N1  UNL     1      -0.400   0.871  -4.888  1.00  0.00    -0.305 N 
ATOM     16  H12 UNL     1       0.059  -0.038  -4.834  1.00  0.00     0.171 HD
ATOM     17  H11 UNL     1      -0.960   1.255  -5.649  1.00  0.00     0.171 HD
ENDBRANCH  12  15
ENDBRANCH  11  12
ENDBRANCH   9  11
ENDBRANCH   4   9
BRANCH   2  18
HETATM   18  C4  UNL     1      -0.230  -0.048   3.103  1.00  0.00     0.083 C 
HETATM   19 CL1  UNL     1      -1.794  -0.769   3.490  1.00  0.00    -0.100 Cl
ENDBRANCH   2  18
BRANCH   6  20
HETATM   20  O6  UNL     1       1.913  -0.991   3.436  1.00  0.00    -0.351 OA
ATOM     21  H6  UNL     1       2.655  -1.133   4.012  1.00  0.00     0.225 HD
ENDBRANCH   6  20
BRANCH   6  22
HETATM   22  O7  UNL     1       2.415   1.401   2.838  1.00  0.00    -0.351 OA
ATOM     23  H7  UNL     1       3.157   1.259   3.414  1.00  0.00     0.225 HD
ENDBRANCH   6  22
BRANCH   1  24
HETATM   24  O1  UNL     1      -0.001  -2.108   1.530  1.00  0.00    -0.387 OA
HETATM   25  C1  UNL     1      -0.234  -3.171   0.728  1.00  0.00     0.202 C 
ENDBRANCH   1  24
TORSDOF 8
