REMARK  14 active torsions:
REMARK  status: ('A' for Active; 'I' for Inactive)
REMARK    1  A    between atoms: C2_2  and  C3_3 
REMARK    2  A    between atoms: C3_3  and  C6_6 
REMARK    3  A    between atoms: C6_6  and  O1_7 
REMARK    4  A    between atoms: C12_14  and  O3_15 
REMARK    5  A    between atoms: C13_17  and  C14_18 
REMARK    6  A    between atoms: C14_18  and  C15_19 
REMARK    7  A    between atoms: C15_19  and  C16_20 
REMARK    8  A    between atoms: C15_19  and  C19_23 
REMARK    9  A    between atoms: C23_27  and  C24_28 
REMARK   10  A    between atoms: C24_28  and  O4_29 
REMARK   11  A    between atoms: O4_29  and  C25_30 
REMARK   12  A    between atoms: C28_34  and  O6_35 
REMARK   13  A    between atoms: O6_35  and  C29_36 
REMARK   14  A    between atoms: C29_36  and  C30_38 
ROOT
HETATM    1  C6  UNL     1       2.559  -0.243   1.593  1.00  0.00     0.145 C 
HETATM    2  C8  UNL     1       2.115  -1.347   0.677  1.00  0.00     0.014 C 
HETATM    3  C9  UNL     1       1.752  -1.159  -0.618  1.00  0.00    -0.012 C 
HETATM    4  C10 UNL     1       1.799   0.170  -1.124  1.00  0.00     0.039 C 
HETATM    5  C11 UNL     1       3.306   0.615  -1.190  1.00  0.00     0.188 C 
HETATM    6  O2  UNL     1       3.542   1.099   0.016  1.00  0.00    -0.350 OA
HETATM    7  C12 UNL     1       2.445   1.073   0.805  1.00  0.00     0.207 C 
HETATM    8  C13 UNL     1       1.191   1.033  -0.130  1.00  0.00     0.038 C 
HETATM    9  C27 UNL     1       1.135   2.000  -1.292  1.00  0.00     0.050 C 
HETATM   10  C28 UNL     1       1.235   0.838  -2.250  1.00  0.00     0.148 C 
ENDROOT
BRANCH   8  11
HETATM   11  C14 UNL     1       0.045   1.173   0.671  1.00  0.00     0.026 C 
BRANCH  11  12
HETATM   12  C15 UNL     1      -1.380   1.334   0.376  1.00  0.00     0.019 C 
BRANCH  12  13
HETATM   13  C16 UNL     1      -2.034   0.201  -0.307  1.00  0.00    -0.088 C 
HETATM   14  C17 UNL     1      -2.631   0.303  -1.486  1.00  0.00     0.014 C 
HETATM   15  C18 UNL     1      -2.037  -1.207   0.257  1.00  0.00     0.043 C 
ENDBRANCH  12  13
BRANCH  12  16
HETATM   16  C19 UNL     1      -2.209   1.666   1.619  1.00  0.00     0.004 C 
HETATM   17  C20 UNL     1      -2.294   0.803   2.774  1.00  0.00    -0.013 C 
HETATM   18  C21 UNL     1      -1.898   1.492   4.110  1.00  0.00     0.010 C 
HETATM   19  C22 UNL     1      -3.819   0.880   2.728  1.00  0.00     0.012 C 
HETATM   20  C23 UNL     1      -3.686   1.618   1.418  1.00  0.00     0.015 C 
BRANCH  20  21
HETATM   21  C24 UNL     1      -4.395   2.955   1.460  1.00  0.00     0.183 C 
BRANCH  21  22
HETATM   22  O4  UNL     1      -5.775   2.826   1.273  1.00  0.00    -0.321 OA
BRANCH  22  23
HETATM   23  C25 UNL     1      -6.441   2.343   0.184  1.00  0.00     0.254 C 
HETATM   24  C26 UNL     1      -7.926   2.247   0.095  1.00  0.00     0.126 C 
HETATM   25  O5  UNL     1      -5.783   1.955  -0.809  1.00  0.00    -0.266 OA
ENDBRANCH  22  23
ENDBRANCH  21  22
ENDBRANCH  20  21
ENDBRANCH  12  16
ENDBRANCH  11  12
ENDBRANCH   8  11
BRANCH   7  26
HETATM   26  O3  UNL     1       2.240   2.176   1.582  1.00  0.00    -0.362 OA
ATOM     27  H3  UNL     1       2.170   2.989   1.095  1.00  0.00     0.213 HD
ENDBRANCH   7  26
BRANCH  10  28
HETATM   28  O6  UNL     1       0.293   0.416  -3.115  1.00  0.00    -0.311 OA
BRANCH  28  29
HETATM   29  C29 UNL     1       0.330   0.452  -4.480  1.00  0.00     0.295 C 
HETATM   30  O7  UNL     1       1.387   0.960  -4.982  1.00  0.00    -0.259 OA
BRANCH  29  31
HETATM   31  C30 UNL     1      -0.679  -0.013  -5.432  1.00  0.00     0.064 A 
HETATM   32  C31 UNL     1      -1.866  -0.628  -5.224  1.00  0.00     0.159 A 
HETATM   33  O8  UNL     1      -2.422  -0.838  -6.385  1.00  0.00    -0.326 OA
HETATM   34  C32 UNL     1      -1.695  -0.409  -7.354  1.00  0.00     0.049 A 
HETATM   35  C33 UNL     1      -1.934  -0.438  -8.832  1.00  0.00     0.076 C 
HETATM   36  C34 UNL     1      -0.560   0.133  -6.805  1.00  0.00     0.051 A 
ENDBRANCH  29  31
ENDBRANCH  28  29
ENDBRANCH  10  28
BRANCH   1  37
HETATM   37  C3  UNL     1       3.920  -0.613   2.075  1.00  0.00     0.010 C 
HETATM   38  C4  UNL     1       3.926  -1.910   2.867  1.00  0.00     0.023 C 
HETATM   39  C5  UNL     1       4.528   0.426   3.016  1.00  0.00     0.023 C 
BRANCH  37  40
HETATM   40  C2  UNL     1       5.012  -0.799   1.082  1.00  0.00    -0.025 C 
HETATM   41  C1  UNL     1       5.335  -2.005   0.606  1.00  0.00     0.008 C 
ENDBRANCH  37  40
ENDBRANCH   1  37
BRANCH   1  42
HETATM   42  O1  UNL     1       1.774  -0.260   2.681  1.00  0.00    -0.374 OA
HETATM   43  C7  UNL     1       1.743   0.315   3.821  1.00  0.00     0.203 C 
ENDBRANCH   1  42
TORSDOF 14
