REMARK  5 active torsions:
REMARK  status: ('A' for Active; 'I' for Inactive)
REMARK    1  A    between atoms: N1_1  and  C1_4 
REMARK    2  A    between atoms: C9_23  and  O3_24 
REMARK    3  A    between atoms: C9_23  and  C10_26 
REMARK    4  A    between atoms: C10_26  and  O4_27 
REMARK    5  A    between atoms: O4_27  and  N8_28 
ROOT
HETATM    1  C1  UNL     1      -2.729  -0.825   2.090  1.00  0.00     0.680 A 
HETATM    2  N2  UNL     1      -2.569  -0.683   0.762  1.00  0.00    -0.168 N 
ATOM      3  H2  UNL     1      -3.254  -1.105   0.135  1.00  0.00     0.186 HD
HETATM    4  C2  UNL     1      -1.523   0.006   0.225  1.00  0.00     0.190 A 
HETATM    5  C3  UNL     1      -0.596   0.577   1.076  1.00  0.00     0.150 A 
HETATM    6  C4  UNL     1      -0.767   0.428   2.422  1.00  0.00     0.290 A 
HETATM    7  O1  UNL     1       0.066   0.941   3.210  1.00  0.00    -0.265 OA
HETATM    8  N3  UNL     1      -1.814  -0.260   2.911  1.00  0.00    -0.154 N 
ATOM      9  H3  UNL     1      -1.920  -0.358   3.921  1.00  0.00     0.187 HD
HETATM   10  N4  UNL     1       0.478   1.286   0.479  1.00  0.00    -0.372 N 
ATOM     11  H4  UNL     1       1.065   1.844   1.099  1.00  0.00     0.160 HD
HETATM   12  C5  UNL     1       0.813   1.292  -0.901  1.00  0.00     0.152 A 
HETATM   13  C6  UNL     1      -0.214   0.609  -1.785  1.00  0.00     0.188 A 
HETATM   14  O2  UNL     1      -1.342   0.161  -1.118  1.00  0.00    -0.324 OA
HETATM   15  C7  UNL     1       0.803  -0.395  -2.094  1.00  0.00     0.144 A 
HETATM   16  C8  UNL     1       0.587  -1.791  -2.168  1.00  0.00     0.235 C 
HETATM   17  N5  UNL     1      -0.079  -1.497  -3.413  1.00  0.00    -0.122 NA
HETATM   18  N6  UNL     1       1.074  -0.649  -3.525  1.00  0.00    -0.126 NA
HETATM   19  N7  UNL     1       1.748  -1.811  -3.017  1.00  0.00    -0.122 NA
HETATM   20  C9  UNL     1       1.868   0.260  -1.330  1.00  0.00     0.133 A 
ENDROOT
BRANCH  20  21
HETATM   21  O3  UNL     1       2.904   0.770  -2.074  1.00  0.00    -0.383 OA
ATOM     22  H3  UNL     1       3.556   0.132  -2.339  1.00  0.00     0.210 HD
ENDBRANCH  20  21
BRANCH  20  23
HETATM   23  C10 UNL     1       2.344  -0.598  -0.169  1.00  0.00     0.250 C 
BRANCH  23  24
HETATM   24  O4  UNL     1       3.161   0.194   0.697  1.00  0.00    -0.218 OA
BRANCH  24  25
HETATM   25  N8  UNL     1       3.733  -0.293   1.822  1.00  0.00     0.005 N 
HETATM   26  O5  UNL     1       3.084  -0.580   2.828  1.00  0.00    -0.511 OA
HETATM   27  O6  UNL     1       5.107  -0.477   1.847  1.00  0.00    -0.511 OA
ENDBRANCH  24  25
ENDBRANCH  23  24
ENDBRANCH  20  23
BRANCH   1  28
HETATM   28  N1  UNL     1      -3.735  -1.486   2.568  1.00  0.00    -0.234 N 
ATOM     29  H12 UNL     1      -4.425  -1.912   1.949  1.00  0.00     0.174 HD
ATOM     30  H11 UNL     1      -3.856  -1.594   3.575  1.00  0.00     0.174 HD
ENDBRANCH   1  28
TORSDOF 5
