REMARK  14 active torsions:
REMARK  status: ('A' for Active; 'I' for Inactive)
REMARK    1  A    between atoms: C3_3  and  N1_4 
REMARK    2  A    between atoms: N2_8  and  C7_9 
REMARK    3  A    between atoms: C7_9  and  O1_10 
REMARK    4  A    between atoms: C7_9  and  C8_12 
REMARK    5  A    between atoms: C8_12  and  C10_14 
REMARK    6  A    between atoms: C10_14  and  C11_15 
REMARK    7  A    between atoms: C11_15  and  C12_16 
REMARK    8  A    between atoms: C14_18  and  C15_19 
REMARK    9  A    between atoms: C16_22  and  C17_23 
REMARK       I    between atoms: C17_23  and  N3_25 
REMARK   10  A    between atoms: N3_25  and  C18_27 
REMARK   11  A    between atoms: C25_34  and  O5_35 
REMARK   12  A    between atoms: N4_40  and  C29_41 
REMARK   13  A    between atoms: C29_41  and  C30_42 
REMARK   14  A    between atoms: C30_42  and  O6_43 
ROOT
HETATM    1  C1  UNL     1       4.688  -1.138   0.435  1.00  0.00     0.013 C 
HETATM    2  C2  UNL     1       5.154  -0.021   0.345  1.00  0.00    -0.087 C 
HETATM    3  C3  UNL     1       5.713   1.322   0.264  1.00  0.00     0.364 C 
ENDROOT
BRANCH   3   4
HETATM    4  N1  UNL     1       5.066   2.123  -0.752  1.00  0.00     0.101 N 
HETATM    5  C4  UNL     1       5.665   3.437  -0.771  1.00  0.00     0.279 C 
HETATM    6  C5  UNL     1       4.569   4.462  -0.839  1.00  0.00     0.075 C 
HETATM    7  C6  UNL     1       3.757   4.376  -2.117  1.00  0.00     0.068 C 
HETATM    8  N2  UNL     1       3.421   3.065  -2.503  1.00  0.00    -0.340 N 
HETATM    9  C34 UNL     1       4.453   2.163  -3.123  1.00  0.00     0.160 C 
HETATM   10  C35 UNL     1       5.252   1.501  -2.049  1.00  0.00     0.293 C 
BRANCH   8  11
HETATM   11  C7  UNL     1       2.197   2.397  -2.375  1.00  0.00     0.147 C 
BRANCH  11  12
HETATM   12  O1  UNL     1       2.194   1.176  -2.867  1.00  0.00    -0.346 OA
ATOM     13  H1  UNL     1       1.364   0.723  -2.780  1.00  0.00     0.219 HD
ENDBRANCH  11  12
BRANCH  11  14
HETATM   14  C8  UNL     1       0.923   2.743  -1.820  1.00  0.00    -0.015 C 
HETATM   15  C9  UNL     1       0.771   4.129  -1.198  1.00  0.00     0.052 C 
BRANCH  14  16
HETATM   16  C10 UNL     1      -0.171   2.032  -1.745  1.00  0.00    -0.014 C 
BRANCH  16  17
HETATM   17  C11 UNL     1      -0.531   0.682  -2.163  1.00  0.00     0.061 C 
BRANCH  17  18
HETATM   18  C12 UNL     1      -1.130  -0.097  -0.945  1.00  0.00     0.202 C 
HETATM   19  C13 UNL     1      -2.304   0.705  -0.579  1.00  0.00     0.068 C 
HETATM   20  C14 UNL     1      -2.711   1.055   0.812  1.00  0.00     0.114 C 
HETATM   21  C25 UNL     1      -3.434  -0.330  -0.765  1.00  0.00     0.073 C 
HETATM   22  C16 UNL     1      -3.499  -0.129   1.384  1.00  0.00     0.065 C 
HETATM   23  C22 UNL     1      -4.961   0.054   1.527  1.00  0.00     0.021 C 
HETATM   24  C26 UNL     1      -2.989  -1.081   0.407  1.00  0.00     0.015 C 
HETATM   25  C23 UNL     1      -5.640   0.499   0.293  1.00  0.00     0.004 C 
HETATM   26  C24 UNL     1      -4.796   0.177  -0.836  1.00  0.00     0.039 C 
HETATM   27  C27 UNL     1      -1.645  -1.187   1.020  1.00  0.00     0.042 C 
HETATM   28  C32 UNL     1      -3.168  -2.419  -0.018  1.00  0.00     0.020 C 
HETATM   29  C28 UNL     1      -0.523  -1.878   0.264  1.00  0.00     0.239 C 
HETATM   30  N4  UNL     1      -1.054  -1.492  -1.077  1.00  0.00    -0.060 N 
HETATM   31  C31 UNL     1      -2.085  -2.474  -1.099  1.00  0.00     0.243 C 
HETATM   32  C33 UNL     1      -4.424  -2.925  -0.623  1.00  0.00     0.012 C 
BRANCH  20  33
HETATM   33  C15 UNL     1      -3.450   2.340   0.859  1.00  0.00     0.178 C 
HETATM   34  O2  UNL     1      -3.631   3.113  -0.113  1.00  0.00    -0.648 OA
HETATM   35  O3  UNL     1      -4.016   2.790   2.046  1.00  0.00    -0.648 OA
ENDBRANCH  20  33
BRANCH  22  36
HETATM   36  C17 UNL     1      -3.081  -0.265   2.817  1.00  0.00     0.228 C 
HETATM   37  O4  UNL     1      -2.273   0.525   3.368  1.00  0.00    -0.273 OA
HETATM   38  N3  UNL     1      -3.577  -1.300   3.640  1.00  0.00    -0.352 N 
ATOM     39  H3  UNL     1      -4.237  -1.962   3.233  1.00  0.00     0.163 HD
BRANCH  38  40
HETATM   40  C18 UNL     1      -3.207  -1.475   5.016  1.00  0.00     0.022 C 
HETATM   41  C19 UNL     1      -3.937  -2.678   5.612  1.00  0.00     0.037 C 
HETATM   42  C20 UNL     1      -1.730  -1.751   5.191  1.00  0.00     0.037 C 
HETATM   43  C21 UNL     1      -3.541  -0.281   5.873  1.00  0.00     0.037 C 
ENDBRANCH  38  40
ENDBRANCH  22  36
BRANCH  30  44
HETATM   44  C29 UNL     1      -0.141  -1.953  -2.098  1.00  0.00     0.263 C 
BRANCH  44  45
HETATM   45  C30 UNL     1       1.273  -2.196  -1.761  1.00  0.00     0.192 C 
BRANCH  45  46
HETATM   46  O6  UNL     1       1.496  -3.195  -0.817  1.00  0.00    -0.399 OA
ATOM     47  H6  UNL     1       2.407  -3.352  -0.600  1.00  0.00     0.209 HD
ENDBRANCH  45  46
ENDBRANCH  44  45
ENDBRANCH  30  44
BRANCH  21  48
HETATM   48  O5  UNL     1      -3.189  -0.598  -2.077  1.00  0.00    -0.389 OA
ATOM     49  H5  UNL     1      -3.884  -1.235  -2.191  1.00  0.00     0.210 HD
ENDBRANCH  21  48
ENDBRANCH  17  18
ENDBRANCH  16  17
ENDBRANCH  14  16
ENDBRANCH  11  14
ENDBRANCH   8  11
ENDBRANCH   3   4
TORSDOF 14
