REMARK  0 active torsions:
REMARK  status: ('A' for Active; 'I' for Inactive)
REMARK       I    between atoms: C2_3  and  N2_4 
ROOT
HETATM    1  C1  UNL     1      -2.170   1.239  -2.274  1.00  0.00     0.175 C 
HETATM    2  N1  UNL     1      -1.940   0.206  -1.313  1.00  0.00    -0.195 N 
HETATM    3  C2  UNL     1      -2.239  -1.092  -1.819  1.00  0.00     0.682 C 
HETATM    4  N2  UNL     1      -2.922  -0.990  -3.070  1.00  0.00    -0.167 N 
ATOM      5  H2  UNL     1      -2.569  -0.419  -3.838  1.00  0.00     0.186 HD
HETATM    6  C3  UNL     1      -4.008  -1.665  -3.162  1.00  0.00     0.368 C 
HETATM    7  O1  UNL     1      -5.138  -2.153  -3.316  1.00  0.00    -0.283 OA
HETATM    8  N3  UNL     1      -2.048  -2.330  -1.437  1.00  0.00    -0.225 N 
ATOM      9  H3  UNL     1      -2.433  -2.987  -2.116  1.00  0.00     0.177 HD
HETATM   10  C4  UNL     1      -1.433  -3.041  -0.301  1.00  0.00     0.143 C 
HETATM   11  C5  UNL     1      -0.837  -1.946   0.529  1.00  0.00     0.012 C 
HETATM   12  C6  UNL     1      -1.956  -1.356   1.188  1.00  0.00    -0.003 C 
HETATM   13  C7  UNL     1      -1.335  -1.714   2.528  1.00  0.00     0.010 C 
HETATM   14  C8  UNL     1      -0.097  -2.013   1.768  1.00  0.00    -0.008 C 
HETATM   15  C9  UNL     1       1.085  -1.182   2.042  1.00  0.00     0.010 C 
HETATM   16  C10 UNL     1       1.353   0.208   1.934  1.00  0.00    -0.005 C 
HETATM   17  C11 UNL     1       0.462   1.332   2.320  1.00  0.00     0.011 C 
HETATM   18  C12 UNL     1       0.483   1.985   0.953  1.00  0.00     0.000 C 
HETATM   19  C13 UNL     1      -0.817   1.923   0.178  1.00  0.00     0.058 C 
HETATM   20  C14 UNL     1      -1.459   0.661  -0.036  1.00  0.00     0.007 C 
HETATM   21  C15 UNL     1      -2.342   0.070   1.013  1.00  0.00     0.058 C 
HETATM   22  C16 UNL     1       1.627   1.064   0.727  1.00  0.00    -0.033 C 
HETATM   23  C17 UNL     1       2.883   1.965   0.997  1.00  0.00     0.010 C 
HETATM   24  C18 UNL     1       3.363   2.436  -0.315  1.00  0.00     0.001 C 
HETATM   25  C19 UNL     1       3.313   1.121  -1.070  1.00  0.00     0.001 C 
HETATM   26  C20 UNL     1       2.018   0.547  -0.558  1.00  0.00     0.010 C 
ENDROOT
TORSDOF 0
