REMARK  2 active torsions:
REMARK  status: ('A' for Active; 'I' for Inactive)
REMARK    1  A    between atoms: C3_4  and  N2_5 
REMARK    2  A    between atoms: S1_22  and  O3_23 
ROOT
HETATM    1  N1  UNL     1      -0.765   2.079   3.609  1.00  0.00    -0.192 NA
HETATM    2  C1  UNL     1      -0.288   2.119   2.661  1.00  0.00     0.089 C 
HETATM    3  C2  UNL     1       0.384   2.212   1.352  1.00  0.00     0.111 C 
HETATM    4  C3  UNL     1       0.934   1.050   0.773  1.00  0.00     0.105 C 
ENDROOT
BRANCH   4   5
HETATM    5  N2  UNL     1      -0.137   0.162   0.569  1.00  0.00    -0.318 N 
HETATM    6  C4  UNL     1      -0.791   0.291  -0.592  1.00  0.00     0.149 A 
HETATM    7  C5  UNL     1      -0.122   0.886  -1.554  1.00  0.00     0.280 A 
HETATM    8  C7  UNL     1      -2.114  -0.183  -0.832  1.00  0.00     0.140 A 
HETATM    9  O1  UNL     1       1.034   1.324  -1.418  1.00  0.00    -0.265 OA
HETATM   10  N3  UNL     1      -0.745   1.021  -2.761  1.00  0.00    -0.273 N 
HETATM   11  C6  UNL     1      -1.988   0.574  -2.980  1.00  0.00     0.328 A 
ATOM     12  H3  UNL     1      -0.246   1.479  -3.524  1.00  0.00     0.173 HD
HETATM   13  O2  UNL     1      -2.534   0.718  -4.116  1.00  0.00    -0.247 OA
HETATM   14  N4  UNL     1      -2.670  -0.027  -2.013  1.00  0.00    -0.293 N 
ATOM     15  H4  UNL     1      -3.617  -0.365  -2.185  1.00  0.00     0.172 HD
HETATM   16  N5  UNL     1      -2.862  -0.824   0.056  1.00  0.00    -0.341 N 
HETATM   17  C8  UNL     1      -2.599  -1.558   1.198  1.00  0.00     0.307 A 
ATOM     18  H5  UNL     1      -3.859  -0.761  -0.151  1.00  0.00     0.164 HD
HETATM   19  N6  UNL     1      -1.897  -1.614   1.718  1.00  0.00    -0.222 N 
HETATM   20  S1  UNL     1      -1.381  -1.838   2.323  1.00  0.00     0.036 SA
HETATM   21  N7  UNL     1      -0.500  -1.166   2.070  1.00  0.00    -0.105 NA
HETATM   22  C9  UNL     1      -0.279  -0.702   1.644  1.00  0.00     0.295 A 
BRANCH  20  23
HETATM   23  O3  UNL     1      -1.064  -3.684   2.812  1.00  0.00    -0.322 OA
ATOM     24  H3  UNL     1      -0.376  -3.842   3.448  1.00  0.00     0.228 HD
ENDBRANCH  20  23
ENDBRANCH   4   5
TORSDOF 2
