REMARK  10 active torsions:
REMARK  status: ('A' for Active; 'I' for Inactive)
REMARK    1  A    between atoms: C2_2  and  C3_3 
REMARK    2  A    between atoms: C3_3  and  N1_4 
REMARK    3  A    between atoms: C3_3  and  C19_44 
REMARK    4  A    between atoms: N1_4  and  C4_6 
REMARK    5  A    between atoms: C8_17  and  C9_18 
REMARK    6  A    between atoms: C9_18  and  O1_19 
REMARK    7  A    between atoms: C9_18  and  C10_21 
REMARK    8  A    between atoms: C10_21  and  O2_22 
REMARK    9  A    between atoms: C13_29  and  N7_30 
REMARK   10  A    between atoms: C15_35  and  C16_36 
ROOT
HETATM    1  C4  UNL     1      -0.611   0.975  -0.758  1.00  0.00     0.113 C 
HETATM    2  N2  UNL     1      -1.827   1.531  -0.929  1.00  0.00    -0.180 N 
ATOM      3  H2  UNL     1      -1.950   2.416  -1.421  1.00  0.00     0.185 HD
HETATM    4  C5  UNL     1      -2.904   0.832  -0.399  1.00  0.00     0.675 C 
HETATM    5  N3  UNL     1      -4.015   1.338  -0.221  1.00  0.00    -0.235 N 
ATOM      6  H31 UNL     1      -4.806   0.825   0.168  1.00  0.00     0.174 HD
ATOM      7  H32 UNL     1      -4.154   2.320  -0.460  1.00  0.00     0.174 HD
HETATM    8  N4  UNL     1      -2.714  -0.506  -0.073  1.00  0.00    -0.197 N 
ATOM      9  H4  UNL     1      -3.520  -1.105   0.104  1.00  0.00     0.180 HD
HETATM   10  C6  UNL     1      -1.404  -1.040   0.014  1.00  0.00     0.161 A 
HETATM   11  C7  UNL     1      -0.058  -0.380   0.698  1.00  0.00     0.116 A 
HETATM   12  C8  UNL     1       0.219  -0.969   1.967  1.00  0.00     0.034 A 
HETATM   13  N5  UNL     1       0.475  -1.692   1.602  1.00  0.00    -0.364 N 
ATOM     14  H5  UNL     1       0.821  -2.552   2.029  1.00  0.00     0.161 HD
HETATM   15  C11 UNL     1       0.288  -1.371   0.238  1.00  0.00     0.152 A 
HETATM   16  C12 UNL     1      -0.212  -0.006   0.273  1.00  0.00     0.131 A 
HETATM   17  N6  UNL     1       0.444  -2.600  -0.556  1.00  0.00    -0.297 N 
HETATM   18  C13 UNL     1       1.527  -3.361  -0.881  1.00  0.00     0.189 C 
HETATM   19  C15 UNL     1      -0.817  -3.036  -1.120  1.00  0.00     0.136 C 
HETATM   20  N11 UNL     1      -1.670  -2.157  -0.751  1.00  0.00    -0.345 N 
ATOM     21  H11 UNL     1      -2.636  -2.295  -1.050  1.00  0.00     0.163 HD
ENDROOT
BRANCH   1  22
HETATM   22  N1  UNL     1       0.294   1.377  -1.486  1.00  0.00    -0.368 N 
ATOM     23  H1  UNL     1       1.130   0.853  -1.227  1.00  0.00     0.161 HD
BRANCH  22  24
HETATM   24  C3  UNL     1       0.631   2.153  -2.409  1.00  0.00     0.134 C 
BRANCH  24  25
HETATM   25  C2  UNL     1       1.968   1.653  -2.912  1.00  0.00     0.027 C 
HETATM   26  C1  UNL     1       3.015   1.662  -1.847  1.00  0.00     0.007 C 
ENDBRANCH  24  25
BRANCH  24  27
HETATM   27  C19 UNL     1       0.653   3.500  -1.835  1.00  0.00     0.050 A 
HETATM   28  C20 UNL     1       0.149   4.548  -2.527  1.00  0.00     0.047 A 
HETATM   29  C21 UNL     1       0.293   5.687  -1.757  1.00  0.00     0.111 A 
HETATM   30  N12 UNL     1       0.875   5.290  -0.633  1.00  0.00    -0.308 N 
HETATM   31  C22 UNL     1       1.220   6.179   0.490  1.00  0.00     0.177 C 
HETATM   32  N13 UNL     1       1.088   4.000  -0.681  1.00  0.00    -0.301 N 
ATOM     33  H13 UNL     1       1.526   3.454   0.061  1.00  0.00     0.187 HD
ENDBRANCH  24  27
ENDBRANCH  22  24
ENDBRANCH   1  22
BRANCH  12  34
HETATM   34  C9  UNL     1       0.421  -1.345   3.263  1.00  0.00     0.188 C 
BRANCH  34  35
HETATM   35  O1  UNL     1       0.701  -0.255   4.129  1.00  0.00    -0.388 OA
ATOM     36  H1  UNL     1       0.842  -0.517   5.031  1.00  0.00     0.210 HD
ENDBRANCH  34  35
BRANCH  34  37
HETATM   37  C10 UNL     1      -1.016  -1.717   3.907  1.00  0.00     0.201 C 
BRANCH  37  38
HETATM   38  O2  UNL     1      -1.654  -0.507   3.649  1.00  0.00    -0.398 OA
ATOM     39  H2  UNL     1      -2.498  -0.725   4.027  1.00  0.00     0.209 HD
ENDBRANCH  37  38
ENDBRANCH  34  37
ENDBRANCH  12  34
BRANCH  18  40
HETATM   40  N7  UNL     1       2.155  -2.825  -1.999  1.00  0.00    -0.329 N 
HETATM   41  C14 UNL     1       3.318  -2.404  -1.975  1.00  0.00     0.201 C 
HETATM   42  N8  UNL     1       4.101  -2.434  -0.814  1.00  0.00    -0.066 NA
HETATM   43  N9  UNL     1       3.829  -1.902  -3.183  1.00  0.00    -0.066 NA
ATOM     44  H7  UNL     1       1.636  -2.777  -2.875  1.00  0.00     0.168 HD
ENDBRANCH  18  40
BRANCH  19  45
HETATM   45  C16 UNL     1      -0.993  -4.153  -1.943  1.00  0.00     0.083 A 
HETATM   46  C17 UNL     1      -1.532  -4.050  -3.204  1.00  0.00     0.084 A 
HETATM   47  S1  UNL     1      -1.542  -5.685  -3.660  1.00  0.00    -0.094 SA
HETATM   48  C18 UNL     1      -0.876  -6.392  -2.252  1.00  0.00     0.138 A 
HETATM   49  N10 UNL     1      -0.682  -5.341  -1.508  1.00  0.00    -0.357 N 
ATOM     50  H10 UNL     1      -0.283  -5.449  -0.576  1.00  0.00     0.166 HD
ENDBRANCH  19  45
TORSDOF 10
