REMARK  10 active torsions:
REMARK  status: ('A' for Active; 'I' for Inactive)
REMARK    1  A    between atoms: O1_2  and  C2_3 
REMARK    2  A    between atoms: C4_5  and  O2_6 
REMARK    3  A    between atoms: C8_11  and  N1_12 
REMARK    4  A    between atoms: C9_15  and  C10_16 
REMARK       I    between atoms: C10_16  and  N2_18 
REMARK    5  A    between atoms: N2_18  and  N3_20 
REMARK    6  A    between atoms: N3_20  and  S1_22 
REMARK    7  A    between atoms: C13_29  and  O8_30 
REMARK    8  A    between atoms: C15_32  and  C16_33 
REMARK    9  A    between atoms: C19_39  and  N5_40 
REMARK   10  A    between atoms: N5_40  and  O11_42 
ROOT
HETATM    1  C2  UNL     1      -0.164   1.889  -3.085  1.00  0.00     0.080 A 
HETATM    2  C3  UNL     1      -0.320   3.311  -3.035  1.00  0.00     0.074 A 
HETATM    3  C4  UNL     1      -0.359   3.717  -1.771  1.00  0.00     0.072 A 
HETATM    4  C5  UNL     1      -0.248   2.781  -0.867  1.00  0.00    -0.018 A 
HETATM    5  C6  UNL     1      -0.135   1.776  -0.724  1.00  0.00     0.054 A 
HETATM    6  C7  UNL     1      -0.086   1.215  -1.981  1.00  0.00     0.018 A 
HETATM    7  C8  UNL     1      -0.036  -0.185  -2.490  1.00  0.00     0.055 C 
HETATM    8  C9  UNL     1       0.426  -1.187  -1.753  1.00  0.00     0.107 C 
HETATM    9  C11 UNL     1       0.717  -0.845  -0.390  1.00  0.00     0.184 C 
HETATM   10  O7  UNL     1       1.409  -1.338   0.322  1.00  0.00    -0.291 OA
HETATM   11  C12 UNL     1       0.054   0.261   0.165  1.00  0.00     0.108 A 
HETATM   12  C13 UNL     1      -0.132   1.794   0.020  1.00  0.00     0.042 A 
HETATM   13  O8  UNL     1      -0.237   2.733   1.035  1.00  0.00     0.000 OA
HETATM   14  C14 UNL     1      -0.278   3.098   1.448  1.00  0.00    -0.026 A 
HETATM   15  C15 UNL     1      -0.365   3.880   2.618  1.00  0.00     0.080 C 
HETATM   16  C17 UNL     1      -0.119   1.685   0.938  1.00  0.00     0.093 A 
HETATM   17  C18 UNL     1      -0.041   0.643   1.929  1.00  0.00     0.191 C 
HETATM   18  O10 UNL     1       0.339   0.719   3.004  1.00  0.00    -0.290 OA
HETATM   19  C19 UNL     1      -0.534  -0.368   1.180  1.00  0.00     0.098 C 
ENDROOT
BRANCH   8  20
HETATM   20  C10 UNL     1       0.510  -2.456  -2.145  1.00  0.00     0.276 C 
HETATM   21  O3  UNL     1       0.113  -2.772  -3.341  1.00  0.00    -0.266 OA
HETATM   22  N2  UNL     1       0.989  -3.564  -1.420  1.00  0.00    -0.254 N 
ATOM     23  H2  UNL     1       1.323  -3.421  -0.467  1.00  0.00     0.191 HD
BRANCH  22  24
HETATM   24  N3  UNL     1       1.023  -4.855  -1.961  1.00  0.00    -0.205 N 
ATOM     25  H3  UNL     1       0.724  -5.124  -2.898  1.00  0.00     0.202 HD
BRANCH  24  26
HETATM   26  S1  UNL     1       1.660  -5.904  -0.759  1.00  0.00     0.223 S 
HETATM   27  O4  UNL     1       1.836  -7.304  -1.231  1.00  0.00    -0.577 OA
HETATM   28  O5  UNL     1       3.007  -5.408  -0.269  1.00  0.00    -0.577 OA
HETATM   29  O6  UNL     1       0.633  -5.874   0.568  1.00  0.00    -0.577 OA
ENDBRANCH  24  26
ENDBRANCH  22  24
ENDBRANCH   8  20
BRANCH   7  30
HETATM   30  N1  UNL     1      -0.548  -0.498  -3.635  1.00  0.00    -0.398 N 
ATOM     31  H12 UNL     1      -0.903   0.272  -4.202  1.00  0.00     0.156 HD
ATOM     32  H11 UNL     1      -0.514  -1.456  -3.983  1.00  0.00     0.156 HD
ENDBRANCH   7  30
BRANCH   1  33
HETATM   33  O1  UNL     1      -0.098   1.343  -4.285  1.00  0.00    -0.355 OA
HETATM   34  C1  UNL     1      -0.184   2.056  -5.483  1.00  0.00     0.210 C 
ENDBRANCH   1  33
BRANCH  19  35
HETATM   35  N5  UNL     1      -1.145  -1.351   1.167  1.00  0.00    -0.268 N 
ATOM     36  H5  UNL     1      -1.269  -1.825   0.273  1.00  0.00     0.194 HD
BRANCH  35  37
HETATM   37  O11 UNL     1      -1.700  -1.905   2.255  1.00  0.00    -0.290 OA
ATOM     38  H11 UNL     1      -2.201  -2.712   2.244  1.00  0.00     0.244 HD
ENDBRANCH  35  37
ENDBRANCH  19  35
BRANCH   3  39
HETATM   39  O2  UNL     1      -0.481   4.836  -1.092  1.00  0.00    -0.360 OA
ATOM     40  H2  UNL     1      -0.509   5.126  -0.188  1.00  0.00     0.217 HD
ENDBRANCH   3  39
BRANCH  15  41
HETATM   41  C16 UNL     1       0.923   4.109   3.176  1.00  0.00     0.255 C 
HETATM   42  N4  UNL     1       1.199   4.822   4.377  1.00  0.00    -0.058 NA
HETATM   43  O9  UNL     1       1.902   3.640   2.552  1.00  0.00    -0.272 OA
ENDBRANCH  15  41
TORSDOF 10
