REMARK  7 active torsions:
REMARK  status: ('A' for Active; 'I' for Inactive)
REMARK    1  A    between atoms: C2_2  and  C3_3 
REMARK    2  A    between atoms: C7_7  and  O1_8 
REMARK    3  A    between atoms: C8_11  and  O3_12 
REMARK    4  A    between atoms: C10_15  and  O4_16 
REMARK    5  A    between atoms: C16_23  and  O6_24 
REMARK    6  A    between atoms: C18_26  and  C19_27 
REMARK    7  A    between atoms: C21_29  and  C22_30 
ROOT
HETATM    1  C3  UNL     1       0.193  -2.600  -3.219  1.00  0.00    -0.022 C 
HETATM    2  C4  UNL     1      -0.918  -3.506  -3.832  1.00  0.00     0.020 C 
HETATM    3  C5  UNL     1       0.472  -1.627  -4.275  1.00  0.00     0.057 C 
HETATM    4  C6  UNL     1      -0.460  -0.487  -4.300  1.00  0.00     0.018 A 
HETATM    5  C7  UNL     1      -0.994   0.010  -5.472  1.00  0.00     0.192 A 
HETATM    6  O2  UNL     1      -1.755   0.992  -5.133  1.00  0.00    -0.264 OA
HETATM    7  C8  UNL     1      -1.769   1.183  -3.844  1.00  0.00     0.198 A 
HETATM    8  C9  UNL     1      -0.943   0.248  -3.254  1.00  0.00     0.074 A 
HETATM    9  C10 UNL     1      -0.772   0.248  -1.777  1.00  0.00     0.209 C 
HETATM   10  O5  UNL     1       0.059   1.436  -1.641  1.00  0.00    -0.349 OA
HETATM   11  C12 UNL     1       1.358   0.925  -1.903  1.00  0.00     0.183 C 
HETATM   12  C13 UNL     1       1.351  -0.195  -1.086  1.00  0.00     0.005 C 
HETATM   13  C14 UNL     1       2.195  -1.368  -0.985  1.00  0.00     0.016 C 
HETATM   14  C15 UNL     1       1.495  -2.110  -0.106  1.00  0.00     0.040 C 
HETATM   15  C16 UNL     1       0.290  -1.168   0.156  1.00  0.00     0.079 C 
HETATM   16  C18 UNL     1       1.144   0.058   0.364  1.00  0.00     0.042 C 
HETATM   17  C27 UNL     1       0.012  -0.872  -1.267  1.00  0.00     0.064 C 
HETATM   18  C28 UNL     1      -0.234  -2.154  -1.906  1.00  0.00     0.032 C 
ENDROOT
BRANCH  16  19
HETATM   19  C19 UNL     1       0.658   1.222   1.059  1.00  0.00     0.040 C 
HETATM   20  C20 UNL     1       0.551   0.833   2.503  1.00  0.00    -0.014 C 
HETATM   21  C21 UNL     1       1.431   1.187   3.422  1.00  0.00    -0.056 C 
HETATM   22  C25 UNL     1       2.569   2.048   2.977  1.00  0.00     0.202 C 
HETATM   23  O7  UNL     1       1.910   3.015   2.164  1.00  0.00    -0.386 OA
HETATM   24  C26 UNL     1       1.670   2.341   0.985  1.00  0.00     0.177 C 
BRANCH  21  25
HETATM   25  C22 UNL     1       1.375   0.829   4.858  1.00  0.00     0.008 C 
HETATM   26  C23 UNL     1       1.477   2.087   5.666  1.00  0.00     0.014 C 
HETATM   27  C24 UNL     1       0.184  -0.008   5.207  1.00  0.00     0.014 C 
ENDBRANCH  21  25
ENDBRANCH  16  19
BRANCH  15  28
HETATM   28  O6  UNL     1      -0.491  -1.433   1.126  1.00  0.00    -0.384 OA
HETATM   29  C17 UNL     1      -1.201  -2.512   1.402  1.00  0.00     0.202 C 
ENDBRANCH  15  28
BRANCH   9  30
HETATM   30  O4  UNL     1      -1.984   0.539  -1.265  1.00  0.00    -0.355 OA
HETATM   31  C11 UNL     1      -3.033  -0.233  -1.202  1.00  0.00     0.206 C 
ENDBRANCH   9  30
BRANCH   1  32
HETATM   32  C2  UNL     1       1.335  -3.601  -3.210  1.00  0.00    -0.027 C 
HETATM   33  C1  UNL     1       2.248  -3.652  -4.137  1.00  0.00     0.007 C 
ENDBRANCH   1  32
BRANCH   7  34
HETATM   34  O3  UNL     1      -2.520   2.190  -3.230  1.00  0.00    -0.340 OA
ATOM     35  H3  UNL     1      -2.530   2.329  -2.290  1.00  0.00     0.220 HD
ENDBRANCH   7  34
BRANCH   5  36
HETATM   36  O1  UNL     1      -0.699  -0.522  -6.725  1.00  0.00    -0.340 OA
ATOM     37  H1  UNL     1      -1.066  -0.180  -7.532  1.00  0.00     0.220 HD
ENDBRANCH   5  36
TORSDOF 7
