REMARK  1 active torsions:
REMARK  status: ('A' for Active; 'I' for Inactive)
REMARK    1  A    between atoms: C2_3  and  C3_4 
ROOT
HETATM    1  C1  UNL     1       0.792  -2.077   2.067  1.00  0.00     0.222 C 
HETATM    2  N1  UNL     1       0.775  -1.220   1.290  1.00  0.00    -0.456 NA
HETATM    3  C2  UNL     1       0.759  -0.197   0.336  1.00  0.00     0.108 C 
HETATM    4  C5  UNL     1      -0.035   0.985   0.846  1.00  0.00     0.050 C 
HETATM    5  C6  UNL     1      -1.448   0.522   1.066  1.00  0.00     0.004 C 
HETATM    6  C7  UNL     1      -2.069   0.084  -0.228  1.00  0.00     0.000 C 
HETATM    7  C8  UNL     1      -1.284  -1.004  -0.876  1.00  0.00     0.004 C 
HETATM    8  C9  UNL     1       0.183  -0.768  -0.935  1.00  0.00     0.050 C 
ENDROOT
BRANCH   3   9
HETATM    9  C3  UNL     1       2.145   0.282   0.095  1.00  0.00     0.008 C 
HETATM   10  C4  UNL     1       2.439   1.082  -0.942  1.00  0.00     0.010 C 
ENDBRANCH   3   9
TORSDOF 1
