REMARK  2 active torsions:
REMARK  status: ('A' for Active; 'I' for Inactive)
REMARK    1  A    between atoms: N1_2  and  O1_3 
REMARK    2  A    between atoms: N1_2  and  C2_5 
ROOT
HETATM    1  C2  UNL     1      -0.521   0.441  -0.550  1.00  0.00     0.112 C 
HETATM    2  C3  UNL     1      -0.085   1.265   0.639  1.00  0.00     0.028 C 
HETATM    3  C4  UNL     1       1.181   0.702   1.259  1.00  0.00     0.002 C 
HETATM    4  C5  UNL     1       2.081   0.079   0.228  1.00  0.00     0.000 C 
HETATM    5  C6  UNL     1       1.404  -1.151  -0.318  1.00  0.00     0.002 C 
HETATM    6  C7  UNL     1      -0.088  -0.992  -0.438  1.00  0.00     0.028 C 
ENDROOT
BRANCH   1   7
HETATM    7  N1  UNL     1      -1.961   0.495  -0.629  1.00  0.00    -0.277 N 
HETATM    8  C1  UNL     1      -2.718  -0.549  -0.624  1.00  0.00     0.150 C 
BRANCH   7   9
HETATM    9  O1  UNL     1      -2.616   1.733  -0.725  1.00  0.00    -0.288 OA
ATOM     10  H1  UNL     1      -2.058   2.502  -0.729  1.00  0.00     0.244 HD
ENDBRANCH   7   9
ENDBRANCH   1   7
TORSDOF 2
