REMARK  1 active torsions:
REMARK  status: ('A' for Active; 'I' for Inactive)
REMARK    1  A    between atoms: C4_4  and  O1_5 
ROOT
HETATM    1  C1  UNL     1       1.955  -0.908  -0.130  1.00  0.00     0.011 C 
HETATM    2  C2  UNL     1       0.957  -0.037   0.522  1.00  0.00    -0.006 C 
HETATM    3  C3  UNL     1       0.983   1.362  -0.104  1.00  0.00     0.037 C 
HETATM    4  C4  UNL     1      -0.444   1.148  -0.541  1.00  0.00     0.126 C 
HETATM    5  C5  UNL     1      -0.469  -0.166   0.209  1.00  0.00    -0.018 C 
HETATM    6  C6  UNL     1      -0.957  -1.342  -0.559  1.00  0.00     0.018 C 
HETATM    7  C7  UNL     1      -1.352   0.006   1.455  1.00  0.00     0.018 C 
ENDROOT
BRANCH   4   8
HETATM    8  O1  UNL     1      -0.615   1.050  -1.914  1.00  0.00    -0.395 OA
ATOM      9  H1  UNL     1      -1.514   0.915  -2.189  1.00  0.00     0.210 HD
ENDBRANCH   4   8
TORSDOF 1
