REMARK  0 active torsions:
REMARK  status: ('A' for Active; 'I' for Inactive)
ROOT
HETATM    1  C1  UNL     1      -0.881   1.137   0.174  1.00  0.00     0.011 C 
HETATM    2  C2  UNL     1       0.288   1.232  -0.820  1.00  0.00    -0.004 A 
HETATM    3  C3  UNL     1       1.502   0.559  -0.281  1.00  0.00    -0.004 A 
HETATM    4  C4  UNL     1       1.163  -0.333   0.885  1.00  0.00     0.015 C 
HETATM    5  C5  UNL     1       0.082  -0.954   0.011  1.00  0.00    -0.032 A 
HETATM    6  C6  UNL     1      -1.037  -1.441   0.664  1.00  0.00     0.015 A 
HETATM    7  C7  UNL     1      -1.331  -0.251  -0.032  1.00  0.00    -0.004 A 
HETATM    8  C8  UNL     1       0.583  -0.227  -1.108  1.00  0.00     0.003 A 
ENDROOT
TORSDOF 0
