REMARK  11 active torsions:
REMARK  status: ('A' for Active; 'I' for Inactive)
REMARK    1  A    between atoms: N1_1  and  C1_5 
REMARK    2  A    between atoms: C1_5  and  C2_6 
REMARK    3  A    between atoms: C2_6  and  S1_7 
REMARK    4  A    between atoms: S1_7  and  C3_8 
REMARK    5  A    between atoms: C3_8  and  C4_9 
REMARK    6  A    between atoms: C7_12  and  C8_13 
REMARK    7  A    between atoms: C8_13  and  C9_14 
REMARK    8  A    between atoms: C9_14  and  C10_15 
REMARK    9  A    between atoms: C10_15  and  C11_16 
REMARK   10  A    between atoms: C11_16  and  C12_17 
REMARK   11  A    between atoms: C12_17  and  C13_18 
ROOT
HETATM    1  C4  UNL     1       3.773   1.025   0.903  1.00  0.00     0.093 C 
HETATM    2  C5  UNL     1       2.890   0.192   1.796  1.00  0.00     0.027 C 
HETATM    3  C6  UNL     1       1.439   0.140   1.286  1.00  0.00     0.016 C 
HETATM    4  C7  UNL     1       1.513  -0.357  -0.110  1.00  0.00     0.078 C 
HETATM    5  C18 UNL     1       2.059   0.777  -0.923  1.00  0.00     0.222 C 
HETATM    6  O1  UNL     1       1.566   1.018  -2.030  1.00  0.00    -0.273 OA
HETATM    7  N3  UNL     1       3.124   1.477  -0.309  1.00  0.00    -0.355 N 
ATOM      8  H3  UNL     1       3.450   2.342  -0.741  1.00  0.00     0.162 HD
ENDROOT
BRANCH   4   9
HETATM    9  C8  UNL     1       0.380  -1.069  -0.694  1.00  0.00     0.014 C 
BRANCH   9  10
HETATM   10  C9  UNL     1      -0.940  -0.443  -0.831  1.00  0.00     0.001 C 
BRANCH  10  11
HETATM   11  C10 UNL     1      -1.653  -0.015   0.405  1.00  0.00     0.000 C 
BRANCH  11  12
HETATM   12  C11 UNL     1      -3.016   0.599   0.090  1.00  0.00     0.000 C 
BRANCH  12  13
HETATM   13  C12 UNL     1      -3.931  -0.351  -0.621  1.00  0.00     0.005 C 
BRANCH  13  14
HETATM   14  C13 UNL     1      -5.280   0.279  -0.915  1.00  0.00    -0.011 C 
HETATM   15  C14 UNL     1      -5.999   0.714   0.322  1.00  0.00     0.032 C 
HETATM   16  C15 UNL     1      -7.486   0.569   0.098  1.00  0.00     0.232 C 
HETATM   17  N2  UNL     1      -7.803  -0.841   0.084  1.00  0.00    -0.075 N 
HETATM   18  C16 UNL     1      -6.885  -1.628  -0.690  1.00  0.00     0.232 C 
ATOM     19  H22 UNL     1      -7.877  -1.204   1.035  1.00  0.00     0.277 HD
ATOM     20  H21 UNL     1      -8.762  -0.992  -0.230  1.00  0.00     0.277 HD
HETATM   21  C17 UNL     1      -6.140  -0.718  -1.658  1.00  0.00     0.032 C 
ENDBRANCH  13  14
ENDBRANCH  12  13
ENDBRANCH  11  12
ENDBRANCH  10  11
ENDBRANCH   9  10
ENDBRANCH   4   9
BRANCH   1  22
HETATM   22  C3  UNL     1       5.062   0.291   0.572  1.00  0.00     0.099 C 
BRANCH  22  23
HETATM   23  S1  UNL     1       6.088   1.328  -0.501  1.00  0.00    -0.165 SA
BRANCH  23  24
HETATM   24  C2  UNL     1       7.638   0.498  -0.935  1.00  0.00     0.101 C 
BRANCH  24  25
HETATM   25  C1  UNL     1       8.496   0.332   0.315  1.00  0.00     0.239 C 
BRANCH  25  26
HETATM   26  N1  UNL     1       9.740  -0.325   0.019  1.00  0.00    -0.079 N 
ATOM     27  H13 UNL     1       9.588  -1.218  -0.450  1.00  0.00     0.274 HD
ATOM     28  H12 UNL     1      10.249   0.158  -0.721  1.00  0.00     0.274 HD
ATOM     29  H11 UNL     1      10.314  -0.436   0.855  1.00  0.00     0.274 HD
ENDBRANCH  25  26
ENDBRANCH  24  25
ENDBRANCH  23  24
ENDBRANCH  22  23
ENDBRANCH   1  22
TORSDOF 11
