REMARK  12 active torsions:
REMARK  status: ('A' for Active; 'I' for Inactive)
REMARK    1  A    between atoms: O1_2  and  C2_3 
REMARK    2  A    between atoms: C2_3  and  C3_4 
REMARK    3  A    between atoms: C3_4  and  N1_5 
REMARK    4  A    between atoms: N1_5  and  C4_7 
REMARK    5  A    between atoms: C5_10  and  C6_11 
REMARK    6  A    between atoms: C6_11  and  O2_12 
REMARK    7  A    between atoms: O2_12  and  C7_13 
REMARK    8  A    between atoms: C7_13  and  C8_14 
REMARK    9  A    between atoms: C8_14  and  C9_15 
REMARK   10  A    between atoms: C9_15  and  C10_16 
REMARK   11  A    between atoms: C10_16  and  C11_17 
REMARK   12  A    between atoms: C18_24  and  N3_25 
ROOT
HETATM    1  C4  UNL     1       4.606   0.413  -0.718  1.00  0.00     0.680 A 
HETATM    2  N2  UNL     1       3.343   0.109  -1.075  1.00  0.00    -0.193 N 
ATOM      3  H2  UNL     1       3.173  -0.674  -1.706  1.00  0.00     0.184 HD
HETATM    4  C5  UNL     1       2.307   0.822  -0.611  1.00  0.00     0.053 A 
HETATM    5  C17 UNL     1       2.568   1.874   0.241  1.00  0.00     0.076 A 
HETATM    6  C18 UNL     1       3.870   2.195   0.616  1.00  0.00     0.116 A 
HETATM    7  N4  UNL     1       4.855   1.444   0.117  1.00  0.00    -0.177 N 
ATOM      8  H4  UNL     1       5.820   1.655   0.373  1.00  0.00     0.185 HD
ENDROOT
BRANCH   4   9
HETATM    9  C6  UNL     1       0.876   0.524  -0.979  1.00  0.00     0.225 C 
BRANCH   9  10
HETATM   10  O2  UNL     1       0.182   0.477   0.179  1.00  0.00    -0.382 OA
BRANCH  10  11
HETATM   11  C7  UNL     1      -1.185   0.203   0.087  1.00  0.00     0.195 C 
BRANCH  11  12
HETATM   12  C8  UNL     1      -1.921   1.184  -0.706  1.00  0.00    -0.001 C 
BRANCH  12  13
HETATM   13  C9  UNL     1      -3.344   1.113  -0.963  1.00  0.00    -0.006 C 
BRANCH  13  14
HETATM   14  C10 UNL     1      -4.392   1.159   0.033  1.00  0.00    -0.022 C 
BRANCH  14  15
HETATM   15  C11 UNL     1      -4.513   0.146   1.104  1.00  0.00     0.008 C 
HETATM   16  C12 UNL     1      -5.726   0.484   1.954  1.00  0.00     0.008 C 
HETATM   17  C13 UNL     1      -7.009  -0.040   1.482  1.00  0.00     0.001 C 
HETATM   18  C14 UNL     1      -6.995  -1.288   0.663  1.00  0.00     0.000 C 
HETATM   19  C15 UNL     1      -5.783  -1.441  -0.212  1.00  0.00     0.001 C 
HETATM   20  C16 UNL     1      -4.589  -1.278   0.678  1.00  0.00     0.008 C 
ENDBRANCH  14  15
ENDBRANCH  13  14
ENDBRANCH  12  13
ENDBRANCH  11  12
ENDBRANCH  10  11
ENDBRANCH   9  10
ENDBRANCH   4   9
BRANCH   1  21
HETATM   21  N1  UNL     1       5.585  -0.298  -1.186  1.00  0.00    -0.224 N 
ATOM     22  H1  UNL     1       5.400  -1.078  -1.817  1.00  0.00     0.177 HD
BRANCH  21  23
HETATM   23  C3  UNL     1       6.951   0.030  -0.800  1.00  0.00     0.164 C 
BRANCH  23  24
HETATM   24  C2  UNL     1       7.940  -0.813  -1.525  1.00  0.00     0.187 C 
BRANCH  24  25
HETATM   25  O1  UNL     1       7.757  -2.142  -1.278  1.00  0.00    -0.394 OA
HETATM   26  C1  UNL     1       7.893  -2.471   0.056  1.00  0.00     0.201 C 
ENDBRANCH  24  25
ENDBRANCH  23  24
ENDBRANCH  21  23
ENDBRANCH   1  21
BRANCH   6  27
HETATM   27  N3  UNL     1       4.127   3.175   1.411  1.00  0.00    -0.385 N 
ATOM     28  H32 UNL     1       3.375   3.749   1.792  1.00  0.00     0.157 HD
ATOM     29  H31 UNL     1       5.081   3.410   1.686  1.00  0.00     0.157 HD
ENDBRANCH   6  27
TORSDOF 12
