REMARK  12 active torsions:
REMARK  status: ('A' for Active; 'I' for Inactive)
REMARK    1  A    between atoms: N1_1  and  C1_5 
REMARK    2  A    between atoms: C5_9  and  C6_10 
REMARK    3  A    between atoms: C6_10  and  N3_15 
REMARK    4  A    between atoms: N2_11  and  O1_13 
REMARK    5  A    between atoms: N3_15  and  C7_17 
REMARK    6  A    between atoms: C7_17  and  C8_18 
REMARK    7  A    between atoms: C8_18  and  C9_19 
REMARK    8  A    between atoms: C9_19  and  C10_20 
REMARK    9  A    between atoms: C10_20  and  C11_21 
REMARK   10  A    between atoms: C11_21  and  C12_22 
REMARK   11  A    between atoms: C12_22  and  C13_23 
REMARK   12  A    between atoms: C13_23  and  N4_24 
ROOT
HETATM    1  C6  UNL     1      -3.674  -0.269  -1.400  1.00  0.00     0.108 C 
HETATM    2  N2  UNL     1      -4.181  -1.307  -1.914  1.00  0.00    -0.256 N 
ATOM      3  H2  UNL     1      -3.563  -1.822  -2.541  1.00  0.00     0.195 HD
ENDROOT
BRANCH   1   4
HETATM    4  C5  UNL     1      -4.265   0.669  -0.485  1.00  0.00     0.048 C 
HETATM    5  C1  UNL     1      -5.631   0.336   0.063  1.00  0.00     0.203 C 
HETATM    6  C2  UNL     1      -5.772   1.616   0.921  1.00  0.00     0.017 C 
HETATM    7  C3  UNL     1      -4.551   1.464   1.796  1.00  0.00     0.008 C 
HETATM    8  C19 UNL     1      -5.469   2.662  -0.096  1.00  0.00     0.008 C 
HETATM    9  C4  UNL     1      -3.518   0.916   0.808  1.00  0.00     0.020 C 
HETATM   10  C18 UNL     1      -4.515   2.040  -1.092  1.00  0.00     0.020 C 
BRANCH   5  11
HETATM   11  N1  UNL     1      -5.614  -0.793   0.981  1.00  0.00    -0.073 N 
ATOM     12  H13 UNL     1      -4.896  -0.713   1.701  1.00  0.00     0.274 HD
ATOM     13  H12 UNL     1      -6.422  -0.815   1.604  1.00  0.00     0.274 HD
ATOM     14  H11 UNL     1      -5.521  -1.637   0.415  1.00  0.00     0.274 HD
ENDBRANCH   5  11
ENDBRANCH   1   4
BRANCH   1  15
HETATM   15  N3  UNL     1      -2.311   0.016  -1.815  1.00  0.00    -0.378 N 
ATOM     16  H3  UNL     1      -2.100   0.778  -2.460  1.00  0.00     0.160 HD
BRANCH  15  17
HETATM   17  C7  UNL     1      -1.279  -0.815  -1.283  1.00  0.00     0.121 C 
BRANCH  17  18
HETATM   18  C8  UNL     1       0.097  -0.432  -1.789  1.00  0.00     0.020 C 
BRANCH  18  19
HETATM   19  C9  UNL     1       1.074  -1.401  -1.127  1.00  0.00     0.002 C 
BRANCH  19  20
HETATM   20  C10 UNL     1       2.486  -1.125  -1.550  1.00  0.00     0.000 C 
BRANCH  20  21
HETATM   21  C11 UNL     1       3.467  -2.055  -0.922  1.00  0.00     0.002 C 
BRANCH  21  22
HETATM   22  C12 UNL     1       3.472  -1.980   0.584  1.00  0.00     0.019 C 
BRANCH  22  23
HETATM   23  C13 UNL     1       3.813  -0.581   1.058  1.00  0.00     0.117 C 
BRANCH  23  24
HETATM   24  N4  UNL     1       5.088  -0.137   0.617  1.00  0.00    -0.412 N 
HETATM   25  C14 UNL     1       6.229  -0.775   1.146  1.00  0.00     0.117 C 
HETATM   26  C15 UNL     1       7.156   0.325   1.585  1.00  0.00     0.021 C 
HETATM   27  C16 UNL     1       6.794   1.465   0.641  1.00  0.00     0.021 C 
HETATM   28  C17 UNL     1       5.275   1.263   0.481  1.00  0.00     0.117 C 
ENDBRANCH  23  24
ENDBRANCH  22  23
ENDBRANCH  21  22
ENDBRANCH  20  21
ENDBRANCH  19  20
ENDBRANCH  18  19
ENDBRANCH  17  18
ENDBRANCH  15  17
ENDBRANCH   1  15
BRANCH   2  29
HETATM   29  O1  UNL     1      -5.404  -1.837  -1.764  1.00  0.00    -0.288 OA
ATOM     30  H1  UNL     1      -5.785  -2.617  -2.150  1.00  0.00     0.244 HD
ENDBRANCH   2  29
TORSDOF 12
