REMARK  11 active torsions:
REMARK  status: ('A' for Active; 'I' for Inactive)
REMARK       I    between atoms: C2_2  and  N1_4 
REMARK    1  A    between atoms: N1_4  and  N2_6 
REMARK    2  A    between atoms: C3_7  and  S1_8 
REMARK    3  A    between atoms: S1_8  and  C4_9 
REMARK    4  A    between atoms: C5_10  and  C6_11 
REMARK    5  A    between atoms: C9_25  and  C10_26 
REMARK    6  A    between atoms: C10_26  and  N8_27 
REMARK    7  A    between atoms: C10_26  and  N9_31 
REMARK    8  A    between atoms: C11_33  and  C12_34 
REMARK    9  A    between atoms: C12_34  and  O5_35 
REMARK   10  A    between atoms: C12_34  and  O6_37 
REMARK   11  A    between atoms: C14_40  and  N10_41 
ROOT
HETATM    1  N2  UNL     1      -0.078  -1.038  -0.428  1.00  0.00    -0.212 N 
HETATM    2  C3  UNL     1       0.551  -1.147   0.750  1.00  0.00     0.187 A 
HETATM    3  N6  UNL     1      -0.296  -0.615   1.681  1.00  0.00    -0.277 N 
ATOM      4  H6  UNL     1      -0.107  -0.551   2.681  1.00  0.00     0.189 HD
HETATM    5  N7  UNL     1      -1.377  -0.205   1.095  1.00  0.00    -0.282 N 
ATOM      6  H7  UNL     1      -2.170   0.233   1.563  1.00  0.00     0.188 HD
HETATM    7  C9  UNL     1      -1.292  -0.446  -0.228  1.00  0.00     0.173 A 
ENDROOT
BRANCH   7   8
HETATM    8  C10 UNL     1      -2.363  -0.071  -1.162  1.00  0.00     0.383 C 
BRANCH   8   9
HETATM    9  N8  UNL     1      -1.975   0.717  -2.285  1.00  0.00    -0.049 N 
ATOM     10  H83 UNL     1      -1.487   1.554  -1.966  1.00  0.00     0.277 HD
ATOM     11  H82 UNL     1      -1.225   0.248  -2.792  1.00  0.00     0.277 HD
ATOM     12  H81 UNL     1      -2.718   0.977  -2.933  1.00  0.00     0.277 HD
ENDBRANCH   8   9
BRANCH   8  13
HETATM   13  N9  UNL     1      -3.468   0.543  -0.454  1.00  0.00    -0.198 N 
HETATM   14  O4  UNL     1      -4.639   0.017  -0.208  1.00  0.00    -0.231 OA
HETATM   15  C11 UNL     1      -5.395   0.884   0.467  1.00  0.00     0.134 A 
HETATM   16  C13 UNL     1      -4.668   2.030   0.665  1.00  0.00     0.090 A 
HETATM   17  C14 UNL     1      -3.444   1.789   0.070  1.00  0.00     0.127 A 
BRANCH  15  18
HETATM   18  C12 UNL     1      -6.764   0.577   0.887  1.00  0.00     0.314 C 
BRANCH  18  19
HETATM   19  O5  UNL     1      -7.440  -0.018  -0.184  1.00  0.00    -0.365 OA
ATOM     20  H5  UNL     1      -8.328  -0.217   0.088  1.00  0.00     0.213 HD
ENDBRANCH  18  19
BRANCH  18  21
HETATM   21  O6  UNL     1      -7.474   1.702   1.254  1.00  0.00    -0.365 OA
ATOM     22  H6  UNL     1      -8.362   1.503   1.526  1.00  0.00     0.213 HD
ENDBRANCH  18  21
ENDBRANCH  15  18
BRANCH  17  23
HETATM   23  N10 UNL     1      -2.496   2.662   0.062  1.00  0.00    -0.384 N 
ATOM     24 2H10 UNL     1      -1.593   2.484  -0.377  1.00  0.00     0.157 HD
ATOM     25 1H10 UNL     1      -2.478   3.602   0.457  1.00  0.00     0.157 HD
ENDBRANCH  17  23
ENDBRANCH   8  13
ENDBRANCH   7   8
BRANCH   1  26
HETATM   26  N1  UNL     1       0.316  -1.459  -1.678  1.00  0.00    -0.260 N 
HETATM   27  C2  UNL     1       1.435  -2.154  -2.138  1.00  0.00     0.232 C 
HETATM   28  C1  UNL     1       1.569  -2.462  -3.639  1.00  0.00     0.119 C 
HETATM   29  O1  UNL     1       2.392  -2.586  -1.487  1.00  0.00    -0.272 OA
ATOM     30  H1  UNL     1      -0.343  -1.213  -2.417  1.00  0.00     0.190 HD
ENDBRANCH   1  26
BRANCH   2  31
HETATM   31  S1  UNL     1       2.136  -1.759   1.232  1.00  0.00    -0.051 SA
BRANCH  31  32
HETATM   32  C4  UNL     1       3.376  -0.459   1.236  1.00  0.00     0.037 A 
HETATM   33  C5  UNL     1       4.621  -0.715   1.567  1.00  0.00     0.127 A 
HETATM   34  N3  UNL     1       5.588   0.321   1.566  1.00  0.00    -0.324 N 
HETATM   35  C7  UNL     1       5.195   1.622   1.206  1.00  0.00     0.189 A 
ATOM     36  H3  UNL     1       6.556   0.126   1.823  1.00  0.00     0.169 HD
HETATM   37  N4  UNL     1       6.138   2.684   1.194  1.00  0.00    -0.064 NA
HETATM   38  N5  UNL     1       3.978   1.885   0.879  1.00  0.00    -0.360 N 
HETATM   39  C8  UNL     1       2.933   0.896   0.853  1.00  0.00     0.171 A 
ATOM     40  H5  UNL     1       3.742   2.844   0.625  1.00  0.00     0.162 HD
BRANCH  33  41
HETATM   41  C6  UNL     1       5.009  -2.075   1.939  1.00  0.00     0.228 C 
HETATM   42  O2  UNL     1       6.201  -2.316   2.255  1.00  0.00    -0.643 OA
HETATM   43  O3  UNL     1       4.108  -3.125   1.958  1.00  0.00    -0.643 OA
ENDBRANCH  33  41
ENDBRANCH  31  32
ENDBRANCH   2  31
TORSDOF 11
