REMARK  2 active torsions:
REMARK  status: ('A' for Active; 'I' for Inactive)
REMARK    1  A    between atoms: C5_6  and  O2_7 
REMARK    2  A    between atoms: C6_9  and  O3_10 
ROOT
HETATM    1  C1  UNL     1      -1.856  -0.226   0.973  1.00  0.00     0.020 C 
HETATM    2  C2  UNL     1      -0.668   0.132   0.146  1.00  0.00     0.015 A 
HETATM    3  C3  UNL     1      -0.970   0.950  -1.116  1.00  0.00     0.047 A 
HETATM    4  C4  UNL     1      -0.414  -0.412  -1.191  1.00  0.00     0.136 A 
HETATM    5  O1  UNL     1       0.913  -0.686  -1.359  1.00  0.00    -0.353 OA
HETATM    6  C5  UNL     1       1.593  -0.446  -0.204  1.00  0.00     0.286 C 
HETATM    7  C6  UNL     1       0.696   0.260   0.762  1.00  0.00     0.183 C 
ENDROOT
BRANCH   6   8
HETATM    8  O2  UNL     1       2.110  -1.618   0.389  1.00  0.00    -0.369 OA
ATOM      9  H2  UNL     1       2.584  -1.451   1.195  1.00  0.00     0.212 HD
ENDBRANCH   6   8
BRANCH   7  10
HETATM   10  O3  UNL     1       1.088   1.590   0.934  1.00  0.00    -0.390 OA
ATOM     11  H3  UNL     1       1.951   1.671   1.324  1.00  0.00     0.210 HD
ENDBRANCH   7  10
TORSDOF 2
