REMARK  2 active torsions:
REMARK  status: ('A' for Active; 'I' for Inactive)
REMARK    1  A    between atoms: C2_3  and  N2_4 
REMARK    2  A    between atoms: C4_8  and  C5_9 
ROOT
HETATM    1  N2  UNL     1       0.951   1.409  -0.717  1.00  0.00    -0.278 N 
ATOM      2  H2  UNL     1      -0.046   1.621  -0.688  1.00  0.00     0.179 HD
HETATM    3  C3  UNL     1       1.707   2.386  -1.319  1.00  0.00     0.183 C 
HETATM    4  N3  UNL     1       2.312   3.231  -1.836  1.00  0.00    -0.172 NA
ENDROOT
BRANCH   1   5
HETATM    5  C2  UNL     1       1.282   0.185  -0.139  1.00  0.00     0.138 A 
HETATM    6  N1  UNL     1       2.544  -0.246  -0.039  1.00  0.00    -0.313 N 
HETATM    7  C1  UNL     1       3.680   0.513  -0.534  1.00  0.00     0.160 C 
HETATM    8  C9  UNL     1       2.879  -1.442   0.542  1.00  0.00     0.182 A 
HETATM    9  N7  UNL     1       1.918  -2.236   1.041  1.00  0.00    -0.299 N 
HETATM   10  S1  UNL     1       4.445  -1.938   0.647  1.00  0.00    -0.040 SA
HETATM   11  C8  UNL     1       0.645  -1.832   0.955  1.00  0.00     0.265 A 
ATOM     12  H7  UNL     1       2.153  -3.128   1.476  1.00  0.00     0.171 HD
HETATM   13  C4  UNL     1       0.264  -0.630   0.374  1.00  0.00     0.122 A 
HETATM   14  O1  UNL     1      -0.280  -2.559   1.417  1.00  0.00    -0.267 OA
BRANCH  13  15
HETATM   15  C5  UNL     1      -1.154  -0.318   0.300  1.00  0.00     0.135 C 
HETATM   16  N4  UNL     1      -1.807  -0.415   1.415  1.00  0.00    -0.289 N 
HETATM   17  N5  UNL     1      -3.162  -0.149   1.498  1.00  0.00    -0.333 N 
ATOM     18  H4  UNL     1      -1.306  -0.696   2.258  1.00  0.00     0.188 HD
HETATM   19  C6  UNL     1      -3.898   0.561   0.472  1.00  0.00     0.159 C 
ATOM     20  H5  UNL     1      -3.669  -0.469   2.323  1.00  0.00     0.180 HD
HETATM   21  C7  UNL     1      -3.257   0.479  -0.874  1.00  0.00     0.142 C 
HETATM   22  N6  UNL     1      -1.883   0.031  -0.840  1.00  0.00    -0.373 N 
ATOM     23  H6  UNL     1      -1.399  -0.037  -1.735  1.00  0.00     0.161 HD
ENDBRANCH  13  15
ENDBRANCH   1   5
TORSDOF 2
