REMARK  14 active torsions:
REMARK  status: ('A' for Active; 'I' for Inactive)
REMARK    1  A    between atoms: C2_2  and  C3_3 
REMARK    2  A    between atoms: C3_3  and  N1_4 
REMARK    3  A    between atoms: N1_4  and  C4_5 
REMARK    4  A    between atoms: N1_4  and  C9_25 
REMARK    5  A    between atoms: C4_5  and  C5_6 
REMARK    6  A    between atoms: C5_6  and  N2_7 
REMARK    7  A    between atoms: N2_7  and  O1_8 
REMARK    8  A    between atoms: N2_7  and  C6_10 
REMARK    9  A    between atoms: N4_13  and  N5_14 
REMARK   10  A    between atoms: C13_33  and  O4_34 
REMARK       I    between atoms: N11_36  and  C14_37 
REMARK       I    between atoms: C14_37  and  N14_43 
REMARK   11  A    between atoms: N12_38  and  N13_40 
REMARK   12  A    between atoms: N14_43  and  C15_45 
REMARK   13  A    between atoms: C15_45  and  N15_46 
REMARK   14  A    between atoms: C15_45  and  O5_50 
ROOT
HETATM    1  C9  UNL     1      -0.497  -0.783   0.211  1.00  0.00     0.166 A 
HETATM    2  N10 UNL     1      -0.841  -1.583  -0.803  1.00  0.00    -0.240 N 
ATOM      3  H10 UNL     1      -0.230  -2.268  -1.246  1.00  0.00     0.196 HD
HETATM    4  O2  UNL     1      -2.090  -1.349  -1.140  1.00  0.00    -0.213 OA
HETATM    5  C10 UNL     1      -2.608  -0.417  -0.390  1.00  0.00     0.223 A 
HETATM    6  C11 UNL     1      -1.588  -0.031   0.501  1.00  0.00     0.170 A 
HETATM    7  O3  UNL     1      -1.715   0.939   1.480  1.00  0.00    -0.339 OA
HETATM    8  C12 UNL     1      -2.574   2.049   1.478  1.00  0.00     0.232 C 
HETATM    9  C13 UNL     1      -4.037   1.693   1.595  1.00  0.00     0.283 C 
HETATM   10  N11 UNL     1      -4.517   0.924   0.508  1.00  0.00    -0.089 N 
HETATM   11  C14 UNL     1      -5.967   1.003   0.338  1.00  0.00     0.715 C 
HETATM   12  N12 UNL     1      -6.497   2.059  -0.048  1.00  0.00    -0.137 N 
ATOM     13  H12 UNL     1      -5.822   2.806  -0.215  1.00  0.00     0.205 HD
HETATM   14  N14 UNL     1      -6.756  -0.142   0.624  1.00  0.00    -0.172 N 
ATOM     15  H14 UNL     1      -6.949  -0.363   1.601  1.00  0.00     0.182 HD
HETATM   16  N16 UNL     1      -3.927   0.102  -0.457  1.00  0.00    -0.257 N 
ATOM     17  H16 UNL     1      -4.488  -0.144  -1.272  1.00  0.00     0.190 HD
ENDROOT
BRANCH   1  18
HETATM   18  N1  UNL     1       0.835  -0.726   0.844  1.00  0.00    -0.342 N 
BRANCH  18  19
HETATM   19  C3  UNL     1       1.359  -1.997   1.183  1.00  0.00     0.129 C 
BRANCH  19  20
HETATM   20  C2  UNL     1       2.260  -2.694   0.240  1.00  0.00     0.016 C 
HETATM   21  C1  UNL     1       2.696  -4.065   0.822  1.00  0.00     0.006 C 
ENDBRANCH  19  20
ENDBRANCH  18  19
BRANCH  18  22
HETATM   22  C4  UNL     1       1.400   0.567   0.944  1.00  0.00     0.088 C 
BRANCH  22  23
HETATM   23  C5  UNL     1       2.552   1.005   0.146  1.00  0.00     0.202 C 
BRANCH  23  24
HETATM   24  N2  UNL     1       3.845   0.498   0.419  1.00  0.00    -0.235 N 
BRANCH  24  25
HETATM   25  O1  UNL     1       4.123  -0.045   1.630  1.00  0.00    -0.285 OA
ATOM     26  H1  UNL     1       4.991  -0.385   1.813  1.00  0.00     0.245 HD
ENDBRANCH  24  25
BRANCH  24  27
HETATM   27  C6  UNL     1       4.935   0.573  -0.490  1.00  0.00     0.187 A 
HETATM   28  N3  UNL     1       4.917  -0.209  -1.515  1.00  0.00    -0.245 N 
HETATM   29  N4  UNL     1       5.856  -0.348  -2.562  1.00  0.00    -0.134 N 
ATOM     30  H3  UNL     1       4.102  -0.819  -1.580  1.00  0.00     0.192 HD
HETATM   31  N6  UNL     1       6.969   0.460  -2.785  1.00  0.00    -0.237 N 
HETATM   32  C7  UNL     1       7.503   1.411  -2.086  1.00  0.00     0.211 A 
ATOM     33  H6  UNL     1       7.453   0.267  -3.662  1.00  0.00     0.193 HD
HETATM   34  N7  UNL     1       8.667   2.040  -2.638  1.00  0.00    -0.062 NA
HETATM   35  N8  UNL     1       7.035   1.879  -0.832  1.00  0.00    -0.315 N 
HETATM   36  C8  UNL     1       5.962   1.537  -0.153  1.00  0.00     0.166 A 
ATOM     37  H8  UNL     1       7.619   2.588  -0.390  1.00  0.00     0.170 HD
HETATM   38  N9  UNL     1       5.757   2.194   1.091  1.00  0.00    -0.078 NA
BRANCH  29  39
HETATM   39  N5  UNL     1       5.609  -1.415  -3.441  1.00  0.00    -0.309 N 
ATOM     40  H52 UNL     1       4.794  -2.007  -3.278  1.00  0.00     0.180 HD
ATOM     41  H51 UNL     1       6.287  -1.515  -4.197  1.00  0.00     0.180 HD
ENDBRANCH  29  39
ENDBRANCH  24  27
ENDBRANCH  23  24
ENDBRANCH  22  23
ENDBRANCH  18  22
ENDBRANCH   1  18
BRANCH   9  42
HETATM   42  O4  UNL     1      -4.334   1.101   2.830  1.00  0.00    -0.372 OA
ATOM     43  H4  UNL     1      -5.254   0.877   2.904  1.00  0.00     0.212 HD
ENDBRANCH   9  42
BRANCH  12  44
HETATM   44  N13 UNL     1      -7.765   2.432  -0.293  1.00  0.00    -0.331 N 
ATOM     45 2H13 UNL     1      -8.422   1.671  -0.119  1.00  0.00     0.177 HD
ATOM     46 1H13 UNL     1      -8.200   3.299  -0.610  1.00  0.00     0.177 HD
ENDBRANCH  12  44
BRANCH  14  47
HETATM   47  C15 UNL     1      -7.295  -1.003  -0.386  1.00  0.00     0.438 C 
BRANCH  47  48
HETATM   48  N15 UNL     1      -7.995  -2.137   0.234  1.00  0.00    -0.034 N 
ATOM     49 3H15 UNL     1      -7.397  -2.643   0.887  1.00  0.00     0.279 HD
ATOM     50 2H15 UNL     1      -8.710  -1.829   0.893  1.00  0.00     0.279 HD
ATOM     51 1H15 UNL     1      -8.379  -2.750  -0.485  1.00  0.00     0.279 HD
ENDBRANCH  47  48
BRANCH  47  52
HETATM   52  O5  UNL     1      -8.257  -0.359  -1.171  1.00  0.00    -0.354 OA
ATOM     53  H5  UNL     1      -8.614  -0.930  -1.841  1.00  0.00     0.213 HD
ENDBRANCH  47  52
ENDBRANCH  14  47
TORSDOF 14
