REMARK  12 active torsions:
REMARK  status: ('A' for Active; 'I' for Inactive)
REMARK    1  A    between atoms: O1_2  and  C2_3 
REMARK    2  A    between atoms: C3_4  and  O2_5 
REMARK    3  A    between atoms: C4_7  and  O3_8 
REMARK    4  A    between atoms: O3_8  and  C5_9 
REMARK    5  A    between atoms: C11_16  and  N1_17 
REMARK       I    between atoms: N1_17  and  C12_19 
REMARK    6  A    between atoms: C14_22  and  O6_23 
REMARK    7  A    between atoms: C15_25  and  O7_26 
REMARK    8  A    between atoms: O7_26  and  C16_27 
REMARK    9  A    between atoms: C17_28  and  N2_29 
REMARK   10  A    between atoms: C19_34  and  O8_35 
REMARK   11  A    between atoms: C20_37  and  C21_38 
REMARK   12  A    between atoms: C21_38  and  O9_39 
ROOT
HETATM    1  C2  UNL     1      -0.875  -0.042   0.896  1.00  0.00     0.183 C 
HETATM    2  C3  UNL     1       0.236   0.994   0.740  1.00  0.00     0.180 C 
HETATM    3  C4  UNL     1       1.452   0.185   0.357  1.00  0.00     0.178 C 
HETATM    4  C11 UNL     1       1.118  -0.551  -0.894  1.00  0.00     0.147 C 
HETATM    5  C14 UNL     1      -0.214  -0.177  -1.512  1.00  0.00     0.175 C 
HETATM    6  C15 UNL     1      -1.343  -0.332  -0.518  1.00  0.00     0.184 C 
ENDROOT
BRANCH   6   7
HETATM    7  O7  UNL     1      -2.453   0.377  -0.794  1.00  0.00    -0.373 OA
BRANCH   7   8
HETATM    8  C16 UNL     1      -3.614  -0.281  -1.028  1.00  0.00     0.161 C 
HETATM    9  C17 UNL     1      -4.204  -0.028  -2.426  1.00  0.00     0.215 C 
HETATM   10  C18 UNL     1      -5.658   0.261  -2.254  1.00  0.00     0.067 C 
HETATM   11  C19 UNL     1      -5.949  -0.138  -0.836  1.00  0.00     0.129 C 
HETATM   12  C20 UNL     1      -4.687   0.315  -0.122  1.00  0.00     0.069 C 
BRANCH   9  13
HETATM   13  N2  UNL     1      -4.076  -1.200  -3.270  1.00  0.00    -0.072 N 
ATOM     14  H23 UNL     1      -3.109  -1.519  -3.324  1.00  0.00     0.274 HD
ATOM     15  H22 UNL     1      -4.489  -2.024  -2.832  1.00  0.00     0.274 HD
ATOM     16  H21 UNL     1      -4.467  -1.032  -4.197  1.00  0.00     0.274 HD
ENDBRANCH   9  13
BRANCH  11  17
HETATM   17  O8  UNL     1      -7.073   0.526  -0.356  1.00  0.00    -0.395 OA
ATOM     18  H8  UNL     1      -7.257   0.274   0.541  1.00  0.00     0.210 HD
ENDBRANCH  11  17
BRANCH  12  19
HETATM   19  C21 UNL     1      -4.579   1.802  -0.193  1.00  0.00     0.173 C 
BRANCH  19  20
HETATM   20  O9  UNL     1      -5.518   2.455   0.600  1.00  0.00    -0.400 OA
ATOM     21  H9  UNL     1      -5.449   3.401   0.555  1.00  0.00     0.209 HD
ENDBRANCH  19  20
ENDBRANCH  12  19
ENDBRANCH   7   8
ENDBRANCH   6   7
BRANCH   1  22
HETATM   22  O1  UNL     1      -1.850   0.379   1.755  1.00  0.00    -0.385 OA
HETATM   23  C1  UNL     1      -1.933  -0.404   2.915  1.00  0.00     0.202 C 
ENDBRANCH   1  22
BRANCH   5  24
HETATM   24  O6  UNL     1      -0.430  -1.090  -2.541  1.00  0.00    -0.391 OA
ATOM     25  H6  UNL     1      -1.265  -0.856  -2.928  1.00  0.00     0.210 HD
ENDBRANCH   5  24
BRANCH   2  26
HETATM   26  O2  UNL     1       0.423   1.713   1.912  1.00  0.00    -0.390 OA
ATOM     27  H2  UNL     1       1.114   2.358   1.815  1.00  0.00     0.210 HD
ENDBRANCH   2  26
BRANCH   4  28
HETATM   28  N1  UNL     1       1.236  -1.990  -0.748  1.00  0.00    -0.352 N 
HETATM   29  C12 UNL     1       2.199  -2.748  -1.493  1.00  0.00     0.214 C 
HETATM   30  C13 UNL     1       2.338  -4.206  -1.363  1.00  0.00     0.117 C 
HETATM   31  O5  UNL     1       2.942  -2.129  -2.277  1.00  0.00    -0.274 OA
ATOM     32  H1  UNL     1       0.618  -2.475  -0.098  1.00  0.00     0.163 HD
ENDBRANCH   4  28
BRANCH   3  33
HETATM   33  O3  UNL     1       2.598   0.958   0.275  1.00  0.00    -0.374 OA
BRANCH  33  34
HETATM   34  C5  UNL     1       3.605   0.573   1.137  1.00  0.00     0.146 C 
HETATM   35  C6  UNL     1       4.053   1.695   2.049  1.00  0.00     0.036 C 
HETATM   36  C7  UNL     1       5.216   1.216   2.876  1.00  0.00     0.034 C 
HETATM   37  C8  UNL     1       6.275   0.530   2.052  1.00  0.00     0.117 C 
HETATM   38  C9  UNL     1       7.242   1.539   1.441  1.00  0.00     0.039 C 
HETATM   39  O4  UNL     1       5.765  -0.321   1.104  1.00  0.00    -0.384 OA
HETATM   40  C10 UNL     1       4.820   0.229   0.269  1.00  0.00     0.200 C 
ENDBRANCH  33  34
ENDBRANCH   3  33
TORSDOF 12
