REMARK  4 active torsions:
REMARK  status: ('A' for Active; 'I' for Inactive)
REMARK    1  A    between atoms: N1_2  and  C2_4 
REMARK    2  A    between atoms: C7_9  and  N2_10 
REMARK    3  A    between atoms: C8_14  and  C9_15 
REMARK    4  A    between atoms: C9_15  and  N3_16 
ROOT
HETATM    1  C2  UNL     1      -0.674  -0.575  -0.639  1.00  0.00    -0.011 C 
HETATM    2  C3  UNL     1       0.624  -1.083  -1.140  1.00  0.00     0.052 C 
HETATM    3  C4  UNL     1       1.671  -1.501  -0.214  1.00  0.00     0.006 C 
HETATM    4  C5  UNL     1       2.514  -0.267   0.153  1.00  0.00     0.002 C 
HETATM    5  C6  UNL     1       1.675   0.477   1.166  1.00  0.00     0.033 C 
HETATM    6  C7  UNL     1       0.616   1.301   0.520  1.00  0.00     0.194 C 
HETATM    7  C8  UNL     1      -0.656   0.634   0.214  1.00  0.00     0.086 C 
ENDROOT
BRANCH   7   8
HETATM    8  C9  UNL     1      -1.586   1.738  -0.325  1.00  0.00     0.242 C 
BRANCH   8   9
HETATM    9  N3  UNL     1      -2.946   1.309  -0.397  1.00  0.00    -0.079 N 
ATOM     10  H33 UNL     1      -3.034   0.452  -0.944  1.00  0.00     0.274 HD
ATOM     11  H32 UNL     1      -3.271   0.960   0.505  1.00  0.00     0.274 HD
ATOM     12  H31 UNL     1      -3.562   2.040  -0.754  1.00  0.00     0.274 HD
ENDBRANCH   8   9
ENDBRANCH   7   8
BRANCH   1  13
HETATM   13  N1  UNL     1      -1.571  -1.605  -0.195  1.00  0.00    -0.400 N 
HETATM   14  C1  UNL     1      -1.224  -2.412   0.887  1.00  0.00     0.145 C 
ATOM     15  H1  UNL     1      -2.462  -1.746  -0.671  1.00  0.00     0.158 HD
ENDBRANCH   1  13
BRANCH   6  16
HETATM   16  N2  UNL     1       1.201   2.012  -0.618  1.00  0.00    -0.074 N 
ATOM     17  H23 UNL     1       2.018   2.563  -0.355  1.00  0.00     0.274 HD
ATOM     18  H22 UNL     1       1.661   1.383  -1.276  1.00  0.00     0.274 HD
ATOM     19  H21 UNL     1       0.476   2.576  -1.060  1.00  0.00     0.274 HD
ENDBRANCH   6  16
TORSDOF 4
