REMARK  3 active torsions:
REMARK  status: ('A' for Active; 'I' for Inactive)
REMARK    1  A    between atoms: C2_2  and  C3_3 
REMARK    2  A    between atoms: C5_5  and  C6_6 
REMARK    3  A    between atoms: C6_6  and  C7_7 
ROOT
HETATM    1  C3  UNL     1       1.934   0.442  -0.432  1.00  0.00     0.188 C 
HETATM    2  C4  UNL     1       0.907  -0.498  -1.075  1.00  0.00     0.069 C 
HETATM    3  C5  UNL     1       0.056  -0.088   0.066  1.00  0.00     0.224 C 
HETATM    4  N1  UNL     1       0.829   1.108   0.203  1.00  0.00    -0.064 N 
ATOM      5  H11 UNL     1       0.480   1.993  -0.165  1.00  0.00     0.278 HD
ATOM      6  H12 UNL     1       0.947   1.544   1.118  1.00  0.00     0.278 HD
ENDROOT
BRANCH   3   7
HETATM    7  C6  UNL     1      -1.412   0.093  -0.197  1.00  0.00     0.113 C 
HETATM    8  C9  UNL     1      -1.713   0.831  -1.458  1.00  0.00     0.210 C 
HETATM    9  O1  UNL     1      -2.751   1.701  -1.105  1.00  0.00    -0.364 OA
HETATM   10  C10 UNL     1      -2.654   1.902   0.249  1.00  0.00     0.339 C 
HETATM   11  O2  UNL     1      -2.047   0.797   0.818  1.00  0.00    -0.352 OA
BRANCH   7  12
HETATM   12  C7  UNL     1      -2.075  -1.267  -0.280  1.00  0.00     0.038 C 
HETATM   13  C8  UNL     1      -1.918  -2.057   0.997  1.00  0.00     0.008 C 
ENDBRANCH   7  12
ENDBRANCH   3   7
BRANCH   1  14
HETATM   14  C2  UNL     1       2.839  -0.353   0.459  1.00  0.00     0.028 C 
HETATM   15  C1  UNL     1       3.886   0.447   1.146  1.00  0.00     0.007 C 
ENDBRANCH   1  14
TORSDOF 3
