REMARK  0 active torsions:
REMARK  status: ('A' for Active; 'I' for Inactive)
ROOT
HETATM    1  C1  UNL     1       1.368  -0.803   0.112  1.00  0.00     0.015 C 
HETATM    2  C2  UNL     1       0.476   0.282   0.646  1.00  0.00     0.034 C 
HETATM    3  C3  UNL     1       0.615   1.533  -0.229  1.00  0.00     0.174 C 
HETATM    4  O1  UNL     1      -0.209   0.849  -1.156  1.00  0.00    -0.385 OA
HETATM    5  C4  UNL     1      -0.879   0.343  -0.023  1.00  0.00     0.123 C 
HETATM    6  C5  UNL     1      -1.583  -0.951  -0.215  1.00  0.00     0.040 C 
ENDROOT
TORSDOF 0
