REMARK  11 active torsions:
REMARK  status: ('A' for Active; 'I' for Inactive)
REMARK    1  A    between atoms: C2_2  and  C3_3 
REMARK    2  A    between atoms: C3_3  and  C4_4 
REMARK    3  A    between atoms: C4_4  and  C5_5 
REMARK    4  A    between atoms: C6_6  and  C7_7 
REMARK    5  A    between atoms: C7_7  and  O1_8 
REMARK    6  A    between atoms: O1_8  and  C8_9 
REMARK    7  A    between atoms: C8_9  and  C9_10 
REMARK    8  A    between atoms: C9_10  and  C10_11 
REMARK    9  A    between atoms: C10_11  and  C11_12 
REMARK   10  A    between atoms: C11_12  and  O2_13 
REMARK   11  A    between atoms: N1_15  and  O3_17 
ROOT
HETATM    1  C9  UNL     1      -2.352   0.292   0.015  1.00  0.00     0.009 A 
HETATM    2  C12 UNL     1      -2.885   1.180  -1.007  1.00  0.00    -0.018 A 
HETATM    3  C13 UNL     1      -2.583   0.428  -2.037  1.00  0.00    -0.029 A 
HETATM    4  C14 UNL     1      -1.996  -0.583  -1.150  1.00  0.00     0.043 A 
ENDROOT
BRANCH   1   5
HETATM    5  C8  UNL     1      -1.054   0.752   0.704  1.00  0.00     0.182 C 
BRANCH   5   6
HETATM    6  O1  UNL     1      -0.170   1.271  -0.194  1.00  0.00    -0.386 OA
BRANCH   6   7
HETATM    7  C7  UNL     1       0.982   1.702   0.487  1.00  0.00     0.194 C 
BRANCH   7   8
HETATM    8  C6  UNL     1       1.696   0.659   1.207  1.00  0.00    -0.005 C 
HETATM    9  C5  UNL     1       2.922   0.280   1.015  1.00  0.00    -0.028 C 
BRANCH   9  10
HETATM   10  C4  UNL     1       3.827   0.847   0.020  1.00  0.00     0.030 C 
BRANCH  10  11
HETATM   11  C3  UNL     1       4.312  -0.197  -0.978  1.00  0.00     0.030 C 
BRANCH  11  12
HETATM   12  C2  UNL     1       5.044  -1.295  -0.291  1.00  0.00    -0.037 C 
HETATM   13  C1  UNL     1       6.309  -1.579  -0.566  1.00  0.00     0.007 C 
ENDBRANCH  11  12
ENDBRANCH  10  11
ENDBRANCH   9  10
ENDBRANCH   7   8
ENDBRANCH   6   7
ENDBRANCH   5   6
ENDBRANCH   1   5
BRANCH   1  14
HETATM   14  C10 UNL     1      -3.294  -0.267   1.012  1.00  0.00     0.102 C 
BRANCH  14  15
HETATM   15  C11 UNL     1      -4.594  -0.735   0.556  1.00  0.00     0.136 C 
HETATM   16  N1  UNL     1      -5.716  -0.180   0.899  1.00  0.00    -0.251 N 
ATOM     17  H1  UNL     1      -5.730   0.629   1.520  1.00  0.00     0.196 HD
BRANCH  15  18
HETATM   18  O2  UNL     1      -4.680  -1.828  -0.291  1.00  0.00    -0.348 OA
ATOM     19  H2  UNL     1      -5.529  -2.134  -0.589  1.00  0.00     0.219 HD
ENDBRANCH  15  18
BRANCH  16  20
HETATM   20  O3  UNL     1      -6.877  -0.704   0.410  1.00  0.00    -0.288 OA
ATOM     21  H3  UNL     1      -7.698  -0.298   0.661  1.00  0.00     0.244 HD
ENDBRANCH  16  20
ENDBRANCH  14  15
ENDBRANCH   1  14
TORSDOF 11
