REMARK  5 active torsions:
REMARK  status: ('A' for Active; 'I' for Inactive)
REMARK    1  A    between atoms: C2_2  and  C3_3 
REMARK    2  A    between atoms: C3_3  and  C4_4 
REMARK    3  A    between atoms: C4_4  and  C5_5 
REMARK    4  A    between atoms: C5_5  and  C6_6 
REMARK    5  A    between atoms: C9_11  and  C10_12 
ROOT
HETATM    1  C6  UNL     1      -0.493  -0.351   0.481  1.00  0.00     0.092 C 
HETATM    2  C7  UNL     1      -1.788  -1.096   0.844  1.00  0.00     0.076 C 
HETATM    3  N1  UNL     1      -2.865  -1.031  -0.011  1.00  0.00    -0.380 N 
ATOM      4  H1  UNL     1      -3.436  -1.868  -0.131  1.00  0.00     0.164 HD
HETATM    5  C8  UNL     1      -3.220   0.117  -0.724  1.00  0.00     0.071 C 
HETATM    6  C9  UNL     1      -2.103   1.160  -0.681  1.00  0.00     0.087 C 
HETATM    7  C11 UNL     1      -0.823   0.439  -0.803  1.00  0.00     0.038 C 
ENDROOT
BRANCH   1   8
HETATM    8  C5  UNL     1       0.637  -1.001   0.470  1.00  0.00    -0.162 C 
BRANCH   8   9
HETATM    9  C4  UNL     1       1.875  -1.714   0.458  1.00  0.00     0.160 C 
BRANCH   9  10
HETATM   10  C3  UNL     1       2.973  -0.881   0.164  1.00  0.00    -0.172 C 
BRANCH  10  11
HETATM   11  C2  UNL     1       3.998  -0.204  -0.102  1.00  0.00     0.076 C 
HETATM   12  C1  UNL     1       4.007   1.266  -0.246  1.00  0.00     0.017 C 
ENDBRANCH  10  11
ENDBRANCH   9  10
ENDBRANCH   8   9
ENDBRANCH   1   8
BRANCH   6  13
HETATM   13  C10 UNL     1      -2.284   2.105   0.420  1.00  0.00     0.241 C 
HETATM   14  O1  UNL     1      -1.370   2.641   1.068  1.00  0.00    -0.306 OA
ENDBRANCH   6  13
TORSDOF 5
