REMARK  9 active torsions:
REMARK  status: ('A' for Active; 'I' for Inactive)
REMARK    1  A    between atoms: C2_10  and  N5_11 
REMARK    2  A    between atoms: C3_17  and  N7_18 
REMARK    3  A    between atoms: N7_18  and  C4_20 
REMARK    4  A    between atoms: N8_22  and  C6_23 
REMARK    5  A    between atoms: C6_23  and  C7_24 
REMARK    6  A    between atoms: C7_24  and  C8_26 
REMARK    7  A    between atoms: C8_26  and  C9_27 
REMARK    8  A    between atoms: N11_32  and  C10_33 
REMARK    9  A    between atoms: C14_37  and  O2_38 
ROOT
HETATM    1  C4  UNL     1      -2.433  -0.188   1.576  1.00  0.00     0.140 A 
HETATM    2  C5  UNL     1      -1.265  -0.113   2.298  1.00  0.00     0.162 A 
HETATM    3  N8  UNL     1      -0.942   1.199   2.459  1.00  0.00    -0.278 N 
HETATM    4  N13 UNL     1      -1.887   1.892   1.852  1.00  0.00    -0.239 N 
ATOM      5  H13 UNL     1      -1.919   2.910   1.801  1.00  0.00     0.208 HD
HETATM    6  N14 UNL     1      -2.792   1.077   1.316  1.00  0.00    -0.270 N 
ATOM      7  H14 UNL     1      -3.620   1.366   0.795  1.00  0.00     0.190 HD
ENDROOT
BRANCH   3   8
HETATM    8  C6  UNL     1       0.201   1.719   3.152  1.00  0.00     0.228 C 
BRANCH   8   9
HETATM    9  C7  UNL     1       1.318   1.850   2.166  1.00  0.00     0.153 C 
HETATM   10  O1  UNL     1       2.379   2.273   2.539  1.00  0.00    -0.296 OA
BRANCH   9  11
HETATM   11  C8  UNL     1       1.131   1.467   0.744  1.00  0.00     0.159 C 
BRANCH  11  12
HETATM   12  C9  UNL     1       2.411   1.712   0.031  1.00  0.00     0.120 A 
HETATM   13  N9  UNL     1       2.824   2.829  -0.598  1.00  0.00    -0.271 N 
HETATM   14  N10 UNL     1       4.021   2.601  -1.089  1.00  0.00    -0.220 N 
ATOM     15  H9  UNL     1       2.299   3.700  -0.679  1.00  0.00     0.190 HD
HETATM   16  N11 UNL     1       4.424   1.380  -0.814  1.00  0.00    -0.181 N 
ATOM     17  H10 UNL     1       4.567   3.283  -1.615  1.00  0.00     0.210 HD
HETATM   18  N12 UNL     1       3.439   0.829  -0.126  1.00  0.00    -0.265 N 
ATOM     19  H12 UNL     1       3.446  -0.124   0.237  1.00  0.00     0.190 HD
BRANCH  16  20
HETATM   20  C10 UNL     1       5.672   0.812  -1.198  1.00  0.00     0.079 A 
HETATM   21  C11 UNL     1       6.853   1.367  -0.726  1.00  0.00     0.033 A 
HETATM   22  C12 UNL     1       8.086   0.864  -1.062  1.00  0.00     0.005 A 
HETATM   23  C13 UNL     1       8.202  -0.226  -1.890  1.00  0.00     0.036 A 
HETATM   24  C14 UNL     1       7.030  -0.793  -2.371  1.00  0.00     0.068 A 
HETATM   25  C15 UNL     1       5.785  -0.282  -2.030  1.00  0.00     0.069 A 
BRANCH  24  26
HETATM   26  O2  UNL     1       7.166  -1.900  -3.212  1.00  0.00    -0.361 OA
ATOM     27  H2  UNL     1       6.364  -2.288  -3.541  1.00  0.00     0.217 HD
ENDBRANCH  24  26
ENDBRANCH  16  20
ENDBRANCH  11  12
ENDBRANCH   9  11
ENDBRANCH   8   9
ENDBRANCH   3   8
BRANCH   1  28
HETATM   28  N7  UNL     1      -3.107  -1.364   1.193  1.00  0.00    -0.323 N 
ATOM     29  H7  UNL     1      -2.735  -2.278   1.451  1.00  0.00     0.169 HD
BRANCH  28  30
HETATM   30  C3  UNL     1      -4.301  -1.266   0.450  1.00  0.00     0.151 C 
HETATM   31  C1  UNL     1      -4.111  -1.042  -0.976  1.00  0.00     0.157 C 
HETATM   32  N1  UNL     1      -2.896  -1.199  -1.370  1.00  0.00    -0.382 N 
HETATM   33  N2  UNL     1      -5.057  -0.679  -1.993  1.00  0.00    -0.267 N 
ATOM     34  H12 UNL     1      -2.763  -1.042  -2.369  1.00  0.00     0.157 HD
ATOM     35  H11 UNL     1      -2.224  -1.457  -0.647  1.00  0.00     0.157 HD
HETATM   36  N3  UNL     1      -6.450  -0.537  -1.751  1.00  0.00    -0.022 NA
ATOM     37  H2  UNL     1      -4.711  -0.514  -2.938  1.00  0.00     0.186 HD
HETATM   38  N4  UNL     1      -6.822  -1.583  -0.928  1.00  0.00    -0.274 N 
HETATM   39  C2  UNL     1      -6.799  -1.304   0.475  1.00  0.00     0.401 C 
ATOM     40  H4  UNL     1      -7.095  -2.494  -1.297  1.00  0.00     0.181 HD
HETATM   41  N6  UNL     1      -5.445  -1.372   1.035  1.00  0.00    -0.329 N 
ATOM     42  H6  UNL     1      -5.402  -1.527   2.042  1.00  0.00     0.165 HD
BRANCH  39  43
HETATM   43  N5  UNL     1      -7.564  -2.371   1.132  1.00  0.00    -0.040 N 
ATOM     44  H53 UNL     1      -8.507  -2.478   0.759  1.00  0.00     0.279 HD
ATOM     45  H52 UNL     1      -7.228  -3.306   0.903  1.00  0.00     0.279 HD
ATOM     46  H51 UNL     1      -7.548  -2.172   2.132  1.00  0.00     0.279 HD
ENDBRANCH  39  43
ENDBRANCH  28  30
ENDBRANCH   1  28
TORSDOF 9
