REMARK  15 active torsions:
REMARK  status: ('A' for Active; 'I' for Inactive)
REMARK       I    between atoms: C1_2  and  N3_6 
REMARK    1  A    between atoms: N3_6  and  C2_8 
REMARK    2  A    between atoms: C3_9  and  O1_10 
REMARK    3  A    between atoms: C4_12  and  O2_13 
REMARK    4  A    between atoms: C5_15  and  O3_16 
REMARK    5  A    between atoms: C6_18  and  O4_19 
REMARK    6  A    between atoms: C7_21  and  C8_22 
REMARK    7  A    between atoms: C8_22  and  N4_23 
REMARK    8  A    between atoms: C8_22  and  N12_39 
REMARK       I    between atoms: C9_25  and  N6_27 
REMARK    9  A    between atoms: N6_27  and  N7_29 
REMARK   10  A    between atoms: C10_35  and  N11_36 
REMARK   11  A    between atoms: C11_44  and  C12_45 
REMARK   12  A    between atoms: C12_45  and  C13_46 
REMARK   13  A    between atoms: C13_46  and  N15_47 
REMARK   14  A    between atoms: C13_46  and  O5_51 
REMARK   15  A    between atoms: C13_46  and  C14_53 
ROOT
HETATM    1  C8  UNL     1      -0.314   0.049   0.865  1.00  0.00     0.267 C 
ENDROOT
BRANCH   1   2
HETATM    2  C7  UNL     1      -0.920  -1.227   0.444  1.00  0.00     0.053 A 
HETATM    3  C2  UNL     1      -1.372  -1.397  -0.843  1.00  0.00     0.084 A 
HETATM    4  C3  UNL     1      -1.947  -2.596  -1.265  1.00  0.00     0.129 A 
HETATM    5  C4  UNL     1      -2.067  -3.634  -0.382  1.00  0.00     0.137 A 
HETATM    6  C5  UNL     1      -1.606  -3.461   0.931  1.00  0.00     0.136 A 
HETATM    7  C6  UNL     1      -1.042  -2.271   1.330  1.00  0.00     0.114 A 
BRANCH   3   8
HETATM    8  N3  UNL     1      -1.299  -0.392  -1.836  1.00  0.00    -0.328 N 
HETATM    9  C1  UNL     1      -0.190  -0.263  -2.697  1.00  0.00     0.186 C 
HETATM   10  N1  UNL     1       0.142   1.000  -3.316  1.00  0.00    -0.064 NA
HETATM   11  N2  UNL     1       0.590  -1.247  -2.986  1.00  0.00    -0.373 N 
ATOM     12  H22 UNL     1       1.392  -1.154  -3.609  1.00  0.00     0.158 HD
ATOM     13  H21 UNL     1       0.356  -2.138  -2.549  1.00  0.00     0.158 HD
ATOM     14  H3  UNL     1      -2.076   0.262  -1.932  1.00  0.00     0.168 HD
ENDBRANCH   3   8
BRANCH   4  15
HETATM   15  O1  UNL     1      -2.415  -2.780  -2.577  1.00  0.00    -0.356 OA
ATOM     16  H1  UNL     1      -2.807  -3.596  -2.864  1.00  0.00     0.218 HD
ENDBRANCH   4  15
BRANCH   5  17
HETATM   17  O2  UNL     1      -2.640  -4.822  -0.810  1.00  0.00    -0.356 OA
ATOM     18  H2  UNL     1      -2.723  -5.543  -0.197  1.00  0.00     0.218 HD
ENDBRANCH   5  17
BRANCH   6  19
HETATM   19  O3  UNL     1      -1.770  -4.565   1.749  1.00  0.00    -0.356 OA
ATOM     20  H3  UNL     1      -1.458  -4.448   2.639  1.00  0.00     0.218 HD
ENDBRANCH   6  19
BRANCH   7  21
HETATM   21  O4  UNL     1      -0.608  -2.171   2.645  1.00  0.00    -0.357 OA
ATOM     22  H4  UNL     1      -0.219  -1.349   2.920  1.00  0.00     0.217 HD
ENDBRANCH   7  21
ENDBRANCH   1   2
BRANCH   1  23
HETATM   23  N4  UNL     1      -1.074   1.191   0.447  1.00  0.00    -0.335 N 
HETATM   24  C9  UNL     1      -1.953   1.688   1.241  1.00  0.00     0.206 C 
HETATM   25  N5  UNL     1      -2.159   1.095   2.530  1.00  0.00    -0.062 NA
HETATM   26  N6  UNL     1      -2.752   2.802   0.936  1.00  0.00    -0.239 N 
ATOM     27  H6  UNL     1      -2.334   3.594   0.448  1.00  0.00     0.192 HD
ATOM     28  H4  UNL     1      -0.918   1.605  -0.472  1.00  0.00     0.164 HD
BRANCH  26  29
HETATM   29  N7  UNL     1      -4.099   2.853   1.282  1.00  0.00    -0.000 N 
HETATM   30  N8  UNL     1      -4.787   1.899   1.925  1.00  0.00     0.033 NA
HETATM   31  N9  UNL     1      -6.048   2.306   2.077  1.00  0.00    -0.210 N 
HETATM   32  N10 UNL     1      -6.199   3.505   1.549  1.00  0.00    -0.117 N 
ATOM     33  H9  UNL     1      -6.786   1.770   2.534  1.00  0.00     0.206 HD
HETATM   34  C10 UNL     1      -4.991   3.834   1.061  1.00  0.00     0.726 A 
ATOM     35  H10 UNL     1      -7.052   4.064   1.518  1.00  0.00     0.207 HD
BRANCH  34  36
HETATM   36  N11 UNL     1      -4.693   4.946   0.451  1.00  0.00    -0.231 N 
ATOM     37 2H11 UNL     1      -3.776   5.196   0.081  1.00  0.00     0.174 HD
ATOM     38 1H11 UNL     1      -5.370   5.690   0.283  1.00  0.00     0.174 HD
ENDBRANCH  34  36
ENDBRANCH  26  29
ENDBRANCH   1  23
BRANCH   1  39
HETATM   39  N12 UNL     1       1.065   0.218   0.481  1.00  0.00    -0.189 N 
HETATM   40  N13 UNL     1       1.612   1.384   0.186  1.00  0.00    -0.222 N 
HETATM   41  N14 UNL     1       2.869   1.244  -0.118  1.00  0.00    -0.272 N 
ATOM     42  H13 UNL     1       1.115   2.275   0.195  1.00  0.00     0.210 HD
HETATM   43  C11 UNL     1       3.172  -0.059  -0.023  1.00  0.00     0.118 A 
ATOM     44  H14 UNL     1       3.510   1.992  -0.382  1.00  0.00     0.190 HD
HETATM   45  N16 UNL     1       2.031  -0.665   0.350  1.00  0.00    -0.268 N 
ATOM     46  H16 UNL     1       1.929  -1.667   0.509  1.00  0.00     0.190 HD
BRANCH  43  47
HETATM   47  C12 UNL     1       4.443  -0.763  -0.255  1.00  0.00     0.160 C 
BRANCH  47  48
HETATM   48  C13 UNL     1       5.558   0.174  -0.659  1.00  0.00     0.317 C 
BRANCH  48  49
HETATM   49  N15 UNL     1       6.795  -0.550  -0.881  1.00  0.00    -0.036 N 
ATOM     50 3H15 UNL     1       7.052  -1.111  -0.069  1.00  0.00     0.278 HD
ATOM     51 2H15 UNL     1       6.673  -1.303  -1.559  1.00  0.00     0.278 HD
ATOM     52 1H15 UNL     1       7.547   0.082  -1.154  1.00  0.00     0.278 HD
ENDBRANCH  48  49
BRANCH  48  53
HETATM   53  O5  UNL     1       5.773   1.169   0.283  1.00  0.00    -0.357 OA
ATOM     54  H5  UNL     1       6.474   1.758   0.029  1.00  0.00     0.213 HD
ENDBRANCH  48  53
BRANCH  48  55
HETATM   55  C14 UNL     1       5.191   0.816  -1.948  1.00  0.00     0.239 C 
HETATM   56  O6  UNL     1       4.951   0.110  -2.954  1.00  0.00    -0.644 OA
HETATM   57  O7  UNL     1       5.099   2.199  -2.092  1.00  0.00    -0.644 OA
ENDBRANCH  48  55
ENDBRANCH  47  48
ENDBRANCH  43  47
ENDBRANCH   1  39
TORSDOF 15
