REMARK  17 active torsions:
REMARK  status: ('A' for Active; 'I' for Inactive)
REMARK    1  A    between atoms: C5_5  and  N1_6 
REMARK       I    between atoms: N1_6  and  C6_8 
REMARK    2  A    between atoms: C6_8  and  C7_10 
REMARK    3  A    between atoms: C7_10  and  C8_11 
REMARK    4  A    between atoms: C8_11  and  C9_12 
REMARK    5  A    between atoms: C9_12  and  C10_13 
REMARK    6  A    between atoms: C9_12  and  N4_45 
REMARK    7  A    between atoms: C10_13  and  C11_14 
REMARK    8  A    between atoms: C11_14  and  C12_15 
REMARK    9  A    between atoms: C12_15  and  C13_16 
REMARK   10  A    between atoms: C13_16  and  N2_17 
REMARK       I    between atoms: N2_17  and  C14_18 
REMARK   11  A    between atoms: C14_18  and  C15_20 
REMARK   12  A    between atoms: C17_22  and  O3_23 
REMARK   13  A    between atoms: C22_30  and  C23_31 
REMARK   14  A    between atoms: C23_31  and  C24_32 
REMARK       I    between atoms: C24_32  and  N3_34 
REMARK   15  A    between atoms: N3_34  and  C25_36 
REMARK   16  A    between atoms: N4_45  and  S1_47 
REMARK   17  A    between atoms: S1_47  and  N5_48 
ROOT
HETATM    1  N2  UNL     1      -0.720   0.619  -0.969  1.00  0.00    -0.415 NA
HETATM    2  C14 UNL     1      -1.011  -0.427  -1.910  1.00  0.00     0.292 C 
HETATM    3  O2  UNL     1      -0.148  -0.775  -2.612  1.00  0.00    -0.257 OA
ENDROOT
BRANCH   1   4
HETATM    4  C13 UNL     1      -0.328   1.601  -0.131  1.00  0.00     0.221 C 
BRANCH   4   5
HETATM    5  C12 UNL     1       0.798   1.151   0.866  1.00  0.00     0.033 C 
BRANCH   5   6
HETATM    6  C11 UNL     1       1.913   0.482   0.181  1.00  0.00     0.005 C 
BRANCH   6   7
HETATM    7  C10 UNL     1       3.037  -0.059   0.912  1.00  0.00     0.026 C 
BRANCH   7   8
HETATM    8  C9  UNL     1       4.058   1.129   1.584  1.00  0.00     0.098 C 
BRANCH   8   9
HETATM    9  C8  UNL     1       4.549   1.770   0.044  1.00  0.00     0.058 C 
BRANCH   9  10
HETATM   10  C7  UNL     1       5.487   2.820   0.311  1.00  0.00     0.050 C 
BRANCH  10  11
HETATM   11  C6  UNL     1       6.817   2.574   0.972  1.00  0.00     0.243 C 
HETATM   12  N1  UNL     1       7.920   2.503   0.102  1.00  0.00    -0.310 N 
ATOM     13  H1  UNL     1       7.912   3.123  -0.708  1.00  0.00     0.170 HD
HETATM   14  O1  UNL     1       6.871   2.450   2.185  1.00  0.00    -0.269 OA
BRANCH  12  15
HETATM   15  C5  UNL     1       8.973   1.700   0.239  1.00  0.00     0.107 A 
HETATM   16  C4  UNL     1       9.067   0.835   1.296  1.00  0.00     0.049 A 
HETATM   17  C3  UNL     1      10.143   0.009   1.398  1.00  0.00     0.012 A 
HETATM   18  C2  UNL     1      11.135   0.054   0.416  1.00  0.00    -0.046 A 
HETATM   19  C1  UNL     1      12.377  -0.793   0.566  1.00  0.00     0.049 C 
HETATM   20  C34 UNL     1      11.054   0.896  -0.631  1.00  0.00     0.096 A 
HETATM   21  N6  UNL     1       9.873   1.759  -0.669  1.00  0.00    -0.352 N 
ATOM     22  H6  UNL     1       9.765   2.422  -1.436  1.00  0.00     0.166 HD
ENDBRANCH  12  15
ENDBRANCH  10  11
ENDBRANCH   9  10
ENDBRANCH   8   9
BRANCH   8  23
HETATM   23  N4  UNL     1       5.091   0.295   1.744  1.00  0.00    -0.298 N 
ATOM     24  H4  UNL     1       5.718   0.580   2.496  1.00  0.00     0.174 HD
BRANCH  23  25
HETATM   25  S1  UNL     1       5.573  -1.083   1.000  1.00  0.00     0.313 S 
HETATM   26  O6  UNL     1       4.656  -2.300   1.058  1.00  0.00    -0.183 OA
HETATM   27  O7  UNL     1       6.761  -1.636   1.869  1.00  0.00    -0.183 OA
BRANCH  25  28
HETATM   28  N5  UNL     1       6.248  -1.008  -0.554  1.00  0.00    -0.312 N 
ATOM     29  H52 UNL     1       6.347  -0.101  -1.010  1.00  0.00     0.170 HD
ATOM     30  H51 UNL     1       6.548  -1.866  -1.017  1.00  0.00     0.170 HD
ENDBRANCH  25  28
ENDBRANCH  23  25
ENDBRANCH   8  23
ENDBRANCH   7   8
ENDBRANCH   6   7
ENDBRANCH   5   6
ENDBRANCH   4   5
ENDBRANCH   1   4
BRANCH   2  31
HETATM   31  C15 UNL     1      -2.409  -1.006  -1.895  1.00  0.00     0.113 C 
HETATM   32  C16 UNL     1      -2.407  -1.852  -0.695  1.00  0.00     0.060 C 
HETATM   33  C17 UNL     1      -3.607  -2.758  -0.377  1.00  0.00     0.136 C 
HETATM   34  C21 UNL     1      -2.818  -1.122   0.568  1.00  0.00     0.139 C 
HETATM   35  C18 UNL     1      -3.242  -2.566   1.086  1.00  0.00     0.005 C 
HETATM   36  C19 UNL     1      -4.338  -2.442   2.067  1.00  0.00     0.020 C 
HETATM   37  C20 UNL     1      -2.010  -3.287   1.527  1.00  0.00     0.020 C 
HETATM   38  O4  UNL     1      -3.859  -0.361   0.401  1.00  0.00    -0.378 OA
HETATM   39  C22 UNL     1      -3.950   0.539  -0.631  1.00  0.00     0.140 C 
HETATM   40  C29 UNL     1      -3.459   0.116  -1.903  1.00  0.00     0.004 C 
HETATM   41  C30 UNL     1      -2.868   1.284  -2.803  1.00  0.00     0.018 C 
HETATM   42  C33 UNL     1      -4.362   0.003  -3.044  1.00  0.00     0.002 A 
HETATM   43  C31 UNL     1      -4.272   1.384  -3.351  1.00  0.00    -0.008 A 
HETATM   44  C32 UNL     1      -5.069   0.493  -4.127  1.00  0.00     0.011 A 
BRANCH  33  45
HETATM   45  O3  UNL     1      -3.576  -4.027  -0.851  1.00  0.00    -0.394 OA
ATOM     46  H3  UNL     1      -4.318  -4.587  -0.654  1.00  0.00     0.210 HD
ENDBRANCH  33  45
BRANCH  39  47
HETATM   47  C23 UNL     1      -5.377   1.053  -0.450  1.00  0.00     0.135 C 
BRANCH  47  48
HETATM   48  C24 UNL     1      -6.437   0.086  -0.528  1.00  0.00     0.220 C 
HETATM   49  O5  UNL     1      -6.543  -0.826  -1.259  1.00  0.00    -0.274 OA
HETATM   50  N3  UNL     1      -7.593   0.207   0.448  1.00  0.00    -0.353 N 
ATOM     51  H3  UNL     1      -7.611   0.945   1.152  1.00  0.00     0.163 HD
BRANCH  50  52
HETATM   52  C25 UNL     1      -8.638  -0.728   0.354  1.00  0.00     0.022 C 
HETATM   53  C26 UNL     1      -9.699  -0.422   1.444  1.00  0.00     0.037 C 
HETATM   54  C27 UNL     1      -9.456  -0.588  -0.938  1.00  0.00     0.037 C 
HETATM   55  C28 UNL     1      -8.306  -2.186   0.504  1.00  0.00     0.037 C 
ENDBRANCH  50  52
ENDBRANCH  47  48
ENDBRANCH  39  47
ENDBRANCH   2  31
TORSDOF 17
