REMARK  8 active torsions:
REMARK  status: ('A' for Active; 'I' for Inactive)
REMARK    1  A    between atoms: C9_11  and  C10_12 
REMARK    2  A    between atoms: C10_12  and  C11_13 
REMARK    3  A    between atoms: C12_16  and  C13_17 
REMARK    4  A    between atoms: C13_17  and  C14_18 
REMARK    5  A    between atoms: N4_27  and  C21_28 
REMARK    6  A    between atoms: C21_28  and  C22_29 
REMARK    7  A    between atoms: C22_29  and  N5_30 
REMARK       I    between atoms: N6_33  and  C25_34 
REMARK    8  A    between atoms: C25_34  and  C26_36 
ROOT
HETATM    1  C14 UNL     1       0.085  -2.325  -0.151  1.00  0.00     0.067 A 
HETATM    2  C15 UNL     1      -0.004  -3.613   0.354  1.00  0.00     0.020 A 
HETATM    3  C16 UNL     1      -0.908  -4.257   1.185  1.00  0.00     0.016 A 
HETATM    4  C17 UNL     1      -0.658  -5.580   1.472  1.00  0.00     0.001 A 
HETATM    5  C18 UNL     1       0.441  -6.236   0.955  1.00  0.00     0.002 A 
HETATM    6  C19 UNL     1       1.327  -5.584   0.132  1.00  0.00     0.032 A 
HETATM    7  C20 UNL     1       1.098  -4.258  -0.169  1.00  0.00     0.060 A 
HETATM    8  N3  UNL     1       1.797  -3.402  -0.936  1.00  0.00    -0.297 N 
ATOM      9  H3  UNL     1       2.656  -3.618  -1.442  1.00  0.00     0.187 HD
HETATM   10  N4  UNL     1       1.184  -2.242  -0.922  1.00  0.00    -0.289 N 
ENDROOT
BRANCH   1  11
HETATM   11  C13 UNL     1      -0.900  -1.299   0.165  1.00  0.00     0.080 C 
BRANCH  11  12
HETATM   12  C12 UNL     1      -1.977  -1.153  -0.585  1.00  0.00     0.110 A 
HETATM   13  N2  UNL     1      -2.957  -0.230  -0.381  1.00  0.00    -0.338 N 
HETATM   14  C11 UNL     1      -3.890  -0.392  -1.357  1.00  0.00     0.103 A 
ATOM     15  H2  UNL     1      -2.986   0.460   0.370  1.00  0.00     0.167 HD
HETATM   16  C29 UNL     1      -3.476  -1.423  -2.164  1.00  0.00     0.273 A 
HETATM   17  N10 UNL     1      -2.312  -1.865  -1.671  1.00  0.00    -0.308 N 
HETATM   18  O2  UNL     1      -4.055  -1.884  -3.175  1.00  0.00    -0.266 OA
ATOM     19  H10 UNL     1      -1.762  -2.629  -2.063  1.00  0.00     0.170 HD
BRANCH  14  20
HETATM   20  C10 UNL     1      -4.989   0.334  -1.471  1.00  0.00     0.049 C 
BRANCH  20  21
HETATM   21  C9  UNL     1      -5.278   1.399  -0.513  1.00  0.00     0.001 A 
HETATM   22  C2  UNL     1      -4.887   2.712  -0.591  1.00  0.00     0.017 A 
HETATM   23  C1  UNL     1      -4.076   3.362  -1.671  1.00  0.00     0.069 C 
HETATM   24  N1  UNL     1      -5.375   3.333   0.506  1.00  0.00    -0.358 N 
HETATM   25  C3  UNL     1      -6.060   2.472   1.279  1.00  0.00     0.043 A 
ATOM     26  H1  UNL     1      -5.242   4.322   0.719  1.00  0.00     0.166 HD
HETATM   27  C4  UNL     1      -6.742   2.612   2.491  1.00  0.00     0.030 A 
HETATM   28  C8  UNL     1      -6.015   1.237   0.659  1.00  0.00     0.003 A 
HETATM   29  C5  UNL     1      -7.342   1.489   3.007  1.00  0.00     0.002 A 
HETATM   30  C6  UNL     1      -7.312   0.246   2.407  1.00  0.00     0.001 A 
HETATM   31  C7  UNL     1      -6.632   0.140   1.214  1.00  0.00     0.014 A 
ENDBRANCH  20  21
ENDBRANCH  14  20
ENDBRANCH  11  12
ENDBRANCH   1  11
BRANCH  10  32
HETATM   32  C21 UNL     1       1.644  -1.073  -1.642  1.00  0.00     0.179 C 
BRANCH  32  33
HETATM   33  C22 UNL     1       2.574  -0.218  -0.807  1.00  0.00     0.296 C 
BRANCH  33  34
HETATM   34  N5  UNL     1       3.028   0.944  -1.549  1.00  0.00     0.109 N 
HETATM   35  C23 UNL     1       3.904   0.580  -2.636  1.00  0.00     0.294 C 
HETATM   36  C24 UNL     1       5.234   1.254  -2.365  1.00  0.00     0.158 C 
HETATM   37  N6  UNL     1       5.141   1.517  -0.958  1.00  0.00    -0.321 N 
HETATM   38  C25 UNL     1       6.174   1.467  -0.012  1.00  0.00     0.264 C 
HETATM   39  C28 UNL     1       3.771   1.846  -0.695  1.00  0.00     0.400 C 
HETATM   40  O1  UNL     1       7.375   1.163  -0.314  1.00  0.00    -0.269 OA
BRANCH  38  41
HETATM   41  C26 UNL     1       5.917   1.774   1.420  1.00  0.00     0.280 A 
HETATM   42  N7  UNL     1       5.817   3.191   1.716  1.00  0.00    -0.336 N 
HETATM   43  C27 UNL     1       6.843   3.075   2.474  1.00  0.00     0.188 A 
ATOM     44  H7  UNL     1       5.197   3.952   1.439  1.00  0.00     0.164 HD
HETATM   45  N8  UNL     1       7.550   4.021   3.266  1.00  0.00    -0.064 NA
HETATM   46  N9  UNL     1       7.067   1.689   2.282  1.00  0.00    -0.336 N 
ATOM     47  H9  UNL     1       7.724   0.977   2.600  1.00  0.00     0.164 HD
ENDBRANCH  38  41
ENDBRANCH  33  34
ENDBRANCH  32  33
ENDBRANCH  10  32
TORSDOF 8
