REMARK  4 active torsions:
REMARK  status: ('A' for Active; 'I' for Inactive)
REMARK    1  A    between atoms: N1_2  and  C3_4 
REMARK    2  A    between atoms: C3_4  and  C4_5 
REMARK    3  A    between atoms: C4_5  and  C5_6 
REMARK    4  A    between atoms: C5_6  and  C6_7 
ROOT
HETATM    1  C6  UNL     1       1.037   0.069  -0.623  1.00  0.00    -0.006 A 
HETATM    2  C7  UNL     1       0.922   1.410  -0.918  1.00  0.00     0.088 A 
HETATM    3 BR1  UNL     1      -0.550   2.293  -1.787  1.00  0.00    -0.031 Br
HETATM    4  N2  UNL     1       2.039   2.061  -0.546  1.00  0.00    -0.334 N 
ATOM      5  H2  UNL     1       2.196   3.063  -0.658  1.00  0.00     0.168 HD
HETATM    6  C8  UNL     1       2.917   1.200  -0.005  1.00  0.00     0.135 A 
HETATM    7  N3  UNL     1       4.153   1.091   0.557  1.00  0.00    -0.283 N 
ATOM      8  H3  UNL     1       4.820   1.847   0.712  1.00  0.00     0.188 HD
HETATM    9  N4  UNL     1       4.321  -0.178   0.862  1.00  0.00    -0.283 N 
ATOM     10  H4  UNL     1       5.156  -0.567   1.300  1.00  0.00     0.188 HD
HETATM   11  C9  UNL     1       3.221  -0.895   0.509  1.00  0.00     0.128 A 
HETATM   12  N5  UNL     1       3.069  -2.154   0.673  1.00  0.00    -0.384 N 
ATOM     13  H51 UNL     1       2.244  -2.692   0.408  1.00  0.00     0.157 HD
ATOM     14  H52 UNL     1       3.749  -2.791   1.088  1.00  0.00     0.157 HD
HETATM   15  C10 UNL     1       2.307  -0.039  -0.048  1.00  0.00     0.063 A 
ENDROOT
BRANCH   1  16
HETATM   16  C5  UNL     1       0.047  -1.018  -0.806  1.00  0.00     0.047 C 
BRANCH  16  17
HETATM   17  C4  UNL     1      -0.863  -1.149   0.360  1.00  0.00     0.049 C 
BRANCH  17  18
HETATM   18  C3  UNL     1      -1.644   0.062   0.647  1.00  0.00     0.057 C 
BRANCH  18  19
HETATM   19  N1  UNL     1      -2.898   0.071   0.420  1.00  0.00    -0.402 N 
HETATM   20  C1  UNL     1      -3.630   1.281   0.716  1.00  0.00     0.148 C 
HETATM   21  C2  UNL     1      -3.533  -1.082  -0.098  1.00  0.00     0.148 C 
ENDBRANCH  18  19
ENDBRANCH  17  18
ENDBRANCH  16  17
ENDBRANCH   1  16
TORSDOF 4
