REMARK  9 active torsions:
REMARK  status: ('A' for Active; 'I' for Inactive)
REMARK    1  A    between atoms: C2_2  and  C3_3 
REMARK    2  A    between atoms: C3_3  and  C4_4 
REMARK    3  A    between atoms: C4_4  and  C5_5 
REMARK    4  A    between atoms: C5_5  and  C6_6 
REMARK    5  A    between atoms: C6_6  and  C7_7 
REMARK    6  A    between atoms: C7_7  and  O1_8 
REMARK    7  A    between atoms: N1_10  and  C8_12 
REMARK    8  A    between atoms: C9_17  and  N4_18 
REMARK       I    between atoms: N4_18  and  C10_20 
REMARK       I    between atoms: C10_20  and  N5_22 
REMARK    9  A    between atoms: N5_22  and  C11_24 
ROOT
HETATM    1  C8  UNL     1      -0.961  -1.169  -2.612  1.00  0.00     0.713 A 
HETATM    2  N2  UNL     1      -0.820  -0.343  -1.584  1.00  0.00    -0.117 N 
ATOM      3  H2  UNL     1      -1.567   0.163  -1.109  1.00  0.00     0.206 HD
HETATM    4  N3  UNL     1       0.488  -0.296  -1.283  1.00  0.00    -0.117 N 
ATOM      5  H3  UNL     1       0.887   0.264  -0.530  1.00  0.00     0.206 HD
HETATM    6  C9  UNL     1       1.191  -1.071  -2.091  1.00  0.00     0.715 A 
HETATM    7  N6  UNL     1       0.315  -1.631  -2.934  1.00  0.00    -0.019 N 
ATOM      8  H6  UNL     1       0.542  -2.284  -3.684  1.00  0.00     0.203 HD
ENDROOT
BRANCH   6   9
HETATM    9  N4  UNL     1       2.476  -1.273  -2.118  1.00  0.00    -0.139 N 
HETATM   10  C10 UNL     1       3.279  -0.598  -1.181  1.00  0.00     0.334 C 
HETATM   11  O2  UNL     1       3.788   0.487  -1.491  1.00  0.00    -0.246 OA
HETATM   12  N5  UNL     1       3.491  -1.166   0.090  1.00  0.00    -0.338 N 
ATOM     13  H5  UNL     1       3.044  -2.055   0.315  1.00  0.00     0.164 HD
ATOM     14  H4  UNL     1       2.891  -1.906  -2.802  1.00  0.00     0.189 HD
BRANCH  12  15
HETATM   15  C11 UNL     1       4.319  -0.531   1.080  1.00  0.00     0.086 C 
HETATM   16  C12 UNL     1       5.538   0.056   0.390  1.00  0.00     0.025 C 
HETATM   17  C13 UNL     1       6.771  -0.069   1.280  1.00  0.00     0.002 C 
HETATM   18  C14 UNL     1       6.787   1.213   2.110  1.00  0.00     0.000 C 
HETATM   19  C15 UNL     1       5.631   1.098   3.096  1.00  0.00     0.000 C 
HETATM   20  C16 UNL     1       4.392   1.579   2.417  1.00  0.00     0.002 C 
HETATM   21  C17 UNL     1       3.548   0.456   1.858  1.00  0.00     0.025 C 
ENDBRANCH  12  15
ENDBRANCH   6   9
BRANCH   1  22
HETATM   22  N1  UNL     1      -1.993  -1.508  -3.229  1.00  0.00    -0.173 N 
HETATM   23  C7  UNL     1      -3.303  -1.170  -3.084  1.00  0.00     0.131 C 
ATOM     24  H1  UNL     1      -1.820  -2.166  -3.989  1.00  0.00     0.186 HD
BRANCH  23  25
HETATM   25  C6  UNL     1      -3.908  -0.462  -1.941  1.00  0.00     0.084 C 
BRANCH  25  26
HETATM   26  C5  UNL     1      -5.442  -0.454  -2.059  1.00  0.00     0.008 C 
BRANCH  26  27
HETATM   27  C4  UNL     1      -5.996   0.288  -0.880  1.00  0.00     0.000 C 
BRANCH  27  28
HETATM   28  C3  UNL     1      -5.678  -0.290   0.455  1.00  0.00    -0.000 C 
BRANCH  28  29
HETATM   29  C2  UNL     1      -6.339   0.641   1.481  1.00  0.00    -0.005 C 
HETATM   30  C1  UNL     1      -7.824   0.622   1.200  1.00  0.00     0.005 C 
ENDBRANCH  28  29
ENDBRANCH  27  28
ENDBRANCH  26  27
ENDBRANCH  25  26
ENDBRANCH  23  25
BRANCH  23  31
HETATM   31  O1  UNL     1      -4.079  -1.520  -4.075  1.00  0.00    -0.349 OA
ATOM     32  H1  UNL     1      -3.689  -1.976  -4.811  1.00  0.00     0.219 HD
ENDBRANCH  23  31
ENDBRANCH   1  22
TORSDOF 9
