REMARK  15 active torsions:
REMARK  status: ('A' for Active; 'I' for Inactive)
REMARK    1  A    between atoms: N1_1  and  C1_5 
REMARK    2  A    between atoms: C3_7  and  N2_8 
REMARK    3  A    between atoms: C4_12  and  O1_13 
REMARK    4  A    between atoms: O1_13  and  C5_14 
REMARK    5  A    between atoms: C7_16  and  C8_17 
REMARK    6  A    between atoms: C8_17  and  O2_18 
REMARK    7  A    between atoms: C9_21  and  O4_22 
REMARK    8  A    between atoms: O4_22  and  C10_23 
REMARK    9  A    between atoms: C16_29  and  O5_30 
REMARK   10  A    between atoms: C17_32  and  O6_33 
REMARK   11  A    between atoms: C18_35  and  O7_36 
REMARK   12  A    between atoms: O7_36  and  C19_37 
REMARK   13  A    between atoms: C19_37  and  C20_38 
REMARK   14  A    between atoms: C21_39  and  C22_40 
REMARK   15  A    between atoms: C22_40  and  O8_41 
ROOT
HETATM    1  C1  UNL     1       4.133  -1.668   0.548  1.00  0.00     0.217 C 
HETATM    2  C2  UNL     1       3.794  -2.867  -0.349  1.00  0.00     0.071 C 
HETATM    3  C3  UNL     1       2.282  -2.903  -0.375  1.00  0.00     0.217 C 
HETATM    4  C4  UNL     1       1.636  -1.659  -0.852  1.00  0.00     0.183 C 
HETATM    5  C17 UNL     1       2.457  -0.423  -0.872  1.00  0.00     0.180 C 
HETATM    6  C18 UNL     1       3.794  -0.448  -0.260  1.00  0.00     0.184 C 
ENDROOT
BRANCH   4   7
HETATM    7  O1  UNL     1       0.495  -1.460  -0.042  1.00  0.00    -0.373 OA
BRANCH   7   8
HETATM    8  C5  UNL     1      -0.693  -1.592  -0.718  1.00  0.00     0.158 C 
HETATM    9  C6  UNL     1      -1.482  -2.702  -0.063  1.00  0.00     0.069 C 
HETATM   10  C7  UNL     1      -2.934  -2.670  -0.423  1.00  0.00     0.150 C 
HETATM   11  O3  UNL     1      -3.436  -1.462   0.055  1.00  0.00    -0.351 OA
HETATM   12  C9  UNL     1      -2.908  -0.372  -0.625  1.00  0.00     0.291 C 
HETATM   13  C16 UNL     1      -1.427  -0.299  -0.663  1.00  0.00     0.202 C 
BRANCH  10  14
HETATM   14  C8  UNL     1      -3.177  -2.848  -1.896  1.00  0.00     0.196 C 
BRANCH  14  15
HETATM   15  O2  UNL     1      -4.565  -2.814  -2.092  1.00  0.00    -0.398 OA
ATOM     16  H2  UNL     1      -4.719  -2.926  -3.023  1.00  0.00     0.209 HD
ENDBRANCH  14  15
ENDBRANCH  10  14
BRANCH  12  17
HETATM   17  O4  UNL     1      -3.387   0.766   0.031  1.00  0.00    -0.353 OA
BRANCH  17  18
HETATM   18  C10 UNL     1      -4.186   1.561  -0.775  1.00  0.00     0.124 C 
HETATM   19  C11 UNL     1      -3.547   2.957  -0.757  1.00  0.00     0.032 C 
HETATM   20  C12 UNL     1      -3.064   3.149   0.677  1.00  0.00     0.002 C 
HETATM   21  C13 UNL     1      -4.154   3.012   1.682  1.00  0.00     0.000 C 
HETATM   22  C14 UNL     1      -5.120   1.909   1.437  1.00  0.00     0.002 C 
HETATM   23  C15 UNL     1      -5.505   1.737  -0.013  1.00  0.00     0.032 C 
ENDBRANCH  17  18
ENDBRANCH  12  17
BRANCH  13  24
HETATM   24  O5  UNL     1      -1.065   0.523  -1.754  1.00  0.00    -0.388 OA
ATOM     25  H5  UNL     1      -1.534   1.349  -1.719  1.00  0.00     0.210 HD
ENDBRANCH  13  24
ENDBRANCH   7   8
ENDBRANCH   4   7
BRANCH   3  26
HETATM   26  N2  UNL     1       1.812  -4.050  -1.152  1.00  0.00    -0.072 N 
ATOM     27  H23 UNL     1       2.208  -4.060  -2.092  1.00  0.00     0.274 HD
ATOM     28  H22 UNL     1       2.207  -4.927  -0.812  1.00  0.00     0.274 HD
ATOM     29  H21 UNL     1       0.792  -4.074  -1.170  1.00  0.00     0.274 HD
ENDBRANCH   3  26
BRANCH   5  30
HETATM   30  O6  UNL     1       2.621  -0.043  -2.229  1.00  0.00    -0.390 OA
ATOM     31  H6  UNL     1       3.147   0.748  -2.242  1.00  0.00     0.210 HD
ENDBRANCH   5  30
BRANCH   6  32
HETATM   32  O7  UNL     1       3.952   0.661   0.572  1.00  0.00    -0.369 OA
BRANCH  32  33
HETATM   33  C19 UNL     1       5.008   1.467   0.215  1.00  0.00     0.262 C 
BRANCH  33  34
HETATM   34  C20 UNL     1       5.065   2.583   1.155  1.00  0.00    -0.078 C 
HETATM   35  C21 UNL     1       5.112   3.518   1.917  1.00  0.00    -0.079 C 
BRANCH  35  36
HETATM   36  C22 UNL     1       5.185   4.657   2.832  1.00  0.00     0.257 C 
BRANCH  36  37
HETATM   37  O8  UNL     1       5.262   4.253   4.171  1.00  0.00    -0.389 OA
ATOM     38  H8  UNL     1       5.309   4.993   4.765  1.00  0.00     0.210 HD
ENDBRANCH  36  37
ENDBRANCH  35  36
ENDBRANCH  33  34
ENDBRANCH  32  33
ENDBRANCH   6  32
BRANCH   1  39
HETATM   39  N1  UNL     1       3.349  -1.678   1.743  1.00  0.00    -0.072 N 
ATOM     40  H13 UNL     1       2.351  -1.721   1.536  1.00  0.00     0.274 HD
ATOM     41  H12 UNL     1       3.443  -2.561   2.246  1.00  0.00     0.274 HD
ATOM     42  H11 UNL     1       3.574  -0.881   2.339  1.00  0.00     0.274 HD
ENDBRANCH   1  39
TORSDOF 15
