REMARK  11 active torsions:
REMARK  status: ('A' for Active; 'I' for Inactive)
REMARK    1  A    between atoms: C4_4  and  C5_5 
REMARK    2  A    between atoms: C5_5  and  S1_8 
REMARK    3  A    between atoms: S1_8  and  N1_11 
REMARK    4  A    between atoms: N1_11  and  C6_13 
REMARK    5  A    between atoms: C6_13  and  C7_14 
REMARK    6  A    between atoms: C7_14  and  N2_15 
REMARK    7  A    between atoms: C10_18  and  C11_19 
REMARK    8  A    between atoms: C11_19  and  C12_20 
REMARK    9  A    between atoms: C12_20  and  C13_21 
REMARK   10  A    between atoms: C13_21  and  C14_22 
REMARK   11  A    between atoms: C14_22  and  C15_23 
ROOT
HETATM    1  N1  UNL     1      -1.756  -1.345   0.378  1.00  0.00    -0.309 N 
ATOM      2  H1  UNL     1      -1.286  -2.223   0.598  1.00  0.00     0.172 HD
ENDROOT
BRANCH   1   3
HETATM    3  S1  UNL     1      -3.390  -1.204  -0.225  1.00  0.00     0.300 S 
HETATM    4  O1  UNL     1      -3.274  -0.493  -1.568  1.00  0.00    -0.199 OA
HETATM    5  O2  UNL     1      -3.908  -2.584  -0.554  1.00  0.00    -0.199 OA
BRANCH   3   6
HETATM    6  C5  UNL     1      -4.475  -0.336   0.848  1.00  0.00     0.388 C 
HETATM    7  F1  UNL     1      -3.997   0.909   1.130  1.00  0.00    -0.181 F 
HETATM    8  F2  UNL     1      -4.601  -1.091   2.046  1.00  0.00    -0.181 F 
BRANCH   6   9
HETATM    9  C4  UNL     1      -5.852  -0.161   0.282  1.00  0.00     0.032 A 
HETATM   10  C3  UNL     1      -6.397   1.109   0.229  1.00  0.00     0.021 A 
HETATM   11  C2  UNL     1      -7.652   1.362  -0.262  1.00  0.00    -0.054 A 
HETATM   12  C1  UNL     1      -8.215   2.701  -0.309  1.00  0.00     0.049 C 
HETATM   13  C20 UNL     1      -8.376   0.289  -0.713  1.00  0.00    -0.039 A 
HETATM   14  C19 UNL     1      -7.866  -0.997  -0.674  1.00  0.00     0.018 A 
HETATM   15  C21 UNL     1      -9.722   0.502  -1.249  1.00  0.00     0.050 C 
HETATM   16  C18 UNL     1      -6.572  -1.219  -0.162  1.00  0.00     0.034 A 
HETATM   17 BR1  UNL     1      -8.857  -2.465  -1.312  1.00  0.00    -0.051 Br
ENDBRANCH   6   9
ENDBRANCH   3   6
ENDBRANCH   1   3
BRANCH   1  18
HETATM   18  C6  UNL     1      -1.184  -0.059   0.515  1.00  0.00     0.176 C 
BRANCH  18  19
HETATM   19  C7  UNL     1       0.189   0.113   1.000  1.00  0.00     0.078 C 
BRANCH  19  20
HETATM   20  N2  UNL     1       1.294  -0.437   0.409  1.00  0.00    -0.392 N 
HETATM   21  C8  UNL     1       1.551  -1.848   0.603  1.00  0.00     0.122 C 
HETATM   22  C9  UNL     1       3.095  -1.908   0.784  1.00  0.00     0.024 C 
HETATM   23  C10 UNL     1       3.793  -1.407  -0.458  1.00  0.00    -0.012 C 
HETATM   24  C16 UNL     1       3.090  -0.309  -1.174  1.00  0.00     0.024 C 
HETATM   25  C17 UNL     1       1.619  -0.152  -0.951  1.00  0.00     0.122 C 
BRANCH  23  26
HETATM   26  C11 UNL     1       5.156  -0.860   0.016  1.00  0.00     0.005 C 
BRANCH  26  27
HETATM   27  C12 UNL     1       5.938  -0.385  -1.183  1.00  0.00     0.001 C 
BRANCH  27  28
HETATM   28  C13 UNL     1       7.280   0.156  -0.768  1.00  0.00     0.007 C 
BRANCH  28  29
HETATM   29  C14 UNL     1       7.109   1.342   0.121  1.00  0.00     0.072 C 
BRANCH  29  30
HETATM   30  C15 UNL     1       8.494   1.806   0.499  1.00  0.00     0.086 C 
HETATM   31  N3  UNL     1       8.945   2.926   0.069  1.00  0.00    -0.391 N 
ATOM     32  H32 UNL     1       8.398   3.546  -0.528  1.00  0.00     0.157 HD
ATOM     33  H31 UNL     1       9.881   3.240   0.325  1.00  0.00     0.157 HD
HETATM   34  N4  UNL     1       9.252   0.947   1.326  1.00  0.00    -0.088 NA
ENDBRANCH  29  30
ENDBRANCH  28  29
ENDBRANCH  27  28
ENDBRANCH  26  27
ENDBRANCH  23  26
ENDBRANCH  19  20
ENDBRANCH  18  19
ENDBRANCH   1  18
TORSDOF 11
