REMARK  5 active torsions:
REMARK  status: ('A' for Active; 'I' for Inactive)
REMARK    1  A    between atoms: C2_3  and  N2_4 
REMARK       I    between atoms: N2_4  and  C3_6 
REMARK    2  A    between atoms: C3_6  and  C4_8 
REMARK    3  A    between atoms: C4_8  and  N3_9 
REMARK    4  A    between atoms: C7_12  and  N4_13 
REMARK    5  A    between atoms: C13_19  and  O2_20 
ROOT
HETATM    1  N1  UNL     1      -3.817   2.339  -2.567  1.00  0.00    -0.195 NA
HETATM    2  C1  UNL     1      -4.085   1.686  -1.633  1.00  0.00     0.091 C 
HETATM    3  C2  UNL     1      -4.442   0.857  -0.472  1.00  0.00     0.122 C 
HETATM    4  C15 UNL     1      -4.925  -0.477  -0.911  1.00  0.00     0.046 C 
HETATM    5  C16 UNL     1      -6.296  -0.882  -0.536  1.00  0.00     0.004 C 
HETATM    6  C17 UNL     1      -6.825  -0.230   0.717  1.00  0.00     0.000 C 
HETATM    7  C18 UNL     1      -6.786   1.274   0.403  1.00  0.00     0.004 C 
HETATM    8  C19 UNL     1      -5.352   1.660   0.393  1.00  0.00     0.046 C 
ENDROOT
BRANCH   3   9
HETATM    9  N2  UNL     1      -3.207   0.648   0.270  1.00  0.00    -0.334 N 
HETATM   10  C3  UNL     1      -2.096  -0.010  -0.300  1.00  0.00     0.258 C 
HETATM   11  O1  UNL     1      -2.119  -0.444  -1.480  1.00  0.00    -0.267 OA
ATOM     12  H2  UNL     1      -3.143   0.987   1.230  1.00  0.00     0.164 HD
BRANCH  10  13
HETATM   13  C4  UNL     1      -0.861  -0.204   0.500  1.00  0.00     0.164 C 
BRANCH  13  14
HETATM   14  N3  UNL     1       0.150  -0.896  -0.193  1.00  0.00    -0.363 N 
HETATM   15  C5  UNL     1       0.792  -0.271  -1.278  1.00  0.00     0.066 C 
HETATM   16  C6  UNL     1       2.200   0.197  -0.989  1.00  0.00     0.083 C 
HETATM   17  C7  UNL     1       2.677  -0.153   0.399  1.00  0.00     0.257 C 
HETATM   18  C13 UNL     1       2.283  -1.553   0.828  1.00  0.00     0.170 C 
HETATM   19  C14 UNL     1       0.861  -1.894   0.508  1.00  0.00     0.161 C 
BRANCH  17  20
HETATM   20  N4  UNL     1       4.111  -0.069   0.533  1.00  0.00     0.096 N 
HETATM   21  C8  UNL     1       4.555   1.257   0.301  1.00  0.00     0.273 C 
HETATM   22  C9  UNL     1       6.014   1.485   0.617  1.00  0.00     0.030 C 
HETATM   23  C10 UNL     1       6.869   0.284   0.387  1.00  0.00     0.003 C 
HETATM   24  C11 UNL     1       6.232  -0.754  -0.508  1.00  0.00     0.030 C 
HETATM   25  C12 UNL     1       4.848  -1.118  -0.075  1.00  0.00     0.273 C 
ENDBRANCH  17  20
BRANCH  18  26
HETATM   26  O2  UNL     1       2.491  -1.634   2.203  1.00  0.00    -0.392 OA
ATOM     27  H2  UNL     1       2.244  -2.511   2.472  1.00  0.00     0.210 HD
ENDBRANCH  18  26
ENDBRANCH  13  14
ENDBRANCH  10  13
ENDBRANCH   3   9
TORSDOF 5
