REMARK  6 active torsions:
REMARK  status: ('A' for Active; 'I' for Inactive)
REMARK       I    between atoms: C2_2  and  N1_4 
REMARK    1  A    between atoms: N1_4  and  C3_6 
REMARK    2  A    between atoms: C3_6  and  C4_7 
REMARK    3  A    between atoms: C4_7  and  N2_8 
REMARK    4  A    between atoms: C5_9  and  N3_10 
REMARK    5  A    between atoms: N3_10  and  C6_12 
REMARK    6  A    between atoms: C8_22  and  N9_23 
ROOT
HETATM    1  N2  UNL     1      -0.324   0.317  -0.022  1.00  0.00    -0.164 N 
HETATM    2  C5  UNL     1      -1.420   0.106  -0.768  1.00  0.00     0.701 A 
HETATM    3  N8  UNL     1      -2.355   1.064  -0.497  1.00  0.00    -0.183 N 
ATOM      4  H8  UNL     1      -3.279   1.143  -0.921  1.00  0.00     0.184 HD
HETATM    5  C7  UNL     1      -1.833   1.883   0.432  1.00  0.00     0.137 A 
HETATM    6  C8  UNL     1      -2.315   2.996   1.066  1.00  0.00     0.131 A 
HETATM    7  N10 UNL     1      -1.548   3.626   1.974  1.00  0.00    -0.337 N 
ATOM      8  H10 UNL     1      -1.910   4.455   2.446  1.00  0.00     0.168 HD
HETATM    9  C9  UNL     1      -0.307   3.183   2.274  1.00  0.00     0.183 A 
HETATM   10  N11 UNL     1       0.157   2.083   1.641  1.00  0.00    -0.336 N 
ATOM     11  H11 UNL     1       1.094   1.749   1.869  1.00  0.00     0.168 HD
HETATM   12  C10 UNL     1      -0.559   1.408   0.725  1.00  0.00     0.155 A 
ENDROOT
BRANCH   2  13
HETATM   13  N3  UNL     1      -1.574  -0.965  -1.705  1.00  0.00    -0.020 N 
ATOM     14  H3  UNL     1      -0.909  -1.064  -2.472  1.00  0.00     0.203 HD
BRANCH  13  15
HETATM   15  C6  UNL     1      -2.543  -1.804  -1.589  1.00  0.00     0.722 A 
HETATM   16  N4  UNL     1      -3.522  -1.846  -0.653  1.00  0.00    -0.116 N 
HETATM   17  N5  UNL     1      -4.282  -2.887  -0.952  1.00  0.00     0.006 NA
ATOM     18  H4  UNL     1      -3.648  -1.202   0.128  1.00  0.00     0.202 HD
HETATM   19  N6  UNL     1      -3.824  -3.498  -2.033  1.00  0.00     0.006 NA
HETATM   20  N7  UNL     1      -2.746  -2.826  -2.427  1.00  0.00    -0.116 N 
ATOM     21  H7  UNL     1      -2.168  -3.053  -3.236  1.00  0.00     0.202 HD
ENDBRANCH  13  15
ENDBRANCH   2  13
BRANCH   1  22
HETATM   22  C4  UNL     1       0.874  -0.454  -0.006  1.00  0.00     0.169 C 
BRANCH  22  23
HETATM   23  C3  UNL     1       1.869   0.052  -1.007  1.00  0.00     0.143 C 
BRANCH  23  24
HETATM   24  N1  UNL     1       3.094  -0.682  -1.042  1.00  0.00    -0.360 N 
HETATM   25  C2  UNL     1       3.987  -0.839   0.021  1.00  0.00     0.213 C 
HETATM   26  C1  UNL     1       5.233  -1.624  -0.119  1.00  0.00     0.117 C 
HETATM   27  O1  UNL     1       3.741  -0.307   1.128  1.00  0.00    -0.274 OA
ATOM     28  H1  UNL     1       3.339  -1.133  -1.924  1.00  0.00     0.162 HD
ENDBRANCH  23  24
ENDBRANCH  22  23
ENDBRANCH   1  22
BRANCH   6  29
HETATM   29  N9  UNL     1      -3.496   3.410   0.774  1.00  0.00    -0.383 N 
ATOM     30  H92 UNL     1      -4.078   2.932   0.086  1.00  0.00     0.157 HD
ATOM     31  H91 UNL     1      -3.855   4.240   1.247  1.00  0.00     0.157 HD
ENDBRANCH   6  29
TORSDOF 6
