REMARK  12 active torsions:
REMARK  status: ('A' for Active; 'I' for Inactive)
REMARK    1  A    between atoms: C2_5  and  C3_6 
REMARK    2  A    between atoms: C3_6  and  C4_7 
REMARK    3  A    between atoms: C4_7  and  C5_8 
REMARK    4  A    between atoms: C5_8  and  C6_9 
REMARK    5  A    between atoms: C6_9  and  C7_10 
REMARK    6  A    between atoms: C7_10  and  C8_11 
REMARK    7  A    between atoms: C10_14  and  N3_15 
REMARK    8  A    between atoms: N3_15  and  C11_17 
REMARK    9  A    between atoms: C12_19  and  C13_20 
REMARK   10  A    between atoms: C13_20  and  O2_21 
REMARK   11  A    between atoms: C14_23  and  O3_24 
REMARK   12  A    between atoms: C15_26  and  O4_27 
ROOT
HETATM    1  N1  UNL     1      -0.318  -4.128  -0.159  1.00  0.00    -0.081 NA
HETATM    2  C1  UNL     1      -0.186  -2.714  -0.107  1.00  0.00     0.143 A 
HETATM    3  N2  UNL     1       0.991  -2.104   0.103  1.00  0.00    -0.347 N 
ATOM      4  H2  UNL     1       1.826  -2.676   0.231  1.00  0.00     0.167 HD
HETATM    5  C2  UNL     1       1.109  -0.769   0.151  1.00  0.00     0.012 A 
HETATM    6  C9  UNL     1       0.022   0.040  -0.014  1.00  0.00     0.056 A 
HETATM    7  C10 UNL     1      -1.263  -0.520  -0.241  1.00  0.00     0.059 A 
HETATM    8  C16 UNL     1      -1.306  -1.889  -0.277  1.00  0.00     0.114 A 
HETATM    9  N4  UNL     1      -2.533  -2.592  -0.499  1.00  0.00    -0.096 NA
ENDROOT
BRANCH   7  10
HETATM   10  N3  UNL     1      -2.243   0.248  -0.389  1.00  0.00    -0.360 N 
ATOM     11  H3  UNL     1      -1.970   1.229  -0.323  1.00  0.00     0.162 HD
BRANCH  10  12
HETATM   12  C11 UNL     1      -3.614   0.104  -0.621  1.00  0.00     0.253 C 
HETATM   13  O1  UNL     1      -4.071   1.313  -1.199  1.00  0.00    -0.354 OA
HETATM   14  C12 UNL     1      -4.343   2.093  -0.079  1.00  0.00     0.179 C 
HETATM   15  C14 UNL     1      -5.313   1.143   0.644  1.00  0.00     0.182 C 
HETATM   16  C15 UNL     1      -4.442  -0.112   0.629  1.00  0.00     0.198 C 
BRANCH  14  17
HETATM   17  C13 UNL     1      -5.023   3.386  -0.430  1.00  0.00     0.198 C 
BRANCH  17  18
HETATM   18  O2  UNL     1      -6.227   3.215  -1.066  1.00  0.00    -0.398 OA
ATOM     19  H2  UNL     1      -6.657   4.033  -1.288  1.00  0.00     0.209 HD
ENDBRANCH  17  18
ENDBRANCH  14  17
BRANCH  15  20
HETATM   20  O3  UNL     1      -6.421   0.888  -0.154  1.00  0.00    -0.390 OA
ATOM     21  H3  UNL     1      -7.020   0.301   0.293  1.00  0.00     0.210 HD
ENDBRANCH  15  20
BRANCH  16  22
HETATM   22  O4  UNL     1      -3.559  -0.043   1.720  1.00  0.00    -0.389 OA
ATOM     23  H4  UNL     1      -4.078  -0.178   2.504  1.00  0.00     0.210 HD
ENDBRANCH  16  22
ENDBRANCH  10  12
ENDBRANCH   7  10
BRANCH   5  24
HETATM   24  C3  UNL     1       2.454  -0.167   0.389  1.00  0.00     0.057 C 
BRANCH  24  25
HETATM   25  C4  UNL     1       3.500  -1.228   0.540  1.00  0.00     0.006 C 
BRANCH  25  26
HETATM   26  C5  UNL     1       4.852  -0.642   0.781  1.00  0.00     0.000 C 
BRANCH  26  27
HETATM   27  C6  UNL     1       5.342   0.259  -0.325  1.00  0.00     0.001 C 
BRANCH  27  28
HETATM   28  C7  UNL     1       6.714   0.768   0.063  1.00  0.00     0.011 C 
BRANCH  28  29
HETATM   29  C8  UNL     1       7.260   1.694  -1.032  1.00  0.00     0.085 C 
HETATM   30 BR1  UNL     1       6.092   3.198  -1.282  1.00  0.00    -0.097 Br
ENDBRANCH  28  29
ENDBRANCH  27  28
ENDBRANCH  26  27
ENDBRANCH  25  26
ENDBRANCH  24  25
ENDBRANCH   5  24
TORSDOF 12
