REMARK  7 active torsions:
REMARK  status: ('A' for Active; 'I' for Inactive)
REMARK       I    between atoms: C1_4  and  N2_5 
REMARK       I    between atoms: C1_4  and  N5_14 
REMARK    1  A    between atoms: N2_5  and  N3_7 
REMARK    2  A    between atoms: N3_7  and  C2_8 
REMARK    3  A    between atoms: C2_8  and  C3_9 
REMARK    4  A    between atoms: C3_9  and  N4_10 
REMARK       I    between atoms: N5_14  and  C4_16 
REMARK    5  A    between atoms: C4_16  and  C5_18 
REMARK    6  A    between atoms: C5_18  and  O2_19 
REMARK    7  A    between atoms: C13_34  and  N8_35 
ROOT
HETATM    1  C5  UNL     1      -0.188   0.560   0.372  1.00  0.00     0.143 C 
HETATM    2  C6  UNL     1      -0.425  -0.034  -1.021  1.00  0.00     0.067 C 
HETATM    3  C7  UNL     1      -1.142  -1.328  -0.869  1.00  0.00     0.117 C 
HETATM    4  N6  UNL     1      -1.704  -1.844  -2.086  1.00  0.00    -0.419 N 
ATOM      5  H6  UNL     1      -1.353  -2.694  -2.527  1.00  0.00     0.153 HD
HETATM    6  C8  UNL     1      -2.775  -1.100  -2.636  1.00  0.00     0.140 C 
HETATM    7  C9  UNL     1      -4.118  -1.336  -2.022  1.00  0.00     0.186 C 
HETATM    8  O3  UNL     1      -4.209  -1.055  -0.688  1.00  0.00    -0.388 OA
HETATM    9  C10 UNL     1      -5.196  -0.143  -0.420  1.00  0.00     0.187 C 
HETATM   10  C11 UNL     1      -5.042   0.610   0.857  1.00  0.00     0.148 C 
HETATM   11  N7  UNL     1      -3.803   0.455   1.537  1.00  0.00    -0.357 N 
ATOM     12  H7  UNL     1      -3.646  -0.459   1.962  1.00  0.00     0.162 HD
HETATM   13  C12 UNL     1      -2.762   1.391   1.705  1.00  0.00     0.248 C 
HETATM   14  O4  UNL     1      -2.289   1.601   2.884  1.00  0.00    -0.271 OA
HETATM   15  C13 UNL     1      -2.117   2.197   0.654  1.00  0.00     0.278 C 
HETATM   16  C14 UNL     1      -0.673   1.980   0.451  1.00  0.00     0.090 C 
ENDROOT
BRANCH   1  17
HETATM   17  C4  UNL     1       1.283   0.636   0.542  1.00  0.00     0.270 C 
HETATM   18  N5  UNL     1       1.911  -0.032   1.611  1.00  0.00    -0.156 N 
HETATM   19  C1  UNL     1       3.315   0.009   1.815  1.00  0.00     0.690 C 
ATOM     20  H5  UNL     1       1.335  -0.565   2.263  1.00  0.00     0.187 HD
HETATM   21  N1  UNL     1       3.850  -0.613   2.806  1.00  0.00    -0.234 N 
HETATM   22  N2  UNL     1       4.163   0.732   0.936  1.00  0.00    -0.137 N 
ATOM     23  H12 UNL     1       4.859  -0.584   2.953  1.00  0.00     0.174 HD
ATOM     24  H11 UNL     1       3.241  -1.133   3.438  1.00  0.00     0.174 HD
ATOM     25  H2  UNL     1       4.287   1.738   1.048  1.00  0.00     0.201 HD
HETATM   26  O1  UNL     1       1.942   1.305  -0.286  1.00  0.00    -0.269 OA
BRANCH  22  27
HETATM   27  N3  UNL     1       4.819   0.053  -0.074  1.00  0.00    -0.125 NA
BRANCH  27  28
HETATM   28  C2  UNL     1       5.775  -0.916   0.386  1.00  0.00     0.162 C 
BRANCH  28  29
HETATM   29  C3  UNL     1       6.453  -1.606  -0.803  1.00  0.00     0.247 C 
BRANCH  29  30
HETATM   30  N4  UNL     1       7.132  -0.582  -1.596  1.00  0.00    -0.078 N 
ATOM     31  H43 UNL     1       6.508   0.173  -1.882  1.00  0.00     0.274 HD
ATOM     32  H42 UNL     1       7.781  -0.022  -1.043  1.00  0.00     0.274 HD
ATOM     33  H41 UNL     1       7.583  -1.041  -2.387  1.00  0.00     0.274 HD
ENDBRANCH  29  30
ENDBRANCH  28  29
ENDBRANCH  27  28
ENDBRANCH  22  27
ENDBRANCH   1  17
BRANCH   1  34
HETATM   34  O2  UNL     1      -0.686  -0.245   1.368  1.00  0.00    -0.380 OA
ATOM     35  H2  UNL     1      -1.628  -0.294   1.259  1.00  0.00     0.211 HD
ENDBRANCH   1  34
BRANCH  15  36
HETATM   36  N8  UNL     1      -2.808   2.204  -0.607  1.00  0.00    -0.066 N 
ATOM     37  H83 UNL     1      -2.957   1.249  -0.934  1.00  0.00     0.275 HD
ATOM     38  H82 UNL     1      -3.776   2.499  -0.479  1.00  0.00     0.275 HD
ATOM     39  H81 UNL     1      -2.361   2.762  -1.335  1.00  0.00     0.275 HD
ENDBRANCH  15  36
TORSDOF 7
