REMARK  11 active torsions:
REMARK  status: ('A' for Active; 'I' for Inactive)
REMARK    1  A    between atoms: N1_2  and  C2_4 
REMARK    2  A    between atoms: C2_4  and  N2_6 
REMARK    3  A    between atoms: N2_6  and  C3_8 
REMARK    4  A    between atoms: C4_11  and  O1_12 
REMARK    5  A    between atoms: O1_12  and  C5_13 
REMARK    6  A    between atoms: C7_15  and  N4_16 
REMARK    7  A    between atoms: C8_20  and  N5_21 
REMARK    8  A    between atoms: C10_26  and  N6_27 
REMARK    9  A    between atoms: C11_31  and  N7_32 
REMARK   10  A    between atoms: C13_37  and  N8_38 
REMARK   11  A    between atoms: C14_42  and  O2_43 
ROOT
HETATM    1  C3  UNL     1       2.430  -0.021   0.108  1.00  0.00     0.212 C 
HETATM    2  N3  UNL     1       1.097   0.349  -0.070  1.00  0.00    -0.372 N 
ATOM      3  H3  UNL     1       0.868   1.318  -0.293  1.00  0.00     0.158 HD
HETATM    4  C4  UNL     1       0.005  -0.652   0.061  1.00  0.00     0.249 C 
HETATM    5  C11 UNL     1       0.570  -1.813   0.642  1.00  0.00     0.233 C 
HETATM    6  C12 UNL     1       1.367  -2.985   0.846  1.00  0.00     0.072 C 
HETATM    7  C13 UNL     1       2.832  -2.446   0.991  1.00  0.00     0.217 C 
HETATM    8  C14 UNL     1       3.086  -1.280   0.065  1.00  0.00     0.190 C 
ENDROOT
BRANCH   4   9
HETATM    9  O1  UNL     1      -0.917  -0.045   0.929  1.00  0.00    -0.358 OA
BRANCH   9  10
HETATM   10  C5  UNL     1      -2.135   0.251   0.360  1.00  0.00     0.156 C 
HETATM   11  C6  UNL     1      -2.257   1.753   0.317  1.00  0.00     0.069 C 
HETATM   12  C7  UNL     1      -3.632   2.143  -0.169  1.00  0.00     0.216 C 
HETATM   13  C8  UNL     1      -4.589   1.679   0.885  1.00  0.00     0.215 C 
HETATM   14  C9  UNL     1      -4.518   0.247   1.228  1.00  0.00     0.070 C 
HETATM   15  C10 UNL     1      -3.233  -0.450   1.063  1.00  0.00     0.214 C 
BRANCH  12  16
HETATM   16  N4  UNL     1      -3.920   1.644  -1.482  1.00  0.00    -0.073 N 
ATOM     17  H43 UNL     1      -3.202   1.931  -2.147  1.00  0.00     0.274 HD
ATOM     18  H42 UNL     1      -3.791   0.633  -1.525  1.00  0.00     0.274 HD
ATOM     19  H41 UNL     1      -4.849   1.908  -1.810  1.00  0.00     0.274 HD
ENDBRANCH  12  16
BRANCH  13  20
HETATM   20  N5  UNL     1      -5.955   2.076   0.521  1.00  0.00    -0.073 N 
ATOM     21  H53 UNL     1      -6.031   3.078   0.347  1.00  0.00     0.274 HD
ATOM     22  H52 UNL     1      -6.217   1.746  -0.408  1.00  0.00     0.274 HD
ATOM     23  H51 UNL     1      -6.607   1.760   1.239  1.00  0.00     0.274 HD
ENDBRANCH  13  20
BRANCH  15  24
HETATM   24  N6  UNL     1      -3.422  -1.772   0.437  1.00  0.00    -0.072 N 
ATOM     25  H63 UNL     1      -3.578  -1.710  -0.569  1.00  0.00     0.274 HD
ATOM     26  H62 UNL     1      -2.562  -2.319   0.411  1.00  0.00     0.274 HD
ATOM     27  H61 UNL     1      -4.179  -2.255   0.921  1.00  0.00     0.274 HD
ENDBRANCH  15  24
ENDBRANCH   9  10
ENDBRANCH   4   9
BRANCH   5  28
HETATM   28  N7  UNL     1       0.949  -1.215   1.870  1.00  0.00    -0.071 N 
ATOM     29  H73 UNL     1       1.539  -0.384   1.821  1.00  0.00     0.274 HD
ATOM     30  H72 UNL     1       0.221  -0.736   2.400  1.00  0.00     0.274 HD
ATOM     31  H71 UNL     1       1.356  -2.051   2.289  1.00  0.00     0.274 HD
ENDBRANCH   5  28
BRANCH   1  32
HETATM   32  N2  UNL     1       3.163   0.869  -0.796  1.00  0.00    -0.344 N 
ATOM     33  H2  UNL     1       2.824   0.916  -1.757  1.00  0.00     0.164 HD
BRANCH  32  34
HETATM   34  C2  UNL     1       4.270   1.659  -0.493  1.00  0.00     0.168 C 
HETATM   35  S1  UNL     1       4.828   1.707   1.046  1.00  0.00    -0.041 SA
BRANCH  34  36
HETATM   36  N1  UNL     1       4.923   2.476  -1.469  1.00  0.00    -0.372 N 
HETATM   37  C1  UNL     1       4.384   2.454  -2.814  1.00  0.00     0.148 C 
ATOM     38  H1  UNL     1       5.732   3.049  -1.229  1.00  0.00     0.161 HD
ENDBRANCH  34  36
ENDBRANCH  32  34
ENDBRANCH   1  32
BRANCH   8  39
HETATM   39  O2  UNL     1       4.471  -1.105   0.111  1.00  0.00    -0.390 OA
ATOM     40  H2  UNL     1       4.910  -1.947   0.082  1.00  0.00     0.210 HD
ENDBRANCH   8  39
BRANCH   7  41
HETATM   41  N8  UNL     1       3.769  -3.487   0.643  1.00  0.00    -0.072 N 
ATOM     42  H83 UNL     1       3.617  -4.338   1.185  1.00  0.00     0.274 HD
ATOM     43  H82 UNL     1       3.591  -3.870  -0.285  1.00  0.00     0.274 HD
ATOM     44  H81 UNL     1       4.722  -3.136   0.737  1.00  0.00     0.274 HD
ENDBRANCH   7  41
TORSDOF 11
