REMARK  4 active torsions:
REMARK  status: ('A' for Active; 'I' for Inactive)
REMARK    1  A    between atoms: C2_2  and  N1_3 
REMARK    2  A    between atoms: C2_2  and  C8_10 
REMARK       I    between atoms: N1_3  and  C3_4 
REMARK    3  A    between atoms: C3_4  and  C4_6 
REMARK       I    between atoms: C8_10  and  N2_12 
REMARK    4  A    between atoms: N2_12  and  C9_14 
REMARK       I    between atoms: N3_17  and  C12_18 
ROOT
HETATM    1  C8  UNL     1      -0.354  -0.034  -0.270  1.00  0.00     0.253 C 
HETATM    2  O2  UNL     1      -0.972  -1.092  -0.057  1.00  0.00    -0.270 OA
HETATM    3  N2  UNL     1       1.023   0.069  -0.156  1.00  0.00    -0.354 N 
ATOM      4  H2  UNL     1       1.456   0.980  -0.312  1.00  0.00     0.163 HD
ENDROOT
BRANCH   3   5
HETATM    5  C9  UNL     1       1.891  -1.069   0.178  1.00  0.00     0.087 C 
HETATM    6  C10 UNL     1       2.696  -0.830   1.392  1.00  0.00     0.045 C 
HETATM    7  C11 UNL     1       3.769  -1.885   1.584  1.00  0.00     0.127 C 
HETATM    8  N3  UNL     1       4.456  -2.192   0.363  1.00  0.00    -0.356 N 
HETATM    9  C12 UNL     1       5.843  -2.325   0.326  1.00  0.00     0.183 C 
HETATM   10  C13 UNL     1       3.715  -2.355  -0.882  1.00  0.00     0.127 C 
HETATM   11  N4  UNL     1       6.533  -2.866  -0.585  1.00  0.00    -0.374 N 
HETATM   12  N5  UNL     1       6.651  -1.896   1.481  1.00  0.00    -0.064 NA
ATOM     13  H42 UNL     1       5.974  -3.163  -1.385  1.00  0.00     0.158 HD
ATOM     14  H41 UNL     1       7.548  -2.963  -0.612  1.00  0.00     0.158 HD
HETATM   15  C14 UNL     1       2.742  -1.231  -1.073  1.00  0.00     0.045 C 
ENDBRANCH   3   5
BRANCH   1  16
HETATM   16  C2  UNL     1      -1.231   1.175  -0.682  1.00  0.00     0.254 C 
HETATM   17  C1  UNL     1      -0.757   2.264   0.243  1.00  0.00     0.058 C 
BRANCH  16  18
HETATM   18  N1  UNL     1      -2.530   0.824  -0.742  1.00  0.00    -0.400 NA
HETATM   19  C3  UNL     1      -3.867   0.461  -0.804  1.00  0.00     0.295 C 
HETATM   20  O1  UNL     1      -4.409  -0.585  -1.163  1.00  0.00    -0.257 OA
BRANCH  19  21
HETATM   21  C4  UNL     1      -4.892   1.536  -0.356  1.00  0.00     0.043 C 
HETATM   22  C5  UNL     1      -4.526   2.106   1.001  1.00  0.00     0.026 C 
HETATM   23  C6  UNL     1      -6.237   0.860  -0.161  1.00  0.00     0.026 C 
HETATM   24  C7  UNL     1      -5.030   2.606  -1.403  1.00  0.00     0.026 C 
ENDBRANCH  19  21
ENDBRANCH  16  18
ENDBRANCH   1  16
TORSDOF 4
