REMARK  3 active torsions:
REMARK  status: ('A' for Active; 'I' for Inactive)
REMARK    1  A    between atoms: C4_4  and  O1_6 
REMARK    2  A    between atoms: C9_11  and  O2_12 
REMARK    3  A    between atoms: C11_17  and  O3_18 
ROOT
HETATM    1  C1  UNL     1      -2.235   2.321   0.179  1.00  0.00     0.014 C 
HETATM    2  C2  UNL     1      -1.643   1.228  -0.710  1.00  0.00     0.029 C 
HETATM    3  C3  UNL     1      -2.645   0.117  -0.766  1.00  0.00     0.045 C 
HETATM    4  C4  UNL     1      -1.912  -1.171  -0.434  1.00  0.00     0.061 C 
HETATM    5  C5  UNL     1      -2.376  -1.790   0.844  1.00  0.00     0.046 C 
HETATM    6  C6  UNL     1      -0.475  -0.824  -0.486  1.00  0.00     0.065 C 
HETATM    7  C7  UNL     1       0.404  -1.550   0.476  1.00  0.00     0.020 C 
HETATM    8  C8  UNL     1       1.805  -1.017   0.309  1.00  0.00     0.046 C 
HETATM    9  C9  UNL     1       2.296  -1.389  -1.072  1.00  0.00     0.214 C 
HETATM   10  N1  UNL     1       2.400  -0.127  -1.778  1.00  0.00    -0.196 NA
HETATM   11  C10 UNL     1       2.741   0.799  -0.832  1.00  0.00     0.182 A 
HETATM   12  N2  UNL     1       1.477   0.859  -1.603  1.00  0.00    -0.187 NA
HETATM   13  C11 UNL     1       0.852   1.206  -0.386  1.00  0.00     0.176 C 
HETATM   14  C12 UNL     1       1.916   0.459   0.379  1.00  0.00     0.044 C 
HETATM   15  C13 UNL     1       2.346   1.033   1.675  1.00  0.00     0.023 C 
HETATM   16  C14 UNL     1      -0.467   0.634  -0.048  1.00  0.00     0.160 C 
HETATM   17  F1  UNL     1      -0.614   0.690   1.341  1.00  0.00    -0.237 F 
ENDROOT
BRANCH   4  18
HETATM   18  O1  UNL     1      -2.254  -2.075  -1.469  1.00  0.00    -0.390 OA
ATOM     19  H1  UNL     1      -1.795  -2.881  -1.261  1.00  0.00     0.210 HD
ENDBRANCH   4  18
BRANCH  13  20
HETATM   20  O3  UNL     1       0.999   2.582  -0.142  1.00  0.00    -0.370 OA
ATOM     21  H3  UNL     1       0.578   2.816   0.677  1.00  0.00     0.212 HD
ENDBRANCH  13  20
BRANCH   9  22
HETATM   22  O2  UNL     1       3.606  -1.865  -0.914  1.00  0.00    -0.379 OA
ATOM     23  H2  UNL     1       3.914  -2.099  -1.782  1.00  0.00     0.211 HD
ENDBRANCH   9  22
TORSDOF 3
