REMARK  1 active torsions:
REMARK  status: ('A' for Active; 'I' for Inactive)
REMARK       I    between atoms: N2_3  and  C2_5 
REMARK       I    between atoms: C2_5  and  N4_9 
REMARK       I    between atoms: N5_14  and  C7_15 
REMARK    1  A    between atoms: C10_20  and  O2_21 
ROOT
HETATM    1  N1  UNL     1      -6.761   0.850   0.125  1.00  0.00    -0.171 NA
HETATM    2  C1  UNL     1      -5.600   1.025   0.128  1.00  0.00     0.196 C 
HETATM    3  N2  UNL     1      -4.218   1.245   0.152  1.00  0.00    -0.124 N 
ATOM      4  H2  UNL     1      -3.844   2.005   0.720  1.00  0.00     0.197 HD
HETATM    5  C2  UNL     1      -3.324   0.433  -0.597  1.00  0.00     0.715 C 
HETATM    6  N3  UNL     1      -3.700  -0.111  -1.705  1.00  0.00    -0.053 N 
ATOM      7  H3  UNL     1      -3.041  -0.689  -2.226  1.00  0.00     0.218 HD
HETATM    8  F1  UNL     1      -4.944   0.068  -2.189  1.00  0.00    -0.086 F 
HETATM    9  N4  UNL     1      -2.016   0.212  -0.141  1.00  0.00    -0.187 N 
HETATM   10  C3  UNL     1      -0.748   0.842  -0.395  1.00  0.00     0.158 C 
HETATM   11  C4  UNL     1      -0.020  -0.325   0.196  1.00  0.00     0.024 C 
HETATM   12  C5  UNL     1       0.952   0.028   1.283  1.00  0.00     0.035 C 
HETATM   13  C6  UNL     1       2.314  -0.523   0.971  1.00  0.00     0.128 C 
HETATM   14  N5  UNL     1       2.651  -0.169  -0.401  1.00  0.00    -0.336 N 
HETATM   15  C7  UNL     1       3.820   0.582  -0.686  1.00  0.00     0.330 C 
HETATM   16  N6  UNL     1       4.676   0.999   0.362  1.00  0.00    -0.040 NA
HETATM   17  O1  UNL     1       4.084   0.870  -1.862  1.00  0.00    -0.251 OA
HETATM   18  C8  UNL     1       1.762  -0.605  -1.456  1.00  0.00     0.128 C 
HETATM   19  C9  UNL     1       0.578  -1.294  -0.793  1.00  0.00     0.035 C 
HETATM   20  C10 UNL     1      -1.356  -0.699   0.749  1.00  0.00     0.248 C 
ENDROOT
BRANCH  20  21
HETATM   21  O2  UNL     1      -1.694  -2.042   0.588  1.00  0.00    -0.375 OA
ATOM     22  H2  UNL     1      -1.257  -2.645   1.177  1.00  0.00     0.212 HD
ENDBRANCH  20  21
TORSDOF 1
