REMARK  11 active torsions:
REMARK  status: ('A' for Active; 'I' for Inactive)
REMARK    1  A    between atoms: C2_2  and  N1_3 
REMARK    2  A    between atoms: C2_2  and  C3_7 
REMARK       I    between atoms: C3_7  and  N2_9 
REMARK    3  A    between atoms: C7_14  and  C8_15 
REMARK       I    between atoms: C8_15  and  N3_17 
REMARK    4  A    between atoms: N3_17  and  C9_19 
REMARK    5  A    between atoms: C9_19  and  C10_20 
REMARK    6  A    between atoms: C9_19  and  C16_28 
REMARK    7  A    between atoms: C10_20  and  C11_21 
REMARK       I    between atoms: C11_21  and  N4_23 
REMARK    8  A    between atoms: N4_23  and  C13_25 
REMARK       I    between atoms: C16_28  and  N5_30 
REMARK    9  A    between atoms: N5_30  and  C17_32 
REMARK       I    between atoms: N7_37  and  C21_38 
REMARK   10  A    between atoms: C21_38  and  O6_40 
REMARK   11  A    between atoms: O6_40  and  C22_41 
ROOT
HETATM    1  C9  UNL     1      -1.530   0.220   0.375  1.00  0.00     0.185 C 
ENDROOT
BRANCH   1   2
HETATM    2  N3  UNL     1      -2.567  -0.527   1.150  1.00  0.00    -0.346 N 
HETATM    3  C8  UNL     1      -3.471  -1.415   0.448  1.00  0.00     0.241 C 
HETATM    4  O2  UNL     1      -3.334  -1.506  -0.790  1.00  0.00    -0.271 OA
ATOM      5  H3  UNL     1      -2.637  -0.413   2.161  1.00  0.00     0.163 HD
BRANCH   3   6
HETATM    6  C7  UNL     1      -4.451  -2.119   1.213  1.00  0.00     0.182 C 
HETATM    7  N2  UNL     1      -5.690  -2.543   0.656  1.00  0.00    -0.334 N 
HETATM    8  C3  UNL     1      -6.375  -2.337  -0.549  1.00  0.00     0.251 C 
HETATM    9  C4  UNL     1      -6.239  -3.366   1.780  1.00  0.00     0.164 C 
HETATM   10  O1  UNL     1      -5.902  -1.644  -1.474  1.00  0.00    -0.271 OA
HETATM   11  C5  UNL     1      -6.019  -2.445   2.941  1.00  0.00     0.190 C 
HETATM   12  F1  UNL     1      -7.121  -1.804   3.405  1.00  0.00    -0.248 F 
HETATM   13  C6  UNL     1      -4.958  -1.422   2.476  1.00  0.00     0.074 C 
BRANCH   8  14
HETATM   14  C2  UNL     1      -7.722  -2.929  -0.822  1.00  0.00     0.271 C 
HETATM   15  C1  UNL     1      -8.795  -2.293   0.063  1.00  0.00     0.050 C 
BRANCH  14  16
HETATM   16  N1  UNL     1      -8.061  -2.694  -2.228  1.00  0.00    -0.067 N 
ATOM     17  H13 UNL     1      -8.999  -3.020  -2.461  1.00  0.00     0.275 HD
ATOM     18  H12 UNL     1      -8.198  -1.704  -2.434  1.00  0.00     0.275 HD
ATOM     19  H11 UNL     1      -7.345  -3.118  -2.818  1.00  0.00     0.275 HD
ENDBRANCH  14  16
ENDBRANCH   8  14
ENDBRANCH   3   6
ENDBRANCH   1   2
BRANCH   1  20
HETATM   20  C10 UNL     1      -2.051   1.641   0.258  1.00  0.00     0.138 C 
BRANCH  20  21
HETATM   21  C11 UNL     1      -1.198   2.560  -0.486  1.00  0.00     0.222 C 
HETATM   22  O3  UNL     1      -0.163   2.157  -1.058  1.00  0.00    -0.273 OA
HETATM   23  N4  UNL     1      -1.510   3.961  -0.593  1.00  0.00    -0.352 N 
HETATM   24  C12 UNL     1      -2.701   4.436   0.069  1.00  0.00     0.153 C 
BRANCH  23  25
HETATM   25  C13 UNL     1      -0.689   4.872  -1.321  1.00  0.00     0.078 C 
HETATM   26  C14 UNL     1       0.712   4.994  -0.759  1.00  0.00     0.032 C 
HETATM   27  C15 UNL     1      -0.583   4.558  -2.804  1.00  0.00     0.032 C 
ENDBRANCH  23  25
ENDBRANCH  20  21
ENDBRANCH   1  20
BRANCH   1  28
HETATM   28  C16 UNL     1      -0.255   0.150   1.093  1.00  0.00     0.241 C 
HETATM   29  O4  UNL     1      -0.209   0.334   2.367  1.00  0.00    -0.271 OA
HETATM   30  N5  UNL     1       0.991  -0.117   0.475  1.00  0.00    -0.344 N 
ATOM     31  H5  UNL     1       1.015  -0.289  -0.530  1.00  0.00     0.163 HD
BRANCH  30  32
HETATM   32  C17 UNL     1       2.234  -0.155   1.220  1.00  0.00     0.207 C 
HETATM   33  C18 UNL     1       2.939  -1.495   1.154  1.00  0.00     0.299 C 
HETATM   34  N6  UNL     1       4.367  -1.142   1.260  1.00  0.00     0.020 N 
HETATM   35  C19 UNL     1       4.720  -0.841   2.625  1.00  0.00     0.302 C 
HETATM   36  C20 UNL     1       5.126  -2.277   0.805  1.00  0.00     0.302 C 
HETATM   37  N7  UNL     1       4.438  -0.065   0.403  1.00  0.00    -0.079 N 
HETATM   38  C21 UNL     1       5.446   0.253  -0.564  1.00  0.00     0.395 C 
HETATM   39  C26 UNL     1       3.271   0.736   0.655  1.00  0.00     0.278 C 
HETATM   40  O5  UNL     1       5.326   1.294  -1.273  1.00  0.00    -0.236 OA
HETATM   41  O7  UNL     1       3.163   1.989   0.427  1.00  0.00    -0.269 OA
BRANCH  38  42
HETATM   42  O6  UNL     1       6.547  -0.535  -0.753  1.00  0.00    -0.292 OA
BRANCH  42  43
HETATM   43  C22 UNL     1       7.579  -0.311  -1.675  1.00  0.00     0.061 C 
HETATM   44  C23 UNL     1       7.116  -0.306  -3.119  1.00  0.00     0.046 C 
HETATM   45  C24 UNL     1       8.659  -1.370  -1.541  1.00  0.00     0.046 C 
HETATM   46  C25 UNL     1       8.233   1.058  -1.456  1.00  0.00     0.046 C 
ENDBRANCH  42  43
ENDBRANCH  38  42
ENDBRANCH  30  32
ENDBRANCH   1  28
TORSDOF 11
