REMARK  8 active torsions:
REMARK  status: ('A' for Active; 'I' for Inactive)
REMARK    1  A    between atoms: C1_4  and  C2_5 
REMARK    2  A    between atoms: C4_7  and  O1_8 
REMARK    3  A    between atoms: C6_11  and  C7_12 
REMARK    4  A    between atoms: C8_13  and  C9_14 
REMARK    5  A    between atoms: C16_21  and  O2_22 
REMARK    6  A    between atoms: C17_24  and  O3_25 
REMARK    7  A    between atoms: C18_27  and  O4_28 
REMARK    8  A    between atoms: C20_31  and  O5_32 
ROOT
HETATM    1  C2  UNL     1      -3.622   2.229   0.085  1.00  0.00     0.015 A 
HETATM    2  C3  UNL     1      -2.366   2.304   0.538  1.00  0.00     0.053 A 
HETATM    3  C4  UNL     1      -1.615   1.129   0.717  1.00  0.00     0.078 A 
HETATM    4  C5  UNL     1      -2.145  -0.108   0.431  1.00  0.00     0.026 A 
HETATM    5  C6  UNL     1      -1.421  -1.229   0.668  1.00  0.00     0.014 A 
HETATM    6  C16 UNL     1      -2.058  -2.503   0.442  1.00  0.00     0.113 A 
HETATM    7  C17 UNL     1      -3.337  -2.560  -0.005  1.00  0.00     0.134 A 
HETATM    8  C18 UNL     1      -4.074  -1.423  -0.259  1.00  0.00     0.115 A 
HETATM    9  C19 UNL     1      -3.479  -0.176  -0.043  1.00  0.00     0.048 A 
HETATM   10  C20 UNL     1      -4.211   0.977  -0.216  1.00  0.00     0.091 A 
ENDROOT
BRANCH   5  11
HETATM   11  C7  UNL     1      -0.002  -1.312   0.842  1.00  0.00     0.015 C 
HETATM   12  C8  UNL     1       1.013  -0.731   0.275  1.00  0.00     0.001 C 
BRANCH  12  13
HETATM   13  C9  UNL     1       2.393  -1.033   0.696  1.00  0.00     0.003 C 
HETATM   14  C10 UNL     1       3.449  -0.473   0.154  1.00  0.00    -0.080 C 
HETATM   15  C11 UNL     1       4.792  -0.833   0.637  1.00  0.00     0.034 C 
HETATM   16  C15 UNL     1       3.197   0.508  -0.936  1.00  0.00     0.034 C 
HETATM   17  C12 UNL     1       5.779   0.268   0.318  1.00  0.00     0.004 C 
HETATM   18  C13 UNL     1       5.706   0.485  -1.181  1.00  0.00     0.001 C 
HETATM   19  C14 UNL     1       4.413   1.169  -1.471  1.00  0.00     0.004 C 
ENDBRANCH  12  13
ENDBRANCH   5  11
BRANCH   6  20
HETATM   20  O2  UNL     1      -1.367  -3.654   0.679  1.00  0.00    -0.357 OA
ATOM     21  H2  UNL     1      -1.787  -4.493   0.530  1.00  0.00     0.217 HD
ENDBRANCH   6  20
BRANCH   3  22
HETATM   22  O1  UNL     1      -0.339   1.313   1.210  1.00  0.00    -0.360 OA
ATOM     23  H1  UNL     1       0.168   0.519   1.331  1.00  0.00     0.217 HD
ENDBRANCH   3  22
BRANCH   7  24
HETATM   24  O3  UNL     1      -3.910  -3.834  -0.208  1.00  0.00    -0.356 OA
ATOM     25  H3  UNL     1      -4.806  -3.874  -0.521  1.00  0.00     0.218 HD
ENDBRANCH   7  24
BRANCH   8  26
HETATM   26  O4  UNL     1      -5.367  -1.530  -0.717  1.00  0.00    -0.357 OA
ATOM     27  H4  UNL     1      -5.875  -0.746  -0.892  1.00  0.00     0.217 HD
ENDBRANCH   8  26
BRANCH  10  28
HETATM   28  O5  UNL     1      -5.476   0.971  -0.665  1.00  0.00    -0.359 OA
ATOM     29  H5  UNL     1      -5.871   0.131  -0.867  1.00  0.00     0.217 HD
ENDBRANCH  10  28
BRANCH   1  30
HETATM   30  C1  UNL     1      -4.411   3.424  -0.108  1.00  0.00     0.094 C 
HETATM   31  N1  UNL     1      -5.615   3.319  -0.544  1.00  0.00    -0.407 N 
ATOM     32  H12 UNL     1      -5.995   2.394  -0.747  1.00  0.00     0.155 HD
ATOM     33  H11 UNL     1      -6.172   4.163  -0.680  1.00  0.00     0.155 HD
ENDBRANCH   1  30
TORSDOF 8
