REMARK  1 active torsions:
REMARK  status: ('A' for Active; 'I' for Inactive)
REMARK       I    between atoms: N1_2  and  C2_4 
REMARK    1  A    between atoms: C2_4  and  C3_6 
ROOT
HETATM    1  C3  UNL     1       1.252   0.818  -0.423  1.00  0.00     0.104 C 
HETATM    2  C4  UNL     1       1.786   2.265  -0.640  1.00  0.00     0.048 C 
HETATM    3  C5  UNL     1       0.701   0.823   0.952  1.00  0.00     0.042 C 
HETATM    4  C6  UNL     1      -0.749   1.235   0.876  1.00  0.00     0.031 C 
HETATM    5  C7  UNL     1      -1.585   0.035   1.196  1.00  0.00     0.236 C 
HETATM    6  N2  UNL     1      -2.310  -0.520   0.128  1.00  0.00    -0.072 N 
HETATM    7  C8  UNL     1      -2.497  -1.949   0.426  1.00  0.00     0.272 C 
HETATM    8  C9  UNL     1      -3.669   0.063   0.180  1.00  0.00     0.272 C 
HETATM    9  C10 UNL     1      -1.861  -0.279  -1.200  1.00  0.00     0.272 C 
HETATM   10  C11 UNL     1      -0.440  -0.530  -1.520  1.00  0.00     0.176 C 
HETATM   11 BR1  UNL     1       0.332  -1.994  -0.541  1.00  0.00    -0.067 Br
HETATM   12  N3  UNL     1       0.310   0.693  -1.490  1.00  0.00    -0.390 N 
ATOM     13  H3  UNL     1       0.179   1.427  -2.186  1.00  0.00     0.155 HD
ENDROOT
BRANCH   1  14
HETATM   14  C2  UNL     1       2.447  -0.035  -0.581  1.00  0.00     0.244 C 
HETATM   15  N1  UNL     1       3.238  -0.444   0.524  1.00  0.00    -0.363 N 
HETATM   16  C1  UNL     1       4.399  -1.280   0.366  1.00  0.00     0.149 C 
ATOM     17  H1  UNL     1       2.975  -0.136   1.460  1.00  0.00     0.162 HD
HETATM   18  O1  UNL     1       2.798  -0.431  -1.717  1.00  0.00    -0.271 OA
ENDBRANCH   1  14
TORSDOF 1
