REMARK  2 active torsions:
REMARK  status: ('A' for Active; 'I' for Inactive)
REMARK    1  A    between atoms: C2_2  and  O1_3 
REMARK    2  A    between atoms: C2_2  and  C3_5 
ROOT
HETATM    1  C3  UNL     1       1.039   0.359  -0.352  1.00  0.00     0.046 C 
HETATM    2  C4  UNL     1      -0.066   1.366  -0.109  1.00  0.00     0.244 C 
HETATM    3  N1  UNL     1      -1.301   0.717  -0.531  1.00  0.00    -0.070 N 
HETATM    4  C5  UNL     1      -2.141   1.682  -1.199  1.00  0.00     0.272 C 
HETATM    5  C6  UNL     1      -1.922   0.189   0.640  1.00  0.00     0.237 C 
HETATM    6  C7  UNL     1      -1.688  -1.292   0.777  1.00  0.00     0.028 C 
HETATM    7  C8  UNL     1      -0.260  -1.683   0.428  1.00  0.00     0.008 C 
HETATM    8  C9  UNL     1       0.338  -0.885  -0.650  1.00  0.00     0.020 C 
HETATM    9  C10 UNL     1      -0.858  -0.331  -1.454  1.00  0.00     0.242 C 
ENDROOT
BRANCH   1  10
HETATM   10  C2  UNL     1       2.100   0.384   0.674  1.00  0.00     0.120 C 
HETATM   11  C1  UNL     1       3.190  -0.633   0.405  1.00  0.00     0.040 C 
BRANCH  10  12
HETATM   12  O1  UNL     1       1.694   0.193   1.976  1.00  0.00    -0.396 OA
ATOM     13  H1  UNL     1       1.010   0.831   2.145  1.00  0.00     0.210 HD
ENDBRANCH  10  12
ENDBRANCH   1  10
TORSDOF 2
