REMARK  3 active torsions:
REMARK  status: ('A' for Active; 'I' for Inactive)
REMARK    1  A    between atoms: C3_5  and  N2_6 
REMARK    2  A    between atoms: N7_19  and  C6_21 
REMARK    3  A    between atoms: C6_21  and  C7_22 
ROOT
HETATM    1  C1  UNL     1       0.906   1.568   0.207  1.00  0.00     0.070 C 
HETATM    2  C2  UNL     1       2.092   0.713   0.141  1.00  0.00     0.040 A 
HETATM    3  N1  UNL     1       3.355   1.215   0.309  1.00  0.00    -0.195 N 
ATOM      4  H1  UNL     1       3.443   2.216   0.484  1.00  0.00     0.184 HD
HETATM    5  C3  UNL     1       4.466   0.508   0.263  1.00  0.00     0.677 A 
HETATM    6  N3  UNL     1       4.458  -0.812   0.041  1.00  0.00    -0.175 N 
ATOM      7  H3  UNL     1       5.322  -1.352   0.007  1.00  0.00     0.186 HD
HETATM    8  C4  UNL     1       3.261  -1.392  -0.135  1.00  0.00     0.152 A 
HETATM    9  N4  UNL     1       3.162  -2.712  -0.364  1.00  0.00    -0.270 N 
ATOM     10  H4  UNL     1       4.012  -3.275  -0.403  1.00  0.00     0.190 HD
HETATM   11  N5  UNL     1       1.998  -3.297  -0.539  1.00  0.00    -0.240 N 
ATOM     12  H5  UNL     1       1.970  -4.302  -0.710  1.00  0.00     0.208 HD
HETATM   13  N6  UNL     1       0.855  -2.618  -0.500  1.00  0.00    -0.270 N 
ATOM     14  H6  UNL     1      -0.033  -3.101  -0.639  1.00  0.00     0.190 HD
HETATM   15  C5  UNL     1       0.874  -1.296  -0.277  1.00  0.00     0.133 A 
HETATM   16  N7  UNL     1      -0.209  -0.633  -0.237  1.00  0.00    -0.370 N 
ATOM     17  H7  UNL     1      -0.150   0.371  -0.065  1.00  0.00     0.161 HD
HETATM   18  C13 UNL     1       2.071  -0.658  -0.090  1.00  0.00     0.078 A 
ENDROOT
BRANCH  16  19
HETATM   19  C6  UNL     1      -1.525  -1.215  -0.421  1.00  0.00     0.160 C 
BRANCH  19  20
HETATM   20  C7  UNL     1      -2.580  -0.208  -0.136  1.00  0.00    -0.041 A 
HETATM   21  C8  UNL     1      -3.068   0.608  -1.152  1.00  0.00     0.009 A 
HETATM   22  C9  UNL     1      -4.047   1.539  -0.873  1.00  0.00     0.001 A 
HETATM   23  C10 UNL     1      -4.565   1.685   0.408  1.00  0.00     0.000 A 
HETATM   24  C11 UNL     1      -4.086   0.878   1.429  1.00  0.00     0.001 A 
HETATM   25  C12 UNL     1      -3.110  -0.044   1.131  1.00  0.00     0.009 A 
ENDBRANCH  19  20
ENDBRANCH  16  19
BRANCH   5  26
HETATM   26  N2  UNL     1       5.642   1.049   0.432  1.00  0.00    -0.234 N 
ATOM     27  H22 UNL     1       5.648   2.055   0.601  1.00  0.00     0.174 HD
ATOM     28  H21 UNL     1       6.502   0.502   0.396  1.00  0.00     0.174 HD
ENDBRANCH   5  26
TORSDOF 3
