REMARK  3 active torsions:
REMARK  status: ('A' for Active; 'I' for Inactive)
REMARK    1  A    between atoms: C4_11  and  N5_12 
REMARK    2  A    between atoms: C5_18  and  N8_19 
REMARK    3  A    between atoms: C6_21  and  C7_22 
ROOT
HETATM    1  N1  UNL     1      -0.265  -4.807   0.478  1.00  0.00    -0.190 NA
HETATM    2  C1  UNL     1      -0.863  -3.823   0.544  1.00  0.00     0.123 C 
HETATM    3  C2  UNL     1      -1.620  -2.597   0.604  1.00  0.00     0.175 A 
HETATM    4  N2  UNL     1      -2.763  -2.562   1.258  1.00  0.00    -0.273 N 
ATOM      5  H2  UNL     1      -3.096  -3.411   1.715  1.00  0.00     0.188 HD
HETATM    6  N3  UNL     1      -3.480  -1.482   1.340  1.00  0.00    -0.129 N 
ATOM      7  H3  UNL     1      -4.362  -1.486   1.853  1.00  0.00     0.205 HD
HETATM    8  C3  UNL     1      -3.051  -0.368   0.747  1.00  0.00     0.735 A 
HETATM    9  N4  UNL     1      -3.581   0.878   0.670  1.00  0.00    -0.018 N 
ATOM     10  H4  UNL     1      -4.462   1.175   1.090  1.00  0.00     0.203 HD
HETATM   11  C4  UNL     1      -2.775   1.640  -0.033  1.00  0.00     0.706 A 
HETATM   12  N6  UNL     1      -1.714   0.884  -0.416  1.00  0.00    -0.109 N 
ATOM     13  H6  UNL     1      -0.921   1.200  -0.974  1.00  0.00     0.207 HD
HETATM   14  N7  UNL     1      -1.892  -0.331   0.063  1.00  0.00    -0.050 N 
HETATM   15  C5  UNL     1      -1.113  -1.436  -0.049  1.00  0.00     0.185 A 
ENDROOT
BRANCH  15  16
HETATM   16  N8  UNL     1      -0.035  -1.573  -0.633  1.00  0.00    -0.347 N 
HETATM   17  C6  UNL     1       0.848  -0.854  -1.367  1.00  0.00     0.101 C 
ATOM     18  H8  UNL     1       0.297  -2.532  -0.531  1.00  0.00     0.167 HD
BRANCH  17  19
HETATM   19  C7  UNL     1       1.838  -0.042  -0.589  1.00  0.00    -0.021 A 
HETATM   20  C8  UNL     1       1.897   0.009   0.767  1.00  0.00     0.013 A 
HETATM   21  C9  UNL     1       2.836   0.778   1.421  1.00  0.00     0.001 A 
HETATM   22  C10 UNL     1       3.743   1.518   0.690  1.00  0.00     0.000 A 
HETATM   23  C11 UNL     1       3.688   1.469  -0.677  1.00  0.00     0.001 A 
HETATM   24  C12 UNL     1       2.746   0.697  -1.302  1.00  0.00     0.013 A 
ENDBRANCH  17  19
ENDBRANCH  15  16
BRANCH  11  25
HETATM   25  N5  UNL     1      -2.883   2.882  -0.354  1.00  0.00    -0.233 N 
ATOM     26  H52 UNL     1      -3.680   3.450  -0.066  1.00  0.00     0.174 HD
ATOM     27  H51 UNL     1      -2.257   3.474  -0.900  1.00  0.00     0.174 HD
ENDBRANCH  11  25
TORSDOF 3
