REMARK  3 active torsions:
REMARK  status: ('A' for Active; 'I' for Inactive)
REMARK    1  A    between atoms: C3_3  and  N1_4 
REMARK    2  A    between atoms: N1_4  and  C4_6 
REMARK    3  A    between atoms: C8_16  and  C9_17 
ROOT
HETATM    1  C1  UNL     1       6.024   1.266   0.559  1.00  0.00     0.014 C 
HETATM    2  C2  UNL     1       5.315   0.449   0.026  1.00  0.00    -0.097 C 
HETATM    3  C3  UNL     1       4.431  -0.536  -0.638  1.00  0.00     0.231 C 
ENDROOT
BRANCH   3   4
HETATM    4  N1  UNL     1       3.135   0.064  -0.756  1.00  0.00    -0.216 N 
ATOM      5  H1  UNL     1       3.077   0.959  -1.243  1.00  0.00     0.178 HD
BRANCH   4   6
HETATM    6  C4  UNL     1       2.043  -0.428  -0.302  1.00  0.00     0.680 A 
HETATM    7  N2  UNL     1       2.053  -1.597   0.345  1.00  0.00    -0.174 N 
HETATM    8  C5  UNL     1       0.890  -2.089   0.809  1.00  0.00     0.149 A 
ATOM      9  H2  UNL     1       2.926  -2.107   0.484  1.00  0.00     0.186 HD
HETATM   10  N3  UNL     1       0.594  -3.236   1.460  1.00  0.00    -0.285 N 
HETATM   11  C7  UNL     1      -0.303  -1.374   0.609  1.00  0.00     0.055 A 
HETATM   12  N4  UNL     1      -0.699  -3.268   1.667  1.00  0.00    -0.309 N 
ATOM     13  H3  UNL     1       1.262  -3.953   1.742  1.00  0.00     0.188 HD
HETATM   14  C6  UNL     1      -1.287  -2.151   1.162  1.00  0.00     0.124 A 
ATOM     15  H4  UNL     1      -1.194  -4.024   2.140  1.00  0.00     0.186 HD
HETATM   16  C8  UNL     1      -0.303  -0.168  -0.058  1.00  0.00     0.076 A 
HETATM   17  N7  UNL     1       0.916   0.274  -0.505  1.00  0.00    -0.190 N 
ATOM     18  H7  UNL     1       0.968   1.161  -1.006  1.00  0.00     0.184 HD
BRANCH  16  19
HETATM   19  C9  UNL     1      -1.500   0.602  -0.352  1.00  0.00     0.009 A 
HETATM   20  C10 UNL     1      -1.511   1.433  -1.484  1.00  0.00     0.101 A 
HETATM   21  N5  UNL     1      -2.528   2.241  -1.798  1.00  0.00    -0.373 N 
HETATM   22  C11 UNL     1      -3.607   2.278  -1.008  1.00  0.00     0.114 A 
ATOM     23  H5  UNL     1      -2.482   2.825  -2.633  1.00  0.00     0.164 HD
HETATM   24  C12 UNL     1      -3.702   1.508   0.125  1.00  0.00     0.062 A 
HETATM   25  N6  UNL     1      -4.826   1.525   0.977  1.00  0.00    -0.101 NA
HETATM   26  C13 UNL     1      -2.617   0.672   0.427  1.00  0.00     0.043 A 
ENDBRANCH  16  19
ENDBRANCH   4   6
ENDBRANCH   3   4
TORSDOF 3
