REMARK  5 active torsions:
REMARK  status: ('A' for Active; 'I' for Inactive)
REMARK    1  A    between atoms: N1_1  and  C1_5 
REMARK    2  A    between atoms: C1_5  and  C2_6 
REMARK    3  A    between atoms: C2_6  and  N2_7 
REMARK    4  A    between atoms: N2_7  and  C3_10 
REMARK    5  A    between atoms: C6_16  and  N4_17 
ROOT
HETATM    1  C3  UNL     1      -0.782  -0.179  -0.527  1.00  0.00     0.243 C 
HETATM    2  C4  UNL     1      -1.444   1.149  -0.919  1.00  0.00     0.267 C 
HETATM    3  N3  UNL     1      -1.774   1.671   0.400  1.00  0.00    -0.071 N 
ATOM      4  H31 UNL     1      -2.218   2.589   0.412  1.00  0.00     0.277 HD
ATOM      5  H32 UNL     1      -0.979   1.952   0.974  1.00  0.00     0.277 HD
HETATM    6  C5  UNL     1      -2.578   0.576   0.929  1.00  0.00     0.267 C 
HETATM    7  C6  UNL     1      -1.715  -0.624   0.577  1.00  0.00     0.241 C 
ENDROOT
BRANCH   1   8
HETATM    8  N2  UNL     1       0.530   0.143  -0.037  1.00  0.00    -0.066 N 
ATOM      9  H22 UNL     1       0.469   0.605   0.870  1.00  0.00     0.277 HD
ATOM     10  H21 UNL     1       0.942   0.896  -0.588  1.00  0.00     0.277 HD
BRANCH   8  11
HETATM   11  C2  UNL     1       1.424  -0.979   0.029  1.00  0.00     0.260 C 
BRANCH  11  12
HETATM   12  C1  UNL     1       2.733  -0.454   0.611  1.00  0.00     0.257 C 
BRANCH  12  13
HETATM   13  N1  UNL     1       3.206   0.564  -0.305  1.00  0.00    -0.078 N 
ATOM     14  H13 UNL     1       3.293   0.235  -1.266  1.00  0.00     0.274 HD
ATOM     15  H12 UNL     1       2.520   1.297  -0.485  1.00  0.00     0.274 HD
ATOM     16  H11 UNL     1       4.081   0.915   0.084  1.00  0.00     0.274 HD
ENDBRANCH  12  13
ENDBRANCH  11  12
ENDBRANCH   8  11
ENDBRANCH   1   8
BRANCH   7  17
HETATM   17  N4  UNL     1      -1.051  -1.035   1.772  1.00  0.00    -0.071 N 
ATOM     18  H43 UNL     1      -0.366  -1.763   1.568  1.00  0.00     0.274 HD
ATOM     19  H42 UNL     1      -0.428  -0.300   2.106  1.00  0.00     0.274 HD
ATOM     20  H41 UNL     1      -1.680  -1.335   2.517  1.00  0.00     0.274 HD
ENDBRANCH   7  17
TORSDOF 5
