REMARK  6 active torsions:
REMARK  status: ('A' for Active; 'I' for Inactive)
REMARK       I    between atoms: N1_2  and  C3_4 
REMARK    1  A    between atoms: C3_4  and  C4_6 
REMARK    2  A    between atoms: C5_7  and  C6_8 
REMARK    3  A    between atoms: C7_9  and  C8_10 
REMARK    4  A    between atoms: C11_13  and  N2_14 
REMARK       I    between atoms: N2_14  and  C12_16 
REMARK    5  A    between atoms: C12_16  and  C13_18 
REMARK    6  A    between atoms: C20_30  and  N6_31 
ROOT
HETATM    1  C13 UNL     1       6.014   0.812   1.176  1.00  0.00     0.175 A 
HETATM    2  N3  UNL     1       7.151   1.472   0.869  1.00  0.00    -0.328 N 
ATOM      3  H3  UNL     1       7.307   1.991   0.005  1.00  0.00     0.168 HD
HETATM    4  C14 UNL     1       8.039   1.349   1.853  1.00  0.00     0.131 A 
HETATM    5  C15 UNL     1       9.371   1.879   1.959  1.00  0.00     0.119 C 
HETATM    6  N4  UNL     1      10.444   2.304   2.054  1.00  0.00    -0.190 NA
HETATM    7  C16 UNL     1       7.463   0.585   2.831  1.00  0.00     0.131 A 
HETATM    8  N5  UNL     1       6.229   0.275   2.386  1.00  0.00    -0.345 N 
ATOM      9  H5  UNL     1       5.552  -0.290   2.899  1.00  0.00     0.167 HD
ENDROOT
BRANCH   1  10
HETATM   10  C12 UNL     1       4.795   0.708   0.349  1.00  0.00     0.290 C 
HETATM   11  N2  UNL     1       3.710  -0.014   0.813  1.00  0.00    -0.320 N 
ATOM     12  H2  UNL     1       3.837  -0.441   1.731  1.00  0.00     0.169 HD
HETATM   13  O2  UNL     1       4.821   1.297  -0.748  1.00  0.00    -0.264 OA
BRANCH  11  14
HETATM   14  C11 UNL     1       2.458  -0.251   0.216  1.00  0.00     0.035 A 
HETATM   15  C10 UNL     1       1.522  -1.096   0.838  1.00  0.00     0.030 A 
HETATM   16  C9  UNL     1       0.290  -1.342   0.281  1.00  0.00     0.014 A 
HETATM   17  C8  UNL     1      -0.096  -0.783  -0.905  1.00  0.00    -0.022 A 
HETATM   18  C18 UNL     1       0.793   0.046  -1.538  1.00  0.00     0.014 A 
HETATM   19  C17 UNL     1       2.056   0.301  -0.972  1.00  0.00     0.030 A 
BRANCH  17  20
HETATM   20  C7  UNL     1      -1.392  -1.021  -1.523  1.00  0.00     0.028 A 
HETATM   21  C6  UNL     1      -2.548  -0.373  -1.146  1.00  0.00     0.103 A 
HETATM   22  N9  UNL     1      -3.523  -0.866  -1.951  1.00  0.00    -0.329 N 
HETATM   23  C22 UNL     1      -3.011  -1.780  -2.795  1.00  0.00     0.124 A 
HETATM   24  C23 UNL     1      -4.923  -0.458  -1.902  1.00  0.00     0.159 C 
HETATM   25  C19 UNL     1      -1.648  -1.905  -2.550  1.00  0.00     0.066 A 
HETATM   26  N8  UNL     1      -3.506  -2.565  -3.782  1.00  0.00    -0.338 N 
HETATM   27  C20 UNL     1      -0.856  -2.775  -3.268  1.00  0.00     0.114 A 
HETATM   28  N7  UNL     1      -1.406  -3.543  -4.253  1.00  0.00    -0.338 N 
HETATM   29  C21 UNL     1      -2.726  -3.415  -4.484  1.00  0.00     0.183 A 
ATOM     30  H7  UNL     1      -0.836  -4.192  -4.796  1.00  0.00     0.168 HD
ATOM     31  H8  UNL     1      -4.501  -2.512  -4.002  1.00  0.00     0.168 HD
BRANCH  21  32
HETATM   32  C5  UNL     1      -2.659   0.614  -0.109  1.00  0.00    -0.037 C 
HETATM   33  C4  UNL     1      -2.772   1.451   0.761  1.00  0.00     0.002 C 
BRANCH  33  34
HETATM   34  C3  UNL     1      -2.932   2.449   1.792  1.00  0.00     0.298 C 
HETATM   35  N1  UNL     1      -4.084   2.520   2.593  1.00  0.00    -0.350 N 
HETATM   36  C1  UNL     1      -4.204   3.528   3.607  1.00  0.00     0.153 C 
HETATM   37  C2  UNL     1      -5.150   1.576   2.396  1.00  0.00     0.153 C 
HETATM   38  O1  UNL     1      -1.998   3.272   1.961  1.00  0.00    -0.258 OA
ENDBRANCH  33  34
ENDBRANCH  21  32
BRANCH  27  39
HETATM   39  N6  UNL     1       0.398  -2.864  -3.013  1.00  0.00    -0.385 N 
ATOM     40  H62 UNL     1       0.809  -2.290  -2.277  1.00  0.00     0.157 HD
ATOM     41  H61 UNL     1       0.984  -3.508  -3.544  1.00  0.00     0.157 HD
ENDBRANCH  27  39
ENDBRANCH  17  20
ENDBRANCH  11  14
ENDBRANCH   1  10
TORSDOF 6
