REMARK  10 active torsions:
REMARK  status: ('A' for Active; 'I' for Inactive)
REMARK    1  A    between atoms: C2_2  and  C4_4 
REMARK    2  A    between atoms: C4_4  and  C5_5 
REMARK    3  A    between atoms: C5_5  and  N1_6 
REMARK    4  A    between atoms: C5_5  and  C10_14 
REMARK       I    between atoms: N1_6  and  C6_8 
REMARK    5  A    between atoms: C6_8  and  C7_10 
REMARK    6  A    between atoms: C7_10  and  N2_11 
REMARK       I    between atoms: C10_14  and  N3_16 
REMARK    7  A    between atoms: N3_16  and  C11_18 
REMARK    8  A    between atoms: C11_18  and  C12_19 
REMARK    9  A    between atoms: C11_18  and  C13_21 
REMARK   10  A    between atoms: C13_21  and  S1_22 
ROOT
HETATM    1  C5  UNL     1      -0.852   0.397  -1.111  1.00  0.00     0.177 C 
ENDROOT
BRANCH   1   2
HETATM    2  C4  UNL     1      -1.360  -0.940  -1.455  1.00  0.00     0.038 C 
BRANCH   2   3
HETATM    3  C2  UNL     1      -0.419  -1.978  -1.943  1.00  0.00    -0.020 C 
HETATM    4  C1  UNL     1       0.633  -2.401  -0.999  1.00  0.00     0.009 C 
HETATM    5  C3  UNL     1      -1.271  -3.196  -2.372  1.00  0.00     0.009 C 
ENDBRANCH   2   3
ENDBRANCH   1   2
BRANCH   1   6
HETATM    6  N1  UNL     1      -2.010   1.203  -0.668  1.00  0.00    -0.346 N 
HETATM    7  C6  UNL     1      -2.773   0.920   0.456  1.00  0.00     0.246 C 
HETATM    8  O1  UNL     1      -2.542  -0.053   1.198  1.00  0.00    -0.272 OA
ATOM      9  H1  UNL     1      -2.264   2.019  -1.224  1.00  0.00     0.163 HD
BRANCH   7  10
HETATM   10  C7  UNL     1      -3.931   1.832   0.788  1.00  0.00     0.374 C 
BRANCH  10  11
HETATM   11  N2  UNL     1      -4.566   1.352   1.974  1.00  0.00     0.100 N 
HETATM   12  C8  UNL     1      -5.698   2.018   2.534  1.00  0.00     0.303 A 
HETATM   13  C9  UNL     1      -4.383   2.181   3.146  1.00  0.00     0.303 A 
ENDBRANCH  10  11
ENDBRANCH   7  10
ENDBRANCH   1   6
BRANCH   1  14
HETATM   14  C10 UNL     1       0.265   0.567  -0.210  1.00  0.00     0.241 C 
HETATM   15  O2  UNL     1       0.173   0.640   1.069  1.00  0.00    -0.271 OA
HETATM   16  N3  UNL     1       1.605   0.679  -0.720  1.00  0.00    -0.348 N 
ATOM     17  H3  UNL     1       1.753   0.619  -1.727  1.00  0.00     0.163 HD
BRANCH  16  18
HETATM   18  C11 UNL     1       2.756   0.874   0.146  1.00  0.00     0.157 C 
BRANCH  18  19
HETATM   19  C12 UNL     1       3.364   2.218  -0.088  1.00  0.00     0.257 C 
HETATM   20  O3  UNL     1       2.881   2.964  -0.911  1.00  0.00    -0.305 OA
ENDBRANCH  18  19
BRANCH  18  21
HETATM   21  C13 UNL     1       3.732  -0.231  -0.066  1.00  0.00     0.140 C 
BRANCH  21  22
HETATM   22  S1  UNL     1       5.178  -0.057   0.958  1.00  0.00     0.013 S 
HETATM   23  C14 UNL     1       6.305  -1.380   0.678  1.00  0.00     0.127 C 
HETATM   24  O4  UNL     1       4.764   0.107   2.573  1.00  0.00    -0.258 OA
ENDBRANCH  21  22
ENDBRANCH  18  21
ENDBRANCH  16  18
ENDBRANCH   1  14
TORSDOF 10
