REMARK  15 active torsions:
REMARK  status: ('A' for Active; 'I' for Inactive)
REMARK    1  A    between atoms: C2_2  and  C3_3 
REMARK    2  A    between atoms: C3_3  and  C5_5 
REMARK    3  A    between atoms: C5_5  and  N1_6 
REMARK    4  A    between atoms: C5_5  and  C23_34 
REMARK       I    between atoms: N1_6  and  C6_8 
REMARK    5  A    between atoms: C6_8  and  C7_10 
REMARK    6  A    between atoms: C7_10  and  N2_11 
REMARK    7  A    between atoms: N2_11  and  C8_12 
REMARK    8  A    between atoms: C8_12  and  C9_13 
REMARK    9  A    between atoms: C8_12  and  C13_17 
REMARK   10  A    between atoms: C9_13  and  C10_14 
REMARK       I    between atoms: C13_17  and  N3_19 
REMARK   11  A    between atoms: C17_23  and  C18_24 
REMARK   12  A    between atoms: C18_24  and  C19_26 
REMARK   13  A    between atoms: C19_26  and  C20_27 
REMARK   14  A    between atoms: C20_27  and  C21_28 
REMARK   15  A    between atoms: C21_28  and  N4_29 
ROOT
HETATM    1  C8  UNL     1      -0.433   1.240  -2.186  1.00  0.00     0.254 C 
ENDROOT
BRANCH   1   2
HETATM    2  N2  UNL     1      -1.488   0.505  -1.648  1.00  0.00    -0.440 NA
BRANCH   2   3
HETATM    3  C7  UNL     1      -2.372  -0.083  -1.190  1.00  0.00     0.249 C 
BRANCH   3   4
HETATM    4  C6  UNL     1      -3.450   0.463  -0.331  1.00  0.00     0.270 C 
HETATM    5  N1  UNL     1      -4.500  -0.309   0.174  1.00  0.00    -0.342 N 
ATOM      6  H1  UNL     1      -4.532  -1.303  -0.055  1.00  0.00     0.163 HD
HETATM    7  O1  UNL     1      -3.380   1.678  -0.071  1.00  0.00    -0.266 OA
BRANCH   5   8
HETATM    8  C5  UNL     1      -5.541   0.246   1.007  1.00  0.00     0.177 C 
BRANCH   8   9
HETATM    9  C3  UNL     1      -5.881  -0.562   2.205  1.00  0.00     0.013 C 
HETATM   10  C4  UNL     1      -4.700  -0.641   3.126  1.00  0.00     0.012 C 
BRANCH   9  11
HETATM   11  C2  UNL     1      -6.362  -1.936   1.778  1.00  0.00     0.002 C 
HETATM   12  C1  UNL     1      -6.773  -2.689   3.042  1.00  0.00     0.005 C 
ENDBRANCH   9  11
ENDBRANCH   8   9
BRANCH   8  13
HETATM   13  C23 UNL     1      -6.798   0.434   0.176  1.00  0.00     0.254 C 
HETATM   14  N7  UNL     1      -7.977   0.955   0.759  1.00  0.00    -0.060 NA
HETATM   15  O4  UNL     1      -6.794   0.125  -1.028  1.00  0.00    -0.275 OA
ENDBRANCH   8  13
ENDBRANCH   5   8
ENDBRANCH   3   4
ENDBRANCH   2   3
ENDBRANCH   1   2
BRANCH   1  16
HETATM   16  C9  UNL     1      -0.212   2.473  -1.387  1.00  0.00     0.053 C 
BRANCH  16  17
HETATM   17  C10 UNL     1       0.827   3.435  -1.768  1.00  0.00    -0.019 C 
HETATM   18  C11 UNL     1       0.738   4.575  -0.716  1.00  0.00     0.009 C 
HETATM   19  C12 UNL     1       2.236   3.025  -1.801  1.00  0.00     0.009 C 
ENDBRANCH  16  17
ENDBRANCH   1  16
BRANCH   1  20
HETATM   20  C13 UNL     1       0.718   0.324  -2.348  1.00  0.00     0.256 C 
HETATM   21  O2  UNL     1       1.284   0.301  -3.500  1.00  0.00    -0.270 OA
HETATM   22  N3  UNL     1       1.267  -0.546  -1.370  1.00  0.00    -0.338 N 
HETATM   23  C14 UNL     1       1.042  -0.618   0.041  1.00  0.00     0.127 C 
HETATM   24  C17 UNL     1       2.121  -1.651  -1.711  1.00  0.00     0.157 C 
HETATM   25  C15 UNL     1       0.991  -2.099   0.332  1.00  0.00     0.022 C 
HETATM   26  C16 UNL     1       1.669  -2.751  -0.816  1.00  0.00     0.035 C 
BRANCH  24  27
HETATM   27  C18 UNL     1       3.552  -1.414  -1.755  1.00  0.00     0.149 C 
HETATM   28  O3  UNL     1       4.232  -2.463  -1.945  1.00  0.00    -0.296 OA
BRANCH  27  29
HETATM   29  C19 UNL     1       4.343  -0.204  -1.626  1.00  0.00     0.082 C 
BRANCH  29  30
HETATM   30  C20 UNL     1       5.836  -0.379  -1.728  1.00  0.00     0.027 C 
BRANCH  30  31
HETATM   31  C21 UNL     1       6.437  -1.208  -0.652  1.00  0.00     0.122 C 
BRANCH  31  32
HETATM   32  N4  UNL     1       6.180  -0.589   0.649  1.00  0.00    -0.367 N 
HETATM   33  C22 UNL     1       7.098  -0.506   1.529  1.00  0.00     0.196 C 
HETATM   34  N5  UNL     1       6.900   0.080   2.795  1.00  0.00    -0.067 NA
HETATM   35  N6  UNL     1       8.392  -1.029   1.231  1.00  0.00    -0.067 NA
ATOM     36  H4  UNL     1       5.252  -0.218   0.854  1.00  0.00     0.161 HD
ENDBRANCH  31  32
ENDBRANCH  30  31
ENDBRANCH  29  30
ENDBRANCH  27  29
ENDBRANCH  24  27
ENDBRANCH   1  20
TORSDOF 15
