REMARK  7 active torsions:
REMARK  status: ('A' for Active; 'I' for Inactive)
REMARK    1  A    between atoms: O1_2  and  N1_3 
REMARK       I    between atoms: N1_3  and  C2_5 
REMARK    2  A    between atoms: C2_5  and  C3_7 
REMARK    3  A    between atoms: C4_9  and  N2_10 
REMARK    4  A    between atoms: N2_10  and  N3_12 
REMARK    5  A    between atoms: N3_12  and  C5_13 
REMARK    6  A    between atoms: C5_13  and  C6_14 
REMARK    7  A    between atoms: C7_15  and  O3_16 
ROOT
HETATM    1  C6  UNL     1      -4.453   0.079  -0.096  1.00  0.00     0.136 A 
HETATM    2  C7  UNL     1      -5.340  -0.786   0.476  1.00  0.00     0.175 A 
HETATM    3  N4  UNL     1      -6.554  -0.516   0.027  1.00  0.00    -0.286 N 
ATOM      4  H4  UNL     1      -7.415  -1.000   0.281  1.00  0.00     0.172 HD
HETATM    5  C8  UNL     1      -6.441   0.519  -0.830  1.00  0.00     0.342 A 
HETATM    6  O4  UNL     1      -7.412   1.034  -1.442  1.00  0.00    -0.245 OA
HETATM    7  N5  UNL     1      -5.141   0.882  -0.901  1.00  0.00    -0.193 N 
HETATM    8  C9  UNL     1      -4.686   1.921  -1.698  1.00  0.00     0.194 C 
HETATM    9  N6  UNL     1      -4.309   2.802  -2.347  1.00  0.00    -0.171 NA
ENDROOT
BRANCH   1  10
HETATM   10  C5  UNL     1      -2.982   0.161   0.102  1.00  0.00     0.244 C 
BRANCH  10  11
HETATM   11  N3  UNL     1      -2.253   0.936  -0.435  1.00  0.00    -0.334 NA
BRANCH  11  12
HETATM   12  N2  UNL     1      -1.189   1.578  -0.795  1.00  0.00    -0.213 N 
ATOM     13  H2  UNL     1      -1.341   2.460  -1.285  1.00  0.00     0.204 HD
BRANCH  12  14
HETATM   14  C4  UNL     1       0.066   1.230  -0.605  1.00  0.00     0.175 A 
HETATM   15  S1  UNL     1       1.502   2.007  -1.043  1.00  0.00    -0.044 SA
HETATM   16  C3  UNL     1       2.642   0.849  -0.392  1.00  0.00     0.100 A 
HETATM   17  C10 UNL     1       1.786  -0.072   0.126  1.00  0.00     0.030 A 
HETATM   18  N7  UNL     1       0.489   0.132   0.012  1.00  0.00    -0.337 N 
HETATM   19  C11 UNL     1       2.333  -1.314   0.828  1.00  0.00     0.070 C 
ATOM     20  H7  UNL     1      -0.178  -0.541   0.390  1.00  0.00     0.168 HD
BRANCH  16  21
HETATM   21  C2  UNL     1       4.081   0.989  -0.473  1.00  0.00     0.284 C 
HETATM   22  N1  UNL     1       5.029   0.127   0.010  1.00  0.00    -0.231 N 
ATOM     23  H1  UNL     1       4.726  -0.722   0.487  1.00  0.00     0.197 HD
HETATM   24  O2  UNL     1       4.511   2.053  -1.072  1.00  0.00    -0.265 OA
BRANCH  22  25
HETATM   25  O1  UNL     1       6.388   0.371  -0.128  1.00  0.00    -0.282 OA
HETATM   26  C1  UNL     1       7.162  -0.654   0.346  1.00  0.00     0.237 C 
ENDBRANCH  22  25
ENDBRANCH  16  21
ENDBRANCH  12  14
ENDBRANCH  11  12
ENDBRANCH  10  11
ENDBRANCH   1  10
BRANCH   2  27
HETATM   27  O3  UNL     1      -4.995  -1.769   1.373  1.00  0.00    -0.344 OA
ATOM     28  H3  UNL     1      -5.612  -2.371   1.771  1.00  0.00     0.219 HD
ENDBRANCH   2  27
TORSDOF 7
