REMARK  4 active torsions:
REMARK  status: ('A' for Active; 'I' for Inactive)
REMARK       I    between atoms: C2_2  and  N1_4 
REMARK    1  A    between atoms: N1_4  and  N2_6 
REMARK    2  A    between atoms: N2_6  and  C4_8 
REMARK    3  A    between atoms: C5_11  and  N4_12 
REMARK    4  A    between atoms: C8_17  and  N6_18 
ROOT
HETATM    1  C4  UNL     1       0.326   0.273   0.244  1.00  0.00     0.726 A 
HETATM    2  N3  UNL     1      -0.901   0.642   0.652  1.00  0.00    -0.020 N 
ATOM      3  H3  UNL     1      -1.025   1.527   1.144  1.00  0.00     0.203 HD
HETATM    4  C5  UNL     1      -1.977  -0.154   0.415  1.00  0.00     0.708 A 
HETATM    5  N5  UNL     1      -1.856  -1.327  -0.229  1.00  0.00    -0.022 N 
ATOM      6  H5  UNL     1      -2.670  -1.916  -0.401  1.00  0.00     0.203 HD
HETATM    7  C8  UNL     1      -0.632  -1.703  -0.640  1.00  0.00     0.705 A 
HETATM    8  N7  UNL     1       0.431  -0.904  -0.399  1.00  0.00    -0.020 N 
ATOM      9  H7  UNL     1       1.352  -1.206  -0.718  1.00  0.00     0.203 HD
ENDROOT
BRANCH   1  10
HETATM   10  N2  UNL     1       1.333   1.049   0.482  1.00  0.00    -0.127 N 
ATOM     11  H2  UNL     1       1.161   1.925   0.976  1.00  0.00     0.206 HD
BRANCH  10  12
HETATM   12  N1  UNL     1       2.631   0.756   0.103  1.00  0.00    -0.252 N 
HETATM   13  C2  UNL     1       3.217   1.422  -0.999  1.00  0.00     0.234 C 
HETATM   14  C1  UNL     1       4.610   1.142  -1.447  1.00  0.00     0.119 C 
HETATM   15  O1  UNL     1       2.559   2.280  -1.635  1.00  0.00    -0.272 OA
HETATM   16  C3  UNL     1       3.442  -0.231   0.805  1.00  0.00     0.181 C 
ENDBRANCH  10  12
ENDBRANCH   1  10
BRANCH   4  17
HETATM   17  N4  UNL     1      -3.272   0.256   0.856  1.00  0.00    -0.225 N 
HETATM   18  C6  UNL     1      -3.433   1.527   1.559  1.00  0.00     0.168 C 
HETATM   19  C7  UNL     1      -4.432  -0.577   0.614  1.00  0.00     0.168 C 
ENDBRANCH   4  17
BRANCH   7  20
HETATM   20  N6  UNL     1      -0.473  -2.834  -1.268  1.00  0.00    -0.234 N 
ATOM     21  H62 UNL     1      -1.275  -3.437  -1.450  1.00  0.00     0.174 HD
ATOM     22  H61 UNL     1       0.455  -3.119  -1.580  1.00  0.00     0.174 HD
ENDBRANCH   7  20
TORSDOF 4
