REMARK  5 active torsions:
REMARK  status: ('A' for Active; 'I' for Inactive)
REMARK    1  A    between atoms: C2_3  and  C3_5 
REMARK       I    between atoms: C3_5  and  N2_7 
REMARK    2  A    between atoms: N2_7  and  N3_9 
REMARK    3  A    between atoms: C4_11  and  C5_12 
REMARK    4  A    between atoms: C4_11  and  C6_15 
REMARK    5  A    between atoms: C6_15  and  O5_18 
ROOT
HETATM    1  C1  UNL     1       5.144   1.580   0.436  1.00  0.00     0.264 C 
HETATM    2  N1  UNL     1       4.096   0.747   0.752  1.00  0.00    -0.412 NA
HETATM    3  C2  UNL     1       3.055  -0.080   1.065  1.00  0.00     0.380 C 
HETATM    4  O1  UNL     1       2.926  -0.804   2.068  1.00  0.00    -0.246 OA
ENDROOT
BRANCH   3   5
HETATM    5  C3  UNL     1       1.927  -0.151   0.112  1.00  0.00     0.342 C 
HETATM    6  O2  UNL     1       1.986   0.501  -0.940  1.00  0.00    -0.259 OA
HETATM    7  N2  UNL     1       0.822  -0.957   0.436  1.00  0.00    -0.260 N 
ATOM      8  H2  UNL     1       0.863  -1.449   1.329  1.00  0.00     0.190 HD
BRANCH   7   9
HETATM    9  N3  UNL     1      -0.308  -1.153  -0.323  1.00  0.00    -0.293 N 
HETATM   10  C4  UNL     1      -1.375  -0.490  -0.247  1.00  0.00     0.136 C 
ATOM     11  H3  UNL     1      -0.279  -1.905  -1.011  1.00  0.00     0.187 HD
BRANCH  10  12
HETATM   12  C5  UNL     1      -1.527   0.605   0.695  1.00  0.00     0.227 C 
HETATM   13  O3  UNL     1      -2.629   1.253   0.738  1.00  0.00    -0.643 OA
HETATM   14  O4  UNL     1      -0.513   0.979   1.557  1.00  0.00    -0.643 OA
ENDBRANCH  10  12
BRANCH  10  15
HETATM   15  C6  UNL     1      -2.524  -0.864  -1.140  1.00  0.00     0.101 C 
HETATM   16  C7  UNL     1      -2.902   0.281  -2.032  1.00  0.00     0.052 C 
HETATM   17  C8  UNL     1      -3.717  -1.241  -0.258  1.00  0.00     0.052 C 
BRANCH  15  18
HETATM   18  O5  UNL     1      -2.162  -1.956  -1.880  1.00  0.00    -0.384 OA
ATOM     19  H5  UNL     1      -2.888  -2.192  -2.445  1.00  0.00     0.211 HD
ENDBRANCH  15  18
ENDBRANCH  10  15
ENDBRANCH   7   9
ENDBRANCH   3   5
TORSDOF 4
