REMARK  12 active torsions:
REMARK  status: ('A' for Active; 'I' for Inactive)
REMARK    1  A    between atoms: C2_2  and  O1_5 
REMARK    2  A    between atoms: O1_5  and  N1_6 
REMARK    3  A    between atoms: C5_8  and  C6_9 
REMARK    4  A    between atoms: C8_15  and  C9_16 
REMARK    5  A    between atoms: C9_16  and  O2_17 
REMARK    6  A    between atoms: C9_16  and  C10_19 
REMARK    7  A    between atoms: C10_19  and  O3_20 
REMARK    8  A    between atoms: C10_19  and  C11_22 
REMARK    9  A    between atoms: C11_22  and  O4_23 
REMARK   10  A    between atoms: C13_32  and  N8_33 
REMARK   11  A    between atoms: N11_40  and  O5_42 
REMARK   12  A    between atoms: C15_44  and  O6_45 
ROOT
HETATM    1  C6  UNL     1      -0.927   0.345  -1.881  1.00  0.00     0.206 C 
HETATM    2  N2  UNL     1      -0.104   1.395  -1.322  1.00  0.00    -0.208 N 
ATOM      3  H2  UNL     1      -0.534   2.312  -1.202  1.00  0.00     0.178 HD
HETATM    4  C7  UNL     1       1.242   1.257  -0.929  1.00  0.00     0.717 A 
HETATM    5  N3  UNL     1       2.219   2.123  -0.539  1.00  0.00    -0.173 N 
ATOM      6  H3  UNL     1       2.113   3.134  -0.461  1.00  0.00     0.185 HD
HETATM    7  C8  UNL     1       3.345   1.437  -0.273  1.00  0.00     0.145 A 
HETATM    8  N4  UNL     1       3.035   0.149  -0.507  1.00  0.00    -0.249 N 
ATOM      9  H4  UNL     1       3.684  -0.630  -0.396  1.00  0.00     0.191 HD
HETATM   10  N5  UNL     1       1.777   0.025  -0.901  1.00  0.00     0.001 N 
HETATM   11  N6  UNL     1       0.957  -1.047  -1.267  1.00  0.00    -0.039 N 
HETATM   12  C12 UNL     1       1.049  -2.411  -0.894  1.00  0.00     0.742 A 
HETATM   13  N7  UNL     1       1.866  -3.326  -0.317  1.00  0.00    -0.018 N 
ATOM     14  H7  UNL     1       2.801  -3.138   0.044  1.00  0.00     0.203 HD
HETATM   15  C13 UNL     1       1.249  -4.520  -0.295  1.00  0.00     0.706 A 
HETATM   16  N9  UNL     1       0.041  -4.352  -0.863  1.00  0.00    -0.109 N 
ATOM     17  H9  UNL     1      -0.664  -5.078  -0.994  1.00  0.00     0.207 HD
HETATM   18  N10 UNL     1      -0.078  -3.064  -1.228  1.00  0.00    -0.050 N 
HETATM   19  C14 UNL     1      -0.965  -2.137  -1.839  1.00  0.00     0.203 C 
HETATM   20  N11 UNL     1      -2.209  -2.386  -2.053  1.00  0.00    -0.250 N 
ATOM     21  H11 UNL     1      -2.779  -1.666  -2.497  1.00  0.00     0.195 HD
HETATM   22  C15 UNL     1      -0.187  -0.933  -2.142  1.00  0.00     0.262 C 
ENDROOT
BRANCH   7  23
HETATM   23  C9  UNL     1       4.665   1.965   0.184  1.00  0.00     0.218 C 
BRANCH  23  24
HETATM   24  O2  UNL     1       5.059   3.086  -0.522  1.00  0.00    -0.385 OA
ATOM     25  H2  UNL     1       5.899   3.422  -0.231  1.00  0.00     0.210 HD
ENDBRANCH  23  24
BRANCH  23  26
HETATM   26  C10 UNL     1       4.629   2.273   1.657  1.00  0.00     0.177 C 
BRANCH  26  27
HETATM   27  O3  UNL     1       3.752   3.289   1.963  1.00  0.00    -0.390 OA
ATOM     28  H3  UNL     1       3.729   3.483   2.893  1.00  0.00     0.210 HD
ENDBRANCH  26  27
BRANCH  26  29
HETATM   29  C11 UNL     1       4.415   1.035   2.483  1.00  0.00     0.198 C 
BRANCH  29  30
HETATM   30  O4  UNL     1       5.374   0.094   2.062  1.00  0.00    -0.398 OA
ATOM     31  H4  UNL     1       5.239  -0.688   2.584  1.00  0.00     0.209 HD
ENDBRANCH  29  30
ENDBRANCH  26  29
ENDBRANCH  23  26
ENDBRANCH   7  23
BRANCH   1  32
HETATM   32  C5  UNL     1      -2.165   0.139  -1.080  1.00  0.00     0.118 C 
HETATM   33  N1  UNL     1      -2.173   0.121   0.199  1.00  0.00    -0.279 N 
ATOM     34  H1  UNL     1      -1.304   0.252   0.717  1.00  0.00     0.193 HD
BRANCH  33  35
HETATM   35  O1  UNL     1      -3.339  -0.072   0.865  1.00  0.00    -0.271 OA
BRANCH  35  36
HETATM   36  C2  UNL     1      -4.282   0.906   1.183  1.00  0.00     0.078 C 
HETATM   37  C1  UNL     1      -4.791   1.545  -0.104  1.00  0.00     0.048 C 
HETATM   38  C3  UNL     1      -5.474   0.226   1.823  1.00  0.00     0.048 C 
HETATM   39  C4  UNL     1      -3.675   1.964   2.051  1.00  0.00     0.048 C 
ENDBRANCH  35  36
ENDBRANCH  33  35
ENDBRANCH   1  32
BRANCH  22  40
HETATM   40  O6  UNL     1       0.337  -0.970  -3.451  1.00  0.00    -0.361 OA
ATOM     41  H6  UNL     1       0.806  -1.780  -3.616  1.00  0.00     0.213 HD
ENDBRANCH  22  40
BRANCH  15  42
HETATM   42  N8  UNL     1       1.660  -5.657   0.160  1.00  0.00    -0.233 N 
ATOM     43  H82 UNL     1       2.576  -5.784   0.591  1.00  0.00     0.174 HD
ATOM     44  H81 UNL     1       1.192  -6.563   0.177  1.00  0.00     0.174 HD
ENDBRANCH  15  42
BRANCH  20  45
HETATM   45  O5  UNL     1      -2.797  -3.556  -1.717  1.00  0.00    -0.288 OA
ATOM     46  H5  UNL     1      -3.716  -3.740  -1.875  1.00  0.00     0.244 HD
ENDBRANCH  20  45
TORSDOF 12
