REMARK  20 active torsions:
REMARK  status: ('A' for Active; 'I' for Inactive)
REMARK    1  A    between atoms: C2_2  and  O1_4 
REMARK    2  A    between atoms: O1_4  and  C4_5 
REMARK       I    between atoms: C4_5  and  N1_7 
REMARK    3  A    between atoms: N1_7  and  C5_9 
REMARK    4  A    between atoms: C5_9  and  C6_10 
REMARK    5  A    between atoms: C9_13  and  C10_14 
REMARK    6  A    between atoms: C10_14  and  C11_15 
REMARK    7  A    between atoms: C11_15  and  N2_16 
REMARK    8  A    between atoms: C11_15  and  C18_33 
REMARK       I    between atoms: N2_16  and  C12_18 
REMARK    9  A    between atoms: C12_18  and  C13_20 
REMARK   10  A    between atoms: C13_20  and  N3_21 
REMARK   11  A    between atoms: C13_20  and  C14_25 
REMARK   12  A    between atoms: C14_25  and  C15_26 
REMARK   13  A    between atoms: C15_26  and  C16_27 
REMARK   14  A    between atoms: C16_27  and  C17_28 
REMARK   15  A    between atoms: C17_28  and  N4_29 
REMARK   16  A    between atoms: C18_33  and  O4_34 
REMARK   17  A    between atoms: C18_33  and  N5_36 
REMARK   18  A    between atoms: C21_39  and  C22_40 
REMARK   19  A    between atoms: C27_45  and  C28_46 
REMARK       I    between atoms: C28_46  and  N6_48 
REMARK   20  A    between atoms: N6_48  and  C29_50 
ROOT
HETATM    1  C11 UNL     1      -0.231   1.299   1.319  1.00  0.00     0.159 C 
ENDROOT
BRANCH   1   2
HETATM    2  C10 UNL     1       0.691   1.010   0.256  1.00  0.00     0.038 C 
BRANCH   2   3
HETATM    3  C9  UNL     1       1.536  -0.200   0.212  1.00  0.00    -0.012 C 
HETATM    4  C8  UNL     1       2.466  -0.304   1.420  1.00  0.00     0.005 C 
HETATM    5  C7  UNL     1       3.611   0.669   1.301  1.00  0.00     0.010 C 
HETATM    6  C6  UNL     1       4.591   0.137   0.214  1.00  0.00     0.024 C 
HETATM    7  C34 UNL     1       3.807  -0.690  -0.733  1.00  0.00     0.010 C 
HETATM    8  C33 UNL     1       2.446  -0.020  -1.026  1.00  0.00     0.005 C 
BRANCH   6   9
HETATM    9  C5  UNL     1       5.723  -0.536   0.872  1.00  0.00     0.070 C 
BRANCH   9  10
HETATM   10  N1  UNL     1       6.749  -1.053   0.077  1.00  0.00    -0.316 N 
HETATM   11  C4  UNL     1       6.870  -2.083  -0.854  1.00  0.00     0.364 C 
HETATM   12  O2  UNL     1       5.934  -2.828  -1.161  1.00  0.00    -0.238 OA
ATOM     13  H1  UNL     1       7.627  -0.552   0.211  1.00  0.00     0.170 HD
BRANCH  11  14
HETATM   14  O1  UNL     1       8.080  -2.360  -1.520  1.00  0.00    -0.299 OA
BRANCH  14  15
HETATM   15  C2  UNL     1       8.177  -3.411  -2.466  1.00  0.00     0.125 C 
HETATM   16  C1  UNL     1       8.596  -2.947  -3.823  1.00  0.00     0.040 C 
HETATM   17  C3  UNL     1       9.111  -4.500  -1.980  1.00  0.00     0.040 C 
ENDBRANCH  14  15
ENDBRANCH  11  14
ENDBRANCH   9  10
ENDBRANCH   6   9
ENDBRANCH   2   3
ENDBRANCH   1   2
BRANCH   1  18
HETATM   18  N2  UNL     1      -0.750   2.705   1.013  1.00  0.00    -0.347 N 
HETATM   19  C12 UNL     1      -0.305   3.817   1.719  1.00  0.00     0.248 C 
HETATM   20  O3  UNL     1       0.549   3.720   2.615  1.00  0.00    -0.271 OA
ATOM     21  H2  UNL     1      -1.440   2.830   0.272  1.00  0.00     0.163 HD
BRANCH  19  22
HETATM   22  C13 UNL     1      -0.847   5.171   1.424  1.00  0.00     0.274 C 
BRANCH  22  23
HETATM   23  N3  UNL     1      -1.892   5.054   0.404  1.00  0.00    -0.067 N 
ATOM     24  H33 UNL     1      -1.564   4.575  -0.435  1.00  0.00     0.275 HD
ATOM     25  H32 UNL     1      -2.622   4.393   0.669  1.00  0.00     0.275 HD
ATOM     26  H31 UNL     1      -2.264   5.982   0.202  1.00  0.00     0.275 HD
ENDBRANCH  22  23
BRANCH  22  27
HETATM   27  C14 UNL     1       0.213   6.087   0.881  1.00  0.00     0.042 C 
BRANCH  27  28
HETATM   28  C15 UNL     1      -0.153   7.483   0.597  1.00  0.00     0.004 C 
BRANCH  28  29
HETATM   29  C16 UNL     1      -1.221   7.710  -0.408  1.00  0.00     0.027 C 
BRANCH  29  30
HETATM   30  C17 UNL     1      -1.380   9.233  -0.561  1.00  0.00     0.229 C 
BRANCH  30  31
HETATM   31  N4  UNL     1      -0.145   9.821  -1.012  1.00  0.00    -0.079 N 
ATOM     32  H43 UNL     1       0.636   9.579  -0.403  1.00  0.00     0.274 HD
ATOM     33  H42 UNL     1       0.193   9.385  -1.870  1.00  0.00     0.274 HD
ATOM     34  H41 UNL     1      -0.250  10.830  -1.113  1.00  0.00     0.274 HD
ENDBRANCH  30  31
ENDBRANCH  29  30
ENDBRANCH  28  29
ENDBRANCH  27  28
ENDBRANCH  22  27
ENDBRANCH  19  22
ENDBRANCH   1  18
BRANCH   1  35
HETATM   35  C18 UNL     1      -1.437   0.640   1.706  1.00  0.00     0.137 C 
BRANCH  35  36
HETATM   36  O4  UNL     1      -2.058   1.448   2.641  1.00  0.00    -0.348 OA
ATOM     37  H4  UNL     1      -2.860   1.010   2.899  1.00  0.00     0.219 HD
ENDBRANCH  35  36
BRANCH  35  38
HETATM   38  N5  UNL     1      -2.225  -0.467   1.519  1.00  0.00    -0.350 N 
HETATM   39  C19 UNL     1      -3.406  -0.627   2.424  1.00  0.00     0.126 C 
HETATM   40  C20 UNL     1      -3.677  -2.049   2.763  1.00  0.00     0.025 C 
HETATM   41  C21 UNL     1      -3.737  -2.898   1.511  1.00  0.00    -0.003 C 
HETATM   42  C26 UNL     1      -2.330  -2.865   0.951  1.00  0.00     0.040 C 
HETATM   43  C27 UNL     1      -2.079  -1.442   0.478  1.00  0.00     0.178 C 
BRANCH  41  44
HETATM   44  C22 UNL     1      -4.172  -4.297   1.862  1.00  0.00    -0.048 C 
HETATM   45  C23 UNL     1      -3.175  -4.934   2.845  1.00  0.00     0.015 C 
HETATM   46  C24 UNL     1      -5.502  -4.337   2.539  1.00  0.00     0.015 C 
HETATM   47  C25 UNL     1      -4.193  -5.208   0.661  1.00  0.00     0.015 C 
ENDBRANCH  41  44
BRANCH  43  48
HETATM   48  C28 UNL     1      -3.016  -1.123  -0.674  1.00  0.00     0.241 C 
HETATM   49  O5  UNL     1      -3.580   0.013  -0.763  1.00  0.00    -0.271 OA
HETATM   50  N6  UNL     1      -3.314  -2.051  -1.700  1.00  0.00    -0.351 N 
ATOM     51  H6  UNL     1      -2.877  -2.971  -1.647  1.00  0.00     0.163 HD
BRANCH  50  52
HETATM   52  C29 UNL     1      -4.179  -1.794  -2.801  1.00  0.00     0.022 C 
HETATM   53  C30 UNL     1      -5.585  -1.360  -2.356  1.00  0.00     0.037 C 
HETATM   54  C31 UNL     1      -4.412  -3.131  -3.523  1.00  0.00     0.037 C 
HETATM   55  C32 UNL     1      -3.688  -0.770  -3.773  1.00  0.00     0.037 C 
ENDBRANCH  50  52
ENDBRANCH  43  48
ENDBRANCH  35  38
ENDBRANCH   1  35
TORSDOF 20
