REMARK  5 active torsions:
REMARK  status: ('A' for Active; 'I' for Inactive)
REMARK    1  A    between atoms: C1_4  and  C2_6 
REMARK    2  A    between atoms: C8_14  and  C9_15 
REMARK    3  A    between atoms: C13_19  and  O1_20 
REMARK    4  A    between atoms: O1_20  and  C14_21 
REMARK    5  A    between atoms: C20_31  and  C21_32 
ROOT
HETATM    1  C2  UNL     1      -4.934   2.228  -0.024  1.00  0.00     0.005 A 
HETATM    2  C3  UNL     1      -5.789   1.515  -0.827  1.00  0.00     0.015 A 
HETATM    3  C4  UNL     1      -5.286   0.401  -1.475  1.00  0.00     0.002 A 
HETATM    4  C5  UNL     1      -3.980  -0.016  -1.349  1.00  0.00     0.014 A 
HETATM    5  C6  UNL     1      -3.132   0.706  -0.542  1.00  0.00    -0.006 A 
HETATM    6  C7  UNL     1      -1.752   0.311  -0.372  1.00  0.00     0.072 A 
HETATM    7  N3  UNL     1      -0.648   1.003  -0.691  1.00  0.00    -0.339 N 
ATOM      8  H3  UNL     1      -0.635   1.931  -1.113  1.00  0.00     0.167 HD
HETATM    9  C8  UNL     1       0.457   0.268  -0.361  1.00  0.00     0.116 A 
HETATM   10  N5  UNL     1       0.043  -0.890   0.167  1.00  0.00    -0.339 N 
ATOM     11  H5  UNL     1       0.637  -1.646   0.508  1.00  0.00     0.167 HD
HETATM   12  C20 UNL     1      -1.296  -0.872   0.164  1.00  0.00     0.072 A 
HETATM   13  C27 UNL     1      -3.642   1.836   0.115  1.00  0.00     0.028 A 
ENDROOT
BRANCH   9  14
HETATM   14  C9  UNL     1       1.859   0.632  -0.530  1.00  0.00     0.011 A 
HETATM   15  C10 UNL     1       2.121   1.878  -1.101  1.00  0.00     0.015 A 
HETATM   16  C11 UNL     1       3.414   2.270  -1.278  1.00  0.00     0.004 A 
HETATM   17  C12 UNL     1       4.439   1.401  -0.876  1.00  0.00     0.037 A 
HETATM   18  C13 UNL     1       4.212   0.179  -0.316  1.00  0.00     0.078 A 
HETATM   19  C19 UNL     1       2.865  -0.188  -0.150  1.00  0.00     0.052 A 
BRANCH  18  20
HETATM   20  O1  UNL     1       5.168  -0.686   0.084  1.00  0.00    -0.294 OA
BRANCH  20  21
HETATM   21  C14 UNL     1       6.514  -0.685   0.114  1.00  0.00     0.147 A 
HETATM   22  C15 UNL     1       7.116  -1.846   0.631  1.00  0.00     0.056 A 
HETATM   23  C16 UNL     1       8.473  -1.976   0.718  1.00  0.00     0.006 A 
HETATM   24  C17 UNL     1       9.246  -0.914   0.274  1.00  0.00     0.017 A 
HETATM   25  C18 UNL     1       8.641   0.213  -0.230  1.00  0.00     0.090 A 
HETATM   26  N4  UNL     1       7.320   0.290  -0.292  1.00  0.00    -0.347 N 
ATOM     27  H4  UNL     1       6.901   1.140  -0.670  1.00  0.00     0.167 HD
ENDBRANCH  20  21
ENDBRANCH  18  20
ENDBRANCH   9  14
BRANCH  12  28
HETATM   28  C21 UNL     1      -2.190  -1.923   0.644  1.00  0.00    -0.007 A 
HETATM   29  C22 UNL     1      -3.055  -1.697   1.683  1.00  0.00     0.014 A 
HETATM   30  C23 UNL     1      -3.886  -2.661   2.132  1.00  0.00     0.001 A 
HETATM   31  C24 UNL     1      -3.906  -3.914   1.571  1.00  0.00     0.000 A 
HETATM   32  C25 UNL     1      -3.026  -4.129   0.522  1.00  0.00     0.001 A 
HETATM   33  C26 UNL     1      -2.183  -3.166   0.058  1.00  0.00     0.014 A 
ENDBRANCH  12  28
BRANCH   1  34
HETATM   34  C1  UNL     1      -5.397   3.415   0.690  1.00  0.00     0.120 C 
HETATM   35  N1  UNL     1      -4.593   4.088   1.444  1.00  0.00    -0.387 N 
ATOM     36  H12 UNL     1      -4.916   4.917   1.943  1.00  0.00     0.157 HD
ATOM     37  H11 UNL     1      -3.636   3.741   1.503  1.00  0.00     0.157 HD
HETATM   38  N2  UNL     1      -6.736   3.900   0.607  1.00  0.00    -0.082 NA
ENDBRANCH   1  34
TORSDOF 5
