REMARK  13 active torsions:
REMARK  status: ('A' for Active; 'I' for Inactive)
REMARK    1  A    between atoms: C2_2  and  C3_3 
REMARK    2  A    between atoms: C3_3  and  C4_4 
REMARK    3  A    between atoms: C4_4  and  C5_5 
REMARK    4  A    between atoms: C5_5  and  O1_6 
REMARK    5  A    between atoms: O1_6  and  C6_7 
REMARK    6  A    between atoms: C6_7  and  O2_9 
REMARK    7  A    between atoms: O2_9  and  C8_10 
REMARK    8  A    between atoms: C13_15  and  N1_16 
REMARK       I    between atoms: N1_16  and  C14_18 
REMARK    9  A    between atoms: C15_21  and  O4_22 
REMARK   10  A    between atoms: O4_22  and  C16_23 
REMARK   11  A    between atoms: C19_27  and  O6_28 
REMARK   12  A    between atoms: C20_30  and  O7_31 
REMARK   13  A    between atoms: C21_33  and  O8_34 
ROOT
HETATM    1  C8  UNL     1       1.296  -1.514  -0.084  1.00  0.00     0.267 C 
HETATM    2  C9  UNL     1       0.741  -2.936  -0.371  1.00  0.00     0.072 C 
HETATM    3  C10 UNL     1      -0.541  -3.184   0.354  1.00  0.00    -0.018 C 
HETATM    4  C11 UNL     1      -1.173  -4.455  -0.213  1.00  0.00     0.017 C 
HETATM    5  C12 UNL     1      -0.266  -3.448   1.812  1.00  0.00     0.017 C 
HETATM    6  C13 UNL     1      -1.542  -2.074   0.179  1.00  0.00     0.149 C 
HETATM    7  C15 UNL     1      -0.879  -0.708   0.298  1.00  0.00     0.289 C 
HETATM    8  O9  UNL     1       0.288  -0.589  -0.407  1.00  0.00    -0.329 OA
ENDROOT
BRANCH   7   9
HETATM    9  O4  UNL     1      -1.777   0.178  -0.331  1.00  0.00    -0.327 OA
BRANCH   9  10
HETATM   10  C16 UNL     1      -2.394   1.058   0.530  1.00  0.00     0.294 C 
HETATM   11  O5  UNL     1      -3.749   0.967   0.329  1.00  0.00    -0.351 OA
HETATM   12  C17 UNL     1      -4.552   1.765   1.100  1.00  0.00     0.152 C 
HETATM   13  C18 UNL     1      -5.918   1.792   0.399  1.00  0.00     0.042 C 
HETATM   14  C19 UNL     1      -4.115   3.209   1.173  1.00  0.00     0.178 C 
HETATM   15  C20 UNL     1      -2.619   3.335   1.349  1.00  0.00     0.183 C 
HETATM   16  C21 UNL     1      -1.989   2.500   0.250  1.00  0.00     0.204 C 
BRANCH  14  17
HETATM   17  O6  UNL     1      -4.493   3.938   0.068  1.00  0.00    -0.390 OA
ATOM     18  H6  UNL     1      -4.218   4.846   0.114  1.00  0.00     0.210 HD
ENDBRANCH  14  17
BRANCH  15  19
HETATM   19  O7  UNL     1      -2.189   2.966   2.617  1.00  0.00    -0.390 OA
ATOM     20  H7  UNL     1      -1.249   3.045   2.728  1.00  0.00     0.210 HD
ENDBRANCH  15  19
BRANCH  16  21
HETATM   21  O8  UNL     1      -2.515   2.962  -0.965  1.00  0.00    -0.388 OA
ATOM     22  H8  UNL     1      -2.262   3.861  -1.140  1.00  0.00     0.210 HD
ENDBRANCH  16  21
ENDBRANCH   9  10
ENDBRANCH   7   9
BRANCH   6  23
HETATM   23  N1  UNL     1      -2.256  -2.190  -1.084  1.00  0.00    -0.335 N 
HETATM   24  C14 UNL     1      -3.665  -2.375  -1.134  1.00  0.00     0.329 C 
HETATM   25  N2  UNL     1      -4.352  -2.487  -2.366  1.00  0.00    -0.040 NA
HETATM   26  O3  UNL     1      -4.293  -2.435  -0.052  1.00  0.00    -0.251 OA
ATOM     27  H1  UNL     1      -1.731  -2.137  -1.957  1.00  0.00     0.164 HD
ENDBRANCH   6  23
BRANCH   1  28
HETATM   28  O2  UNL     1       2.329  -1.322  -0.792  1.00  0.00    -0.332 OA
BRANCH  28  29
HETATM   29  C6  UNL     1       3.332  -1.136  -1.476  1.00  0.00     0.258 C 
HETATM   30  C7  UNL     1       3.750  -2.315  -2.400  1.00  0.00     0.071 C 
BRANCH  29  31
HETATM   31  O1  UNL     1       3.330   0.037  -2.261  1.00  0.00    -0.362 OA
BRANCH  31  32
HETATM   32  C5  UNL     1       4.341   0.904  -2.067  1.00  0.00     0.171 C 
BRANCH  32  33
HETATM   33  C4  UNL     1       4.356   1.466  -0.689  1.00  0.00     0.026 C 
BRANCH  33  34
HETATM   34  C3  UNL     1       5.490   2.467  -0.487  1.00  0.00     0.002 C 
BRANCH  34  35
HETATM   35  C2  UNL     1       5.389   2.933   0.967  1.00  0.00    -0.004 C 
HETATM   36  C1  UNL     1       5.558   1.709   1.852  1.00  0.00     0.005 C 
ENDBRANCH  34  35
ENDBRANCH  33  34
ENDBRANCH  32  33
ENDBRANCH  31  32
ENDBRANCH  29  31
ENDBRANCH  28  29
ENDBRANCH   1  28
TORSDOF 13
