REMARK  10 active torsions:
REMARK  status: ('A' for Active; 'I' for Inactive)
REMARK       I    between atoms: C2_2  and  N1_4 
REMARK    1  A    between atoms: C3_7  and  N3_8 
REMARK    2  A    between atoms: C5_12  and  N4_13 
REMARK    3  A    between atoms: N4_13  and  C6_15 
REMARK    4  A    between atoms: C6_15  and  C7_16 
REMARK    5  A    between atoms: C9_21  and  N7_22 
REMARK    6  A    between atoms: C10_27  and  N9_28 
REMARK    7  A    between atoms: N9_28  and  C11_29 
REMARK    8  A    between atoms: C11_29  and  C12_30 
REMARK    9  A    between atoms: C12_30  and  N10_31 
REMARK   10  A    between atoms: C15_36  and  N12_37 
ROOT
HETATM    1  C1  UNL     1      -7.168   0.598   1.341  1.00  0.00     0.119 C 
HETATM    2  C2  UNL     1      -6.550   0.343   0.044  1.00  0.00     0.240 C 
HETATM    3  O1  UNL     1      -7.382   0.098  -0.917  1.00  0.00    -0.272 OA
HETATM    4  N1  UNL     1      -5.203   0.328  -0.290  1.00  0.00    -0.204 N 
HETATM    5  N2  UNL     1      -4.708   0.097  -1.536  1.00  0.00    -0.274 N 
ATOM      6  H2  UNL     1      -5.267  -0.092  -2.368  1.00  0.00     0.189 HD
HETATM    7  C3  UNL     1      -3.375   0.157  -1.497  1.00  0.00     0.132 A 
HETATM    8  C4  UNL     1      -2.994   0.432  -0.212  1.00  0.00     0.100 A 
HETATM    9  C5  UNL     1      -1.716   0.630   0.344  1.00  0.00     0.135 A 
HETATM   10  N11 UNL     1      -1.665   0.915   1.639  1.00  0.00    -0.176 N 
ATOM     11  H11 UNL     1      -0.759   1.063   2.084  1.00  0.00     0.186 HD
HETATM   12  C15 UNL     1      -2.799   1.013   2.383  1.00  0.00     0.679 A 
HETATM   13  N13 UNL     1      -4.027   0.835   1.877  1.00  0.00    -0.174 N 
ATOM     14  H13 UNL     1      -4.855   0.919   2.466  1.00  0.00     0.186 HD
HETATM   15  C16 UNL     1      -4.136   0.537   0.545  1.00  0.00     0.163 A 
ENDROOT
BRANCH   9  16
HETATM   16  N4  UNL     1      -0.725   0.486  -0.419  1.00  0.00    -0.370 N 
ATOM     17  H4  UNL     1      -0.915   0.212  -1.383  1.00  0.00     0.161 HD
BRANCH  16  18
HETATM   18  C6  UNL     1       0.698   0.681  -0.035  1.00  0.00     0.168 C 
BRANCH  18  19
HETATM   19  C7  UNL     1       1.463   0.337  -1.281  1.00  0.00     0.060 A 
HETATM   20  C8  UNL     1       1.291   1.280  -2.311  1.00  0.00     0.144 A 
HETATM   21  N5  UNL     1       0.417   2.370  -2.131  1.00  0.00    -0.081 NA
HETATM   22  N6  UNL     1       1.969   1.058  -3.450  1.00  0.00    -0.178 N 
HETATM   23  C9  UNL     1       2.771  -0.031  -3.582  1.00  0.00     0.679 A 
ATOM     24  H6  UNL     1       1.880   1.715  -4.225  1.00  0.00     0.185 HD
HETATM   25  N8  UNL     1       2.938  -0.915  -2.620  1.00  0.00    -0.164 N 
HETATM   26  C10 UNL     1       2.266  -0.758  -1.375  1.00  0.00     0.203 A 
ATOM     27  H8  UNL     1       3.552  -1.716  -2.768  1.00  0.00     0.187 HD
BRANCH  23  28
HETATM   28  N7  UNL     1       3.401  -0.209  -4.718  1.00  0.00    -0.234 N 
ATOM     29  H72 UNL     1       3.272   0.476  -5.463  1.00  0.00     0.174 HD
ATOM     30  H71 UNL     1       4.003  -1.026  -4.817  1.00  0.00     0.174 HD
ENDBRANCH  23  28
BRANCH  26  31
HETATM   31  N9  UNL     1       2.582  -1.500  -0.477  1.00  0.00    -0.401 NA
BRANCH  31  32
HETATM   32  C11 UNL     1       2.697  -2.065   0.730  1.00  0.00     0.187 C 
BRANCH  32  33
HETATM   33  C12 UNL     1       4.088  -2.581   1.179  1.00  0.00     0.330 C 
BRANCH  33  34
HETATM   34  N10 UNL     1       5.064  -1.543   1.296  1.00  0.00     0.085 N 
HETATM   35  C13 UNL     1       5.521  -0.881   0.132  1.00  0.00     0.309 C 
HETATM   36  C14 UNL     1       4.805  -0.568   2.324  1.00  0.00     0.309 C 
ENDBRANCH  33  34
ENDBRANCH  32  33
ENDBRANCH  31  32
ENDBRANCH  26  31
ENDBRANCH  18  19
ENDBRANCH  16  18
ENDBRANCH   9  16
BRANCH   7  37
HETATM   37  N3  UNL     1      -2.547   0.007  -2.492  1.00  0.00    -0.384 N 
ATOM     38  H32 UNL     1      -2.831  -0.198  -3.450  1.00  0.00     0.157 HD
ATOM     39  H31 UNL     1      -1.528   0.053  -2.462  1.00  0.00     0.157 HD
ENDBRANCH   7  37
BRANCH  12  40
HETATM   40  N12 UNL     1      -2.672   1.285   3.668  1.00  0.00    -0.234 N 
ATOM     41 2H12 UNL     1      -1.737   1.420   4.053  1.00  0.00     0.174 HD
ATOM     42 1H12 UNL     1      -3.523   1.359   4.226  1.00  0.00     0.174 HD
ENDBRANCH  12  40
TORSDOF 10
