REMARK  10 active torsions:
REMARK  status: ('A' for Active; 'I' for Inactive)
REMARK    1  A    between atoms: N1_1  and  C1_4 
REMARK    2  A    between atoms: C3_10  and  C4_11 
REMARK    3  A    between atoms: N5_14  and  C5_15 
REMARK    4  A    between atoms: C5_15  and  C6_16 
REMARK    5  A    between atoms: C6_16  and  N6_17 
REMARK    6  A    between atoms: C6_16  and  C7_21 
REMARK    7  A    between atoms: C7_21  and  C8_22 
REMARK    8  A    between atoms: C10_26  and  C11_27 
REMARK    9  A    between atoms: N10_33  and  N11_34 
REMARK   10  A    between atoms: N12_37  and  N13_38 
ROOT
HETATM    1  C6  UNL     1      -0.428   0.000  -0.280  1.00  0.00     0.207 C 
ENDROOT
BRANCH   1   2
HETATM    2  C5  UNL     1      -1.406   1.153  -0.518  1.00  0.00     0.162 C 
BRANCH   2   3
HETATM    3  N5  UNL     1      -2.766   0.728  -0.432  1.00  0.00    -0.348 N 
HETATM    4  C3  UNL     1      -3.561   0.677   0.636  1.00  0.00     0.129 A 
HETATM    5  C2  UNL     1      -4.790   0.205   0.224  1.00  0.00     0.095 A 
HETATM    6  N3  UNL     1      -6.032  -0.116   0.625  1.00  0.00    -0.296 N 
HETATM    7  C14 UNL     1      -4.739  -0.035  -1.120  1.00  0.00     0.055 A 
HETATM    8  N2  UNL     1      -6.741  -0.542  -0.420  1.00  0.00    -0.285 N 
ATOM      9  H3  UNL     1      -6.379  -0.045   1.582  1.00  0.00     0.187 HD
HETATM   10  C1  UNL     1      -5.988  -0.510  -1.512  1.00  0.00     0.127 A 
ATOM     11  H2  UNL     1      -7.714  -0.846  -0.386  1.00  0.00     0.188 HD
HETATM   12  C13 UNL     1      -3.466   0.301  -1.495  1.00  0.00     0.109 A 
BRANCH   4  13
HETATM   13  C4  UNL     1      -3.222   1.048   2.030  1.00  0.00     0.283 C 
HETATM   14  N4  UNL     1      -4.203   0.936   3.033  1.00  0.00    -0.056 NA
HETATM   15  O1  UNL     1      -2.091   1.464   2.370  1.00  0.00    -0.269 OA
ENDBRANCH   4  13
BRANCH  10  16
HETATM   16  N1  UNL     1      -6.322  -0.844  -2.703  1.00  0.00    -0.384 N 
ATOM     17  H12 UNL     1      -7.237  -1.192  -2.990  1.00  0.00     0.157 HD
ATOM     18  H11 UNL     1      -5.743  -0.819  -3.542  1.00  0.00     0.157 HD
ENDBRANCH  10  16
ENDBRANCH   2   3
ENDBRANCH   1   2
BRANCH   1  19
HETATM   19  N6  UNL     1      -0.617  -1.042  -1.257  1.00  0.00    -0.073 N 
ATOM     20  H63 UNL     1      -1.584  -1.366  -1.281  1.00  0.00     0.274 HD
ATOM     21  H62 UNL     1      -0.552  -0.683  -2.209  1.00  0.00     0.274 HD
ATOM     22  H61 UNL     1       0.035  -1.810  -1.098  1.00  0.00     0.274 HD
ENDBRANCH   1  19
BRANCH   1  23
HETATM   23  C7  UNL     1       0.933   0.604  -0.282  1.00  0.00     0.095 C 
BRANCH  23  24
HETATM   24  C8  UNL     1       2.017  -0.349  -0.061  1.00  0.00     0.053 A 
HETATM   25  C9  UNL     1       1.981  -1.691   0.159  1.00  0.00     0.117 A 
HETATM   26  N7  UNL     1       3.239  -2.090   0.297  1.00  0.00    -0.346 N 
HETATM   27  C10 UNL     1       4.115  -1.023   0.170  1.00  0.00     0.174 A 
ATOM     28  H7  UNL     1       3.524  -3.054   0.473  1.00  0.00     0.167 HD
HETATM   29  N12 UNL     1       3.339   0.014  -0.046  1.00  0.00    -0.246 N 
BRANCH  27  30
HETATM   30  C11 UNL     1       5.558  -1.223   0.286  1.00  0.00     0.189 A 
HETATM   31  N8  UNL     1       6.102  -2.470   0.523  1.00  0.00    -0.280 N 
HETATM   32  N9  UNL     1       7.404  -2.362   0.580  1.00  0.00    -0.293 N 
ATOM     33  H8  UNL     1       5.574  -3.335   0.635  1.00  0.00     0.188 HD
HETATM   34  C12 UNL     1       7.779  -1.097   0.392  1.00  0.00     0.224 A 
ATOM     35  H9  UNL     1       8.044  -3.139   0.745  1.00  0.00     0.187 HD
HETATM   36  N10 UNL     1       6.586  -0.407   0.210  1.00  0.00    -0.236 N 
BRANCH  36  37
HETATM   37  N11 UNL     1       6.597   0.965  -0.017  1.00  0.00    -0.336 N 
ATOM     38 2H11 UNL     1       5.722   1.471  -0.151  1.00  0.00     0.177 HD
ATOM     39 1H11 UNL     1       7.395   1.598  -0.076  1.00  0.00     0.177 HD
ENDBRANCH  36  37
ENDBRANCH  27  30
BRANCH  29  40
HETATM   40  N13 UNL     1       3.739   1.355  -0.244  1.00  0.00    -0.337 N 
ATOM     41 2H13 UNL     1       3.136   2.161  -0.412  1.00  0.00     0.177 HD
ATOM     42 1H13 UNL     1       4.723   1.625  -0.233  1.00  0.00     0.177 HD
ENDBRANCH  29  40
ENDBRANCH  23  24
ENDBRANCH   1  23
TORSDOF 10
