REMARK  11 active torsions:
REMARK  status: ('A' for Active; 'I' for Inactive)
REMARK    1  A    between atoms: C2_2  and  C3_3 
REMARK    2  A    between atoms: C3_3  and  C4_4 
REMARK    3  A    between atoms: C4_4  and  C5_5 
REMARK    4  A    between atoms: C5_5  and  N1_6 
REMARK    5  A    between atoms: N1_6  and  C6_8 
REMARK    6  A    between atoms: C6_8  and  C7_9 
REMARK    7  A    between atoms: C7_9  and  N2_10 
REMARK    8  A    between atoms: N2_10  and  C8_11 
REMARK    9  A    between atoms: C9_14  and  N4_15 
REMARK   10  A    between atoms: C11_21  and  N6_22 
REMARK   11  A    between atoms: C12_27  and  N8_28 
ROOT
HETATM    1  C8  UNL     1      -2.228  -0.679  -0.512  1.00  0.00     0.222 A 
HETATM    2  N3  UNL     1      -2.647  -1.969  -0.371  1.00  0.00    -0.162 N 
ATOM      3  H3  UNL     1      -2.012  -2.720  -0.642  1.00  0.00     0.187 HD
HETATM    4  C9  UNL     1      -3.825  -2.285   0.095  1.00  0.00     0.678 A 
HETATM    5  N5  UNL     1      -4.720  -1.335   0.475  1.00  0.00    -0.186 N 
ATOM      6  H5  UNL     1      -5.637  -1.594   0.838  1.00  0.00     0.184 HD
HETATM    7  C10 UNL     1      -4.360  -0.041   0.358  1.00  0.00     0.125 A 
HETATM    8  C11 UNL     1      -5.221   0.993   0.724  1.00  0.00     0.144 A 
HETATM    9  N7  UNL     1      -4.842   2.286   0.599  1.00  0.00    -0.175 N 
ATOM     10  H7  UNL     1      -5.478   3.036   0.869  1.00  0.00     0.186 HD
HETATM   11  C12 UNL     1      -3.632   2.572   0.120  1.00  0.00     0.678 A 
HETATM   12  N9  UNL     1      -2.771   1.621  -0.246  1.00  0.00    -0.185 N 
ATOM     13  H9  UNL     1      -1.851   1.869  -0.611  1.00  0.00     0.184 HD
HETATM   14  C13 UNL     1      -3.136   0.319  -0.126  1.00  0.00     0.138 A 
ENDROOT
BRANCH   1  15
HETATM   15  N2  UNL     1      -1.149  -0.385  -0.937  1.00  0.00    -0.399 NA
BRANCH  15  16
HETATM   16  C7  UNL     1       0.023  -0.022  -1.398  1.00  0.00     0.176 C 
BRANCH  16  17
HETATM   17  C6  UNL     1       1.245  -0.649  -0.657  1.00  0.00     0.173 C 
BRANCH  17  18
HETATM   18  N1  UNL     1       2.390  -0.124  -1.314  1.00  0.00    -0.416 N 
ATOM     19  H1  UNL     1       2.317   0.533  -2.091  1.00  0.00     0.153 HD
BRANCH  18  20
HETATM   20  C5  UNL     1       3.661  -0.579  -0.812  1.00  0.00     0.114 C 
BRANCH  20  21
HETATM   21  C4  UNL     1       3.860  -0.013   0.569  1.00  0.00     0.023 C 
BRANCH  21  22
HETATM   22  C3  UNL     1       5.163  -0.449   1.155  1.00  0.00     0.028 C 
BRANCH  22  23
HETATM   23  C2  UNL     1       6.273   0.020   0.301  1.00  0.00    -0.037 C 
HETATM   24  C1  UNL     1       7.174   0.840   0.810  1.00  0.00     0.007 C 
ENDBRANCH  22  23
ENDBRANCH  21  22
ENDBRANCH  20  21
ENDBRANCH  18  20
ENDBRANCH  17  18
ENDBRANCH  16  17
ENDBRANCH  15  16
ENDBRANCH   1  15
BRANCH   4  25
HETATM   25  N4  UNL     1      -4.220  -3.523   0.225  1.00  0.00    -0.234 N 
ATOM     26  H42 UNL     1      -3.548  -4.236  -0.060  1.00  0.00     0.174 HD
ATOM     27  H41 UNL     1      -5.140  -3.770   0.589  1.00  0.00     0.174 HD
ENDBRANCH   4  25
BRANCH   8  28
HETATM   28  N6  UNL     1      -6.372   0.739   1.181  1.00  0.00    -0.383 N 
ATOM     29  H62 UNL     1      -6.658  -0.236   1.275  1.00  0.00     0.157 HD
ATOM     30  H61 UNL     1      -7.002   1.495   1.449  1.00  0.00     0.157 HD
ENDBRANCH   8  28
BRANCH  11  31
HETATM   31  N8  UNL     1      -3.325   3.836   0.022  1.00  0.00    -0.234 N 
ATOM     32  H82 UNL     1      -3.983   4.563   0.302  1.00  0.00     0.174 HD
ATOM     33  H81 UNL     1      -2.399   4.055  -0.345  1.00  0.00     0.174 HD
ENDBRANCH  11  31
TORSDOF 11
