REMARK  4 active torsions:
REMARK  status: ('A' for Active; 'I' for Inactive)
REMARK    1  A    between atoms: C2_3  and  O1_4 
REMARK    2  A    between atoms: O1_4  and  C3_5 
REMARK    3  A    between atoms: C3_5  and  C4_7 
REMARK    4  A    between atoms: C4_7  and  C5_8 
ROOT
HETATM    1  N1  UNL     1       5.865   0.608  -0.905  1.00  0.00    -0.195 NA
HETATM    2  C1  UNL     1       4.975  -0.011  -0.490  1.00  0.00     0.085 C 
HETATM    3  C2  UNL     1       3.849  -0.808   0.028  1.00  0.00     0.302 C 
ENDROOT
BRANCH   3   4
HETATM    4  O1  UNL     1       2.757   0.076   0.206  1.00  0.00    -0.307 OA
BRANCH   4   5
HETATM    5  C3  UNL     1       1.520  -0.346   0.684  1.00  0.00     0.260 C 
HETATM    6  O2  UNL     1       1.427  -1.575   0.952  1.00  0.00    -0.265 OA
BRANCH   5   7
HETATM    7  C4  UNL     1       0.353   0.512   0.892  1.00  0.00     0.115 C 
BRANCH   7   8
HETATM    8  C5  UNL     1      -0.689   0.407  -0.196  1.00  0.00    -0.005 C 
HETATM    9  C6  UNL     1      -1.807   1.353   0.188  1.00  0.00     0.005 C 
HETATM   10  C7  UNL     1      -2.974   0.839  -0.603  1.00  0.00     0.000 C 
HETATM   11  C8  UNL     1      -2.826  -0.670  -0.498  1.00  0.00     0.000 C 
HETATM   12  C9  UNL     1      -1.358  -0.918  -0.257  1.00  0.00     0.005 C 
ENDBRANCH   7   8
ENDBRANCH   5   7
ENDBRANCH   4   5
ENDBRANCH   3   4
TORSDOF 4
