REMARK  3 active torsions:
REMARK  status: ('A' for Active; 'I' for Inactive)
REMARK    1  A    between atoms: C1_2  and  C2_3 
REMARK    2  A    between atoms: C2_3  and  C3_5 
REMARK    3  A    between atoms: C3_5  and  C4_6 
ROOT
HETATM    1  C4  UNL     1       0.244  -0.494   0.239  1.00  0.00     0.054 C 
HETATM    2  C5  UNL     1      -0.170   0.923  -0.047  1.00  0.00     0.015 C 
HETATM    3  C6  UNL     1      -1.620   0.983  -0.467  1.00  0.00     0.002 C 
HETATM    4  C7  UNL     1      -2.550   0.538   0.635  1.00  0.00     0.010 C 
HETATM    5  C8  UNL     1      -2.567  -0.968   0.783  1.00  0.00     0.074 C 
HETATM    6  S1  UNL     1      -1.146  -1.584  -0.166  1.00  0.00    -0.164 SA
ENDROOT
BRANCH   1   7
HETATM    7  C3  UNL     1       1.495  -0.885  -0.515  1.00  0.00     0.101 C 
BRANCH   7   8
HETATM    8  C2  UNL     1       2.599   0.024  -0.103  1.00  0.00     0.187 C 
HETATM    9  O2  UNL     1       2.411   0.933   0.745  1.00  0.00    -0.290 OA
BRANCH   8  10
HETATM   10  C1  UNL     1       3.921  -0.108  -0.662  1.00  0.00     0.308 C 
HETATM   11  O1  UNL     1       4.140  -1.001  -1.505  1.00  0.00    -0.298 OA
ENDBRANCH   8  10
ENDBRANCH   7   8
ENDBRANCH   1   7
TORSDOF 3
