REMARK  3 active torsions:
REMARK  status: ('A' for Active; 'I' for Inactive)
REMARK    1  A    between atoms: C2_3  and  N2_4 
REMARK    2  A    between atoms: C2_3  and  S1_9 
REMARK       I    between atoms: N2_4  and  C3_6 
REMARK    3  A    between atoms: S1_9  and  C4_12 
ROOT
HETATM    1  N1  UNL     1       0.767  -3.410  -0.240  1.00  0.00    -0.194 NA
HETATM    2  C1  UNL     1       0.965  -2.321  -0.615  1.00  0.00     0.101 C 
HETATM    3  C2  UNL     1       1.223  -0.956  -1.073  1.00  0.00     0.321 C 
ENDROOT
BRANCH   3   4
HETATM    4  N2  UNL     1       2.046  -0.213  -0.131  1.00  0.00    -0.316 N 
HETATM    5  C3  UNL     1       3.341   0.245  -0.435  1.00  0.00     0.330 C 
HETATM    6  N3  UNL     1       4.094   0.959   0.514  1.00  0.00    -0.040 NA
HETATM    7  O1  UNL     1       3.835   0.020  -1.558  1.00  0.00    -0.251 OA
ATOM      8  H2  UNL     1       1.666  -0.015   0.794  1.00  0.00     0.166 HD
ENDBRANCH   3   4
BRANCH   3   9
HETATM    9  S1  UNL     1      -0.238  -0.127  -1.536  1.00  0.00     0.210 S 
HETATM   10  O2  UNL     1      -0.895  -0.902  -2.643  1.00  0.00    -0.219 OA
HETATM   11  O3  UNL     1       0.164   1.208  -2.151  1.00  0.00    -0.219 OA
BRANCH   9  12
HETATM   12  C4  UNL     1      -1.380   0.174  -0.305  1.00  0.00     0.062 A 
HETATM   13  C5  UNL     1      -2.348  -0.786  -0.072  1.00  0.00     0.023 A 
HETATM   14  C6  UNL     1      -3.308  -0.629   0.899  1.00  0.00     0.002 A 
HETATM   15  C7  UNL     1      -3.300   0.508   1.652  1.00  0.00     0.000 A 
HETATM   16  C8  UNL     1      -2.353   1.495   1.456  1.00  0.00     0.002 A 
HETATM   17  C9  UNL     1      -1.410   1.318   0.487  1.00  0.00     0.023 A 
ENDBRANCH   9  12
ENDBRANCH   3   9
TORSDOF 3
