REMARK  2 active torsions:
REMARK  status: ('A' for Active; 'I' for Inactive)
REMARK    1  A    between atoms: C5_8  and  C6_9 
REMARK    2  A    between atoms: C7_10  and  C8_11 
ROOT
HETATM    1  N1  UNL     1      -8.871   0.526  -2.142  1.00  0.00    -0.190 NA
HETATM    2  C1  UNL     1      -7.808   0.471  -1.645  1.00  0.00     0.117 C 
HETATM    3  C2  UNL     1      -6.519   0.395  -1.023  1.00  0.00     0.116 A 
HETATM    4  C3  UNL     1      -5.300   0.201  -1.641  1.00  0.00     0.073 A 
HETATM    5  C4  UNL     1      -4.303   0.193  -0.660  1.00  0.00     0.062 A 
HETATM    6  N2  UNL     1      -2.972   0.047  -0.687  1.00  0.00    -0.347 N 
ATOM      7  H2  UNL     1      -2.499  -0.094  -1.580  1.00  0.00     0.167 HD
HETATM    8  C5  UNL     1      -2.251   0.084   0.448  1.00  0.00     0.087 A 
HETATM    9  C18 UNL     1      -2.927   0.277   1.635  1.00  0.00     0.041 A 
HETATM   10  C19 UNL     1      -4.289   0.431   1.712  1.00  0.00     0.035 A 
HETATM   11  C20 UNL     1      -4.997   0.388   0.529  1.00  0.00     0.060 A 
HETATM   12  N3  UNL     1      -6.308   0.505   0.296  1.00  0.00    -0.346 N 
ATOM     13  H3  UNL     1      -7.027   0.653   1.004  1.00  0.00     0.167 HD
ENDROOT
BRANCH   8  14
HETATM   14  C6  UNL     1      -0.822  -0.074   0.404  1.00  0.00    -0.043 C 
HETATM   15  C7  UNL     1       0.380  -0.213   0.387  1.00  0.00    -0.060 C 
BRANCH  15  16
HETATM   16  C8  UNL     1       1.808  -0.379   0.392  1.00  0.00     0.018 A 
HETATM   17  C9  UNL     1       2.464  -1.167   1.322  1.00  0.00     0.021 A 
HETATM   18  C10 UNL     1       3.833  -1.324   1.323  1.00  0.00     0.013 A 
HETATM   19  C11 UNL     1       4.613  -0.691   0.381  1.00  0.00    -0.026 A 
HETATM   20  C12 UNL     1       6.001  -0.831   0.358  1.00  0.00     0.012 A 
HETATM   21  C16 UNL     1       3.964   0.106  -0.562  1.00  0.00    -0.025 A 
HETATM   22  C13 UNL     1       6.746  -0.184  -0.597  1.00  0.00     0.001 A 
HETATM   23  C14 UNL     1       6.105   0.602  -1.527  1.00  0.00     0.001 A 
HETATM   24  C15 UNL     1       4.724   0.747  -1.510  1.00  0.00     0.012 A 
HETATM   25  C17 UNL     1       2.592   0.253  -0.550  1.00  0.00     0.032 A 
ENDBRANCH  15  16
ENDBRANCH   8  14
TORSDOF 2
