REMARK  5 active torsions:
REMARK  status: ('A' for Active; 'I' for Inactive)
REMARK    1  A    between atoms: N1_1  and  S1_4 
REMARK    2  A    between atoms: S1_4  and  C1_7 
REMARK    3  A    between atoms: C5_13  and  C6_14 
REMARK    4  A    between atoms: C6_14  and  C7_15 
REMARK    5  A    between atoms: C10_18  and  C11_19 
ROOT
HETATM    1  C1  UNL     1       5.797   0.535  -0.718  1.00  0.00     0.080 A 
HETATM    2  C2  UNL     1       5.767   1.250   0.461  1.00  0.00     0.027 A 
HETATM    3  C3  UNL     1       4.825   0.954   1.415  1.00  0.00     0.032 A 
HETATM    4  C4  UNL     1       3.885  -0.040   1.259  1.00  0.00     0.042 A 
HETATM    5  N2  UNL     1       2.877  -0.533   2.001  1.00  0.00    -0.359 N 
ATOM      6  H2  UNL     1       2.613  -0.200   2.928  1.00  0.00     0.166 HD
HETATM    7  C5  UNL     1       2.270  -1.533   1.333  1.00  0.00     0.014 A 
HETATM    8  C21 UNL     1       2.920  -1.679   0.117  1.00  0.00     0.039 A 
HETATM    9  C22 UNL     1       3.932  -0.749   0.064  1.00  0.00    -0.006 A 
HETATM   10  C23 UNL     1       4.866  -0.466  -0.899  1.00  0.00     0.039 A 
ENDROOT
BRANCH   7  11
HETATM   11  C6  UNL     1       1.131  -2.341   1.772  1.00  0.00     0.095 C 
BRANCH  11  12
HETATM   12  C7  UNL     1      -0.179  -1.747   1.370  1.00  0.00    -0.052 A 
HETATM   13  C8  UNL     1      -0.852  -0.860   2.183  1.00  0.00     0.008 A 
HETATM   14  C9  UNL     1      -2.075  -0.304   1.809  1.00  0.00     0.015 A 
HETATM   15  C10 UNL     1      -2.653  -0.632   0.603  1.00  0.00    -0.002 A 
HETATM   16  C19 UNL     1      -1.985  -1.518  -0.211  1.00  0.00     0.015 A 
HETATM   17  C20 UNL     1      -0.765  -2.070   0.164  1.00  0.00     0.008 A 
BRANCH  15  18
HETATM   18  C11 UNL     1      -3.945  -0.046   0.208  1.00  0.00     0.087 A 
HETATM   19  C12 UNL     1      -4.631  -0.286  -0.964  1.00  0.00     0.052 A 
HETATM   20  C13 UNL     1      -5.797   0.451  -0.957  1.00  0.00     0.000 A 
HETATM   21  C14 UNL     1      -6.845   0.603  -1.841  1.00  0.00     0.014 A 
HETATM   22  C18 UNL     1      -5.772   1.129   0.255  1.00  0.00     0.086 A 
HETATM   23  C15 UNL     1      -7.905   1.443  -1.538  1.00  0.00     0.001 A 
HETATM   24  C16 UNL     1      -7.903   2.126  -0.344  1.00  0.00     0.003 A 
HETATM   25  C17 UNL     1      -6.850   1.961   0.523  1.00  0.00     0.038 A 
HETATM   26  O3  UNL     1      -4.677   0.802   0.885  1.00  0.00    -0.309 OA
ENDBRANCH  15  18
ENDBRANCH  11  12
ENDBRANCH   7  11
BRANCH   1  27
HETATM   27  S1  UNL     1       6.985   0.878  -1.970  1.00  0.00     0.256 S 
HETATM   28  O1  UNL     1       7.282  -0.405  -2.702  1.00  0.00    -0.201 OA
HETATM   29  O2  UNL     1       8.270   1.368  -1.396  1.00  0.00    -0.201 OA
BRANCH  27  30
HETATM   30  N1  UNL     1       6.347   2.057  -3.044  1.00  0.00    -0.324 N 
ATOM     31  H12 UNL     1       6.196   1.895  -4.040  1.00  0.00     0.169 HD
ATOM     32  H11 UNL     1       6.146   2.926  -2.548  1.00  0.00     0.169 HD
ENDBRANCH  27  30
ENDBRANCH   1  27
TORSDOF 5
