REMARK  6 active torsions:
REMARK  status: ('A' for Active; 'I' for Inactive)
REMARK    1  A    between atoms: N1_2  and  C2_4 
REMARK    2  A    between atoms: C2_4  and  N2_6 
REMARK    3  A    between atoms: C5_9  and  C6_10 
REMARK    4  A    between atoms: C5_9  and  C15_23 
REMARK    5  A    between atoms: C7_11  and  C8_12 
REMARK    6  A    between atoms: C12_16  and  C13_17 
ROOT
HETATM    1  N2  UNL     1       2.888   1.019  -0.251  1.00  0.00    -0.357 N 
HETATM    2  C3  UNL     1       2.496   0.588   1.049  1.00  0.00     0.127 C 
HETATM    3  C4  UNL     1       1.240  -0.144   1.175  1.00  0.00     0.049 C 
HETATM    4  C5  UNL     1       0.750  -0.932  -0.018  1.00  0.00     0.070 C 
HETATM    5  C21 UNL     1       1.318  -0.574  -1.332  1.00  0.00     0.125 C 
HETATM    6 CL2  UNL     1       2.132  -2.046  -1.980  1.00  0.00    -0.121 Cl
HETATM    7  C22 UNL     1       2.237   0.571  -1.431  1.00  0.00     0.147 C 
ENDROOT
BRANCH   4   8
HETATM    8  C6  UNL     1      -0.708  -0.611  -0.057  1.00  0.00    -0.083 C 
HETATM    9  C7  UNL     1      -1.895  -0.308  -0.047  1.00  0.00    -0.047 C 
BRANCH   9  10
HETATM   10  C8  UNL     1      -3.285   0.087   0.017  1.00  0.00     0.089 A 
HETATM   11  C9  UNL     1      -4.139  -0.460   0.951  1.00  0.00     0.039 A 
HETATM   12  C10 UNL     1      -5.431  -0.050   1.040  1.00  0.00     0.005 A 
HETATM   13  C11 UNL     1      -5.866   0.932   0.172  1.00  0.00     0.034 A 
HETATM   14  C12 UNL     1      -5.018   1.496  -0.777  1.00  0.00     0.119 A 
HETATM   15  N3  UNL     1      -3.742   1.048  -0.823  1.00  0.00    -0.341 N 
HETATM   16  C14 UNL     1      -2.879   1.622  -1.810  1.00  0.00     0.157 C 
BRANCH  14  17
HETATM   17  C13 UNL     1      -5.520   2.537  -1.659  1.00  0.00     0.432 C 
HETATM   18  F1  UNL     1      -6.862   2.796  -1.330  1.00  0.00    -0.165 F 
HETATM   19  F2  UNL     1      -5.510   2.251  -2.998  1.00  0.00    -0.165 F 
HETATM   20  F3  UNL     1      -4.866   3.740  -1.351  1.00  0.00    -0.165 F 
ENDBRANCH  14  17
ENDBRANCH   9  10
ENDBRANCH   4   8
BRANCH   4  21
HETATM   21  C15 UNL     1       0.863  -2.388   0.263  1.00  0.00    -0.034 A 
HETATM   22  C16 UNL     1      -0.158  -3.304   0.154  1.00  0.00     0.009 A 
HETATM   23  C17 UNL     1       0.018  -4.646   0.462  1.00  0.00     0.002 A 
HETATM   24  C18 UNL     1       1.263  -5.047   0.883  1.00  0.00     0.024 A 
HETATM   25  C19 UNL     1       2.323  -4.138   1.000  1.00  0.00     0.034 A 
HETATM   26 CL1  UNL     1       3.874  -4.746   1.527  1.00  0.00    -0.084 Cl
HETATM   27  C20 UNL     1       2.119  -2.819   0.692  1.00  0.00     0.032 A 
ENDBRANCH   4  21
BRANCH   1  28
HETATM   28  C2  UNL     1       4.010   1.940  -0.300  1.00  0.00     0.169 C 
HETATM   29  S1  UNL     1       4.530   2.495  -1.739  1.00  0.00    -0.041 SA
BRANCH  28  30
HETATM   30  N1  UNL     1       4.660   2.358   0.886  1.00  0.00    -0.371 N 
HETATM   31  C1  UNL     1       5.779   3.274   0.792  1.00  0.00     0.148 C 
ATOM     32  H1  UNL     1       4.345   2.019   1.795  1.00  0.00     0.161 HD
ENDBRANCH  28  30
ENDBRANCH   1  28
TORSDOF 6
