REMARK  1 active torsions:
REMARK  status: ('A' for Active; 'I' for Inactive)
REMARK    1  A    between atoms: C19_24  and  C20_25 
ROOT
HETATM    1  O1  UNL     1      -1.553   1.573  -2.058  1.00  0.00    -0.273 OA
HETATM    2  C1  UNL     1      -1.945   0.504  -1.527  1.00  0.00     0.228 C 
HETATM    3  N1  UNL     1      -2.335  -0.492  -2.460  1.00  0.00    -0.360 N 
ATOM      4  H1  UNL     1      -2.666  -0.187  -3.376  1.00  0.00     0.162 HD
HETATM    5  C2  UNL     1      -2.292  -1.914  -2.191  1.00  0.00     0.123 C 
HETATM    6  C3  UNL     1      -2.512  -2.109  -0.690  1.00  0.00     0.025 C 
HETATM    7  C4  UNL     1      -1.655  -1.155   0.113  1.00  0.00     0.007 C 
HETATM    8  C5  UNL     1      -0.233  -1.527  -0.311  1.00  0.00     0.006 C 
HETATM    9  C6  UNL     1       0.669  -1.795   0.872  1.00  0.00     0.000 C 
HETATM   10  C7  UNL     1       1.849  -2.614   0.415  1.00  0.00     0.000 C 
HETATM   11  C8  UNL     1       2.857  -1.831  -0.358  1.00  0.00     0.000 C 
HETATM   12  C9  UNL     1       3.717  -1.018   0.558  1.00  0.00     0.000 C 
HETATM   13  C10 UNL     1       4.772  -0.232  -0.181  1.00  0.00     0.001 C 
HETATM   14  C11 UNL     1       4.192   0.760  -1.163  1.00  0.00     0.016 C 
HETATM   15  C12 UNL     1       3.435   1.831  -0.452  1.00  0.00     0.058 C 
HETATM   16 BR1  UNL     1       4.280   3.576  -0.713  1.00  0.00    -0.091 Br
HETATM   17  C13 UNL     1       2.007   1.966  -0.835  1.00  0.00     0.027 C 
HETATM   18  C14 UNL     1       1.122   2.314   0.366  1.00  0.00     0.081 C 
HETATM   19  C15 UNL     1      -0.062   1.826   0.551  1.00  0.00    -0.175 C 
HETATM   20  C16 UNL     1      -1.339   1.299   0.750  1.00  0.00     0.089 C 
HETATM   21  C17 UNL     1      -2.347   2.440   0.736  1.00  0.00     0.099 C 
HETATM   22 CL1  UNL     1      -1.667   3.906  -0.068  1.00  0.00    -0.124 Cl
HETATM   23  C18 UNL     1      -3.600   1.967   0.119  1.00  0.00     0.036 C 
HETATM   24  C19 UNL     1      -3.438   0.449   0.318  1.00  0.00     0.114 C 
HETATM   25  C21 UNL     1      -2.001   0.283  -0.061  1.00  0.00     0.071 C 
ENDROOT
BRANCH  24  26
HETATM   26  C20 UNL     1      -4.000   0.117   1.599  1.00  0.00     0.392 C 
HETATM   27  F1  UNL     1      -5.379   0.485   1.526  1.00  0.00    -0.171 F 
HETATM   28  F2  UNL     1      -3.649   0.937   2.692  1.00  0.00    -0.171 F 
HETATM   29  F3  UNL     1      -4.016  -1.126   2.112  1.00  0.00    -0.171 F 
ENDBRANCH  24  26
TORSDOF 1
