REMARK  1 active torsions:
REMARK  status: ('A' for Active; 'I' for Inactive)
REMARK    1  A    between atoms: C2_2  and  O1_3 
ROOT
HETATM    1  C1  UNL     1       4.474   0.171   0.842  1.00  0.00     0.052 C 
HETATM    2  C2  UNL     1       3.139   0.073   0.110  1.00  0.00     0.092 C 
HETATM    3  C3  UNL     1       2.571   1.462   0.057  1.00  0.00     0.044 C 
HETATM    4  C4  UNL     1       1.062   1.461   0.096  1.00  0.00     0.013 C 
HETATM    5  C5  UNL     1       0.502   0.148  -0.472  1.00  0.00     0.025 C 
HETATM    6  C6  UNL     1       0.954  -0.908   0.439  1.00  0.00    -0.054 C 
HETATM    7  C7  UNL     1       2.268  -0.936   0.721  1.00  0.00     0.048 C 
HETATM    8 CL1  UNL     1       2.871  -2.186   1.814  1.00  0.00    -0.086 Cl
HETATM    9  C8  UNL     1       0.066  -1.914   1.044  1.00  0.00     0.037 C 
HETATM   10  C9  UNL     1      -1.280  -1.261   1.254  1.00  0.00     0.014 C 
HETATM   11  C10 UNL     1      -1.783  -0.845  -0.112  1.00  0.00    -0.035 C 
HETATM   12  C11 UNL     1      -1.891  -2.039  -1.011  1.00  0.00     0.016 C 
HETATM   13  C12 UNL     1      -3.179  -0.291   0.086  1.00  0.00     0.026 C 
HETATM   14  C13 UNL     1      -3.067   1.196   0.043  1.00  0.00     0.060 C 
HETATM   15  S1  UNL     1      -3.762   1.894   1.589  1.00  0.00    -0.092 SA
HETATM   16  C14 UNL     1      -1.561   1.485   0.028  1.00  0.00     0.026 C 
HETATM   17  C15 UNL     1      -0.955   0.269  -0.676  1.00  0.00    -0.028 C 
HETATM   18  C16 UNL     1      -1.237   0.452  -2.148  1.00  0.00     0.016 C 
ENDROOT
BRANCH   2  19
HETATM   19  O1  UNL     1       3.465  -0.273  -1.222  1.00  0.00    -0.384 OA
ATOM     20  H1  UNL     1       2.634  -0.334  -1.678  1.00  0.00     0.211 HD
ENDBRANCH   2  19
TORSDOF 1
