REMARK  2 active torsions:
REMARK  status: ('A' for Active; 'I' for Inactive)
REMARK    1  A    between atoms: C2_2  and  N2_6 
REMARK    2  A    between atoms: N2_6  and  N3_8 
ROOT
HETATM    1  N3  UNL     1       2.518   1.120  -0.331  1.00  0.00    -0.307 N 
ATOM      2  H3  UNL     1       2.566   2.111  -0.567  1.00  0.00     0.186 HD
HETATM    3  C3  UNL     1       1.923   0.741   0.733  1.00  0.00     0.007 C 
HETATM    4  C4  UNL     1       1.870  -0.703   1.045  1.00  0.00     0.054 C 
HETATM    5  C5  UNL     1       1.108  -1.470  -0.014  1.00  0.00     0.006 C 
HETATM    6  C6  UNL     1      -0.010  -2.306   0.608  1.00  0.00     0.000 C 
HETATM    7  C7  UNL     1      -1.104  -2.416  -0.434  1.00  0.00     0.000 C 
HETATM    8  C8  UNL     1      -2.408  -2.090   0.224  1.00  0.00     0.000 C 
HETATM    9  C9  UNL     1      -3.352  -1.426  -0.751  1.00  0.00     0.000 C 
HETATM   10  C10 UNL     1      -3.990  -0.182  -0.134  1.00  0.00     0.000 C 
HETATM   11  C11 UNL     1      -3.785   1.029  -1.005  1.00  0.00     0.000 C 
HETATM   12  C12 UNL     1      -2.847   2.045  -0.373  1.00  0.00     0.007 C 
HETATM   13  C13 UNL     1      -1.473   1.775  -0.892  1.00  0.00     0.081 C 
HETATM   14  C14 UNL     1      -0.391   2.378  -0.086  1.00  0.00     0.160 C 
HETATM   15  O1  UNL     1       0.374   3.229  -0.564  1.00  0.00    -0.295 OA
HETATM   16  C15 UNL     1      -0.134   2.023   1.334  1.00  0.00     0.244 C 
HETATM   17  F1  UNL     1      -0.964   1.043   1.794  1.00  0.00    -0.241 F 
HETATM   18  C16 UNL     1       1.313   1.744   1.610  1.00  0.00     0.099 C 
ENDROOT
BRANCH   1  19
HETATM   19  N2  UNL     1       3.101   0.172  -1.168  1.00  0.00    -0.290 N 
ATOM     20  H2  UNL     1       2.543  -0.234  -1.919  1.00  0.00     0.188 HD
BRANCH  19  21
HETATM   21  C2  UNL     1       4.447  -0.247  -1.008  1.00  0.00     0.085 C 
HETATM   22  C1  UNL     1       5.508   0.698  -0.566  1.00  0.00     0.090 C 
HETATM   23  N1  UNL     1       4.739  -1.471  -1.255  1.00  0.00    -0.388 N 
ATOM     24  H12 UNL     1       5.707  -1.772  -1.140  1.00  0.00     0.157 HD
ATOM     25  H11 UNL     1       4.012  -2.119  -1.558  1.00  0.00     0.157 HD
ENDBRANCH  19  21
ENDBRANCH   1  19
TORSDOF 2
