REMARK  1 active torsions:
REMARK  status: ('A' for Active; 'I' for Inactive)
REMARK    1  A    between atoms: N1_1  and  C1_4 
REMARK       I    between atoms: N4_13  and  C5_14 
REMARK       I    between atoms: C5_14  and  N5_15 
REMARK       I    between atoms: C5_14  and  N6_19 
ROOT
HETATM    1  C1  UNL     1      -2.360   0.764  -0.057  1.00  0.00     0.680 A 
HETATM    2  N2  UNL     1      -3.080  -0.301   0.343  1.00  0.00    -0.154 N 
ATOM      3  H2  UNL     1      -4.097  -0.262   0.414  1.00  0.00     0.187 HD
HETATM    4  C2  UNL     1      -2.395  -1.420   0.645  1.00  0.00     0.290 A 
HETATM    5  O1  UNL     1      -3.055  -2.440   1.026  1.00  0.00    -0.265 OA
HETATM    6  C3  UNL     1      -1.025  -1.501   0.560  1.00  0.00     0.147 A 
HETATM    7  N3  UNL     1      -0.098  -2.452   0.789  1.00  0.00    -0.345 N 
ATOM      8  H3  UNL     1      -0.305  -3.398   1.109  1.00  0.00     0.167 HD
HETATM    9  C4  UNL     1       1.142  -1.980   0.537  1.00  0.00     0.189 A 
HETATM   10  N4  UNL     1       1.020  -0.701   0.137  1.00  0.00    -0.276 N 
HETATM   11  C5  UNL     1       2.079   0.214  -0.242  1.00  0.00     0.489 C 
HETATM   12  N5  UNL     1       2.347   1.208   0.765  1.00  0.00    -0.032 N 
ATOM     13  H51 UNL     1       3.092   1.852   0.498  1.00  0.00     0.279 HD
ATOM     14  H52 UNL     1       2.547   0.771   1.665  1.00  0.00     0.279 HD
ATOM     15  H53 UNL     1       1.497   1.715   1.012  1.00  0.00     0.279 HD
HETATM   16  N6  UNL     1       1.781   0.862  -1.496  1.00  0.00    -0.032 N 
ATOM     17  H61 UNL     1       2.526   1.506  -1.763  1.00  0.00     0.279 HD
ATOM     18  H62 UNL     1       0.873   1.327  -1.472  1.00  0.00     0.279 HD
ATOM     19  H63 UNL     1       1.589   0.184  -2.233  1.00  0.00     0.279 HD
HETATM   20  C6  UNL     1      -0.292  -0.384   0.143  1.00  0.00     0.160 A 
HETATM   21  N7  UNL     1      -1.019   0.707  -0.147  1.00  0.00    -0.174 N 
ATOM     22  H7  UNL     1      -0.524   1.544  -0.454  1.00  0.00     0.186 HD
ENDROOT
BRANCH   1  23
HETATM   23  N1  UNL     1      -2.987   1.853  -0.354  1.00  0.00    -0.234 N 
ATOM     24  H12 UNL     1      -4.004   1.896  -0.286  1.00  0.00     0.174 HD
ATOM     25  H11 UNL     1      -2.442   2.660  -0.657  1.00  0.00     0.174 HD
ENDBRANCH   1  23
TORSDOF 1
