REMARK  7 active torsions:
REMARK  status: ('A' for Active; 'I' for Inactive)
REMARK    1  A    between atoms: C4_7  and  C5_8 
REMARK       I    between atoms: C5_8  and  N3_10 
REMARK    2  A    between atoms: N3_10  and  C6_12 
REMARK    3  A    between atoms: C6_12  and  C7_13 
REMARK    4  A    between atoms: C6_12  and  C8_23 
REMARK       I    between atoms: C7_13  and  N4_15 
REMARK    5  A    between atoms: N4_15  and  S1_17 
REMARK    6  A    between atoms: S1_17  and  N5_18 
REMARK    7  A    between atoms: C8_23  and  N6_26 
ROOT
HETATM    1  C6  UNL     1      -1.373  -0.598  -0.690  1.00  0.00     0.212 C 
ENDROOT
BRANCH   1   2
HETATM    2  N3  UNL     1      -0.268  -0.227   0.259  1.00  0.00    -0.340 N 
HETATM    3  C5  UNL     1       1.053  -0.300  -0.200  1.00  0.00     0.272 C 
HETATM    4  O1  UNL     1       1.188  -0.816  -1.373  1.00  0.00    -0.266 OA
ATOM      5  H3  UNL     1      -0.475   0.070   1.213  1.00  0.00     0.163 HD
BRANCH   3   6
HETATM    6  C4  UNL     1       2.249   0.126   0.457  1.00  0.00     0.144 A 
HETATM    7  N2  UNL     1       2.434   1.014   1.477  1.00  0.00    -0.290 N 
HETATM    8  N1  UNL     1       3.725   1.251   1.652  1.00  0.00    -0.301 N 
HETATM    9  C3  UNL     1       1.358   1.669   2.181  1.00  0.00     0.178 C 
HETATM   10  C2  UNL     1       4.463   0.567   0.801  1.00  0.00     0.049 A 
ATOM     11  H1  UNL     1       4.101   1.884   2.358  1.00  0.00     0.187 HD
HETATM   12  C1  UNL     1       5.955   0.504   0.646  1.00  0.00     0.072 C 
HETATM   13  C11 UNL     1       3.555  -0.159   0.024  1.00  0.00     0.103 A 
HETATM   14  N7  UNL     1       3.921  -1.097  -0.997  1.00  0.00    -0.098 NA
ENDBRANCH   3   6
ENDBRANCH   1   2
BRANCH   1  15
HETATM   15  C7  UNL     1      -2.313   0.584  -0.581  1.00  0.00     0.257 C 
HETATM   16  O2  UNL     1      -3.455   0.482  -0.227  1.00  0.00    -0.270 OA
HETATM   17  N4  UNL     1      -1.784   1.894  -0.895  1.00  0.00    -0.236 N 
ATOM     18  H4  UNL     1      -0.819   1.948  -1.222  1.00  0.00     0.183 HD
BRANCH  17  19
HETATM   19  S1  UNL     1      -2.649   3.342  -0.760  1.00  0.00     0.319 S 
HETATM   20  O3  UNL     1      -2.491   4.135  -2.037  1.00  0.00    -0.183 OA
HETATM   21  O4  UNL     1      -2.124   4.132   0.441  1.00  0.00    -0.183 OA
BRANCH  19  22
HETATM   22  N5  UNL     1      -4.304   3.031  -0.457  1.00  0.00    -0.311 N 
ATOM     23  H52 UNL     1      -4.700   2.095  -0.372  1.00  0.00     0.170 HD
ATOM     24  H51 UNL     1      -4.825   3.904  -0.376  1.00  0.00     0.170 HD
ENDBRANCH  19  22
ENDBRANCH  17  19
ENDBRANCH   1  15
BRANCH   1  25
HETATM   25  C8  UNL     1      -2.088  -1.839  -0.452  1.00  0.00     0.145 C 
HETATM   26  C9  UNL     1      -2.842  -2.002   0.832  1.00  0.00     0.048 C 
HETATM   27  C10 UNL     1      -1.202  -3.078  -0.538  1.00  0.00     0.048 C 
BRANCH  25  28
HETATM   28  N6  UNL     1      -3.024  -2.001  -1.566  1.00  0.00    -0.069 N 
ATOM     29  H63 UNL     1      -3.640  -1.199  -1.695  1.00  0.00     0.275 HD
ATOM     30  H62 UNL     1      -2.573  -1.964  -2.480  1.00  0.00     0.275 HD
ATOM     31  H61 UNL     1      -3.526  -2.873  -1.399  1.00  0.00     0.275 HD
ENDBRANCH  25  28
ENDBRANCH   1  25
TORSDOF 7
