REMARK  8 active torsions:
REMARK  status: ('A' for Active; 'I' for Inactive)
REMARK    1  A    between atoms: N2_3  and  C2_5 
REMARK    2  A    between atoms: C3_10  and  N5_11 
REMARK    3  A    between atoms: N7_19  and  C8_20 
REMARK    4  A    between atoms: C8_20  and  C9_21 
REMARK    5  A    between atoms: C9_21  and  N8_22 
REMARK    6  A    between atoms: N8_22  and  C10_24 
REMARK    7  A    between atoms: C11_29  and  C12_30 
REMARK    8  A    between atoms: C12_30  and  O1_31 
ROOT
HETATM    1  N1  UNL     1       0.909   4.985  -2.190  1.00  0.00    -0.171 NA
HETATM    2  C1  UNL     1       0.662   4.082  -1.481  1.00  0.00     0.196 C 
HETATM    3  N2  UNL     1       0.364   3.017  -0.618  1.00  0.00    -0.124 N 
ATOM      4  H2  UNL     1       0.926   2.879   0.222  1.00  0.00     0.197 HD
ENDROOT
BRANCH   3   5
HETATM    5  C2  UNL     1      -0.620   2.202  -0.874  1.00  0.00     0.723 A 
HETATM    6  N3  UNL     1      -1.452   2.249  -1.937  1.00  0.00    -0.116 N 
HETATM    7  N4  UNL     1      -2.324   1.264  -1.851  1.00  0.00    -0.117 N 
ATOM      8  H3  UNL     1      -1.412   2.938  -2.688  1.00  0.00     0.206 HD
HETATM    9  C3  UNL     1      -2.092   0.533  -0.720  1.00  0.00     0.712 A 
ATOM     10  H4  UNL     1      -3.063   1.075  -2.529  1.00  0.00     0.206 HD
HETATM   11  N7  UNL     1      -1.036   1.138  -0.144  1.00  0.00    -0.009 N 
BRANCH   9  12
HETATM   12  N5  UNL     1      -2.847  -0.589  -0.286  1.00  0.00    -0.213 N 
HETATM   13  C4  UNL     1      -2.516  -1.962  -0.373  1.00  0.00     0.168 C 
HETATM   14  C5  UNL     1      -3.748  -2.834  -0.444  1.00  0.00     0.252 C 
HETATM   15  N6  UNL     1      -4.711  -2.580   0.589  1.00  0.00    -0.072 N 
HETATM   16  C6  UNL     1      -4.479  -1.334   1.289  1.00  0.00     0.252 C 
ATOM     17  H62 UNL     1      -5.660  -2.617   0.218  1.00  0.00     0.277 HD
ATOM     18  H61 UNL     1      -4.757  -3.361   1.243  1.00  0.00     0.277 HD
HETATM   19  C7  UNL     1      -4.149  -0.248   0.315  1.00  0.00     0.168 C 
ENDBRANCH   9  12
BRANCH  11  20
HETATM   20  C8  UNL     1      -0.387   0.746   1.088  1.00  0.00     0.187 C 
BRANCH  20  21
HETATM   21  C9  UNL     1       0.760  -0.223   0.875  1.00  0.00     0.159 C 
BRANCH  21  22
HETATM   22  N8  UNL     1       1.799   0.333   0.043  1.00  0.00    -0.223 N 
ATOM     23  H8  UNL     1       1.518   0.897  -0.759  1.00  0.00     0.177 HD
BRANCH  22  24
HETATM   24  C10 UNL     1       3.057   0.163   0.249  1.00  0.00     0.694 A 
HETATM   25  N9  UNL     1       3.660  -0.534   1.229  1.00  0.00    -0.131 N 
HETATM   26  N10 UNL     1       4.985  -0.481   1.105  1.00  0.00    -0.272 N 
ATOM     27  H9  UNL     1       3.168  -1.036   1.968  1.00  0.00     0.205 HD
HETATM   28  C11 UNL     1       5.251   0.270   0.018  1.00  0.00     0.136 A 
ATOM     29  H10 UNL     1       5.669  -0.925   1.717  1.00  0.00     0.189 HD
HETATM   30  N11 UNL     1       4.050   0.661  -0.500  1.00  0.00    -0.176 N 
ATOM     31  H11 UNL     1       3.928   1.242  -1.329  1.00  0.00     0.185 HD
BRANCH  28  32
HETATM   32  C12 UNL     1       6.605   0.580  -0.474  1.00  0.00     0.242 C 
BRANCH  32  33
HETATM   33  O1  UNL     1       7.071  -0.554  -1.149  1.00  0.00    -0.393 OA
ATOM     34  H1  UNL     1       7.944  -0.354  -1.466  1.00  0.00     0.209 HD
ENDBRANCH  32  33
ENDBRANCH  28  32
ENDBRANCH  22  24
ENDBRANCH  21  22
ENDBRANCH  20  21
ENDBRANCH  11  20
ENDBRANCH   3   5
TORSDOF 8
