REMARK  5 active torsions:
REMARK  status: ('A' for Active; 'I' for Inactive)
REMARK    1  A    between atoms: N1_2  and  C2_4 
REMARK    2  A    between atoms: C2_4  and  C3_9 
REMARK    3  A    between atoms: N2_5  and  O1_7 
REMARK    4  A    between atoms: C5_13  and  N4_14 
REMARK       I    between atoms: N4_14  and  C6_16 
REMARK       I    between atoms: C6_16  and  N5_17 
REMARK       I    between atoms: C6_16  and  N6_21 
REMARK    5  A    between atoms: C7_27  and  N8_28 
REMARK       I    between atoms: N9_31  and  C10_32 
ROOT
HETATM    1  C3  UNL     1      -1.096  -1.220   0.168  1.00  0.00     0.070 A 
HETATM    2  C4  UNL     1      -2.499  -1.112   0.103  1.00  0.00     0.125 A 
HETATM    3  N3  UNL     1      -3.129   0.028  -0.179  1.00  0.00    -0.201 N 
ATOM      4  H3  UNL     1      -4.147   0.069  -0.217  1.00  0.00     0.183 HD
HETATM    5  C5  UNL     1      -2.382   1.123  -0.412  1.00  0.00     0.682 A 
HETATM    6  N7  UNL     1      -1.061   1.051  -0.358  1.00  0.00    -0.176 N 
ATOM      7  H7  UNL     1      -0.532   1.904  -0.541  1.00  0.00     0.186 HD
HETATM    8  C7  UNL     1      -0.354  -0.090  -0.073  1.00  0.00     0.134 A 
ENDROOT
BRANCH   5   9
HETATM    9  N4  UNL     1      -2.967   2.240  -0.689  1.00  0.00    -0.173 N 
HETATM   10  C6  UNL     1      -4.387   2.396  -0.766  1.00  0.00     0.494 C 
HETATM   11  N5  UNL     1      -4.694   3.668  -1.406  1.00  0.00    -0.032 N 
HETATM   12  N6  UNL     1      -4.997   2.428   0.552  1.00  0.00    -0.032 N 
ATOM     13  H53 UNL     1      -4.242   4.455  -0.940  1.00  0.00     0.278 HD
ATOM     14  H52 UNL     1      -4.244   3.762  -2.316  1.00  0.00     0.278 HD
ATOM     15  H51 UNL     1      -5.706   3.779  -1.461  1.00  0.00     0.278 HD
ATOM     16  H63 UNL     1      -4.743   1.606   1.099  1.00  0.00     0.278 HD
ATOM     17  H62 UNL     1      -4.575   3.147   1.139  1.00  0.00     0.278 HD
ATOM     18  H61 UNL     1      -6.009   2.539   0.497  1.00  0.00     0.278 HD
ATOM     19  H4  UNL     1      -2.383   3.058  -0.863  1.00  0.00     0.181 HD
ENDBRANCH   5   9
BRANCH   8  20
HETATM   20  N8  UNL     1       1.048  -0.047  -0.019  1.00  0.00    -0.363 N 
HETATM   21  C8  UNL     1       1.753   0.029   1.231  1.00  0.00     0.144 C 
HETATM   22  C9  UNL     1       2.476   1.401   1.145  1.00  0.00     0.145 C 
HETATM   23  N9  UNL     1       3.494   1.221   0.143  1.00  0.00    -0.349 N 
HETATM   24  C10 UNL     1       4.712   1.927   0.274  1.00  0.00     0.215 C 
HETATM   25  C12 UNL     1       3.278   0.341  -0.965  1.00  0.00     0.145 C 
HETATM   26  C11 UNL     1       5.818   1.800  -0.706  1.00  0.00     0.117 C 
HETATM   27  O2  UNL     1       4.929   2.720   1.254  1.00  0.00    -0.274 OA
HETATM   28  C13 UNL     1       1.855  -0.059  -1.214  1.00  0.00     0.144 C 
ENDBRANCH   8  20
BRANCH   1  29
HETATM   29  C2  UNL     1      -0.542  -2.538   0.445  1.00  0.00     0.136 C 
HETATM   30  N2  UNL     1       0.428  -2.809   1.175  1.00  0.00    -0.252 N 
ATOM     31  H2  UNL     1       0.905  -2.039   1.644  1.00  0.00     0.196 HD
BRANCH  29  32
HETATM   32  N1  UNL     1      -1.209  -3.638  -0.214  1.00  0.00    -0.379 N 
HETATM   33  C1  UNL     1      -1.979  -4.497   0.652  1.00  0.00     0.147 C 
ATOM     34  H1  UNL     1      -1.140  -3.796  -1.219  1.00  0.00     0.160 HD
ENDBRANCH  29  32
BRANCH  30  35
HETATM   35  O1  UNL     1       0.892  -4.074   1.386  1.00  0.00    -0.288 OA
ATOM     36  H1  UNL     1       1.633  -4.281   1.944  1.00  0.00     0.244 HD
ENDBRANCH  30  35
ENDBRANCH   1  29
TORSDOF 5
