REMARK  12 active torsions:
REMARK  status: ('A' for Active; 'I' for Inactive)
REMARK    1  A    between atoms: C2_2  and  C3_3 
REMARK    2  A    between atoms: C3_3  and  C4_4 
REMARK       I    between atoms: C4_4  and  N1_6 
REMARK    3  A    between atoms: N1_6  and  C5_7 
REMARK    4  A    between atoms: C5_7  and  C6_8 
REMARK    5  A    between atoms: C6_8  and  C7_9 
REMARK    6  A    between atoms: C7_9  and  C8_10 
REMARK    7  A    between atoms: C8_10  and  N2_11 
REMARK       I    between atoms: N2_11  and  C9_13 
REMARK    8  A    between atoms: C9_13  and  C10_15 
REMARK       I    between atoms: N3_17  and  C12_18 
REMARK       I    between atoms: C12_18  and  N6_23 
REMARK    9  A    between atoms: N6_23  and  C14_25 
REMARK   10  A    between atoms: C14_25  and  C15_26 
REMARK   11  A    between atoms: C15_26  and  C16_27 
REMARK   12  A    between atoms: C16_27  and  C17_28 
ROOT
HETATM    1  C10 UNL     1      -0.971   1.477   0.964  1.00  0.00     0.212 A 
HETATM    2  C11 UNL     1      -1.203   0.628   2.119  1.00  0.00     0.177 A 
HETATM    3  N3  UNL     1      -1.748   0.263   0.807  1.00  0.00    -0.200 N 
HETATM    4  C12 UNL     1      -2.507  -0.633   0.002  1.00  0.00     0.686 C 
HETATM    5  N4  UNL     1      -2.065  -1.477  -0.828  1.00  0.00    -0.126 N 
ATOM      6  H4  UNL     1      -1.058  -1.557  -0.966  1.00  0.00     0.197 HD
HETATM    7  C13 UNL     1      -2.919  -2.303  -1.561  1.00  0.00     0.196 C 
HETATM    8  N5  UNL     1      -3.614  -3.008  -2.160  1.00  0.00    -0.171 NA
HETATM    9  N6  UNL     1      -3.937  -0.534   0.192  1.00  0.00    -0.226 N 
ATOM     10  H6  UNL     1      -4.482  -1.328   0.527  1.00  0.00     0.177 HD
ENDROOT
BRANCH   9  11
HETATM   11  C14 UNL     1      -4.565   0.733  -0.110  1.00  0.00     0.138 C 
BRANCH  11  12
HETATM   12  C15 UNL     1      -6.027   0.665   0.233  1.00  0.00     0.025 C 
BRANCH  12  13
HETATM   13  C16 UNL     1      -6.677  -0.414  -0.572  1.00  0.00     0.042 C 
BRANCH  13  14
HETATM   14  C17 UNL     1      -8.148  -0.509  -0.271  1.00  0.00    -0.033 A 
HETATM   15  C18 UNL     1      -8.681  -1.485   0.545  1.00  0.00     0.032 A 
HETATM   16  C19 UNL     1     -10.026  -1.567   0.830  1.00  0.00     0.036 A 
HETATM   17 CL1  UNL     1     -10.671  -2.820   1.868  1.00  0.00    -0.084 Cl
HETATM   18  C20 UNL     1     -10.917  -0.655   0.298  1.00  0.00     0.049 A 
HETATM   19  C21 UNL     1     -10.408   0.331  -0.520  1.00  0.00     0.058 A 
HETATM   20 CL2  UNL     1     -11.499   1.515  -1.215  1.00  0.00    -0.082 Cl
HETATM   21  C22 UNL     1      -9.039   0.401  -0.801  1.00  0.00     0.062 A 
HETATM   22 CL3  UNL     1      -8.416   1.663  -1.859  1.00  0.00    -0.082 Cl
ENDBRANCH  13  14
ENDBRANCH  12  13
ENDBRANCH  11  12
ENDBRANCH   9  11
BRANCH   1  23
HETATM   23  C9  UNL     1       0.370   1.458   0.301  1.00  0.00     0.242 C 
HETATM   24  N2  UNL     1       1.131   0.283   0.228  1.00  0.00    -0.359 N 
ATOM     25  H2  UNL     1       0.740  -0.577   0.612  1.00  0.00     0.162 HD
HETATM   26  O2  UNL     1       0.836   2.525  -0.205  1.00  0.00    -0.271 OA
BRANCH  24  27
HETATM   27  C8  UNL     1       2.438   0.240  -0.364  1.00  0.00     0.122 C 
BRANCH  27  28
HETATM   28  C7  UNL     1       3.373   1.096   0.440  1.00  0.00     0.022 C 
BRANCH  28  29
HETATM   29  C6  UNL     1       4.783   1.142  -0.027  1.00  0.00     0.035 C 
BRANCH  29  30
HETATM   30  C5  UNL     1       5.435  -0.243  -0.003  1.00  0.00     0.221 C 
BRANCH  30  31
HETATM   31  N1  UNL     1       6.769  -0.135  -0.391  1.00  0.00    -0.415 NA
HETATM   32  C4  UNL     1       8.025  -0.034  -0.756  1.00  0.00     0.286 C 
HETATM   33  O1  UNL     1       8.554   0.363  -1.860  1.00  0.00    -0.258 OA
BRANCH  32  34
HETATM   34  C3  UNL     1       9.127  -0.446   0.257  1.00  0.00     0.118 C 
BRANCH  34  35
HETATM   35  C2  UNL     1      10.453  -0.278  -0.390  1.00  0.00     0.006 C 
HETATM   36  C1  UNL     1      11.517  -0.689   0.616  1.00  0.00     0.005 C 
ENDBRANCH  34  35
ENDBRANCH  32  34
ENDBRANCH  30  31
ENDBRANCH  29  30
ENDBRANCH  28  29
ENDBRANCH  27  28
ENDBRANCH  24  27
ENDBRANCH   1  23
TORSDOF 12
