REMARK  14 active torsions:
REMARK  status: ('A' for Active; 'I' for Inactive)
REMARK    1  A    between atoms: C2_2  and  C3_3 
REMARK    2  A    between atoms: C3_3  and  C4_4 
REMARK    3  A    between atoms: C4_4  and  N1_5 
REMARK    4  A    between atoms: C4_4  and  C20_34 
REMARK    5  A    between atoms: C6_10  and  N3_11 
REMARK    6  A    between atoms: N3_11  and  C7_13 
REMARK    7  A    between atoms: C7_13  and  C8_14 
REMARK    8  A    between atoms: C8_14  and  C9_15 
REMARK    9  A    between atoms: C9_15  and  C10_16 
REMARK   10  A    between atoms: C12_20  and  N5_21 
REMARK   11  A    between atoms: N5_21  and  C13_23 
REMARK   12  A    between atoms: C13_23  and  C14_24 
REMARK       I    between atoms: C20_34  and  N7_36 
REMARK   13  A    between atoms: N7_36  and  C21_38 
REMARK   14  A    between atoms: C21_38  and  C22_39 
ROOT
HETATM    1  N1  UNL     1       1.366  -1.335   0.478  1.00  0.00    -0.211 N 
ATOM      2  H1  UNL     1       1.245  -2.330   0.664  1.00  0.00     0.178 HD
HETATM    3  C5  UNL     1       0.290  -0.655   0.532  1.00  0.00     0.708 A 
HETATM    4  N2  UNL     1      -0.903  -1.258   0.821  1.00  0.00    -0.021 N 
ATOM      5  H2  UNL     1      -0.906  -2.263   0.993  1.00  0.00     0.203 HD
HETATM    6  C6  UNL     1      -2.065  -0.603   0.891  1.00  0.00     0.707 A 
HETATM    7  N4  UNL     1      -2.096   0.720   0.671  1.00  0.00    -0.022 N 
ATOM      8  H4  UNL     1      -2.973   1.239   0.719  1.00  0.00     0.203 HD
HETATM    9  C12 UNL     1      -0.928   1.349   0.382  1.00  0.00     0.707 A 
HETATM   10  N6  UNL     1       0.252   0.662   0.315  1.00  0.00    -0.021 N 
ATOM     11  H6  UNL     1       1.114   1.162   0.097  1.00  0.00     0.203 HD
ENDROOT
BRANCH   1  12
HETATM   12  C4  UNL     1       2.688  -0.954   0.207  1.00  0.00     0.195 C 
BRANCH  12  13
HETATM   13  C3  UNL     1       3.611  -1.022   1.409  1.00  0.00     0.061 C 
BRANCH  13  14
HETATM   14  C2  UNL     1       3.147  -0.134   2.504  1.00  0.00    -0.034 C 
HETATM   15  C1  UNL     1       2.828  -0.569   3.708  1.00  0.00     0.007 C 
ENDBRANCH  13  14
ENDBRANCH  12  13
BRANCH  12  16
HETATM   16  C20 UNL     1       3.228  -1.761  -0.925  1.00  0.00     0.241 C 
HETATM   17  O1  UNL     1       2.456  -2.605  -1.449  1.00  0.00    -0.271 OA
HETATM   18  N7  UNL     1       4.526  -1.627  -1.423  1.00  0.00    -0.358 N 
ATOM     19  H7  UNL     1       5.158  -0.945  -1.003  1.00  0.00     0.162 HD
BRANCH  18  20
HETATM   20  C21 UNL     1       4.984  -2.437  -2.520  1.00  0.00     0.137 C 
BRANCH  20  21
HETATM   21  C22 UNL     1       6.429  -2.119  -2.885  1.00  0.00     0.134 C 
HETATM   22 CL3  UNL     1       7.512  -2.416  -1.509  1.00  0.00    -0.129 Cl
ENDBRANCH  20  21
ENDBRANCH  18  20
ENDBRANCH  12  16
ENDBRANCH   1  12
BRANCH   6  23
HETATM   23  N3  UNL     1      -3.169  -1.251   1.173  1.00  0.00    -0.225 N 
ATOM     24  H3  UNL     1      -4.060  -0.757   1.228  1.00  0.00     0.177 HD
BRANCH  23  25
HETATM   25  C7  UNL     1      -3.104  -2.682   1.406  1.00  0.00     0.138 C 
BRANCH  25  26
HETATM   26  C8  UNL     1      -4.481  -3.131   1.806  1.00  0.00     0.020 C 
BRANCH  26  27
HETATM   27  C9  UNL     1      -5.436  -2.813   0.693  1.00  0.00     0.001 C 
BRANCH  27  28
HETATM   28  C10 UNL     1      -5.017  -3.533  -0.570  1.00  0.00    -0.004 C 
HETATM   29  C11 UNL     1      -6.024  -3.176  -1.663  1.00  0.00     0.005 C 
ENDBRANCH  27  28
ENDBRANCH  26  27
ENDBRANCH  25  26
ENDBRANCH  23  25
ENDBRANCH   6  23
BRANCH   9  30
HETATM   30  N5  UNL     1      -0.910   2.614   0.162  1.00  0.00    -0.221 N 
ATOM     31  H5  UNL     1      -1.776   3.151   0.204  1.00  0.00     0.178 HD
BRANCH  30  32
HETATM   32  C13 UNL     1       0.333   3.274  -0.144  1.00  0.00     0.178 C 
BRANCH  32  33
HETATM   33  C14 UNL     1       0.038   4.715  -0.375  1.00  0.00    -0.018 A 
HETATM   34  C15 UNL     1      -1.231   5.237  -0.292  1.00  0.00     0.012 A 
HETATM   35  C16 UNL     1      -1.426   6.581  -0.521  1.00  0.00     0.024 A 
HETATM   36  C17 UNL     1      -0.393   7.443  -0.835  1.00  0.00     0.035 A 
HETATM   37 CL1  UNL     1      -0.661   9.149  -1.122  1.00  0.00    -0.084 Cl
HETATM   38  C18 UNL     1       0.866   6.896  -0.912  1.00  0.00     0.048 A 
HETATM   39  C19 UNL     1       1.080   5.567  -0.689  1.00  0.00     0.043 A 
HETATM   40 CL2  UNL     1       2.720   4.922  -0.801  1.00  0.00    -0.084 Cl
ENDBRANCH  32  33
ENDBRANCH  30  32
ENDBRANCH   9  30
TORSDOF 14
