REMARK  8 active torsions:
REMARK  status: ('A' for Active; 'I' for Inactive)
REMARK    1  A    between atoms: C2_2  and  C5_5 
REMARK    2  A    between atoms: C6_6  and  N1_7 
REMARK    3  A    between atoms: N1_7  and  C7_9 
REMARK    4  A    between atoms: C7_9  and  C8_10 
REMARK    5  A    between atoms: C7_9  and  C9_13 
REMARK    6  A    between atoms: C12_16  and  C13_17 
REMARK       I    between atoms: C13_17  and  N2_19 
REMARK    7  A    between atoms: N2_19  and  C14_21 
REMARK    8  A    between atoms: C14_21  and  C15_23 
REMARK       I    between atoms: N3_27  and  C16_28 
ROOT
HETATM    1  C9  UNL     1       0.697   1.074  -1.065  1.00  0.00     0.141 C 
HETATM    2  C10 UNL     1       0.504  -0.359  -1.498  1.00  0.00     0.034 C 
HETATM    3  C11 UNL     1       0.559  -1.163  -0.255  1.00  0.00     0.037 C 
HETATM    4  C12 UNL     1       1.384  -0.304   0.676  1.00  0.00     0.181 C 
HETATM    5  N3  UNL     1       1.484   1.014   0.106  1.00  0.00    -0.313 N 
HETATM    6  C16 UNL     1       2.315   2.011   0.679  1.00  0.00     0.332 C 
HETATM    7  N4  UNL     1       2.982   1.798   1.926  1.00  0.00    -0.040 NA
HETATM    8  O2  UNL     1       2.539   3.146   0.165  1.00  0.00    -0.251 OA
ENDROOT
BRANCH   1   9
HETATM    9  C7  UNL     1      -0.606   1.752  -1.085  1.00  0.00     0.074 C 
BRANCH   9  10
HETATM   10  N1  UNL     1      -1.663   1.273  -0.246  1.00  0.00    -0.367 N 
ATOM     11  H1  UNL     1      -1.394   0.654   0.519  1.00  0.00     0.165 HD
BRANCH  10  12
HETATM   12  C6  UNL     1      -3.023   1.565  -0.365  1.00  0.00     0.084 C 
HETATM   13  C5  UNL     1      -4.035   0.777  -0.256  1.00  0.00    -0.001 C 
BRANCH  13  14
HETATM   14  C2  UNL     1      -4.003  -0.673   0.033  1.00  0.00    -0.032 C 
HETATM   15  C1  UNL     1      -3.386  -0.890   1.390  1.00  0.00     0.018 C 
HETATM   16  C3  UNL     1      -3.276  -1.456  -1.020  1.00  0.00     0.018 C 
HETATM   17  C4  UNL     1      -5.451  -1.217   0.052  1.00  0.00     0.018 C 
ENDBRANCH  13  14
ENDBRANCH  10  12
ENDBRANCH   9  10
BRANCH   9  18
HETATM   18  C8  UNL     1      -0.578   3.240  -1.119  1.00  0.00     0.401 C 
HETATM   19  F1  UNL     1      -1.735   3.720  -1.693  1.00  0.00    -0.208 F 
HETATM   20  F2  UNL     1      -0.715   3.688   0.225  1.00  0.00    -0.208 F 
ENDBRANCH   9  18
ENDBRANCH   1   9
BRANCH   4  21
HETATM   21  C13 UNL     1       2.674  -1.000   0.815  1.00  0.00     0.242 C 
HETATM   22  O1  UNL     1       2.620  -2.049   1.552  1.00  0.00    -0.271 OA
HETATM   23  N2  UNL     1       3.912  -0.685   0.268  1.00  0.00    -0.338 N 
ATOM     24  H2  UNL     1       3.980   0.141  -0.326  1.00  0.00     0.164 HD
BRANCH  23  25
HETATM   25  C14 UNL     1       5.108  -1.463   0.494  1.00  0.00     0.236 C 
HETATM   26 CL1  UNL     1       6.364  -0.557   1.365  1.00  0.00    -0.098 Cl
BRANCH  25  27
HETATM   27  C15 UNL     1       5.677  -2.041  -0.777  1.00  0.00     0.221 C 
HETATM   28 CL2  UNL     1       7.142  -2.973  -0.367  1.00  0.00    -0.080 Cl
HETATM   29 CL3  UNL     1       6.124  -0.826  -1.962  1.00  0.00    -0.080 Cl
HETATM   30 CL4  UNL     1       4.538  -3.174  -1.541  1.00  0.00    -0.080 Cl
ENDBRANCH  25  27
ENDBRANCH  23  25
ENDBRANCH   4  21
TORSDOF 8
