REMARK  7 active torsions:
REMARK  status: ('A' for Active; 'I' for Inactive)
REMARK    1  A    between atoms: N1_1  and  C1_5 
REMARK    2  A    between atoms: C1_5  and  C2_6 
REMARK    3  A    between atoms: C1_5  and  C10_19 
REMARK    4  A    between atoms: C2_6  and  C3_7 
REMARK       I    between atoms: C3_7  and  N2_9 
REMARK    5  A    between atoms: N2_9  and  C4_11 
REMARK    6  A    between atoms: C10_19  and  C11_20 
REMARK    7  A    between atoms: C15_26  and  C16_27 
ROOT
HETATM    1  C1  UNL     1       0.529  -1.158   1.500  1.00  0.00     0.196 C 
ENDROOT
BRANCH   1   2
HETATM    2  N1  UNL     1      -0.267  -1.936   2.478  1.00  0.00    -0.074 N 
ATOM      3  H13 UNL     1      -0.502  -1.404   3.316  1.00  0.00     0.274 HD
ATOM      4  H12 UNL     1      -1.221  -2.115   2.165  1.00  0.00     0.274 HD
ATOM      5  H11 UNL     1       0.255  -2.789   2.678  1.00  0.00     0.274 HD
ENDBRANCH   1   2
BRANCH   1   6
HETATM    6  C2  UNL     1      -0.225   0.073   1.211  1.00  0.00     0.135 C 
BRANCH   6   7
HETATM    7  C3  UNL     1      -1.602  -0.100   0.704  1.00  0.00     0.219 C 
HETATM    8  O1  UNL     1      -2.110  -1.257   0.546  1.00  0.00    -0.274 OA
HETATM    9  N2  UNL     1      -2.407   1.010   0.376  1.00  0.00    -0.356 N 
ATOM     10  H2  UNL     1      -2.022   1.947   0.494  1.00  0.00     0.162 HD
BRANCH   9  11
HETATM   11  C4  UNL     1      -3.769   0.869  -0.125  1.00  0.00     0.084 C 
HETATM   12  C5  UNL     1      -4.748   1.561   0.792  1.00  0.00     0.031 C 
HETATM   13  C6  UNL     1      -6.158   1.300   0.345  1.00  0.00     0.081 C 
HETATM   14  C7  UNL     1      -6.255   0.902  -1.092  1.00  0.00     0.243 C 
HETATM   15  F1  UNL     1      -6.190  -0.468  -1.285  1.00  0.00    -0.206 F 
HETATM   16  F2  UNL     1      -7.532   1.282  -1.543  1.00  0.00    -0.206 F 
HETATM   17  C8  UNL     1      -5.265   1.594  -1.989  1.00  0.00     0.081 C 
HETATM   18  C9  UNL     1      -3.860   1.504  -1.497  1.00  0.00     0.031 C 
ENDBRANCH   9  11
ENDBRANCH   6   7
ENDBRANCH   1   6
BRANCH   1  19
HETATM   19  C10 UNL     1       1.089  -2.000   0.443  1.00  0.00     0.078 C 
BRANCH  19  20
HETATM   20  C11 UNL     1       1.943  -1.357  -0.576  1.00  0.00     0.022 A 
HETATM   21  C12 UNL     1       1.478  -0.813  -1.721  1.00  0.00     0.128 A 
HETATM   22  F3  UNL     1       0.165  -0.906  -2.112  1.00  0.00    -0.205 F 
HETATM   23  C13 UNL     1       2.382  -0.169  -2.585  1.00  0.00     0.086 A 
HETATM   24  C14 UNL     1       3.721  -0.071  -2.312  1.00  0.00     0.132 A 
HETATM   25  F4  UNL     1       4.531   0.565  -3.191  1.00  0.00    -0.205 F 
HETATM   26  C15 UNL     1       4.218  -0.637  -1.120  1.00  0.00     0.062 A 
HETATM   27  C19 UNL     1       3.322  -1.251  -0.309  1.00  0.00     0.138 A 
HETATM   28  F6  UNL     1       3.729  -1.837   0.848  1.00  0.00    -0.205 F 
BRANCH  26  29
HETATM   29  C16 UNL     1       5.636  -0.544  -0.841  1.00  0.00     0.183 C 
HETATM   30  F5  UNL     1       6.453  -0.906  -1.927  1.00  0.00    -0.234 F 
HETATM   31  C17 UNL     1       6.235  -1.094   0.400  1.00  0.00     0.282 C 
HETATM   32  N3  UNL     1       7.307  -0.059   0.199  1.00  0.00    -0.068 N 
HETATM   33  C18 UNL     1       6.173   0.768  -0.294  1.00  0.00     0.282 C 
ATOM     34  H32 UNL     1       7.933   0.245   0.945  1.00  0.00     0.277 HD
ATOM     35  H31 UNL     1       8.149  -0.231  -0.351  1.00  0.00     0.277 HD
ENDBRANCH  26  29
ENDBRANCH  19  20
ENDBRANCH   1  19
TORSDOF 7
