REMARK  7 active torsions:
REMARK  status: ('A' for Active; 'I' for Inactive)
REMARK    1  A    between atoms: C1_4  and  C2_5 
REMARK    2  A    between atoms: C1_4  and  N2_17 
REMARK    3  A    between atoms: C2_5  and  C3_6 
REMARK    4  A    between atoms: N2_17  and  C9_19 
REMARK    5  A    between atoms: C9_19  and  C10_20 
REMARK    6  A    between atoms: N3_23  and  C13_24 
REMARK    7  A    between atoms: C13_24  and  C14_25 
ROOT
HETATM    1  N2  UNL     1       1.658   0.392  -0.272  1.00  0.00    -0.359 N 
ATOM      2  H2  UNL     1       1.414  -0.594  -0.369  1.00  0.00     0.166 HD
ENDROOT
BRANCH   1   3
HETATM    3  C1  UNL     1       3.059   0.812  -0.310  1.00  0.00     0.078 C 
HETATM    4  N1  UNL     1       3.458   1.520  -1.216  1.00  0.00    -0.389 N 
ATOM      5  H12 UNL     1       4.435   1.813  -1.242  1.00  0.00     0.157 HD
ATOM      6  H11 UNL     1       2.921   1.895  -1.998  1.00  0.00     0.157 HD
BRANCH   3   7
HETATM    7  C2  UNL     1       3.833   0.271   0.818  1.00  0.00     0.121 C 
BRANCH   7   8
HETATM    8  C3  UNL     1       5.287   0.173   0.638  1.00  0.00     0.033 A 
HETATM    9  C4  UNL     1       6.172   1.209   0.725  1.00  0.00     0.168 A 
HETATM   10  F1  UNL     1       5.701   2.472   0.985  1.00  0.00    -0.202 F 
HETATM   11  C5  UNL     1       7.544   1.039   0.563  1.00  0.00     0.197 A 
HETATM   12  F2  UNL     1       8.432   2.063   0.644  1.00  0.00    -0.199 F 
HETATM   13  C6  UNL     1       8.086  -0.208   0.307  1.00  0.00     0.199 A 
HETATM   14  F3  UNL     1       9.408  -0.406   0.141  1.00  0.00    -0.199 F 
HETATM   15  C7  UNL     1       7.224  -1.251   0.214  1.00  0.00     0.197 A 
HETATM   16  F4  UNL     1       7.675  -2.502  -0.043  1.00  0.00    -0.199 F 
HETATM   17  C8  UNL     1       5.868  -1.089   0.368  1.00  0.00     0.168 A 
HETATM   18  F5  UNL     1       5.005  -2.127   0.277  1.00  0.00    -0.202 F 
ENDBRANCH   7   8
ENDBRANCH   3   7
ENDBRANCH   1   3
BRANCH   1  19
HETATM   19  C9  UNL     1       0.656   1.353  -0.102  1.00  0.00     0.072 C 
BRANCH  19  20
HETATM   20  C10 UNL     1      -0.754   0.804   0.024  1.00  0.00     0.064 C 
HETATM   21  C11 UNL     1      -1.000  -0.101   1.178  1.00  0.00     0.035 C 
HETATM   22  C12 UNL     1      -1.809  -1.311   0.640  1.00  0.00     0.128 C 
HETATM   23  N3  UNL     1      -2.015  -0.993  -0.646  1.00  0.00    -0.368 N 
HETATM   24  C20 UNL     1      -1.057  -0.109  -1.154  1.00  0.00     0.073 C 
BRANCH  23  25
HETATM   25  C13 UNL     1      -3.159  -1.179  -1.437  1.00  0.00     0.104 C 
BRANCH  25  26
HETATM   26  C14 UNL     1      -4.390  -0.885  -0.666  1.00  0.00     0.020 A 
HETATM   27  C15 UNL     1      -5.056  -1.877   0.033  1.00  0.00     0.016 A 
HETATM   28  C16 UNL     1      -6.325  -1.660   0.578  1.00  0.00     0.003 A 
HETATM   29  C17 UNL     1      -6.891  -0.409   0.397  1.00  0.00     0.030 A 
HETATM   30  C18 UNL     1      -6.263   0.587  -0.276  1.00  0.00     0.085 A 
HETATM   31  N4  UNL     1      -6.817   1.878  -0.386  1.00  0.00    -0.099 NA
HETATM   32  C19 UNL     1      -5.013   0.339  -0.804  1.00  0.00     0.152 A 
HETATM   33  F6  UNL     1      -4.348   1.342  -1.460  1.00  0.00    -0.203 F 
ENDBRANCH  25  26
ENDBRANCH  23  25
ENDBRANCH  19  20
ENDBRANCH   1  19
TORSDOF 7
