REMARK  2 active torsions:
REMARK  status: ('A' for Active; 'I' for Inactive)
REMARK    1  A    between atoms: N1_1  and  C1_5 
REMARK    2  A    between atoms: C1_5  and  C2_6 
ROOT
HETATM    1  C2  UNL     1      -0.886   0.292  -0.212  1.00  0.00     0.281 A 
HETATM    2  C3  UNL     1       0.305   0.944   0.102  1.00  0.00     0.258 A 
HETATM    3  C4  UNL     1       1.371   0.597   1.107  1.00  0.00     0.040 C 
HETATM    4  C5  UNL     1       2.362  -0.073   0.132  1.00  0.00     0.032 C 
HETATM    5  C6  UNL     1       1.390  -0.674  -0.898  1.00  0.00     0.273 C 
HETATM    6  N2  UNL     1       0.164  -0.549  -0.299  1.00  0.00     0.103 N 
ENDROOT
BRANCH   1   7
HETATM    7  C1  UNL     1      -1.947  -0.021   0.861  1.00  0.00     0.267 C 
BRANCH   7   8
HETATM    8  N1  UNL     1      -3.085  -0.706   0.246  1.00  0.00    -0.077 N 
ATOM      9  H13 UNL     1      -3.474  -0.179  -0.536  1.00  0.00     0.274 HD
ATOM     10  H12 UNL     1      -2.800  -1.540  -0.266  1.00  0.00     0.274 HD
ATOM     11  H11 UNL     1      -3.787  -0.913   0.956  1.00  0.00     0.274 HD
ENDBRANCH   7   8
ENDBRANCH   1   7
TORSDOF 2
