REMARK  6 active torsions:
REMARK  status: ('A' for Active; 'I' for Inactive)
REMARK    1  A    between atoms: N1_1  and  C1_5 
REMARK    2  A    between atoms: C1_5  and  C2_6 
REMARK    3  A    between atoms: C5_9  and  C6_10 
REMARK    4  A    between atoms: C6_10  and  C7_11 
REMARK    5  A    between atoms: C6_10  and  C13_17 
REMARK    6  A    between atoms: C6_10  and  C19_23 
ROOT
HETATM    1  C6  UNL     1      -0.592  -0.068   0.063  1.00  0.00     0.068 C 
ENDROOT
BRANCH   1   2
HETATM    2  C5  UNL     1       0.873   0.097  -0.121  1.00  0.00    -0.036 A 
HETATM    3  C4  UNL     1       1.304   0.318  -1.424  1.00  0.00     0.009 A 
HETATM    4  C3  UNL     1       2.638   0.468  -1.692  1.00  0.00     0.009 A 
HETATM    5  C2  UNL     1       3.588   0.407  -0.693  1.00  0.00    -0.033 A 
HETATM    6  C26 UNL     1       3.186   0.191   0.600  1.00  0.00     0.009 A 
HETATM    7  C25 UNL     1       1.821   0.039   0.854  1.00  0.00     0.009 A 
BRANCH   5   8
HETATM    8  C1  UNL     1       5.014   0.587  -1.096  1.00  0.00     0.268 C 
BRANCH   8   9
HETATM    9  N1  UNL     1       5.920   0.405   0.002  1.00  0.00    -0.075 N 
ATOM     10  H13 UNL     1       5.679   1.015   0.783  1.00  0.00     0.274 HD
ATOM     11  H12 UNL     1       5.776  -0.499   0.451  1.00  0.00     0.274 HD
ATOM     12  H11 UNL     1       6.894   0.528  -0.273  1.00  0.00     0.274 HD
ENDBRANCH   8   9
ENDBRANCH   5   8
ENDBRANCH   1   2
BRANCH   1  13
HETATM   13  C7  UNL     1      -1.073  -0.853  -1.105  1.00  0.00    -0.036 A 
HETATM   14  C8  UNL     1      -2.174  -0.517  -1.848  1.00  0.00     0.009 A 
HETATM   15  C9  UNL     1      -2.554  -1.280  -2.950  1.00  0.00     0.001 A 
HETATM   16  C10 UNL     1      -1.825  -2.389  -3.313  1.00  0.00     0.000 A 
HETATM   17  C11 UNL     1      -0.723  -2.702  -2.548  1.00  0.00     0.001 A 
HETATM   18  C12 UNL     1      -0.324  -1.971  -1.459  1.00  0.00     0.009 A 
ENDBRANCH   1  13
BRANCH   1  19
HETATM   19  C13 UNL     1      -0.924  -0.710   1.382  1.00  0.00    -0.036 A 
HETATM   20  C14 UNL     1      -1.316  -2.005   1.536  1.00  0.00     0.009 A 
HETATM   21  C15 UNL     1      -1.626  -2.539   2.777  1.00  0.00     0.001 A 
HETATM   22  C16 UNL     1      -1.550  -1.767   3.924  1.00  0.00     0.000 A 
HETATM   23  C17 UNL     1      -1.155  -0.463   3.764  1.00  0.00     0.001 A 
HETATM   24  C18 UNL     1      -0.847   0.072   2.544  1.00  0.00     0.009 A 
ENDBRANCH   1  19
BRANCH   1  25
HETATM   25  C19 UNL     1      -1.327   1.222   0.105  1.00  0.00    -0.036 A 
HETATM   26  C20 UNL     1      -0.837   2.372  -0.453  1.00  0.00     0.009 A 
HETATM   27  C21 UNL     1      -1.583   3.525  -0.372  1.00  0.00     0.001 A 
HETATM   28  C22 UNL     1      -2.810   3.531   0.263  1.00  0.00     0.000 A 
HETATM   29  C23 UNL     1      -3.305   2.376   0.825  1.00  0.00     0.001 A 
HETATM   30  C24 UNL     1      -2.574   1.219   0.752  1.00  0.00     0.009 A 
ENDBRANCH   1  25
TORSDOF 6
