REMARK  6 active torsions:
REMARK  status: ('A' for Active; 'I' for Inactive)
REMARK    1  A    between atoms: C2_2  and  C3_3 
REMARK    2  A    between atoms: C3_3  and  N1_4 
REMARK    3  A    between atoms: N1_4  and  C4_6 
REMARK    4  A    between atoms: N3_11  and  C7_13 
REMARK    5  A    between atoms: C7_13  and  C8_14 
REMARK    6  A    between atoms: C8_14  and  N4_15 
ROOT
HETATM    1  C4  UNL     1       0.934  -0.175   0.441  1.00  0.00     0.088 A 
HETATM    2  C5  UNL     1       0.646  -0.297   1.720  1.00  0.00     0.122 A 
HETATM    3  N2  UNL     1      -0.689   0.146   1.585  1.00  0.00    -0.348 N 
ATOM      4  H2  UNL     1      -1.486   0.294   2.204  1.00  0.00     0.167 HD
HETATM    5  C6  UNL     1      -0.420   0.291   0.205  1.00  0.00     0.129 A 
HETATM    6  N3  UNL     1      -1.105   0.676  -0.819  1.00  0.00    -0.373 N 
ATOM      7  H3  UNL     1      -0.671   0.692  -1.742  1.00  0.00     0.161 HD
ENDROOT
BRANCH   1   8
HETATM    8  N1  UNL     1       2.094  -0.401  -0.390  1.00  0.00    -0.386 N 
ATOM      9  H1  UNL     1       1.992  -0.788  -1.328  1.00  0.00     0.159 HD
BRANCH   8  10
HETATM   10  C3  UNL     1       3.410  -0.068   0.133  1.00  0.00     0.119 C 
BRANCH  10  11
HETATM   11  C2  UNL     1       4.464  -0.376  -0.875  1.00  0.00     0.015 C 
HETATM   12  C1  UNL     1       5.820  -0.021  -0.309  1.00  0.00     0.006 C 
ENDBRANCH  10  11
ENDBRANCH   8  10
ENDBRANCH   1   8
BRANCH   6  13
HETATM   13  C7  UNL     1      -2.471   1.081  -0.668  1.00  0.00     0.148 C 
BRANCH  13  14
HETATM   14  C8  UNL     1      -3.395  -0.070  -0.318  1.00  0.00     0.251 C 
BRANCH  14  15
HETATM   15  N4  UNL     1      -4.736   0.513  -0.202  1.00  0.00    -0.077 N 
HETATM   16  C9  UNL     1      -5.710  -0.486   0.130  1.00  0.00     0.267 C 
ATOM     17  H42 UNL     1      -4.752   1.287   0.462  1.00  0.00     0.276 HD
ATOM     18  H41 UNL     1      -4.996   1.025  -1.045  1.00  0.00     0.276 HD
ENDBRANCH  14  15
ENDBRANCH  13  14
ENDBRANCH   6  13
TORSDOF 6
