REMARK  6 active torsions:
REMARK  status: ('A' for Active; 'I' for Inactive)
REMARK    1  A    between atoms: C3_3  and  C4_4 
REMARK    2  A    between atoms: C4_4  and  O2_6 
REMARK    3  A    between atoms: O2_6  and  C5_7 
REMARK    4  A    between atoms: C15_17  and  C16_18 
REMARK    5  A    between atoms: C19_24  and  C20_25 
REMARK    6  A    between atoms: C20_25  and  N2_26 
ROOT
HETATM    1  C1  UNL     1       0.388   0.621  -2.011  1.00  0.00     0.011 C 
HETATM    2  C2  UNL     1      -0.205  -0.225  -0.955  1.00  0.00     0.003 C 
HETATM    3  C3  UNL     1      -1.176   0.636  -0.160  1.00  0.00     0.089 C 
HETATM    4  C13 UNL     1      -0.771   0.541   1.285  1.00  0.00     0.015 C 
HETATM    5  C14 UNL     1       0.706   0.219   1.159  1.00  0.00     0.010 C 
HETATM    6  C15 UNL     1       0.675  -0.822   0.058  1.00  0.00     0.032 C 
ENDROOT
BRANCH   6   7
HETATM    7  C16 UNL     1       2.030  -1.275  -0.346  1.00  0.00     0.184 C 
HETATM    8  N1  UNL     1       1.982  -2.264  -1.410  1.00  0.00    -0.340 N 
HETATM    9  C17 UNL     1       3.229  -2.808  -1.826  1.00  0.00     0.221 C 
ATOM     10  H1  UNL     1       1.101  -2.553  -1.836  1.00  0.00     0.164 HD
HETATM   11  O3  UNL     1       3.314  -3.876  -2.491  1.00  0.00    -0.273 OA
HETATM   12  C18 UNL     1       4.446  -2.048  -1.433  1.00  0.00     0.129 C 
HETATM   13  C19 UNL     1       4.057  -0.578  -1.461  1.00  0.00     0.115 C 
HETATM   14  N3  UNL     1       3.020  -0.263  -0.523  1.00  0.00    -0.395 N 
ATOM     15  H3  UNL     1       2.992   0.622  -0.018  1.00  0.00     0.155 HD
BRANCH  13  16
HETATM   16  C20 UNL     1       5.233   0.326  -1.406  1.00  0.00     0.297 C 
BRANCH  16  17
HETATM   17  N2  UNL     1       6.026   0.153  -0.233  1.00  0.00     0.094 N 
HETATM   18  C21 UNL     1       7.188   1.033  -0.241  1.00  0.00     0.298 C 
HETATM   19  C22 UNL     1       8.195   0.452   0.721  1.00  0.00     0.198 C 
HETATM   20  O4  UNL     1       7.513  -0.106   1.803  1.00  0.00    -0.388 OA
HETATM   21  C23 UNL     1       6.372   0.638   2.066  1.00  0.00     0.198 C 
HETATM   22  C24 UNL     1       5.308   0.299   1.017  1.00  0.00     0.298 C 
ENDBRANCH  16  17
ENDBRANCH  13  16
ENDBRANCH   6   7
BRANCH   3  23
HETATM   23  C4  UNL     1      -2.550   0.144  -0.407  1.00  0.00     0.263 C 
HETATM   24  O1  UNL     1      -2.740  -0.825  -1.179  1.00  0.00    -0.265 OA
BRANCH  23  25
HETATM   25  O2  UNL     1      -3.664   0.714   0.184  1.00  0.00    -0.316 OA
BRANCH  25  26
HETATM   26  C5  UNL     1      -4.986   0.266  -0.033  1.00  0.00     0.133 C 
HETATM   27  C6  UNL     1      -5.731   1.405  -0.691  1.00  0.00     0.037 C 
HETATM   28  C7  UNL     1      -7.188   1.438  -0.314  1.00  0.00    -0.011 C 
HETATM   29  C8  UNL     1      -7.650  -0.025  -0.254  1.00  0.00     0.014 C 
HETATM   30  C11 UNL     1      -7.411   1.488   1.177  1.00  0.00     0.014 C 
HETATM   31  C9  UNL     1      -7.146  -0.014   1.183  1.00  0.00    -0.041 C 
HETATM   32  C10 UNL     1      -7.919  -0.815   2.157  1.00  0.00     0.015 C 
HETATM   33  C12 UNL     1      -5.650  -0.187   1.245  1.00  0.00     0.041 C 
ENDBRANCH  25  26
ENDBRANCH  23  25
ENDBRANCH   3  23
TORSDOF 6
