REMARK  11 active torsions:
REMARK  status: ('A' for Active; 'I' for Inactive)
REMARK    1  A    between atoms: N1_4  and  C5_6 
REMARK    2  A    between atoms: N2_18  and  C17_19 
REMARK    3  A    between atoms: N2_18  and  C23_32 
REMARK    4  A    between atoms: C17_19  and  C18_20 
REMARK    5  A    between atoms: C18_20  and  C19_21 
REMARK    6  A    between atoms: C19_21  and  N3_22 
REMARK       I    between atoms: N3_22  and  C20_24 
REMARK    7  A    between atoms: C20_24  and  C21_26 
REMARK    8  A    between atoms: C21_26  and  C22_27 
REMARK    9  A    between atoms: C22_27  and  N4_28 
REMARK   10  A    between atoms: C23_32  and  C24_33 
REMARK   11  A    between atoms: C24_33  and  N5_34 
REMARK       I    between atoms: N5_34  and  C25_36 
ROOT
HETATM    1  C1  UNL     1       0.498   1.396   2.125  1.00  0.00     0.042 C 
HETATM    2  C2  UNL     1      -0.031   0.539   0.971  1.00  0.00     0.212 C 
HETATM    3  C3  UNL     1      -1.378   1.189   0.622  1.00  0.00     0.271 C 
HETATM    4  N1  UNL     1      -2.127   0.498  -0.364  1.00  0.00    -0.058 N 
HETATM    5  C4  UNL     1      -2.583   1.536  -1.310  1.00  0.00     0.273 C 
HETATM    6  C15 UNL     1      -1.218  -0.354  -1.101  1.00  0.00     0.266 C 
HETATM    7  C16 UNL     1       0.114   0.311  -1.354  1.00  0.00     0.266 C 
HETATM    8  N2  UNL     1       0.875   0.507  -0.132  1.00  0.00    -0.058 N 
ENDROOT
BRANCH   8   9
HETATM    9  C17 UNL     1       1.846  -0.575  -0.072  1.00  0.00     0.243 C 
BRANCH   9  10
HETATM   10  C18 UNL     1       1.660  -1.576   0.960  1.00  0.00     0.072 C 
BRANCH  10  11
HETATM   11  C19 UNL     1       2.619  -2.704   0.954  1.00  0.00     0.065 C 
BRANCH  11  12
HETATM   12  N3  UNL     1       4.009  -2.501   1.063  1.00  0.00    -0.341 N 
HETATM   13  C20 UNL     1       4.949  -1.970   0.189  1.00  0.00     0.222 C 
HETATM   14  O1  UNL     1       4.690  -1.577  -0.954  1.00  0.00    -0.273 OA
ATOM     15  H3  UNL     1       4.400  -2.802   1.956  1.00  0.00     0.167 HD
BRANCH  13  16
HETATM   16  C21 UNL     1       6.383  -1.868   0.671  1.00  0.00     0.130 C 
BRANCH  16  17
HETATM   17  C22 UNL     1       7.248  -1.318  -0.414  1.00  0.00     0.238 C 
BRANCH  17  18
HETATM   18  N4  UNL     1       8.619  -1.214   0.035  1.00  0.00    -0.079 N 
ATOM     19  H43 UNL     1       8.696  -0.670   0.894  1.00  0.00     0.274 HD
ATOM     20  H42 UNL     1       8.972  -2.104   0.387  1.00  0.00     0.274 HD
ATOM     21  H41 UNL     1       9.210  -0.838  -0.706  1.00  0.00     0.274 HD
ENDBRANCH  17  18
ENDBRANCH  16  17
ENDBRANCH  13  16
ENDBRANCH  11  12
ENDBRANCH  10  11
ENDBRANCH   9  10
ENDBRANCH   8   9
BRANCH   8  22
HETATM   22  C23 UNL     1       1.503   1.807  -0.238  1.00  0.00     0.257 C 
BRANCH  22  23
HETATM   23  C24 UNL     1       2.473   1.941  -1.369  1.00  0.00     0.150 C 
BRANCH  23  24
HETATM   24  N5  UNL     1       3.032   3.272  -1.363  1.00  0.00    -0.363 N 
HETATM   25  C25 UNL     1       2.310   4.458  -1.658  1.00  0.00     0.181 C 
HETATM   26  N6  UNL     1       2.376   5.413  -0.792  1.00  0.00    -0.374 N 
HETATM   27  N7  UNL     1       1.542   4.647  -2.815  1.00  0.00    -0.064 NA
ATOM     28  H62 UNL     1       2.935   5.275   0.050  1.00  0.00     0.158 HD
ATOM     29  H61 UNL     1       1.857   6.265  -1.004  1.00  0.00     0.158 HD
ATOM     30  H5  UNL     1       4.020   3.367  -1.129  1.00  0.00     0.162 HD
ENDBRANCH  23  24
ENDBRANCH  22  23
ENDBRANCH   8  22
BRANCH   4  31
HETATM   31  C5  UNL     1      -3.286  -0.210   0.059  1.00  0.00     0.130 C 
HETATM   32  C6  UNL     1      -3.861   0.279   1.365  1.00  0.00     0.044 C 
HETATM   33  C7  UNL     1      -5.200  -0.367   1.629  1.00  0.00    -0.012 C 
HETATM   34  C8  UNL     1      -6.165  -0.254   0.503  1.00  0.00     0.009 C 
HETATM   35  C12 UNL     1      -4.895  -1.839   1.937  1.00  0.00     0.009 C 
HETATM   36  C9  UNL     1      -5.567  -0.970  -0.692  1.00  0.00    -0.012 C 
HETATM   37  C10 UNL     1      -5.247  -2.404  -0.408  1.00  0.00     0.009 C 
HETATM   38  C14 UNL     1      -4.317  -0.162  -1.066  1.00  0.00     0.044 C 
HETATM   39  C11 UNL     1      -4.239  -2.415   0.735  1.00  0.00    -0.012 C 
HETATM   40  C13 UNL     1      -3.019  -1.710   0.250  1.00  0.00     0.044 C 
ENDBRANCH   4  31
TORSDOF 11
