REMARK  10 active torsions:
REMARK  status: ('A' for Active; 'I' for Inactive)
REMARK    1  A    between atoms: C2_2  and  C3_3 
REMARK    2  A    between atoms: C3_3  and  C4_4 
REMARK    3  A    between atoms: C4_4  and  N1_5 
REMARK    4  A    between atoms: N2_9  and  C7_11 
REMARK    5  A    between atoms: N4_14  and  C9_15 
REMARK    6  A    between atoms: C10_17  and  C11_18 
REMARK    7  A    between atoms: C11_18  and  O1_19 
REMARK    8  A    between atoms: C12_21  and  O2_22 
REMARK    9  A    between atoms: C13_24  and  O3_25 
REMARK   10  A    between atoms: C14_27  and  O4_28 
ROOT
HETATM    1  C7  UNL     1      -0.144   4.089   1.853  1.00  0.00     0.246 C 
HETATM    2  C8  UNL     1      -0.120   5.142   0.812  1.00  0.00     0.078 C 
HETATM    3  N3  UNL     1      -0.103   5.963  -0.009  1.00  0.00    -0.196 NA
ENDROOT
BRANCH   1   4
HETATM    4  N2  UNL     1      -0.360   2.788   1.316  1.00  0.00    -0.358 N 
HETATM    5  C6  UNL     1       0.388   2.160   0.509  1.00  0.00     0.143 C 
HETATM    6  S1  UNL     1       1.894   2.912  -0.069  1.00  0.00    -0.064 SA
HETATM    7  N4  UNL     1       0.082   0.858   0.029  1.00  0.00    -0.320 N 
HETATM    8  C5  UNL     1       2.950   1.607  -0.749  1.00  0.00     0.356 C 
HETATM    9  N1  UNL     1       2.340   0.276  -0.626  1.00  0.00     0.115 N 
HETATM   10  C15 UNL     1       0.934   0.316  -0.986  1.00  0.00     0.401 C 
ATOM     11  H2  UNL     1      -1.210   2.309   1.614  1.00  0.00     0.162 HD
BRANCH   9  12
HETATM   12  C4  UNL     1       2.975  -0.575  -1.596  1.00  0.00     0.275 C 
BRANCH  12  13
HETATM   13  C3  UNL     1       4.373  -0.970  -1.359  1.00  0.00     0.030 C 
BRANCH  13  14
HETATM   14  C2  UNL     1       4.649  -1.812  -0.156  1.00  0.00    -0.003 C 
HETATM   15  C1  UNL     1       4.264  -1.130   1.110  1.00  0.00     0.005 C 
ENDBRANCH  13  14
ENDBRANCH  12  13
ENDBRANCH   9  12
BRANCH   7  16
HETATM   16  C9  UNL     1      -1.066   0.157   0.582  1.00  0.00     0.182 C 
HETATM   17  S2  UNL     1      -1.078  -1.509  -0.136  1.00  0.00    -0.131 SA
HETATM   18  C10 UNL     1      -2.654  -2.307   0.347  1.00  0.00     0.104 C 
HETATM   19  C12 UNL     1      -3.511  -1.233   0.964  1.00  0.00     0.165 C 
HETATM   20  C13 UNL     1      -3.511  -0.038   0.068  1.00  0.00     0.179 C 
HETATM   21  C14 UNL     1      -2.353   0.897   0.330  1.00  0.00     0.182 C 
BRANCH  18  22
HETATM   22  C11 UNL     1      -3.269  -2.931  -0.869  1.00  0.00     0.181 C 
BRANCH  22  23
HETATM   23  O1  UNL     1      -4.471  -3.541  -0.502  1.00  0.00    -0.400 OA
ATOM     24  H1  UNL     1      -4.861  -3.937  -1.273  1.00  0.00     0.209 HD
ENDBRANCH  22  23
ENDBRANCH  18  22
BRANCH  19  25
HETATM   25  O2  UNL     1      -4.841  -1.663   1.087  1.00  0.00    -0.392 OA
ATOM     26  H2  UNL     1      -5.382  -0.986   1.476  1.00  0.00     0.210 HD
ENDBRANCH  19  25
BRANCH  20  27
HETATM   27  O3  UNL     1      -4.688   0.682   0.303  1.00  0.00    -0.390 OA
ATOM     28  H3  UNL     1      -4.688   1.442  -0.267  1.00  0.00     0.210 HD
ENDBRANCH  20  27
BRANCH  21  29
HETATM   29  O4  UNL     1      -2.206   1.679  -0.829  1.00  0.00    -0.390 OA
ATOM     30  H4  UNL     1      -3.018   2.146  -0.988  1.00  0.00     0.210 HD
ENDBRANCH  21  29
ENDBRANCH   7  16
ENDBRANCH   1   4
TORSDOF 10
