REMARK  11 active torsions:
REMARK  status: ('A' for Active; 'I' for Inactive)
REMARK    1  A    between atoms: N1_2  and  C3_4 
REMARK    2  A    between atoms: C3_4  and  C4_5 
REMARK    3  A    between atoms: C4_5  and  O1_6 
REMARK    4  A    between atoms: O1_6  and  C5_7 
REMARK    5  A    between atoms: C5_7  and  C6_8 
REMARK    6  A    between atoms: C6_8  and  O2_9 
REMARK    7  A    between atoms: O2_9  and  C7_10 
REMARK    8  A    between atoms: C7_10  and  C8_11 
REMARK    9  A    between atoms: C8_11  and  N2_12 
REMARK   10  A    between atoms: N2_12  and  C9_14 
REMARK   11  A    between atoms: C14_21  and  N4_22 
REMARK       I    between atoms: N4_22  and  C15_24 
ROOT
HETATM    1  C9  UNL     1       1.447   0.086  -0.514  1.00  0.00     0.054 A 
HETATM    2  C10 UNL     1       1.946  -1.173  -0.071  1.00  0.00    -0.001 A 
HETATM    3  C11 UNL     1       3.176  -1.316   0.430  1.00  0.00     0.056 A 
HETATM    4  N3  UNL     1       3.972  -0.268   0.524  1.00  0.00    -0.354 N 
ATOM      5  H3  UNL     1       4.909  -0.387   0.908  1.00  0.00     0.166 HD
HETATM    6  C12 UNL     1       3.574   0.959   0.123  1.00  0.00     0.050 A 
HETATM    7  C13 UNL     1       4.454   2.032   0.228  1.00  0.00     0.079 A 
HETATM    8  C14 UNL     1       4.071   3.285  -0.190  1.00  0.00     0.109 A 
HETATM    9  N7  UNL     1       2.855   3.508  -0.703  1.00  0.00    -0.351 N 
ATOM     10  H7  UNL     1       2.584   4.443  -1.009  1.00  0.00     0.166 HD
HETATM   11  C16 UNL     1       1.979   2.458  -0.810  1.00  0.00     0.105 A 
HETATM   12  C17 UNL     1       2.320   1.182  -0.403  1.00  0.00     0.033 A 
HETATM   13  C18 UNL     1       3.671  -2.629   0.882  1.00  0.00     0.115 C 
HETATM   14  N8  UNL     1       3.004  -3.770   0.439  1.00  0.00    -0.392 N 
HETATM   15  C19 UNL     1       3.839  -4.860   0.016  1.00  0.00     0.148 C 
HETATM   16  C20 UNL     1       1.849  -3.637  -0.364  1.00  0.00     0.126 C 
HETATM   17  C21 UNL     1       1.083  -2.366  -0.217  1.00  0.00     0.063 C 
ENDROOT
BRANCH   1  18
HETATM   18  N2  UNL     1       0.310   0.181  -0.935  1.00  0.00    -0.366 N 
ATOM     19  H2  UNL     1      -0.061  -0.767  -0.864  1.00  0.00     0.165 HD
BRANCH  18  20
HETATM   20  C8  UNL     1      -0.707   0.892  -1.445  1.00  0.00     0.087 C 
BRANCH  20  21
HETATM   21  C7  UNL     1      -2.094   0.302  -1.604  1.00  0.00     0.212 C 
BRANCH  21  22
HETATM   22  O2  UNL     1      -2.785  -0.091  -0.541  1.00  0.00    -0.384 OA
BRANCH  22  23
HETATM   23  C6  UNL     1      -2.350  -1.054   0.269  1.00  0.00     0.194 C 
BRANCH  23  24
HETATM   24  C5  UNL     1      -3.289  -1.389   1.411  1.00  0.00     0.193 C 
BRANCH  24  25
HETATM   25  O1  UNL     1      -4.522  -1.822   1.068  1.00  0.00    -0.387 OA
BRANCH  25  26
HETATM   26  C4  UNL     1      -5.345  -0.997   0.364  1.00  0.00     0.198 C 
BRANCH  26  27
HETATM   27  C3  UNL     1      -5.663   0.302   1.115  1.00  0.00     0.297 C 
BRANCH  27  28
HETATM   28  N1  UNL     1      -6.529   1.148   0.352  1.00  0.00     0.082 N 
HETATM   29  C1  UNL     1      -5.936   1.700  -0.831  1.00  0.00     0.309 C 
HETATM   30  C2  UNL     1      -7.824   0.559   0.110  1.00  0.00     0.309 C 
ENDBRANCH  27  28
ENDBRANCH  26  27
ENDBRANCH  25  26
ENDBRANCH  24  25
ENDBRANCH  23  24
ENDBRANCH  22  23
ENDBRANCH  21  22
ENDBRANCH  20  21
ENDBRANCH  18  20
ENDBRANCH   1  18
BRANCH   8  31
HETATM   31  N4  UNL     1       4.875   4.289  -0.098  1.00  0.00    -0.317 N 
HETATM   32  C15 UNL     1       6.167   4.078   0.442  1.00  0.00     0.187 C 
HETATM   33  N5  UNL     1       7.158   3.936  -0.366  1.00  0.00    -0.373 N 
HETATM   34  N6  UNL     1       6.440   4.011   1.833  1.00  0.00    -0.064 NA
ATOM     35  H52 UNL     1       6.962   3.984  -1.366  1.00  0.00     0.158 HD
ATOM     36  H51 UNL     1       8.089   3.784   0.023  1.00  0.00     0.158 HD
ATOM     37  H4  UNL     1       4.586   5.217  -0.408  1.00  0.00     0.170 HD
ENDBRANCH   8  31
TORSDOF 11
