REMARK  3 active torsions:
REMARK  status: ('A' for Active; 'I' for Inactive)
REMARK    1  A    between atoms: N1_1  and  N2_4 
REMARK    2  A    between atoms: N3_6  and  N4_8 
REMARK    3  A    between atoms: C4_12  and  N5_13 
ROOT
HETATM    1  N4  UNL     1       0.182  -0.318  -0.213  1.00  0.00    -0.282 N 
HETATM    2  C1  UNL     1       0.111  -0.964   1.065  1.00  0.00     0.147 C 
HETATM    3  C2  UNL     1      -1.055  -0.216   1.703  1.00  0.00     0.025 C 
HETATM    4  C3  UNL     1      -1.882   0.302   0.550  1.00  0.00     0.057 C 
HETATM    5  C4  UNL     1      -1.164  -0.253  -0.688  1.00  0.00     0.300 C 
ENDROOT
BRANCH   1   6
HETATM    6  N3  UNL     1       1.329   0.132  -0.820  1.00  0.00    -0.229 N 
HETATM    7  N2  UNL     1       2.478  -0.131  -0.359  1.00  0.00    -0.235 N 
ATOM      8  H2  UNL     1       2.555  -0.694   0.488  1.00  0.00     0.209 HD
ATOM      9  H3  UNL     1       1.253   0.695  -1.667  1.00  0.00     0.209 HD
BRANCH   7  10
HETATM   10  N1  UNL     1       3.644   0.328  -0.978  1.00  0.00    -0.330 N 
ATOM     11  H12 UNL     1       3.549   0.889  -1.824  1.00  0.00     0.178 HD
ATOM     12  H11 UNL     1       4.570   0.116  -0.606  1.00  0.00     0.178 HD
ENDBRANCH   7  10
ENDBRANCH   1   6
BRANCH   5  13
HETATM   13  N5  UNL     1      -1.346   0.655  -1.799  1.00  0.00    -0.057 N 
ATOM     14  H53 UNL     1      -1.003   1.586  -1.563  1.00  0.00     0.276 HD
ATOM     15  H52 UNL     1      -0.707   0.425  -2.560  1.00  0.00     0.276 HD
ATOM     16  H51 UNL     1      -2.307   0.701  -2.138  1.00  0.00     0.276 HD
ENDBRANCH   5  13
TORSDOF 3
