REMARK  13 active torsions:
REMARK  status: ('A' for Active; 'I' for Inactive)
REMARK    1  A    between atoms: C1_4  and  N2_5 
REMARK    2  A    between atoms: C1_4  and  C4_13 
REMARK    3  A    between atoms: N2_5  and  O1_7 
REMARK    4  A    between atoms: O1_7  and  C2_8 
REMARK    5  A    between atoms: C2_8  and  C3_9 
REMARK    6  A    between atoms: C3_9  and  N3_10 
REMARK    7  A    between atoms: C4_13  and  C5_14 
REMARK    8  A    between atoms: C4_13  and  N5_19 
REMARK    9  A    between atoms: C5_14  and  N4_15 
REMARK   10  A    between atoms: N5_19  and  C6_21 
REMARK   11  A    between atoms: C6_21  and  C7_22 
REMARK   12  A    between atoms: C7_22  and  N6_23 
REMARK   13  A    between atoms: C12_34  and  N9_35 
ROOT
HETATM    1  N5  UNL     1      -0.219  -0.568  -0.198  1.00  0.00    -0.408 N 
ATOM      2  H5  UNL     1      -0.985  -1.120   0.187  1.00  0.00     0.154 HD
ENDROOT
BRANCH   1   3
HETATM    3  C4  UNL     1       1.144  -1.047  -0.217  1.00  0.00     0.171 C 
BRANCH   3   4
HETATM    4  C1  UNL     1       2.022   0.007   0.350  1.00  0.00     0.119 C 
HETATM    5  N1  UNL     1       1.641   0.875   1.162  1.00  0.00    -0.386 N 
ATOM      6  H12 UNL     1       2.244   1.599   1.552  1.00  0.00     0.157 HD
ATOM      7  H11 UNL     1       0.674   0.919   1.483  1.00  0.00     0.157 HD
BRANCH   4   8
HETATM    8  N2  UNL     1       3.370  -0.055  -0.097  1.00  0.00    -0.253 N 
ATOM      9  H2  UNL     1       3.556  -0.411  -1.035  1.00  0.00     0.196 HD
BRANCH   8  10
HETATM   10  O1  UNL     1       4.411   0.334   0.660  1.00  0.00    -0.274 OA
BRANCH  10  11
HETATM   11  C2  UNL     1       5.593  -0.232   0.080  1.00  0.00     0.245 C 
BRANCH  11  12
HETATM   12  C3  UNL     1       6.367   1.058  -0.295  1.00  0.00     0.081 C 
BRANCH  12  13
HETATM   13  N3  UNL     1       7.585   0.906  -0.899  1.00  0.00    -0.409 N 
ATOM     14  H32 UNL     1       7.955  -0.026  -1.088  1.00  0.00     0.155 HD
ATOM     15  H31 UNL     1       8.094   1.755  -1.146  1.00  0.00     0.155 HD
ENDBRANCH  12  13
ENDBRANCH  11  12
ENDBRANCH  10  11
ENDBRANCH   8  10
ENDBRANCH   4   8
ENDBRANCH   3   4
BRANCH   3  16
HETATM   16  C5  UNL     1       1.089  -2.129   0.946  1.00  0.00     0.262 C 
BRANCH  16  17
HETATM   17  N4  UNL     1       2.407  -2.602   1.218  1.00  0.00    -0.077 N 
ATOM     18  H43 UNL     1       2.869  -2.958   0.381  1.00  0.00     0.274 HD
ATOM     19  H42 UNL     1       3.054  -1.842   1.429  1.00  0.00     0.274 HD
ATOM     20  H41 UNL     1       2.372  -3.296   1.964  1.00  0.00     0.274 HD
ENDBRANCH  16  17
ENDBRANCH   3  16
ENDBRANCH   1   3
BRANCH   1  21
HETATM   21  C6  UNL     1      -0.424   0.763  -0.769  1.00  0.00     0.134 C 
BRANCH  21  22
HETATM   22  C7  UNL     1      -1.607   1.208   0.156  1.00  0.00     0.143 C 
BRANCH  22  23
HETATM   23  N6  UNL     1      -2.856   0.707  -0.265  1.00  0.00    -0.366 N 
HETATM   24  C8  UNL     1      -3.273  -0.592  -0.743  1.00  0.00     0.159 C 
HETATM   25  C9  UNL     1      -4.646  -0.371  -1.431  1.00  0.00     0.237 C 
HETATM   26  N7  UNL     1      -4.792   0.970  -1.926  1.00  0.00    -0.054 N 
HETATM   27  C12 UNL     1      -5.671  -0.096  -0.375  1.00  0.00     0.253 C 
HETATM   28  C10 UNL     1      -5.246   1.344  -0.571  1.00  0.00     0.285 C 
ATOM     29  H72 UNL     1      -4.016   1.455  -2.376  1.00  0.00     0.278 HD
ATOM     30  H71 UNL     1      -5.361   1.171  -2.748  1.00  0.00     0.278 HD
HETATM   31  C11 UNL     1      -4.003   1.569   0.157  1.00  0.00     0.106 C 
HETATM   32  N8  UNL     1      -3.775   2.343   1.157  1.00  0.00    -0.387 N 
ATOM     33  H82 UNL     1      -2.905   2.500   1.666  1.00  0.00     0.157 HD
ATOM     34  H81 UNL     1      -4.557   2.931   1.445  1.00  0.00     0.157 HD
BRANCH  27  35
HETATM   35  N9  UNL     1      -5.276  -0.622   0.929  1.00  0.00    -0.070 N 
ATOM     36  H93 UNL     1      -5.060  -1.617   0.875  1.00  0.00     0.274 HD
ATOM     37  H92 UNL     1      -4.359  -0.272   1.205  1.00  0.00     0.274 HD
ATOM     38  H91 UNL     1      -5.974  -0.435   1.648  1.00  0.00     0.274 HD
ENDBRANCH  27  35
ENDBRANCH  22  23
ENDBRANCH  21  22
ENDBRANCH   1  21
TORSDOF 13
