REMARK  9 active torsions:
REMARK  status: ('A' for Active; 'I' for Inactive)
REMARK    1  A    between atoms: C3_5  and  N2_6 
REMARK    2  A    between atoms: N2_6  and  C4_8 
REMARK    3  A    between atoms: C4_8  and  C5_9 
REMARK    4  A    between atoms: C5_9  and  C6_10 
REMARK    5  A    between atoms: C6_10  and  N3_11 
REMARK    6  A    between atoms: N3_11  and  C7_13 
REMARK    7  A    between atoms: C7_13  and  C8_14 
REMARK    8  A    between atoms: C8_14  and  N4_15 
REMARK    9  A    between atoms: C10_25  and  N8_26 
ROOT
HETATM    1  C7  UNL     1       3.850  -1.008   0.694  1.00  0.00     0.111 C 
HETATM    2  N5  UNL     1       4.363  -1.271   1.843  1.00  0.00    -0.282 N 
ATOM      3  H5  UNL     1       5.282  -1.711   1.890  1.00  0.00     0.179 HD
HETATM    4  C9  UNL     1       3.696  -0.970   3.017  1.00  0.00     0.183 C 
HETATM    5  N6  UNL     1       3.119  -0.726   4.001  1.00  0.00    -0.172 NA
ENDROOT
BRANCH   1   6
HETATM    6  N3  UNL     1       2.572  -0.395   0.655  1.00  0.00    -0.378 N 
ATOM      7  H3  UNL     1       1.728  -0.968   0.651  1.00  0.00     0.160 HD
BRANCH   6   8
HETATM    8  C6  UNL     1       2.473   1.040   0.621  1.00  0.00     0.122 C 
BRANCH   8   9
HETATM    9  C5  UNL     1       1.047   1.457   0.573  1.00  0.00     0.040 C 
BRANCH   9  10
HETATM   10  C4  UNL     1       0.394   0.891  -0.684  1.00  0.00     0.139 C 
BRANCH  10  11
HETATM   11  N2  UNL     1      -0.964   1.317  -0.684  1.00  0.00    -0.225 N 
ATOM     12  H2  UNL     1      -1.137   2.229  -1.106  1.00  0.00     0.177 HD
BRANCH  11  13
HETATM   13  C3  UNL     1      -1.991   0.720  -0.232  1.00  0.00     0.693 C 
HETATM   14  N1  UNL     1      -3.175   1.363  -0.367  1.00  0.00    -0.190 N 
HETATM   15  C2  UNL     1      -4.438   0.845  -0.291  1.00  0.00     0.091 C 
ATOM     16  H1  UNL     1      -3.117   2.365  -0.549  1.00  0.00     0.184 HD
HETATM   17  C1  UNL     1      -5.549   1.815  -0.527  1.00  0.00     0.075 C 
HETATM   18  C11 UNL     1      -4.794  -0.459  -0.023  1.00  0.00     0.282 C 
HETATM   19  N9  UNL     1      -4.007  -1.499   0.278  1.00  0.00    -0.154 N 
HETATM   20  O1  UNL     1      -6.041  -0.659  -0.079  1.00  0.00    -0.266 OA
HETATM   21  C10 UNL     1      -2.664  -1.506   0.431  1.00  0.00     0.693 C 
ATOM     22  H9  UNL     1      -4.478  -2.395   0.408  1.00  0.00     0.187 HD
HETATM   23  N7  UNL     1      -1.794  -0.480   0.331  1.00  0.00    -0.023 N 
ATOM     24  H7  UNL     1      -0.870  -0.637   0.734  1.00  0.00     0.203 HD
BRANCH  21  25
HETATM   25  N8  UNL     1      -2.131  -2.644   0.711  1.00  0.00    -0.234 N 
ATOM     26  H82 UNL     1      -1.118  -2.649   0.826  1.00  0.00     0.174 HD
ATOM     27  H81 UNL     1      -2.789  -3.420   0.787  1.00  0.00     0.174 HD
ENDBRANCH  21  25
ENDBRANCH  11  13
ENDBRANCH  10  11
ENDBRANCH   9  10
ENDBRANCH   8   9
ENDBRANCH   6   8
ENDBRANCH   1   6
BRANCH   1  28
HETATM   28  C8  UNL     1       4.545  -1.321  -0.578  1.00  0.00     0.306 C 
BRANCH  28  29
HETATM   29  N4  UNL     1       4.752  -0.091  -1.314  1.00  0.00    -0.073 N 
ATOM     30  H43 UNL     1       3.885   0.425  -1.461  1.00  0.00     0.274 HD
ATOM     31  H42 UNL     1       5.245   0.613  -0.764  1.00  0.00     0.274 HD
ATOM     32  H41 UNL     1       5.230  -0.306  -2.189  1.00  0.00     0.274 HD
ENDBRANCH  28  29
ENDBRANCH   1  28
TORSDOF 9
