REMARK  17 active torsions:
REMARK  status: ('A' for Active; 'I' for Inactive)
REMARK       I    between atoms: C2_2  and  N1_4 
REMARK    1  A    between atoms: N1_4  and  C3_5 
REMARK    2  A    between atoms: C4_6  and  O2_7 
REMARK    3  A    between atoms: C5_9  and  C6_10 
REMARK    4  A    between atoms: C6_10  and  N2_11 
REMARK    5  A    between atoms: N2_11  and  O3_12 
REMARK    6  A    between atoms: C7_14  and  C8_15 
REMARK    7  A    between atoms: C8_15  and  N3_16 
REMARK    8  A    between atoms: C8_15  and  O4_20 
REMARK    9  A    between atoms: N4_22  and  C9_23 
REMARK   10  A    between atoms: C10_26  and  N7_27 
REMARK   11  A    between atoms: C10_26  and  O5_31 
REMARK   12  A    between atoms: C11_34  and  C12_35 
REMARK   13  A    between atoms: C13_37  and  C14_38 
REMARK   14  A    between atoms: C14_38  and  O8_39 
REMARK   15  A    between atoms: C15_41  and  O9_42 
REMARK   16  A    between atoms: C16_44  and  O10_45 
REMARK   17  A    between atoms: C17_47  and  O11_48 
ROOT
HETATM    1  C3  UNL     1       0.249  -1.146   0.758  1.00  0.00     0.171 A 
HETATM    2  C4  UNL     1       1.560  -0.831   0.927  1.00  0.00     0.133 A 
HETATM    3  C5  UNL     1       1.753   0.385   0.539  1.00  0.00     0.072 A 
HETATM    4  N4  UNL     1       0.527   0.913   0.087  1.00  0.00    -0.302 N 
HETATM    5  C11 UNL     1      -0.398  -0.041   0.222  1.00  0.00     0.091 A 
ENDROOT
BRANCH   5   6
HETATM    6  C12 UNL     1      -1.881   0.014  -0.019  1.00  0.00     0.207 C 
HETATM    7  O7  UNL     1      -2.599  -0.847   0.698  1.00  0.00    -0.367 OA
HETATM    8  C13 UNL     1      -3.948  -0.474   0.701  1.00  0.00     0.177 C 
HETATM    9  C15 UNL     1      -4.475  -0.654  -0.690  1.00  0.00     0.180 C 
HETATM   10  C16 UNL     1      -3.749   0.334  -1.588  1.00  0.00     0.181 C 
HETATM   11  C17 UNL     1      -2.263   0.066  -1.444  1.00  0.00     0.184 C 
BRANCH   8  12
HETATM   12  C14 UNL     1      -4.684  -1.261   1.757  1.00  0.00     0.198 C 
BRANCH  12  13
HETATM   13  O8  UNL     1      -6.063  -0.999   1.829  1.00  0.00    -0.398 OA
ATOM     14  H8  UNL     1      -6.526  -1.495   2.494  1.00  0.00     0.209 HD
ENDBRANCH  12  13
ENDBRANCH   8  12
BRANCH   9  15
HETATM   15  O9  UNL     1      -4.115  -1.919  -1.140  1.00  0.00    -0.390 OA
ATOM     16  H9  UNL     1      -4.449  -2.033  -2.022  1.00  0.00     0.210 HD
ENDBRANCH   9  15
BRANCH  10  17
HETATM   17  O10 UNL     1      -4.221   0.162  -2.921  1.00  0.00    -0.390 OA
ATOM     18  H10 UNL     1      -3.767   0.780  -3.482  1.00  0.00     0.210 HD
ENDBRANCH  10  17
BRANCH  11  19
HETATM   19  O11 UNL     1      -1.490   0.657  -2.369  1.00  0.00    -0.390 OA
ATOM     20  H11 UNL     1      -1.736   0.690  -3.286  1.00  0.00     0.210 HD
ENDBRANCH  11  19
ENDBRANCH   5   6
BRANCH   1  21
HETATM   21  N1  UNL     1      -0.135  -2.419   0.809  1.00  0.00    -0.366 NA
HETATM   22  C2  UNL     1      -0.525  -3.685   0.881  1.00  0.00     0.288 C 
HETATM   23  C1  UNL     1      -0.048  -4.408  -0.578  1.00  0.00     0.135 C 
HETATM   24  O1  UNL     1      -0.996  -4.480   1.502  1.00  0.00    -0.258 OA
ENDBRANCH   1  21
BRANCH   4  25
HETATM   25  C9  UNL     1       0.441   2.297  -0.191  1.00  0.00     0.350 C 
HETATM   26  N5  UNL     1       1.141   3.052   0.807  1.00  0.00    -0.088 NA
HETATM   27  N6  UNL     1       0.191   3.766   1.515  1.00  0.00    -0.050 NA
HETATM   28  C10 UNL     1      -0.635   4.143   0.341  1.00  0.00     0.435 C 
HETATM   29  O6  UNL     1      -0.777   2.914  -0.217  1.00  0.00    -0.277 OA
BRANCH  28  30
HETATM   30  N7  UNL     1       0.236   5.055  -0.399  1.00  0.00    -0.004 N 
ATOM     31  H73 UNL     1       0.586   5.844   0.145  1.00  0.00     0.282 HD
ATOM     32  H72 UNL     1       1.153   4.673  -0.630  1.00  0.00     0.282 HD
ATOM     33  H71 UNL     1      -0.332   5.314  -1.206  1.00  0.00     0.282 HD
ENDBRANCH  28  30
BRANCH  28  34
HETATM   34  O5  UNL     1      -1.793   4.756   0.749  1.00  0.00    -0.329 OA
ATOM     35  H5  UNL     1      -2.322   4.997  -0.002  1.00  0.00     0.216 HD
ENDBRANCH  28  34
ENDBRANCH   4  25
BRANCH   2  36
HETATM   36  O2  UNL     1       2.540  -1.768   1.456  1.00  0.00    -0.356 OA
ATOM     37  H2  UNL     1       3.457  -1.548   1.574  1.00  0.00     0.218 HD
ENDBRANCH   2  36
BRANCH   3  38
HETATM   38  C6  UNL     1       3.110   1.141   0.390  1.00  0.00     0.215 C 
BRANCH  38  39
HETATM   39  N2  UNL     1       4.256   0.309   0.147  1.00  0.00    -0.266 N 
HETATM   40  C7  UNL     1       4.355  -0.410  -0.992  1.00  0.00     0.150 C 
BRANCH  39  41
HETATM   41  O3  UNL     1       4.523  -0.342   1.337  1.00  0.00    -0.288 OA
ATOM     42  H3  UNL     1       5.281  -0.892   1.176  1.00  0.00     0.244 HD
ENDBRANCH  39  41
BRANCH  40  43
HETATM   43  C8  UNL     1       5.573  -1.318  -1.036  1.00  0.00     0.358 C 
BRANCH  43  44
HETATM   44  N3  UNL     1       5.613  -2.322   0.058  1.00  0.00    -0.048 N 
ATOM     45  H33 UNL     1       5.538  -1.866   0.967  1.00  0.00     0.277 HD
ATOM     46  H32 UNL     1       4.755  -2.873   0.071  1.00  0.00     0.277 HD
ATOM     47  H31 UNL     1       6.430  -2.931   0.028  1.00  0.00     0.277 HD
ENDBRANCH  43  44
BRANCH  43  48
HETATM   48  O4  UNL     1       6.784  -0.602  -0.979  1.00  0.00    -0.366 OA
ATOM     49  H4  UNL     1       7.545  -1.170  -1.007  1.00  0.00     0.212 HD
ENDBRANCH  43  48
ENDBRANCH  40  43
ENDBRANCH  38  39
ENDBRANCH   3  38
TORSDOF 17
