REMARK  5 active torsions:
REMARK  status: ('A' for Active; 'I' for Inactive)
REMARK    1  A    between atoms: C2_2  and  C3_3 
REMARK    2  A    between atoms: C3_3  and  C4_4 
REMARK    3  A    between atoms: N1_18  and  C17_20 
REMARK    4  A    between atoms: C17_20  and  C18_21 
REMARK    5  A    between atoms: C18_21  and  O3_22 
ROOT
HETATM    1  C4  UNL     1       3.229  -0.195  -1.077  1.00  0.00     0.030 C 
HETATM    2  C5  UNL     1       3.140  -1.685  -1.191  1.00  0.00     0.008 C 
HETATM    3  C6  UNL     1       1.854  -2.039  -1.862  1.00  0.00     0.004 C 
HETATM    4  C7  UNL     1       0.898  -0.898  -2.016  1.00  0.00     0.045 C 
HETATM    5  C8  UNL     1       0.816   0.022  -0.847  1.00  0.00     0.140 C 
HETATM    6  O1  UNL     1       0.890   1.360  -1.307  1.00  0.00    -0.225 OA
HETATM    7  O2  UNL     1       1.952   1.746  -0.686  1.00  0.00    -0.225 OA
HETATM    8  C9  UNL     1       2.100   0.401  -0.259  1.00  0.00     0.135 C 
HETATM    9  C10 UNL     1       2.266   0.350   1.202  1.00  0.00     0.049 C 
HETATM   10  C11 UNL     1       1.327  -0.477   1.984  1.00  0.00    -0.015 C 
HETATM   11  C12 UNL     1       2.038  -1.625   2.720  1.00  0.00     0.010 C 
HETATM   12  C13 UNL     1       0.205  -1.100   1.212  1.00  0.00     0.019 C 
HETATM   13  C14 UNL     1      -0.314  -0.189   0.124  1.00  0.00     0.027 C 
HETATM   14  C15 UNL     1      -0.791   1.128   0.643  1.00  0.00     0.250 C 
HETATM   15  N1  UNL     1      -2.235   1.198   0.454  1.00  0.00    -0.063 N 
HETATM   16  C16 UNL     1      -2.569   1.949  -0.742  1.00  0.00     0.273 C 
HETATM   17  C19 UNL     1      -2.605  -0.165   0.439  1.00  0.00     0.195 C 
HETATM   18  C20 UNL     1      -3.978  -0.511  -0.018  1.00  0.00     0.034 C 
HETATM   19  C21 UNL     1      -3.975  -1.543  -1.124  1.00  0.00     0.002 C 
HETATM   20  C22 UNL     1      -3.006  -2.649  -0.943  1.00  0.00     0.001 C 
HETATM   21  C23 UNL     1      -1.719  -2.253  -0.250  1.00  0.00     0.007 C 
HETATM   22  C24 UNL     1      -1.535  -0.775  -0.455  1.00  0.00     0.030 C 
ENDROOT
BRANCH  15  23
HETATM   23  C17 UNL     1      -2.737   1.891   1.640  1.00  0.00     0.263 C 
BRANCH  23  24
HETATM   24  C18 UNL     1      -3.805   2.896   1.294  1.00  0.00     0.192 C 
BRANCH  24  25
HETATM   25  O3  UNL     1      -4.272   3.549   2.434  1.00  0.00    -0.399 OA
ATOM     26  H3  UNL     1      -4.945   4.183   2.216  1.00  0.00     0.209 HD
ENDBRANCH  24  25
ENDBRANCH  23  24
ENDBRANCH  15  23
BRANCH   1  27
HETATM   27  C3  UNL     1       4.593   0.194  -0.620  1.00  0.00     0.034 C 
BRANCH  27  28
HETATM   28  C2  UNL     1       4.809   1.638  -0.467  1.00  0.00    -0.036 C 
HETATM   29  C1  UNL     1       5.725   2.325  -1.140  1.00  0.00     0.007 C 
ENDBRANCH  27  28
ENDBRANCH   1  27
TORSDOF 5
