REMARK  4 active torsions:
REMARK  status: ('A' for Active; 'I' for Inactive)
REMARK    1  A    between atoms: C2_2  and  C4_4 
REMARK    2  A    between atoms: N1_10  and  N2_12 
REMARK    3  A    between atoms: N2_12  and  C10_14 
REMARK    4  A    between atoms: C15_19  and  N3_20 
ROOT
HETATM    1  C4  UNL     1       3.577  -1.639   0.097  1.00  0.00    -0.080 C 
HETATM    2  C5  UNL     1       2.517  -2.436   0.023  1.00  0.00    -0.023 C 
HETATM    3  C6  UNL     1       1.078  -2.073  -0.067  1.00  0.00     0.033 C 
HETATM    4  C7  UNL     1       0.790  -1.076  -1.188  1.00  0.00    -0.001 C 
HETATM    5  C8  UNL     1      -0.674  -0.739  -1.138  1.00  0.00     0.059 C 
HETATM    6  C9  UNL     1      -1.092  -0.064   0.114  1.00  0.00     0.010 C 
HETATM    7  N1  UNL     1      -1.952  -0.571   0.887  1.00  0.00    -0.312 N 
ATOM      8  H1  UNL     1      -2.148  -0.002   1.710  1.00  0.00     0.186 HD
HETATM    9  C14 UNL     1      -0.532   1.226   0.555  1.00  0.00     0.071 C 
HETATM   10  C15 UNL     1      -1.596   2.325   0.737  1.00  0.00     0.232 C 
HETATM   11  C18 UNL     1      -0.620   3.418   1.224  1.00  0.00     0.037 C 
HETATM   12  C19 UNL     1       0.562   3.249   0.296  1.00  0.00     0.008 C 
HETATM   13  C20 UNL     1       0.342   1.914  -0.429  1.00  0.00     0.006 C 
HETATM   14  C21 UNL     1       1.635   1.303  -0.767  1.00  0.00    -0.031 A 
HETATM   15  C22 UNL     1       2.595   2.376  -1.332  1.00  0.00     0.016 C 
HETATM   16  C23 UNL     1       2.256   0.349   0.112  1.00  0.00     0.004 A 
HETATM   17  C24 UNL     1       3.667  -0.135   0.116  1.00  0.00     0.040 C 
HETATM   18  C25 UNL     1       1.735   0.002  -1.324  1.00  0.00     0.004 A 
ENDROOT
BRANCH   7  19
HETATM   19  N2  UNL     1      -2.669  -1.725   0.840  1.00  0.00    -0.328 N 
ATOM     20  H2  UNL     1      -2.162  -2.565   1.117  1.00  0.00     0.181 HD
BRANCH  19  21
HETATM   21  C10 UNL     1      -4.036  -1.932   0.457  1.00  0.00     0.035 C 
HETATM   22  C11 UNL     1      -4.996  -1.029   1.243  1.00  0.00     0.039 C 
HETATM   23  C12 UNL     1      -4.340  -1.771  -0.992  1.00  0.00     0.039 C 
HETATM   24  C13 UNL     1      -4.491  -3.360   0.819  1.00  0.00     0.039 C 
ENDBRANCH  19  21
ENDBRANCH   7  19
BRANCH  10  25
HETATM   25  N3  UNL     1      -2.113   2.794  -0.503  1.00  0.00     0.085 N 
HETATM   26  C16 UNL     1      -2.358   4.221  -0.491  1.00  0.00     0.309 C 
HETATM   27  C17 UNL     1      -3.337   2.164  -0.947  1.00  0.00     0.309 C 
ENDBRANCH  10  25
BRANCH   1  28
HETATM   28  C2  UNL     1       4.863  -2.379   0.175  1.00  0.00     0.006 C 
HETATM   29  C1  UNL     1       5.557  -2.108   1.467  1.00  0.00     0.014 C 
HETATM   30  C3  UNL     1       5.716  -1.978  -1.030  1.00  0.00     0.014 C 
ENDBRANCH   1  28
TORSDOF 4
