REMARK  3 active torsions:
REMARK  status: ('A' for Active; 'I' for Inactive)
REMARK       I    between atoms: C1_4  and  N3_6 
REMARK    1  A    between atoms: N3_6  and  N4_8 
REMARK    2  A    between atoms: N4_8  and  S1_10 
REMARK    3  A    between atoms: S1_10  and  N5_13 
ROOT
HETATM    1  S1  UNL     1       0.262   1.058  -0.658  1.00  0.00     0.350 S 
HETATM    2  O1  UNL     1       0.106   2.540  -0.862  1.00  0.00    -0.180 OA
HETATM    3  O2  UNL     1       0.780   0.454  -1.911  1.00  0.00    -0.180 OA
ENDROOT
BRANCH   1   4
HETATM    4  N4  UNL     1       1.308   0.822   0.686  1.00  0.00    -0.207 N 
ATOM      5  H4  UNL     1       1.427   1.457   1.475  1.00  0.00     0.201 HD
BRANCH   4   6
HETATM    6  N3  UNL     1       1.967  -0.400   0.502  1.00  0.00    -0.263 N 
HETATM    7  C1  UNL     1       3.350  -0.461   0.188  1.00  0.00     0.201 C 
HETATM    8  N1  UNL     1       3.870  -1.453  -0.467  1.00  0.00    -0.372 N 
HETATM    9  N2  UNL     1       4.220   0.577   0.588  1.00  0.00    -0.062 NA
ATOM     10  H12 UNL     1       4.864  -1.497  -0.693  1.00  0.00     0.158 HD
ATOM     11  H11 UNL     1       3.242  -2.203  -0.756  1.00  0.00     0.158 HD
ATOM     12  H3  UNL     1       1.440  -1.268   0.596  1.00  0.00     0.190 HD
ENDBRANCH   4   6
ENDBRANCH   1   4
BRANCH   1  13
HETATM   13  N5  UNL     1      -1.309   0.387  -0.364  1.00  0.00    -0.120 N 
HETATM   14  C2  UNL     1      -2.090   0.836   0.650  1.00  0.00     0.349 A 
HETATM   15  O3  UNL     1      -1.619   1.755   1.358  1.00  0.00    -0.245 OA
HETATM   16  N6  UNL     1      -3.298   0.346   0.906  1.00  0.00    -0.259 N 
HETATM   17  C3  UNL     1      -3.799  -0.641   0.141  1.00  0.00     0.332 A 
ATOM     18  H6  UNL     1      -3.845   0.718   1.682  1.00  0.00     0.175 HD
HETATM   19  O4  UNL     1      -4.938  -1.101   0.385  1.00  0.00    -0.246 OA
HETATM   20  N7  UNL     1      -3.039  -1.114  -0.885  1.00  0.00    -0.259 N 
HETATM   21  C4  UNL     1      -1.820  -0.598  -1.119  1.00  0.00     0.349 A 
ATOM     22  H7  UNL     1      -3.396  -1.863  -1.478  1.00  0.00     0.175 HD
HETATM   23  O5  UNL     1      -1.152  -1.063  -2.074  1.00  0.00    -0.245 OA
ENDBRANCH   1  13
TORSDOF 3
