REMARK  18 active torsions:
REMARK  status: ('A' for Active; 'I' for Inactive)
REMARK    1  A    between atoms: C1_4  and  C2_6 
REMARK       I    between atoms: C2_6  and  N3_8 
REMARK    2  A    between atoms: N3_8  and  C3_10 
REMARK    3  A    between atoms: C3_10  and  C4_11 
REMARK    4  A    between atoms: C4_11  and  O2_12 
REMARK    5  A    between atoms: O2_12  and  C5_13 
REMARK    6  A    between atoms: C7_17  and  N5_18 
REMARK    7  A    between atoms: C8_23  and  N7_24 
REMARK    8  A    between atoms: N7_24  and  C9_26 
REMARK    9  A    between atoms: C9_26  and  N8_28 
REMARK   10  A    between atoms: N8_28  and  N9_30 
REMARK       I    between atoms: N9_30  and  C10_32 
REMARK   11  A    between atoms: C10_32  and  C11_34 
REMARK   12  A    between atoms: C11_34  and  C12_35 
REMARK   13  A    between atoms: C12_35  and  C13_36 
REMARK   14  A    between atoms: C16_39  and  N10_40 
REMARK       I    between atoms: N10_40  and  C17_42 
REMARK   15  A    between atoms: C17_42  and  C18_44 
REMARK   16  A    between atoms: C18_44  and  N11_45 
REMARK   17  A    between atoms: N12_51  and  C21_52 
REMARK   18  A    between atoms: C21_52  and  O5_53 
ROOT
HETATM    1  C5  UNL     1      -6.190  -0.857   1.360  1.00  0.00     0.225 A 
HETATM    2  N4  UNL     1      -5.242  -0.355   0.539  1.00  0.00    -0.316 N 
ATOM      3  H4  UNL     1      -5.404   0.381  -0.149  1.00  0.00     0.169 HD
HETATM    4  C6  UNL     1      -4.061  -0.951   0.747  1.00  0.00     0.125 A 
HETATM    5  C7  UNL     1      -2.799  -0.838   0.213  1.00  0.00     0.145 A 
HETATM    6  N6  UNL     1      -1.770  -1.620   0.659  1.00  0.00    -0.174 N 
ATOM      7  H6  UNL     1      -0.839  -1.524   0.253  1.00  0.00     0.186 HD
HETATM    8  C8  UNL     1      -1.992  -2.515   1.634  1.00  0.00     0.691 A 
HETATM    9  N12 UNL     1      -3.216  -2.643   2.170  1.00  0.00    -0.144 N 
HETATM   10  C22 UNL     1      -4.256  -1.891   1.758  1.00  0.00     0.159 A 
HETATM   11  N13 UNL     1      -5.550  -1.806   2.102  1.00  0.00    -0.305 N 
ATOM     12  H13 UNL     1      -5.996  -2.375   2.822  1.00  0.00     0.171 HD
ENDROOT
BRANCH   8  13
HETATM   13  N7  UNL     1      -1.064  -3.274   2.091  1.00  0.00    -0.164 N 
ATOM     14  H7  UNL     1      -1.268  -3.943   2.833  1.00  0.00     0.186 HD
BRANCH  13  15
HETATM   15  C9  UNL     1       0.236  -3.178   1.563  1.00  0.00     0.205 C 
HETATM   16  S1  UNL     1       0.759  -4.319   0.535  1.00  0.00    -0.039 SA
BRANCH  15  17
HETATM   17  N8  UNL     1       1.069  -2.098   1.932  1.00  0.00    -0.273 N 
ATOM     18  H8  UNL     1       0.709  -1.399   2.581  1.00  0.00     0.189 HD
BRANCH  17  19
HETATM   19  N9  UNL     1       2.378  -1.953   1.435  1.00  0.00    -0.268 N 
HETATM   20  C10 UNL     1       2.827  -0.638   1.158  1.00  0.00     0.236 C 
HETATM   21  O3  UNL     1       2.107   0.364   1.341  1.00  0.00    -0.272 OA
ATOM     22  H9  UNL     1       2.979  -2.762   1.280  1.00  0.00     0.190 HD
BRANCH  20  23
HETATM   23  C11 UNL     1       4.230  -0.507   0.627  1.00  0.00     0.109 C 
BRANCH  23  24
HETATM   24  C12 UNL     1       4.585   0.949   0.393  1.00  0.00     0.048 C 
BRANCH  24  25
HETATM   25  C13 UNL     1       5.963   0.989  -0.130  1.00  0.00    -0.058 A 
HETATM   26  C14 UNL     1       7.017   1.081   0.716  1.00  0.00     0.009 A 
HETATM   27  C15 UNL     1       8.328   1.121   0.237  1.00  0.00     0.030 A 
HETATM   28  C16 UNL     1       8.534   1.066  -1.115  1.00  0.00     0.034 A 
HETATM   29  C19 UNL     1       7.429   0.972  -1.971  1.00  0.00     0.030 A 
HETATM   30  C20 UNL     1       6.171   0.934  -1.484  1.00  0.00     0.009 A 
BRANCH  28  31
HETATM   31  N10 UNL     1       9.816   1.088  -1.708  1.00  0.00    -0.326 N 
HETATM   32  C17 UNL     1      11.060   1.025  -1.076  1.00  0.00     0.247 C 
HETATM   33  O4  UNL     1      11.249   0.935   0.149  1.00  0.00    -0.271 OA
ATOM     34  H10 UNL     1       9.836   1.159  -2.725  1.00  0.00     0.169 HD
BRANCH  32  35
HETATM   35  C18 UNL     1      12.323   1.066  -1.903  1.00  0.00     0.332 C 
BRANCH  35  36
HETATM   36  N11 UNL     1      11.950   1.169  -3.279  1.00  0.00    -0.071 N 
ATOM     37 3H11 UNL     1      11.312   0.428  -3.571  1.00  0.00     0.274 HD
ATOM     38 2H11 UNL     1      11.334   1.961  -3.462  1.00  0.00     0.274 HD
ATOM     39 1H11 UNL     1      12.803   1.197  -3.838  1.00  0.00     0.274 HD
ENDBRANCH  35  36
ENDBRANCH  32  35
ENDBRANCH  28  31
ENDBRANCH  24  25
ENDBRANCH  23  24
ENDBRANCH  20  23
ENDBRANCH  17  19
ENDBRANCH  15  17
ENDBRANCH  13  15
ENDBRANCH   8  13
BRANCH   9  40
HETATM   40  C21 UNL     1      -3.431  -3.612   3.219  1.00  0.00     0.316 C 
BRANCH  40  41
HETATM   41  O5  UNL     1      -3.221  -3.083   4.489  1.00  0.00    -0.381 OA
ATOM     42  H5  UNL     1      -3.362  -3.720   5.179  1.00  0.00     0.211 HD
ENDBRANCH  40  41
ENDBRANCH   9  40
BRANCH   5  43
HETATM   43  N5  UNL     1      -2.552   0.003  -0.718  1.00  0.00    -0.383 N 
ATOM     44  H52 UNL     1      -3.320   0.586  -1.051  1.00  0.00     0.157 HD
ATOM     45  H51 UNL     1      -1.616   0.087  -1.114  1.00  0.00     0.157 HD
ENDBRANCH   5  43
BRANCH   1  46
HETATM   46  O2  UNL     1      -7.518  -0.559   1.501  1.00  0.00    -0.320 OA
BRANCH  46  47
HETATM   47  C4  UNL     1      -8.233   0.404   0.769  1.00  0.00     0.198 C 
BRANCH  47  48
HETATM   48  C3  UNL     1      -8.251   0.161  -0.711  1.00  0.00     0.149 C 
BRANCH  48  49
HETATM   49  N3  UNL     1      -8.981   1.142  -1.457  1.00  0.00    -0.353 N 
HETATM   50  C2  UNL     1     -10.365   1.409  -1.308  1.00  0.00     0.282 C 
HETATM   51  O1  UNL     1     -11.001   0.714  -0.445  1.00  0.00    -0.265 OA
ATOM     52  H3  UNL     1      -8.466   1.689  -2.147  1.00  0.00     0.162 HD
BRANCH  50  53
HETATM   53  C1  UNL     1     -11.034   2.422  -2.095  1.00  0.00     0.178 C 
HETATM   54  N1  UNL     1     -12.283   2.638  -1.936  1.00  0.00    -0.383 N 
ATOM     55  H12 UNL     1     -12.755   3.352  -2.491  1.00  0.00     0.157 HD
ATOM     56  H11 UNL     1     -12.815   2.097  -1.254  1.00  0.00     0.157 HD
HETATM   57  N2  UNL     1     -10.299   3.170  -3.038  1.00  0.00    -0.077 NA
ENDBRANCH  50  53
ENDBRANCH  48  49
ENDBRANCH  47  48
ENDBRANCH  46  47
ENDBRANCH   1  46
TORSDOF 18
