REMARK  12 active torsions:
REMARK  status: ('A' for Active; 'I' for Inactive)
REMARK    1  A    between atoms: N1_1  and  C1_4 
REMARK    2  A    between atoms: C4_9  and  N3_10 
REMARK    3  A    between atoms: C5_12  and  C6_13 
REMARK    4  A    between atoms: C6_13  and  N4_14 
REMARK       I    between atoms: N4_14  and  C7_16 
REMARK    5  A    between atoms: C7_16  and  C8_18 
REMARK    6  A    between atoms: C9_23  and  C10_24 
REMARK    7  A    between atoms: C13_34  and  N10_35 
REMARK    8  A    between atoms: N10_35  and  C14_36 
REMARK    9  A    between atoms: C14_36  and  C15_37 
REMARK   10  A    between atoms: C14_36  and  C17_41 
REMARK   11  A    between atoms: C15_37  and  C16_38 
REMARK   12  A    between atoms: C17_41  and  O3_42 
ROOT
HETATM    1  C8  UNL     1       0.930  -0.595   0.034  1.00  0.00     0.191 A 
HETATM    2  N5  UNL     1      -0.040  -1.455   0.366  1.00  0.00    -0.279 N 
ATOM      3  H5  UNL     1       0.086  -2.423   0.662  1.00  0.00     0.189 HD
HETATM    4  N6  UNL     1      -1.185  -0.821   0.240  1.00  0.00    -0.283 N 
ATOM      5  H6  UNL     1      -2.091  -1.249   0.432  1.00  0.00     0.188 HD
HETATM    6  C9  UNL     1      -1.038   0.436  -0.163  1.00  0.00     0.138 A 
HETATM    7  N12 UNL     1       0.321   0.561  -0.289  1.00  0.00    -0.321 N 
ATOM      8  H12 UNL     1       0.803   1.410  -0.586  1.00  0.00     0.169 HD
ENDROOT
BRANCH   6   9
HETATM    9  C10 UNL     1      -2.016   1.479  -0.417  1.00  0.00     0.084 A 
HETATM   10  C11 UNL     1      -1.571   2.753  -0.788  1.00  0.00     0.126 A 
HETATM   11  N7  UNL     1      -2.399   3.752  -1.037  1.00  0.00    -0.201 N 
HETATM   12  C12 UNL     1      -3.709   3.538  -0.930  1.00  0.00     0.678 A 
ATOM     13  H7  UNL     1      -2.042   4.669  -1.306  1.00  0.00     0.183 HD
HETATM   14  N8  UNL     1      -4.519   4.516  -1.174  1.00  0.00    -0.234 N 
HETATM   15  N9  UNL     1      -4.198   2.355  -0.584  1.00  0.00    -0.164 N 
ATOM     16  H82 UNL     1      -4.143   5.426  -1.440  1.00  0.00     0.174 HD
ATOM     17  H81 UNL     1      -5.522   4.352  -1.092  1.00  0.00     0.174 HD
HETATM   18  C13 UNL     1      -3.370   1.250  -0.305  1.00  0.00     0.203 A 
ATOM     19  H9  UNL     1      -5.209   2.241  -0.518  1.00  0.00     0.187 HD
BRANCH  18  20
HETATM   20  N10 UNL     1      -3.897   0.217  -0.008  1.00  0.00    -0.420 NA
BRANCH  20  21
HETATM   21  C14 UNL     1      -4.488  -0.942   0.326  1.00  0.00     0.208 C 
BRANCH  21  22
HETATM   22  C15 UNL     1      -5.722  -1.197  -0.566  1.00  0.00     0.142 C 
BRANCH  22  23
HETATM   23  C16 UNL     1      -5.291  -1.255  -1.996  1.00  0.00     0.234 C 
HETATM   24  N11 UNL     1      -6.336  -1.485  -2.946  1.00  0.00    -0.062 NA
HETATM   25  O2  UNL     1      -4.092  -1.114  -2.350  1.00  0.00    -0.277 OA
ENDBRANCH  22  23
ENDBRANCH  21  22
BRANCH  21  26
HETATM   26  C17 UNL     1      -4.886  -1.095   1.788  1.00  0.00     0.090 C 
HETATM   27  C18 UNL     1      -6.030  -0.271   2.245  1.00  0.00     0.041 C 
HETATM   28  C19 UNL     1      -6.874  -1.518   2.279  1.00  0.00     0.006 C 
HETATM   29  C20 UNL     1      -5.628  -2.355   2.093  1.00  0.00     0.041 C 
BRANCH  26  30
HETATM   30  O3  UNL     1      -3.775  -0.989   2.623  1.00  0.00    -0.387 OA
ATOM     31  H3  UNL     1      -4.023  -1.084   3.535  1.00  0.00     0.210 HD
ENDBRANCH  26  30
ENDBRANCH  21  26
ENDBRANCH  20  21
ENDBRANCH  18  20
ENDBRANCH   6   9
BRANCH   1  32
HETATM   32  C7  UNL     1       2.404  -0.825   0.012  1.00  0.00     0.287 C 
HETATM   33  N4  UNL     1       3.277   0.189  -0.405  1.00  0.00    -0.350 N 
ATOM     34  H4  UNL     1       2.884   1.084  -0.699  1.00  0.00     0.163 HD
HETATM   35  O1  UNL     1       2.844  -1.939   0.371  1.00  0.00    -0.264 OA
BRANCH  33  36
HETATM   36  C6  UNL     1       4.694   0.019  -0.435  1.00  0.00     0.168 C 
BRANCH  36  37
HETATM   37  C5  UNL     1       5.322  -0.216   0.901  1.00  0.00     0.098 C 
HETATM   38  N3  UNL     1       6.657  -0.424   0.957  1.00  0.00    -0.204 N 
ATOM     39  H3  UNL     1       6.756  -1.072   1.739  1.00  0.00     0.183 HD
BRANCH  38  40
HETATM   40  C4  UNL     1       7.816  -0.261   0.583  1.00  0.00     0.683 A 
HETATM   41  N2  UNL     1       8.136   0.538  -0.451  1.00  0.00    -0.202 N 
HETATM   42  C3  UNL     1       9.420   0.679  -0.823  1.00  0.00     0.110 A 
ATOM     43  H2  UNL     1       7.403   1.038  -0.954  1.00  0.00     0.183 HD
HETATM   44  C2  UNL     1      10.402   0.015  -0.159  1.00  0.00     0.066 A 
HETATM   45  C1  UNL     1      10.099  -0.812   0.906  1.00  0.00     0.116 A 
HETATM   46  N13 UNL     1       8.830  -0.935   1.255  1.00  0.00    -0.177 N 
ATOM     47  H13 UNL     1       8.588  -1.541   2.039  1.00  0.00     0.185 HD
BRANCH  45  48
HETATM   48  N1  UNL     1      11.071  -1.424   1.506  1.00  0.00    -0.385 N 
ATOM     49  H12 UNL     1      12.050  -1.329   1.237  1.00  0.00     0.157 HD
ATOM     50  H11 UNL     1      10.847  -2.034   2.292  1.00  0.00     0.157 HD
ENDBRANCH  45  48
ENDBRANCH  38  40
ENDBRANCH  36  37
ENDBRANCH  33  36
ENDBRANCH   1  32
TORSDOF 12
