REMARK  9 active torsions:
REMARK  status: ('A' for Active; 'I' for Inactive)
REMARK    1  A    between atoms: O1_2  and  C2_3 
REMARK    2  A    between atoms: C7_8  and  N1_9 
REMARK    3  A    between atoms: N2_19  and  C16_20 
REMARK    4  A    between atoms: C16_20  and  C17_21 
REMARK    5  A    between atoms: C17_21  and  C18_22 
REMARK    6  A    between atoms: C18_22  and  C19_23 
REMARK    7  A    between atoms: C19_23  and  N3_24 
REMARK    8  A    between atoms: N3_24  and  C21_26 
REMARK    9  A    between atoms: C21_26  and  C22_27 
ROOT
HETATM    1  C2  UNL     1      -2.592   0.824  -0.824  1.00  0.00     0.097 A 
HETATM    2  C3  UNL     1      -1.299   0.339  -0.825  1.00  0.00     0.069 A 
HETATM    3  C4  UNL     1      -0.923  -0.852  -0.241  1.00  0.00     0.048 A 
HETATM    4  C5  UNL     1      -1.916  -1.601   0.382  1.00  0.00     0.001 A 
HETATM    5  C6  UNL     1      -3.225  -1.143   0.401  1.00  0.00     0.047 A 
HETATM    6  C7  UNL     1      -3.545   0.056  -0.198  1.00  0.00     0.071 A 
HETATM    7  C14 UNL     1      -1.309  -2.719   0.873  1.00  0.00    -0.023 A 
HETATM    8  C15 UNL     1       0.030  -2.651   0.555  1.00  0.00     0.019 A 
HETATM    9  N2  UNL     1       0.246  -1.499  -0.128  1.00  0.00    -0.349 N 
HETATM   10  C25 UNL     1       0.864  -3.792   1.013  1.00  0.00     0.058 C 
HETATM   11  C26 UNL     1       0.169  -5.045   0.477  1.00  0.00     0.006 C 
HETATM   12  C27 UNL     1      -1.267  -5.132   0.866  1.00  0.00     0.005 C 
HETATM   13  C28 UNL     1      -1.760  -3.910   1.626  1.00  0.00     0.041 C 
ENDROOT
BRANCH   9  14
HETATM   14  C16 UNL     1       1.503  -1.064  -0.633  1.00  0.00     0.129 C 
BRANCH  14  15
HETATM   15  C17 UNL     1       2.289  -0.214   0.367  1.00  0.00     0.022 C 
BRANCH  15  16
HETATM   16  C18 UNL     1       3.602   0.128  -0.310  1.00  0.00     0.021 C 
BRANCH  16  17
HETATM   17  C19 UNL     1       4.496   0.950   0.553  1.00  0.00     0.121 C 
BRANCH  17  18
HETATM   18  N3  UNL     1       5.732   1.201  -0.179  1.00  0.00    -0.397 N 
HETATM   19  C20 UNL     1       6.449   0.033  -0.340  1.00  0.00     0.148 C 
BRANCH  18  20
HETATM   20  C21 UNL     1       6.167   2.499  -0.173  1.00  0.00     0.062 C 
BRANCH  20  21
HETATM   21  C22 UNL     1       7.418   2.960  -0.823  1.00  0.00     0.024 A 
HETATM   22  C23 UNL     1       8.760   2.387  -0.335  1.00  0.00     0.010 A 
HETATM   23  C24 UNL     1       8.281   2.141  -1.692  1.00  0.00     0.010 A 
ENDBRANCH  20  21
ENDBRANCH  18  20
ENDBRANCH  17  18
ENDBRANCH  16  17
ENDBRANCH  15  16
ENDBRANCH  14  15
ENDBRANCH   9  14
BRANCH   1  24
HETATM   24  O1  UNL     1      -2.924   2.031  -1.426  1.00  0.00    -0.354 OA
HETATM   25  C1  UNL     1      -2.025   2.870  -2.081  1.00  0.00     0.210 C 
ENDBRANCH   1  24
BRANCH   6  26
HETATM   26  N1  UNL     1      -4.897   0.483  -0.146  1.00  0.00    -0.315 N 
HETATM   27  C8  UNL     1      -5.761  -0.163  -1.085  1.00  0.00     0.132 C 
HETATM   28  C9  UNL     1      -7.135   0.443  -1.088  1.00  0.00     0.020 C 
HETATM   29  C10 UNL     1      -7.088   1.924  -0.893  1.00  0.00     0.002 C 
HETATM   30  C11 UNL     1      -7.453   2.327   0.524  1.00  0.00     0.009 C 
HETATM   31  C12 UNL     1      -6.413   1.807   1.508  1.00  0.00     0.103 C 
HETATM   32  C13 UNL     1      -5.153   1.474   0.832  1.00  0.00     0.224 C 
HETATM   33  O2  UNL     1      -4.162   2.197   1.198  1.00  0.00    -0.273 OA
ENDBRANCH   6  26
TORSDOF 9
