REMARK  9 active torsions:
REMARK  status: ('A' for Active; 'I' for Inactive)
REMARK    1  A    between atoms: C2_2  and  S1_3 
REMARK    2  A    between atoms: S1_3  and  C3_4 
REMARK    3  A    between atoms: C6_7  and  C7_8 
REMARK    4  A    between atoms: C7_8  and  N1_9 
REMARK    5  A    between atoms: N1_9  and  C8_10 
REMARK    6  A    between atoms: N1_9  and  C16_23 
REMARK    7  A    between atoms: N2_11  and  S2_13 
REMARK    8  A    between atoms: S2_13  and  C9_16 
REMARK    9  A    between atoms: C19_26  and  O3_27 
ROOT
HETATM    1  N1  UNL     1       0.328  -1.807  -1.193  1.00  0.00    -0.338 N 
ENDROOT
BRANCH   1   2
HETATM    2  C7  UNL     1       1.613  -1.320  -1.556  1.00  0.00     0.168 C 
BRANCH   2   3
HETATM    3  C6  UNL     1       2.107  -0.179  -0.745  1.00  0.00    -0.040 A 
HETATM    4  C5  UNL     1       1.533   0.243   0.433  1.00  0.00     0.010 A 
HETATM    5  C4  UNL     1       2.029   1.322   1.163  1.00  0.00     0.019 A 
HETATM    6  C3  UNL     1       3.134   2.020   0.725  1.00  0.00     0.000 A 
HETATM    7  C24 UNL     1       3.711   1.599  -0.455  1.00  0.00     0.019 A 
HETATM    8  C23 UNL     1       3.222   0.532  -1.179  1.00  0.00     0.010 A 
BRANCH   6   9
HETATM    9  S1  UNL     1       3.803   3.406   1.633  1.00  0.00    -0.130 SA
BRANCH   9  10
HETATM   10  C2  UNL     1       3.052   4.964   1.116  1.00  0.00     0.075 C 
HETATM   11  C1  UNL     1       3.472   5.219  -0.325  1.00  0.00     0.016 C 
ENDBRANCH   9  10
ENDBRANCH   6   9
ENDBRANCH   2   3
ENDBRANCH   1   2
BRANCH   1  12
HETATM   12  C8  UNL     1      -0.804  -0.960  -1.299  1.00  0.00     0.195 C 
HETATM   13  N2  UNL     1      -1.967  -1.411  -1.627  1.00  0.00    -0.276 N 
ATOM     14  H2  UNL     1      -2.072  -2.408  -1.815  1.00  0.00     0.179 HD
BRANCH  13  15
HETATM   15  S2  UNL     1      -3.349  -0.392  -1.759  1.00  0.00     0.263 S 
HETATM   16  O1  UNL     1      -3.561  -0.086  -3.218  1.00  0.00    -0.200 OA
HETATM   17  O2  UNL     1      -4.593  -1.125  -1.292  1.00  0.00    -0.200 OA
BRANCH  15  18
HETATM   18  C9  UNL     1      -3.166   1.071  -0.822  1.00  0.00     0.079 A 
HETATM   19  C10 UNL     1      -3.600   1.082   0.487  1.00  0.00     0.026 A 
HETATM   20  C11 UNL     1      -3.441   2.262   1.209  1.00  0.00     0.008 A 
HETATM   21  C12 UNL     1      -2.874   3.394   0.666  1.00  0.00    -0.062 A 
HETATM   22  C13 UNL     1      -2.719   4.637   1.471  1.00  0.00     0.048 C 
HETATM   23  C14 UNL     1      -2.449   3.362  -0.634  1.00  0.00     0.008 A 
HETATM   24  C15 UNL     1      -2.597   2.195  -1.378  1.00  0.00     0.026 A 
ENDBRANCH  15  18
ENDBRANCH  13  15
ENDBRANCH   1  12
BRANCH   1  25
HETATM   25  C16 UNL     1       0.118  -3.130  -0.721  1.00  0.00     0.035 A 
HETATM   26  C17 UNL     1      -0.193  -4.188  -1.552  1.00  0.00     0.032 A 
HETATM   27  C18 UNL     1      -0.388  -5.472  -1.067  1.00  0.00     0.039 A 
HETATM   28  C19 UNL     1      -0.276  -5.741   0.279  1.00  0.00     0.068 A 
HETATM   29  C21 UNL     1       0.034  -4.692   1.118  1.00  0.00     0.039 A 
HETATM   30  C22 UNL     1       0.227  -3.415   0.633  1.00  0.00     0.032 A 
BRANCH  28  31
HETATM   31  O3  UNL     1      -0.468  -7.028   0.791  1.00  0.00    -0.356 OA
HETATM   32  C20 UNL     1      -0.361  -7.333   2.147  1.00  0.00     0.210 C 
ENDBRANCH  28  31
ENDBRANCH   1  25
TORSDOF 9
