REMARK  2 active torsions:
REMARK  status: ('A' for Active; 'I' for Inactive)
REMARK    1  A    between atoms: C2_5  and  N3_6 
REMARK    2  A    between atoms: C6_15  and  N6_16 
ROOT
HETATM    1  C1  UNL     1      -3.169  -0.858  -0.304  1.00  0.00     0.178 C 
HETATM    2  N1  UNL     1      -2.081   0.041   0.035  1.00  0.00    -0.288 N 
HETATM    3  N2  UNL     1      -2.188   1.242   0.603  1.00  0.00    -0.276 N 
ATOM      4  H2  UNL     1      -3.068   1.682   0.873  1.00  0.00     0.189 HD
HETATM    5  C2  UNL     1      -0.972   1.793   0.770  1.00  0.00     0.217 A 
HETATM    6  C3  UNL     1      -0.087   0.864   0.273  1.00  0.00     0.119 A 
HETATM    7  N4  UNL     1       1.259   1.033   0.253  1.00  0.00    -0.339 N 
ATOM      8  H4  UNL     1       1.595   1.991   0.354  1.00  0.00     0.167 HD
HETATM    9  C4  UNL     1       2.203   0.083   0.115  1.00  0.00     0.158 C 
HETATM   10  C5  UNL     1       3.439   0.229   0.838  1.00  0.00     0.121 C 
HETATM   11  N5  UNL     1       4.432   0.343   1.433  1.00  0.00    -0.190 NA
HETATM   12  C6  UNL     1       2.078  -1.054  -0.691  1.00  0.00     0.140 C 
HETATM   13  N7  UNL     1       0.975  -1.676  -1.146  1.00  0.00    -0.305 N 
ATOM     14  H7  UNL     1       1.112  -2.414  -1.837  1.00  0.00     0.170 HD
HETATM   15  C7  UNL     1      -0.296  -1.415  -0.774  1.00  0.00     0.277 C 
HETATM   16  O3  UNL     1      -1.134  -2.317  -0.967  1.00  0.00    -0.265 OA
HETATM   17  C8  UNL     1      -0.786  -0.245  -0.193  1.00  0.00     0.149 A 
ENDROOT
BRANCH  12  18
HETATM   18  N6  UNL     1       3.210  -1.575  -1.042  1.00  0.00    -0.383 N 
ATOM     19  H62 UNL     1       4.046  -1.103  -0.697  1.00  0.00     0.157 HD
ATOM     20  H61 UNL     1       3.119  -2.404  -1.630  1.00  0.00     0.157 HD
ENDBRANCH  12  18
BRANCH   5  21
HETATM   21  N3  UNL     1      -0.664   3.059   1.337  1.00  0.00    -0.094 N 
HETATM   22  O1  UNL     1      -1.471   3.998   1.298  1.00  0.00    -0.530 OA
HETATM   23  O2  UNL     1       0.543   3.253   1.940  1.00  0.00    -0.530 OA
ENDBRANCH   5  21
TORSDOF 2
