REMARK  4 active torsions:
REMARK  status: ('A' for Active; 'I' for Inactive)
REMARK    1  A    between atoms: N1_2  and  O1_3 
REMARK    2  A    between atoms: N1_2  and  C2_5 
REMARK    3  A    between atoms: C3_8  and  N3_9 
REMARK    4  A    between atoms: C5_16  and  C6_17 
ROOT
HETATM    1  C2  UNL     1      -1.850  -0.175   0.441  1.00  0.00     0.160 A 
HETATM    2  N2  UNL     1      -3.046  -0.778   0.148  1.00  0.00    -0.174 N 
ATOM      3  H2  UNL     1      -3.907  -0.385   0.529  1.00  0.00     0.186 HD
HETATM    4  C3  UNL     1      -3.115  -1.872  -0.627  1.00  0.00     0.678 A 
HETATM    5  N4  UNL     1      -1.971  -2.390  -1.131  1.00  0.00    -0.178 N 
ATOM      6  H4  UNL     1      -2.011  -3.221  -1.721  1.00  0.00     0.185 HD
HETATM    7  C4  UNL     1      -0.778  -1.819  -0.861  1.00  0.00     0.149 A 
HETATM    8  N5  UNL     1       0.413  -2.382  -1.402  1.00  0.00    -0.081 NA
HETATM    9  C5  UNL     1      -0.686  -0.694  -0.067  1.00  0.00     0.098 A 
ENDROOT
BRANCH   9  10
HETATM   10  C6  UNL     1       0.612  -0.094   0.194  1.00  0.00     0.143 A 
HETATM   11  N6  UNL     1       1.387  -0.257   1.281  1.00  0.00    -0.279 N 
HETATM   12  N7  UNL     1       2.510   0.430   1.170  1.00  0.00    -0.245 N 
ATOM     13  H6  UNL     1       1.140  -0.835   2.085  1.00  0.00     0.189 HD
HETATM   14  C7  UNL     1       3.583   0.484   2.163  1.00  0.00     0.183 C 
HETATM   15  C8  UNL     1       2.448   1.047  -0.019  1.00  0.00     0.344 A 
HETATM   16  O2  UNL     1       3.376   1.794  -0.441  1.00  0.00    -0.245 OA
HETATM   17  N8  UNL     1       1.287   0.730  -0.624  1.00  0.00    -0.286 N 
HETATM   18  C9  UNL     1       0.921   1.235  -1.943  1.00  0.00     0.163 C 
ENDBRANCH   9  10
BRANCH   1  19
HETATM   19  N1  UNL     1      -1.842   0.968   1.275  1.00  0.00    -0.247 N 
HETATM   20  C1  UNL     1      -1.392   2.276   0.959  1.00  0.00     0.187 C 
BRANCH  19  21
HETATM   21  O1  UNL     1      -2.334   0.765   2.543  1.00  0.00    -0.286 OA
ATOM     22  H1  UNL     1      -2.635  -0.111   2.755  1.00  0.00     0.244 HD
ENDBRANCH  19  21
ENDBRANCH   1  19
BRANCH   4  23
HETATM   23  N3  UNL     1      -4.261  -2.439  -0.900  1.00  0.00    -0.234 N 
ATOM     24  H32 UNL     1      -5.123  -2.049  -0.520  1.00  0.00     0.174 HD
ATOM     25  H31 UNL     1      -4.313  -3.270  -1.489  1.00  0.00     0.174 HD
ENDBRANCH   4  23
TORSDOF 4
