REMARK  15 active torsions:
REMARK  status: ('A' for Active; 'I' for Inactive)
REMARK    1  A    between atoms: C2_2  and  C3_3 
REMARK    2  A    between atoms: C3_3  and  C4_4 
REMARK    3  A    between atoms: C4_4  and  C5_5 
REMARK    4  A    between atoms: C6_6  and  C8_8 
REMARK    5  A    between atoms: C8_8  and  C9_9 
REMARK    6  A    between atoms: C9_9  and  C10_10 
REMARK    7  A    between atoms: C13_13  and  C14_14 
REMARK    8  A    between atoms: C15_15  and  C16_16 
REMARK    9  A    between atoms: C19_19  and  S1_20 
REMARK   10  A    between atoms: S1_20  and  C20_21 
REMARK   11  A    between atoms: C20_21  and  C21_22 
REMARK   12  A    between atoms: C23_25  and  C24_26 
REMARK   13  A    between atoms: C24_26  and  N1_27 
REMARK   14  A    between atoms: C28_33  and  O2_34 
REMARK   15  A    between atoms: C29_36  and  O3_37 
ROOT
HETATM    1  C16 UNL     1      -0.522   1.515   0.707  1.00  0.00     0.012 C 
HETATM    2  C17 UNL     1      -1.453   0.828   1.627  1.00  0.00     0.010 C 
HETATM    3  C18 UNL     1      -2.861   1.268   1.580  1.00  0.00     0.016 C 
HETATM    4  C19 UNL     1      -3.220   2.402   0.693  1.00  0.00     0.047 C 
HETATM    5  C30 UNL     1      -2.111   3.457   0.817  1.00  0.00     0.020 C 
HETATM    6  C31 UNL     1      -0.743   2.971   0.623  1.00  0.00    -0.010 C 
HETATM    7  C32 UNL     1       0.180   3.763   1.536  1.00  0.00     0.010 C 
ENDROOT
BRANCH   4   8
HETATM    8  S1  UNL     1      -3.565   2.157  -0.979  1.00  0.00    -0.164 SA
BRANCH   8   9
HETATM    9  C20 UNL     1      -4.894   1.261  -1.617  1.00  0.00     0.083 C 
BRANCH   9  10
HETATM   10  C21 UNL     1      -6.306   1.745  -1.424  1.00  0.00     0.050 C 
HETATM   11  C22 UNL     1      -7.280   0.786  -2.141  1.00  0.00     0.176 C 
HETATM   12  O1  UNL     1      -8.292   0.342  -1.335  1.00  0.00    -0.381 OA
HETATM   13  C23 UNL     1      -7.828  -0.496  -0.311  1.00  0.00     0.170 C 
HETATM   14  C28 UNL     1      -6.774   0.263   0.513  1.00  0.00     0.177 C 
HETATM   15  C29 UNL     1      -6.767   1.679   0.035  1.00  0.00     0.156 C 
BRANCH  13  16
HETATM   16  C24 UNL     1      -8.971  -0.754   0.647  1.00  0.00     0.163 C 
BRANCH  16  17
HETATM   17  N1  UNL     1     -10.059  -1.363  -0.051  1.00  0.00    -0.349 N 
HETATM   18  C25 UNL     1     -11.073  -0.655  -0.637  1.00  0.00     0.108 A 
HETATM   19  C26 UNL     1     -11.904  -1.584  -1.204  1.00  0.00     0.106 A 
HETATM   20  N2  UNL     1     -11.415  -2.826  -0.971  1.00  0.00    -0.361 N 
HETATM   21  C27 UNL     1     -10.272  -2.666  -0.257  1.00  0.00     0.182 A 
ATOM     22  H2  UNL     1     -11.826  -3.709  -1.273  1.00  0.00     0.166 HD
ENDBRANCH  16  17
ENDBRANCH  13  16
BRANCH  14  23
HETATM   23  O2  UNL     1      -7.050   0.239   1.860  1.00  0.00    -0.390 OA
ATOM     24  H2  UNL     1      -6.399   0.708   2.369  1.00  0.00     0.210 HD
ENDBRANCH  14  23
BRANCH  15  25
HETATM   25  O3  UNL     1      -8.083   2.171   0.045  1.00  0.00    -0.392 OA
ATOM     26  H3  UNL     1      -8.369   2.130   0.950  1.00  0.00     0.210 HD
ENDBRANCH  15  25
ENDBRANCH   9  10
ENDBRANCH   8   9
ENDBRANCH   4   8
BRANCH   1  27
HETATM   27  C15 UNL     1       0.863   1.202   1.181  1.00  0.00    -0.022 C 
HETATM   28  C14 UNL     1       1.725   0.490   0.464  1.00  0.00    -0.003 C 
BRANCH  28  29
HETATM   29  C13 UNL     1       3.022   0.266   1.041  1.00  0.00     0.007 C 
HETATM   30  C2  UNL     1       3.997  -0.444   0.440  1.00  0.00    -0.055 C 
HETATM   31  C1  UNL     1       3.758  -1.030  -0.867  1.00  0.00     0.049 C 
BRANCH  30  32
HETATM   32  C3  UNL     1       5.247  -0.544   1.213  1.00  0.00     0.062 C 
BRANCH  32  33
HETATM   33  C4  UNL     1       6.293  -1.152   0.899  1.00  0.00    -0.127 C 
BRANCH  33  34
HETATM   34  C5  UNL     1       7.444  -1.817   0.559  1.00  0.00     0.058 C 
HETATM   35  C6  UNL     1       7.748  -2.529  -0.521  1.00  0.00    -0.076 C 
HETATM   36  C7  UNL     1       6.827  -2.774  -1.663  1.00  0.00     0.044 C 
BRANCH  35  37
HETATM   37  C8  UNL     1       9.104  -3.079  -0.689  1.00  0.00     0.034 C 
BRANCH  37  38
HETATM   38  C9  UNL     1      10.158  -2.729   0.278  1.00  0.00     0.008 C 
BRANCH  38  39
HETATM   39  C10 UNL     1      10.560  -1.284   0.199  1.00  0.00    -0.023 C 
HETATM   40  C11 UNL     1      11.105  -1.070  -1.218  1.00  0.00     0.009 C 
HETATM   41  C12 UNL     1      11.623  -0.992   1.248  1.00  0.00     0.009 C 
ENDBRANCH  38  39
ENDBRANCH  37  38
ENDBRANCH  35  37
ENDBRANCH  33  34
ENDBRANCH  32  33
ENDBRANCH  30  32
ENDBRANCH  28  29
ENDBRANCH   1  27
TORSDOF 15
