REMARK  10 active torsions:
REMARK  status: ('A' for Active; 'I' for Inactive)
REMARK       I    between atoms: N1_2  and  C2_4 
REMARK    1  A    between atoms: C2_4  and  C3_6 
REMARK    2  A    between atoms: C3_6  and  C4_7 
REMARK    3  A    between atoms: C4_7  and  N2_8 
REMARK       I    between atoms: N2_8  and  C5_10 
REMARK    4  A    between atoms: C5_10  and  C6_12 
REMARK    5  A    between atoms: N3_16  and  C11_18 
REMARK    6  A    between atoms: C11_18  and  C12_19 
REMARK    7  A    between atoms: C13_20  and  C14_21 
REMARK    8  A    between atoms: C14_21  and  C15_22 
REMARK       I    between atoms: C15_22  and  N4_24 
REMARK    9  A    between atoms: N4_24  and  C16_26 
REMARK   10  A    between atoms: C23_33  and  C24_34 
REMARK       I    between atoms: C24_34  and  N5_36 
ROOT
HETATM    1  C12 UNL     1       1.531  -0.513  -1.050  1.00  0.00     0.021 C 
HETATM    2  C13 UNL     1       0.678  -1.361  -0.584  1.00  0.00    -0.016 C 
ENDROOT
BRANCH   2   3
HETATM    3  C14 UNL     1      -0.515  -1.804  -1.404  1.00  0.00     0.130 C 
BRANCH   3   4
HETATM    4  C15 UNL     1      -1.772  -1.437  -0.701  1.00  0.00     0.221 C 
HETATM    5  O3  UNL     1      -1.682  -0.842   0.397  1.00  0.00    -0.273 OA
HETATM    6  N4  UNL     1      -3.047  -1.739  -1.232  1.00  0.00    -0.352 N 
ATOM      7  H4  UNL     1      -3.075  -2.229  -2.126  1.00  0.00     0.163 HD
BRANCH   6   8
HETATM    8  C16 UNL     1      -4.310  -1.415  -0.620  1.00  0.00     0.035 C 
HETATM    9  C17 UNL     1      -5.427  -1.951  -1.527  1.00  0.00     0.035 C 
HETATM   10  C18 UNL     1      -6.765  -1.637  -0.946  1.00  0.00    -0.011 C 
HETATM   11  C19 UNL     1      -6.936  -2.264   0.424  1.00  0.00     0.009 C 
HETATM   12  C26 UNL     1      -6.924  -0.145  -0.816  1.00  0.00     0.024 C 
HETATM   13  C20 UNL     1      -5.816  -1.785   1.297  1.00  0.00    -0.011 C 
HETATM   14  C21 UNL     1      -4.459  -2.086   0.712  1.00  0.00     0.035 C 
HETATM   15  C22 UNL     1      -5.939  -0.279   1.462  1.00  0.00     0.024 C 
HETATM   16  C23 UNL     1      -5.842   0.372   0.104  1.00  0.00     0.044 C 
HETATM   17  C27 UNL     1      -4.498   0.086  -0.501  1.00  0.00     0.050 C 
BRANCH  16  18
HETATM   18  C24 UNL     1      -6.052   1.840   0.232  1.00  0.00     0.226 C 
HETATM   19  O4  UNL     1      -5.147   2.649  -0.116  1.00  0.00    -0.273 OA
HETATM   20  N5  UNL     1      -7.275   2.346   0.747  1.00  0.00    -0.365 N 
HETATM   21  C25 UNL     1      -7.482   3.781   0.870  1.00  0.00     0.149 C 
ATOM     22  H5  UNL     1      -8.012   1.701   1.032  1.00  0.00     0.161 HD
ENDBRANCH  16  18
ENDBRANCH   6   8
ENDBRANCH   3   4
ENDBRANCH   2   3
BRANCH   1  23
HETATM   23  C11 UNL     1       2.750   0.105  -0.540  1.00  0.00     0.203 C 
BRANCH  23  24
HETATM   24  N3  UNL     1       3.154  -0.251   0.763  1.00  0.00    -0.038 N 
HETATM   25  C6  UNL     1       4.264   0.352   1.364  1.00  0.00     0.286 C 
HETATM   26  C7  UNL     1       4.967  -0.758   2.097  1.00  0.00     0.045 C 
HETATM   27  C8  UNL     1       4.794  -1.924   1.153  1.00  0.00     0.031 C 
HETATM   28  C9  UNL     1       3.317  -1.711   0.794  1.00  0.00     0.243 C 
HETATM   29  C10 UNL     1       2.007   0.030   1.679  1.00  0.00     0.279 C 
BRANCH  25  30
HETATM   30  C5  UNL     1       5.206   1.177   0.554  1.00  0.00     0.253 C 
HETATM   31  N2  UNL     1       6.415   1.640   1.101  1.00  0.00    -0.339 N 
ATOM     32  H2  UNL     1       6.521   1.335   2.069  1.00  0.00     0.167 HD
HETATM   33  O2  UNL     1       4.904   1.448  -0.606  1.00  0.00    -0.271 OA
BRANCH  31  34
HETATM   34  C4  UNL     1       7.507   2.398   0.691  1.00  0.00     0.073 C 
BRANCH  34  35
HETATM   35  C3  UNL     1       8.351   2.022  -0.462  1.00  0.00     0.147 C 
BRANCH  35  36
HETATM   36  C2  UNL     1       7.851   2.133  -1.822  1.00  0.00     0.222 C 
HETATM   37  N1  UNL     1       8.299   1.251  -2.826  1.00  0.00    -0.365 N 
HETATM   38  C1  UNL     1       7.798   1.372  -4.171  1.00  0.00     0.149 C 
ATOM     39  H1  UNL     1       8.979   0.526  -2.600  1.00  0.00     0.161 HD
HETATM   40  O1  UNL     1       7.012   3.012  -2.129  1.00  0.00    -0.273 OA
ENDBRANCH  35  36
ENDBRANCH  34  35
ENDBRANCH  31  34
ENDBRANCH  25  30
ENDBRANCH  23  24
ENDBRANCH   1  23
TORSDOF 10
