REMARK  5 active torsions:
REMARK  status: ('A' for Active; 'I' for Inactive)
REMARK    1  A    between atoms: C2_2  and  C3_3 
REMARK    2  A    between atoms: C3_3  and  N1_4 
REMARK       I    between atoms: N1_4  and  C4_6 
REMARK       I    between atoms: C4_6  and  N2_8 
REMARK    3  A    between atoms: C7_11  and  C8_12 
REMARK    4  A    between atoms: C9_15  and  C10_16 
REMARK    5  A    between atoms: N4_18  and  C12_19 
ROOT
HETATM    1  C8  UNL     1       1.512  -1.327  -0.932  1.00  0.00     0.152 A 
HETATM    2  N3  UNL     1       2.457  -0.649  -0.252  1.00  0.00    -0.321 N 
ATOM      3  H3  UNL     1       2.280  -0.023   0.534  1.00  0.00     0.169 HD
HETATM    4  C9  UNL     1       3.669  -0.922  -0.766  1.00  0.00     0.156 A 
HETATM    5  N6  UNL     1       3.430  -1.782  -1.773  1.00  0.00    -0.241 N 
ATOM      6  H6  UNL     1       4.145  -2.190  -2.375  1.00  0.00     0.196 HD
HETATM    7  O2  UNL     1       2.159  -2.017  -1.866  1.00  0.00    -0.222 OA
ENDROOT
BRANCH   1   8
HETATM    8  C7  UNL     1       0.042  -1.327  -0.710  1.00  0.00     0.066 C 
HETATM    9  C6  UNL     1      -0.451   0.088  -0.935  1.00  0.00     0.033 C 
HETATM   10  C5  UNL     1      -1.945   0.085  -0.709  1.00  0.00     0.128 C 
HETATM   11  N2  UNL     1      -2.181  -0.221   0.685  1.00  0.00    -0.334 N 
HETATM   12  C4  UNL     1      -3.451   0.015   1.230  1.00  0.00     0.318 C 
HETATM   13  C15 UNL     1      -1.076  -0.766   1.455  1.00  0.00     0.128 C 
HETATM   14  N1  UNL     1      -4.492   0.539   0.449  1.00  0.00    -0.343 N 
HETATM   15  O1  UNL     1      -3.661  -0.248   2.439  1.00  0.00    -0.247 OA
ATOM     16  H1  UNL     1      -4.329   0.755  -0.535  1.00  0.00     0.164 HD
HETATM   17  C14 UNL     1      -0.322  -1.820   0.674  1.00  0.00     0.033 C 
BRANCH  14  18
HETATM   18  C3  UNL     1      -5.788   0.774   1.027  1.00  0.00     0.124 C 
BRANCH  18  19
HETATM   19  C2  UNL     1      -6.762   1.342   0.009  1.00  0.00     0.015 C 
HETATM   20  C1  UNL     1      -6.236   2.644  -0.515  1.00  0.00     0.006 C 
ENDBRANCH  18  19
ENDBRANCH  14  18
ENDBRANCH   1   8
BRANCH   4  21
HETATM   21  C10 UNL     1       4.975  -0.421  -0.356  1.00  0.00     0.095 A 
HETATM   22  C11 UNL     1       6.191  -0.736  -0.922  1.00  0.00     0.129 A 
HETATM   23  N4  UNL     1       7.182  -0.085  -0.282  1.00  0.00    -0.302 N 
HETATM   24  C13 UNL     1       6.597   0.639   0.685  1.00  0.00     0.187 A 
HETATM   25  N5  UNL     1       5.257   0.434   0.640  1.00  0.00    -0.348 N 
ATOM     26  H5  UNL     1       4.572   0.861   1.264  1.00  0.00     0.167 HD
BRANCH  23  27
HETATM   27  C12 UNL     1       8.598  -0.159  -0.585  1.00  0.00     0.273 C 
HETATM   28 CL1  UNL     1       9.495  -0.103   0.943  1.00  0.00    -0.060 Cl
HETATM   29 CL2  UNL     1       8.879  -1.693  -1.453  1.00  0.00    -0.060 Cl
HETATM   30 CL3  UNL     1       9.022   1.224  -1.634  1.00  0.00    -0.060 Cl
ENDBRANCH  23  27
ENDBRANCH   4  21
TORSDOF 5
