REMARK  3 active torsions:
REMARK  status: ('A' for Active; 'I' for Inactive)
REMARK       I    between atoms: N3_4  and  C2_6 
REMARK    1  A    between atoms: N5_8  and  C3_10 
REMARK    2  A    between atoms: C3_10  and  C4_11 
REMARK    3  A    between atoms: C4_11  and  N6_12 
ROOT
HETATM    1  N1  UNL     1       4.758   1.111   0.170  1.00  0.00    -0.066 NA
HETATM    2  C1  UNL     1       3.722   0.230  -0.252  1.00  0.00     0.203 C 
HETATM    3  N2  UNL     1       4.058  -0.848  -1.116  1.00  0.00    -0.066 NA
HETATM    4  N3  UNL     1       2.532   0.453   0.168  1.00  0.00    -0.307 N 
ATOM      5  H3  UNL     1       2.383   1.251   0.785  1.00  0.00     0.170 HD
HETATM    6  C2  UNL     1       1.414  -0.340  -0.172  1.00  0.00     0.190 C 
HETATM    7  N4  UNL     1       1.284  -0.832  -1.486  1.00  0.00    -0.063 NA
HETATM    8  N5  UNL     1       0.527  -0.608   0.706  1.00  0.00    -0.363 N 
ATOM      9  H5  UNL     1       0.625  -0.249   1.656  1.00  0.00     0.162 HD
ENDROOT
BRANCH   8  10
HETATM   10  C3  UNL     1      -0.618  -1.421   0.356  1.00  0.00     0.152 C 
BRANCH  10  11
HETATM   11  C4  UNL     1      -1.868  -0.941   1.105  1.00  0.00     0.292 C 
BRANCH  11  12
HETATM   12  N6  UNL     1      -2.073   0.433   0.700  1.00  0.00     0.090 N 
HETATM   13  C5  UNL     1      -3.225   1.078   1.307  1.00  0.00     0.274 C 
HETATM   14  C6  UNL     1      -3.360   1.853  -0.007  1.00  0.00     0.060 C 
HETATM   15  C7  UNL     1      -2.787   0.560  -0.571  1.00  0.00     0.274 C 
ENDBRANCH  11  12
ENDBRANCH  10  11
ENDBRANCH   8  10
TORSDOF 3
