REMARK  3 active torsions:
REMARK  status: ('A' for Active; 'I' for Inactive)
REMARK    1  A    between atoms: N1_2  and  C2_3 
REMARK    2  A    between atoms: N1_2  and  C9_22 
REMARK    3  A    between atoms: C3_8  and  C4_9 
ROOT
HETATM    1  C2  UNL     1      -0.114   1.125  -0.122  1.00  0.00     0.157 A 
HETATM    2  N2  UNL     1       0.229   0.520  -1.260  1.00  0.00    -0.281 N 
ATOM      3  H2  UNL     1      -0.489   0.320  -1.956  1.00  0.00     0.188 HD
HETATM    4  N3  UNL     1       1.473   0.177  -1.502  1.00  0.00    -0.284 N 
ATOM      5  H3  UNL     1       1.686  -0.283  -2.387  1.00  0.00     0.188 HD
HETATM    6  C3  UNL     1       2.496   0.407  -0.626  1.00  0.00     0.122 A 
HETATM    7  N5  UNL     1       2.130   1.016   0.512  1.00  0.00    -0.329 N 
ATOM      8  H5  UNL     1       2.861   1.209   1.196  1.00  0.00     0.168 HD
HETATM    9  C8  UNL     1       0.883   1.391   0.822  1.00  0.00     0.147 A 
HETATM   10  S2  UNL     1       0.516   2.127   2.226  1.00  0.00    -0.056 SA
ENDROOT
BRANCH   6  11
HETATM   11  C4  UNL     1       3.841   0.006  -0.972  1.00  0.00     0.074 C 
HETATM   12  C5  UNL     1       4.692  -0.550  -0.128  1.00  0.00     0.081 A 
HETATM   13  S1  UNL     1       4.414  -0.940   1.608  1.00  0.00    -0.024 SA
HETATM   14  C7  UNL     1       6.052  -0.985  -0.376  1.00  0.00     0.266 A 
HETATM   15  C6  UNL     1       6.072  -1.494   1.949  1.00  0.00     0.291 A 
HETATM   16  O1  UNL     1       6.490  -1.822   3.074  1.00  0.00    -0.260 OA
HETATM   17  N4  UNL     1       6.746  -1.471   0.723  1.00  0.00    -0.283 N 
ATOM     18  H4  UNL     1       7.709  -1.798   0.640  1.00  0.00     0.172 HD
HETATM   19  O2  UNL     1       6.527  -0.898  -1.572  1.00  0.00    -0.267 OA
ENDBRANCH   6  11
BRANCH   1  20
HETATM   20  N1  UNL     1      -1.456   1.497   0.100  1.00  0.00    -0.363 N 
HETATM   21  C1  UNL     1      -1.835   2.896   0.137  1.00  0.00     0.152 C 
BRANCH  20  22
HETATM   22  C9  UNL     1      -2.474   0.514   0.308  1.00  0.00     0.085 C 
HETATM   23  C10 UNL     1      -1.925  -0.886   0.291  1.00  0.00     0.025 C 
HETATM   24  C11 UNL     1      -3.031  -1.856   0.703  1.00  0.00     0.002 C 
HETATM   25  C12 UNL     1      -4.212  -1.719  -0.251  1.00  0.00     0.000 C 
HETATM   26  C13 UNL     1      -4.716  -0.293  -0.260  1.00  0.00     0.002 C 
HETATM   27  C14 UNL     1      -3.592   0.596  -0.737  1.00  0.00     0.025 C 
ENDBRANCH  20  22
ENDBRANCH   1  20
TORSDOF 3
