REMARK  3 active torsions:
REMARK  status: ('A' for Active; 'I' for Inactive)
REMARK    1  A    between atoms: C2_2  and  S1_3 
REMARK    2  A    between atoms: S1_3  and  C3_4 
REMARK    3  A    between atoms: C6_12  and  C7_13 
ROOT
HETATM    1  C3  UNL     1       4.089   0.491  -0.869  1.00  0.00     0.152 A 
HETATM    2  N1  UNL     1       4.063   0.617   0.491  1.00  0.00    -0.323 N 
ATOM      3  H1  UNL     1       4.937   0.773   0.993  1.00  0.00     0.169 HD
HETATM    4  C4  UNL     1       2.908   0.540   1.186  1.00  0.00     0.149 A 
HETATM    5  N2  UNL     1       2.864   0.670   2.599  1.00  0.00    -0.080 NA
HETATM    6  C5  UNL     1       1.764   0.326   0.426  1.00  0.00     0.120 A 
HETATM    7  N3  UNL     1       0.504   0.205   0.805  1.00  0.00    -0.339 N 
ATOM      8  H3  UNL     1       0.177   0.256   1.770  1.00  0.00     0.167 HD
HETATM    9  C6  UNL     1      -0.284   0.005  -0.265  1.00  0.00     0.092 A 
HETATM   10  N4  UNL     1       0.502  -0.003  -1.376  1.00  0.00    -0.329 N 
ATOM     11  H4  UNL     1       0.199  -0.133  -2.341  1.00  0.00     0.168 HD
HETATM   12  C17 UNL     1       1.770   0.197  -0.939  1.00  0.00     0.139 A 
HETATM   13  N5  UNL     1       2.963   0.284  -1.582  1.00  0.00    -0.321 N 
ATOM     14  H5  UNL     1       3.007   0.193  -2.597  1.00  0.00     0.169 HD
ENDROOT
BRANCH   9  15
HETATM   15  C7  UNL     1      -1.735  -0.177  -0.218  1.00  0.00     0.019 C 
HETATM   16  C8  UNL     1      -2.391   0.894  -1.064  1.00  0.00     0.022 C 
HETATM   17  C9  UNL     1      -3.893   0.772  -0.944  1.00  0.00    -0.013 C 
HETATM   18  C10 UNL     1      -4.270   0.963   0.494  1.00  0.00     0.009 C 
HETATM   19  C14 UNL     1      -4.292  -0.581  -1.478  1.00  0.00     0.009 C 
HETATM   20  C11 UNL     1      -3.712  -0.171   1.328  1.00  0.00    -0.013 C 
HETATM   21  C12 UNL     1      -4.169  -1.495   0.776  1.00  0.00     0.009 C 
HETATM   22  C16 UNL     1      -2.208  -0.101   1.223  1.00  0.00     0.022 C 
HETATM   23  C13 UNL     1      -3.651  -1.657  -0.615  1.00  0.00    -0.013 C 
HETATM   24  C15 UNL     1      -2.170  -1.525  -0.734  1.00  0.00     0.022 C 
ENDBRANCH   9  15
BRANCH   1  25
HETATM   25  S1  UNL     1       5.650   0.601  -1.735  1.00  0.00    -0.021 SA
BRANCH  25  26
HETATM   26  C2  UNL     1       6.991   0.878  -0.528  1.00  0.00     0.281 A 
HETATM   27  C1  UNL     1       7.240  -0.285   0.425  1.00  0.00     0.098 C 
HETATM   28  O1  UNL     1       7.886   1.827  -0.658  1.00  0.00    -0.182 OA
HETATM   29  O2  UNL     1       6.869   2.103   0.134  1.00  0.00    -0.182 OA
ENDBRANCH  25  26
ENDBRANCH   1  25
TORSDOF 3
