REMARK  6 active torsions:
REMARK  status: ('A' for Active; 'I' for Inactive)
REMARK    1  A    between atoms: C3_4  and  N1_5 
REMARK    2  A    between atoms: C6_10  and  N3_11 
REMARK    3  A    between atoms: C11_22  and  C12_23 
REMARK    4  A    between atoms: C12_23  and  O1_24 
REMARK    5  A    between atoms: O1_24  and  C13_25 
REMARK    6  A    between atoms: C13_25  and  C14_27 
ROOT
HETATM    1  C1  UNL     1       0.196   3.286   1.938  1.00  0.00     0.022 C 
HETATM    2  C2  UNL     1       0.602   1.841   1.946  1.00  0.00     0.051 C 
HETATM    3  S1  UNL     1       1.779   1.554   0.588  1.00  0.00    -0.138 SA
HETATM    4  C3  UNL     1       1.997  -0.260   0.504  1.00  0.00     0.154 C 
HETATM    5  C9  UNL     1       0.618  -0.855   0.437  1.00  0.00     0.037 C 
HETATM    6  C10 UNL     1      -0.141  -0.502   1.665  1.00  0.00     0.011 C 
HETATM    7  C11 UNL     1      -0.556   0.918   1.769  1.00  0.00     0.024 C 
ENDROOT
BRANCH   4   8
HETATM    8  N1  UNL     1       2.835  -0.645  -0.598  1.00  0.00    -0.313 N 
HETATM    9  C4  UNL     1       2.473  -0.981  -1.846  1.00  0.00     0.186 A 
HETATM   10  N2  UNL     1       3.554  -1.280  -2.589  1.00  0.00    -0.346 N 
HETATM   11  C5  UNL     1       4.639  -1.139  -1.820  1.00  0.00     0.122 A 
ATOM     12  H2  UNL     1       3.547  -1.565  -3.568  1.00  0.00     0.167 HD
HETATM   13  C6  UNL     1       5.982  -1.315  -2.072  1.00  0.00     0.131 A 
HETATM   14  C8  UNL     1       4.177  -0.739  -0.568  1.00  0.00     0.141 A 
HETATM   15  N4  UNL     1       6.842  -1.089  -1.069  1.00  0.00    -0.337 N 
HETATM   16  C7  UNL     1       6.391  -0.702   0.140  1.00  0.00     0.183 A 
ATOM     17  H4  UNL     1       7.843  -1.211  -1.222  1.00  0.00     0.168 HD
HETATM   18  N5  UNL     1       5.081  -0.530   0.386  1.00  0.00    -0.336 N 
ATOM     19  H5  UNL     1       4.776  -0.236   1.314  1.00  0.00     0.168 HD
BRANCH  13  20
HETATM   20  N3  UNL     1       6.423  -1.681  -3.211  1.00  0.00    -0.383 N 
ATOM     21  H32 UNL     1       5.769  -1.853  -3.974  1.00  0.00     0.157 HD
ATOM     22  H31 UNL     1       7.417  -1.811  -3.398  1.00  0.00     0.157 HD
ENDBRANCH  13  20
ENDBRANCH   4   8
BRANCH   7  23
HETATM   23  C12 UNL     1      -1.428   1.356   0.613  1.00  0.00     0.184 C 
BRANCH  23  24
HETATM   24  O1  UNL     1      -2.525   0.477   0.448  1.00  0.00    -0.320 OA
BRANCH  24  25
HETATM   25  C13 UNL     1      -3.449   0.682  -0.543  1.00  0.00     0.266 C 
HETATM   26  O2  UNL     1      -3.323   1.661  -1.316  1.00  0.00    -0.264 OA
BRANCH  25  27
HETATM   27  C14 UNL     1      -4.600  -0.244  -0.712  1.00  0.00     0.037 C 
HETATM   28  C15 UNL     1      -5.430  -0.249   0.559  1.00  0.00     0.025 C 
HETATM   29  C16 UNL     1      -4.008  -1.634  -0.926  1.00  0.00     0.025 C 
HETATM   30  C17 UNL     1      -5.456   0.136  -1.888  1.00  0.00     0.025 C 
ENDBRANCH  25  27
ENDBRANCH  24  25
ENDBRANCH  23  24
ENDBRANCH   7  23
TORSDOF 6
