REMARK  10 active torsions:
REMARK  status: ('A' for Active; 'I' for Inactive)
REMARK    1  A    between atoms: O1_2  and  C2_3 
REMARK    2  A    between atoms: C2_3  and  C3_4 
REMARK    3  A    between atoms: C3_4  and  O2_5 
REMARK    4  A    between atoms: O2_5  and  C4_6 
REMARK    5  A    between atoms: C4_6  and  C5_7 
REMARK    6  A    between atoms: C5_7  and  N1_8 
REMARK    7  A    between atoms: N1_8  and  C6_10 
REMARK    8  A    between atoms: N3_17  and  C11_19 
REMARK    9  A    between atoms: C11_19  and  C12_20 
REMARK   10  A    between atoms: C11_19  and  C15_23 
ROOT
HETATM    1  C6  UNL     1       0.582  -0.563   0.058  1.00  0.00     0.118 A 
HETATM    2  C7  UNL     1       0.306  -0.548   1.411  1.00  0.00     0.073 A 
HETATM    3  C8  UNL     1      -0.978  -0.304   1.824  1.00  0.00     0.026 A 
HETATM    4  C9  UNL     1      -1.272  -0.289   3.288  1.00  0.00     0.069 C 
HETATM    5  N2  UNL     1      -1.942  -0.086   0.937  1.00  0.00    -0.196 N 
ATOM      6  H2  UNL     1      -2.889   0.092   1.271  1.00  0.00     0.184 HD
HETATM    7  C10 UNL     1      -1.711  -0.093  -0.371  1.00  0.00     0.680 A 
HETATM    8  N3  UNL     1      -2.594   0.117  -1.266  1.00  0.00    -0.221 N 
ATOM      9  H3  UNL     1      -2.190   0.062  -2.201  1.00  0.00     0.178 HD
HETATM   10  N4  UNL     1      -0.424  -0.338  -0.774  1.00  0.00    -0.177 N 
ATOM     11  H4  UNL     1      -0.229  -0.348  -1.775  1.00  0.00     0.185 HD
ENDROOT
BRANCH   1  12
HETATM   12  N1  UNL     1       1.799  -0.793  -0.388  1.00  0.00    -0.374 N 
ATOM     13  H1  UNL     1       2.016  -0.807  -1.385  1.00  0.00     0.161 HD
BRANCH  12  14
HETATM   14  C5  UNL     1       2.810  -1.025   0.619  1.00  0.00     0.147 C 
BRANCH  14  15
HETATM   15  C4  UNL     1       4.153  -1.350   0.002  1.00  0.00     0.187 C 
BRANCH  15  16
HETATM   16  O2  UNL     1       4.524  -0.266  -0.782  1.00  0.00    -0.387 OA
BRANCH  16  17
HETATM   17  C3  UNL     1       5.745  -0.427  -1.417  1.00  0.00     0.193 C 
BRANCH  17  18
HETATM   18  C2  UNL     1       6.892  -0.629  -0.469  1.00  0.00     0.193 C 
BRANCH  18  19
HETATM   19  O1  UNL     1       7.074   0.407   0.400  1.00  0.00    -0.394 OA
HETATM   20  C1  UNL     1       7.341   1.612  -0.232  1.00  0.00     0.201 C 
ENDBRANCH  18  19
ENDBRANCH  17  18
ENDBRANCH  16  17
ENDBRANCH  15  16
ENDBRANCH  14  15
ENDBRANCH  12  14
ENDBRANCH   1  12
BRANCH   8  21
HETATM   21  C11 UNL     1      -3.950   0.399  -1.322  1.00  0.00     0.107 C 
BRANCH  21  22
HETATM   22  C12 UNL     1      -4.833  -0.829  -1.366  1.00  0.00     0.009 A 
HETATM   23  C13 UNL     1      -4.869  -1.841  -0.311  1.00  0.00     0.007 A 
HETATM   24  C14 UNL     1      -6.079  -0.956  -0.612  1.00  0.00     0.007 A 
ENDBRANCH  21  22
BRANCH  21  25
HETATM   25  C15 UNL     1      -4.493   1.402  -0.328  1.00  0.00     0.009 A 
HETATM   26  C16 UNL     1      -3.994   2.790  -0.287  1.00  0.00     0.007 A 
HETATM   27  C17 UNL     1      -5.338   2.556  -0.943  1.00  0.00     0.007 A 
ENDBRANCH  21  25
ENDBRANCH   8  21
TORSDOF 10
