REMARK  14 active torsions:
REMARK  status: ('A' for Active; 'I' for Inactive)
REMARK    1  A    between atoms: C2_2  and  O1_4 
REMARK    2  A    between atoms: O1_4  and  C4_5 
REMARK       I    between atoms: C4_5  and  N1_7 
REMARK    3  A    between atoms: N1_7  and  C5_9 
REMARK    4  A    between atoms: C5_9  and  C6_10 
REMARK    5  A    between atoms: C5_9  and  C23_37 
REMARK    6  A    between atoms: C6_10  and  O3_11 
REMARK    7  A    between atoms: C6_10  and  N2_13 
REMARK    8  A    between atoms: N2_13  and  C7_15 
REMARK    9  A    between atoms: C7_15  and  C8_16 
REMARK   10  A    between atoms: C8_16  and  O4_17 
REMARK   11  A    between atoms: C8_16  and  N3_19 
REMARK   12  A    between atoms: C27_41  and  C28_42 
REMARK   13  A    between atoms: C28_42  and  S1_43 
REMARK   14  A    between atoms: S1_43  and  N5_46 
ROOT
HETATM    1  C6  UNL     1       0.016  -1.322  -0.589  1.00  0.00     0.140 C 
ENDROOT
BRANCH   1   2
HETATM    2  C5  UNL     1       1.373  -1.320  -1.197  1.00  0.00     0.169 C 
BRANCH   2   3
HETATM    3  N1  UNL     1       1.563  -2.616  -1.782  1.00  0.00    -0.324 N 
HETATM    4  C4  UNL     1       1.569  -3.895  -1.283  1.00  0.00     0.361 C 
HETATM    5  O2  UNL     1       1.392  -4.131  -0.072  1.00  0.00    -0.238 OA
ATOM      6  H1  UNL     1       1.730  -2.579  -2.788  1.00  0.00     0.165 HD
BRANCH   4   7
HETATM    7  O1  UNL     1       1.771  -5.005  -2.089  1.00  0.00    -0.299 OA
BRANCH   7   8
HETATM    8  C2  UNL     1       1.767  -6.317  -1.538  1.00  0.00     0.125 C 
HETATM    9  C1  UNL     1       0.702  -7.139  -2.225  1.00  0.00     0.040 C 
HETATM   10  C3  UNL     1       3.150  -6.886  -1.747  1.00  0.00     0.040 C 
ENDBRANCH   7   8
ENDBRANCH   4   7
ENDBRANCH   2   3
BRANCH   2  11
HETATM   11  C23 UNL     1       2.477  -0.825  -0.363  1.00  0.00    -0.016 C 
HETATM   12  C24 UNL     1       2.849  -1.590   0.860  1.00  0.00     0.018 C 
HETATM   13  C25 UNL     1       2.356   0.622  -0.021  1.00  0.00     0.012 C 
HETATM   14  C26 UNL     1       3.715   1.303   0.140  1.00  0.00     0.006 C 
HETATM   15  C27 UNL     1       4.435   1.455  -1.169  1.00  0.00     0.001 C 
HETATM   16  C31 UNL     1       3.880   0.363  -2.077  1.00  0.00     0.006 C 
HETATM   17  C32 UNL     1       3.775  -0.883  -1.244  1.00  0.00     0.012 C 
BRANCH  15  18
HETATM   18  C28 UNL     1       5.912   1.231  -1.085  1.00  0.00     0.162 C 
BRANCH  18  19
HETATM   19  S1  UNL     1       6.757   2.323   0.001  1.00  0.00     0.211 S 
HETATM   20  O5  UNL     1       6.387   2.126   1.432  1.00  0.00    -0.211 OA
HETATM   21  O6  UNL     1       8.238   1.981  -0.097  1.00  0.00    -0.211 OA
BRANCH  19  22
HETATM   22  N5  UNL     1       6.599   3.968  -0.425  1.00  0.00    -0.219 NA
HETATM   23  C29 UNL     1       7.148   4.253  -1.719  1.00  0.00     0.128 C 
HETATM   24  C30 UNL     1       7.317   4.758   0.561  1.00  0.00     0.128 C 
ENDBRANCH  19  22
ENDBRANCH  18  19
ENDBRANCH  15  18
ENDBRANCH   2  11
ENDBRANCH   1   2
BRANCH   1  25
HETATM   25  O3  UNL     1      -0.681  -2.423  -0.586  1.00  0.00    -0.348 OA
ATOM     26  H3  UNL     1      -1.548  -2.424  -0.198  1.00  0.00     0.219 HD
ENDBRANCH   1  25
BRANCH   1  27
HETATM   27  N2  UNL     1      -0.654  -0.259   0.007  1.00  0.00    -0.335 N 
ATOM     28  H2  UNL     1      -0.187   0.647   0.039  1.00  0.00     0.168 HD
BRANCH  27  29
HETATM   29  C7  UNL     1      -2.031  -0.371   0.608  1.00  0.00     0.087 C 
HETATM   30  C17 UNL     1      -1.922  -0.061   2.017  1.00  0.00    -0.049 C 
HETATM   31  C18 UNL     1      -1.456   1.286   2.464  1.00  0.00     0.036 C 
HETATM   32  C22 UNL     1      -2.865  -0.715   2.968  1.00  0.00     0.036 C 
HETATM   33  C19 UNL     1      -0.753   1.097   3.796  1.00  0.00     0.004 C 
HETATM   34  C20 UNL     1      -1.804   0.616   4.772  1.00  0.00     0.001 C 
HETATM   35  C21 UNL     1      -2.236  -0.780   4.361  1.00  0.00     0.004 C 
BRANCH  29  36
HETATM   36  C8  UNL     1      -3.008   0.042  -0.338  1.00  0.00     0.167 C 
BRANCH  36  37
HETATM   37  O4  UNL     1      -2.585  -0.260  -1.594  1.00  0.00    -0.344 OA
ATOM     38  H4  UNL     1      -3.238   0.016  -2.226  1.00  0.00     0.219 HD
ENDBRANCH  36  37
BRANCH  36  39
HETATM   39  N3  UNL     1      -4.256   0.650  -0.426  1.00  0.00    -0.332 N 
HETATM   40  C9  UNL     1      -4.981   1.180   0.673  1.00  0.00     0.134 C 
HETATM   41  C10 UNL     1      -5.773   2.337   0.160  1.00  0.00     0.045 A 
HETATM   42  C11 UNL     1      -6.759   1.582  -0.803  1.00  0.00     0.203 A 
HETATM   43  C14 UNL     1      -7.157   2.610   0.087  1.00  0.00    -0.012 A 
HETATM   44  N4  UNL     1      -5.976   1.534  -1.966  1.00  0.00    -0.049 N 
HETATM   45  C12 UNL     1      -4.857   0.687  -1.752  1.00  0.00     0.284 C 
ATOM     46  H42 UNL     1      -6.518   1.256  -2.784  1.00  0.00     0.280 HD
ATOM     47  H41 UNL     1      -5.700   2.463  -2.283  1.00  0.00     0.280 HD
HETATM   48  C13 UNL     1      -5.249  -0.709  -2.209  1.00  0.00     0.063 C 
HETATM   49  C15 UNL     1      -7.588   3.959  -0.496  1.00  0.00     0.017 C 
HETATM   50  C16 UNL     1      -8.003   2.252   1.301  1.00  0.00     0.017 C 
ENDBRANCH  36  39
ENDBRANCH  29  36
ENDBRANCH  27  29
ENDBRANCH   1  27
TORSDOF 14
