REMARK  15 active torsions:
REMARK  status: ('A' for Active; 'I' for Inactive)
REMARK    1  A    between atoms: O1_2  and  C2_3 
REMARK    2  A    between atoms: C2_3  and  C3_5 
REMARK    3  A    between atoms: C3_5  and  C4_6 
REMARK    4  A    between atoms: C4_6  and  C5_7 
REMARK    5  A    between atoms: C5_7  and  N1_8 
REMARK       I    between atoms: N1_8  and  C6_10 
REMARK    6  A    between atoms: C6_10  and  C7_12 
REMARK    7  A    between atoms: C7_12  and  C8_13 
REMARK    8  A    between atoms: C7_12  and  N2_20 
REMARK    9  A    between atoms: C8_13  and  C9_14 
REMARK   10  A    between atoms: N2_20  and  C15_22 
REMARK   11  A    between atoms: C15_22  and  C18_25 
REMARK   12  A    between atoms: C18_25  and  N3_27 
REMARK       I    between atoms: N3_27  and  C20_29 
REMARK       I    between atoms: C20_29  and  N4_31 
REMARK   13  A    between atoms: N4_31  and  C21_33 
REMARK   14  A    between atoms: C29_42  and  O5_43 
REMARK   15  A    between atoms: C29_42  and  N6_45 
ROOT
HETATM    1  C7  UNL     1      -1.276   0.814   0.029  1.00  0.00     0.170 C 
ENDROOT
BRANCH   1   2
HETATM    2  C6  UNL     1      -2.282   0.712   1.080  1.00  0.00     0.244 C 
HETATM    3  N1  UNL     1      -3.643   0.880   0.720  1.00  0.00    -0.325 N 
ATOM      4  H1  UNL     1      -3.913   1.830   0.465  1.00  0.00     0.169 HD
HETATM    5  O3  UNL     1      -2.112   0.492   2.309  1.00  0.00    -0.271 OA
BRANCH   3   6
HETATM    6  C5  UNL     1      -4.590   0.003   0.669  1.00  0.00     0.063 C 
HETATM    7  C29 UNL     1      -4.323  -1.387   0.875  1.00  0.00     0.161 C 
BRANCH   6   8
HETATM    8  C4  UNL     1      -5.934   0.488   0.255  1.00  0.00     0.071 C 
BRANCH   8   9
HETATM    9  C3  UNL     1      -6.208   0.229  -1.208  1.00  0.00     0.117 C 
BRANCH   9  10
HETATM   10  C2  UNL     1      -7.586   0.666  -1.508  1.00  0.00     0.258 C 
HETATM   11  O2  UNL     1      -8.267   1.204  -0.602  1.00  0.00    -0.265 OA
BRANCH  10  12
HETATM   12  O1  UNL     1      -8.179   0.511  -2.749  1.00  0.00    -0.326 OA
HETATM   13  C1  UNL     1      -9.499   0.904  -3.070  1.00  0.00     0.213 C 
ENDBRANCH  10  12
ENDBRANCH   9  10
ENDBRANCH   8   9
ENDBRANCH   6   8
BRANCH   7  14
HETATM   14  O5  UNL     1      -3.068  -1.736   1.018  1.00  0.00    -0.345 OA
ATOM     15  H5  UNL     1      -2.891  -2.659   1.155  1.00  0.00     0.219 HD
ENDBRANCH   7  14
BRANCH   7  16
HETATM   16  N6  UNL     1      -5.177  -2.504   0.962  1.00  0.00    -0.356 N 
HETATM   17  C30 UNL     1      -4.553  -3.864   1.077  1.00  0.00     0.151 C 
HETATM   18  C31 UNL     1      -5.249  -4.800   0.126  1.00  0.00     0.187 C 
HETATM   19  O6  UNL     1      -6.619  -4.857   0.327  1.00  0.00    -0.388 OA
HETATM   20  C32 UNL     1      -7.048  -4.010   1.321  1.00  0.00     0.187 C 
HETATM   21  C33 UNL     1      -6.611  -2.558   1.034  1.00  0.00     0.151 C 
ENDBRANCH   7  16
ENDBRANCH   3   6
ENDBRANCH   1   2
BRANCH   1  22
HETATM   22  C8  UNL     1      -0.874   2.261  -0.144  1.00  0.00     0.039 C 
BRANCH  22  23
HETATM   23  C9  UNL     1      -1.990   3.192  -0.546  1.00  0.00    -0.012 C 
HETATM   24  C10 UNL     1      -2.627   2.836  -1.855  1.00  0.00     0.005 C 
HETATM   25  C11 UNL     1      -2.372   3.840  -2.958  1.00  0.00     0.000 C 
HETATM   26  C12 UNL     1      -2.697   5.255  -2.587  1.00  0.00     0.000 C 
HETATM   27  C13 UNL     1      -2.195   5.619  -1.204  1.00  0.00     0.000 C 
HETATM   28  C14 UNL     1      -1.269   4.542  -0.752  1.00  0.00     0.005 C 
ENDBRANCH  22  23
ENDBRANCH   1  22
BRANCH   1  29
HETATM   29  N2  UNL     1      -0.185   0.001   0.131  1.00  0.00    -0.399 N 
ATOM     30  H2  UNL     1      -0.090  -0.625  -0.669  1.00  0.00     0.154 HD
BRANCH  29  31
HETATM   31  C15 UNL     1       0.818  -0.175   1.058  1.00  0.00     0.039 C 
HETATM   32  C16 UNL     1       1.666   1.028   1.400  1.00  0.00     0.039 C 
HETATM   33  C17 UNL     1       0.546  -0.990   2.287  1.00  0.00     0.039 C 
BRANCH  31  34
HETATM   34  C18 UNL     1       1.861  -1.058   0.264  1.00  0.00     0.109 C 
HETATM   35  C19 UNL     1       1.128  -2.319  -0.092  1.00  0.00     0.035 C 
BRANCH  34  36
HETATM   36  N3  UNL     1       2.999  -1.321   1.059  1.00  0.00    -0.336 N 
HETATM   37  C20 UNL     1       4.325  -0.736   0.735  1.00  0.00     0.316 C 
HETATM   38  O4  UNL     1       4.312   0.041  -0.252  1.00  0.00    -0.247 OA
HETATM   39  N4  UNL     1       5.376  -1.114   1.542  1.00  0.00    -0.338 N 
ATOM     40  H4  UNL     1       5.145  -1.802   2.258  1.00  0.00     0.164 HD
ATOM     41  H3  UNL     1       2.908  -1.927   1.875  1.00  0.00     0.164 HD
BRANCH  39  42
HETATM   42  C21 UNL     1       6.755  -0.684   1.528  1.00  0.00     0.089 C 
HETATM   43  C22 UNL     1       7.107   0.341   0.511  1.00  0.00     0.055 C 
HETATM   44  C23 UNL     1       7.715  -0.159  -0.765  1.00  0.00     0.275 C 
HETATM   45  N5  UNL     1       8.683  -1.180  -0.620  1.00  0.00     0.093 N 
HETATM   46  C24 UNL     1       9.984  -0.736  -1.039  1.00  0.00     0.273 C 
HETATM   47  C27 UNL     1       8.868  -1.775   0.643  1.00  0.00     0.225 C 
HETATM   48  C25 UNL     1      10.814  -0.508   0.202  1.00  0.00     0.032 C 
HETATM   49  C26 UNL     1      10.007  -1.047   1.333  1.00  0.00     0.037 C 
HETATM   50  C28 UNL     1       7.655  -1.864   1.512  1.00  0.00     0.061 C 
ENDBRANCH  39  42
ENDBRANCH  34  36
ENDBRANCH  31  34
ENDBRANCH  29  31
ENDBRANCH   1  29
TORSDOF 15
