REMARK  14 active torsions:
REMARK  status: ('A' for Active; 'I' for Inactive)
REMARK    1  A    between atoms: C2_2  and  C3_3 
REMARK    2  A    between atoms: C3_3  and  C4_4 
REMARK    3  A    between atoms: C4_4  and  C6_6 
REMARK    4  A    between atoms: C6_6  and  O1_7 
REMARK    5  A    between atoms: C6_6  and  N1_9 
REMARK    6  A    between atoms: C12_18  and  C13_19 
REMARK    7  A    between atoms: C12_18  and  C15_21 
REMARK    8  A    between atoms: C17_23  and  N2_24 
REMARK    9  A    between atoms: C21_28  and  N3_29 
REMARK   10  A    between atoms: N3_29  and  C22_31 
REMARK   11  A    between atoms: C22_31  and  O4_32 
REMARK   12  A    between atoms: C22_31  and  C23_34 
REMARK   13  A    between atoms: C23_34  and  N4_35 
REMARK   14  A    between atoms: C23_34  and  C24_39 
ROOT
HETATM    1  N1  UNL     1       2.830  -1.896   0.361  1.00  0.00    -0.339 N 
ATOM      2  H1  UNL     1       2.459  -2.264   1.237  1.00  0.00     0.167 HD
HETATM    3  C7  UNL     1       2.238  -0.867  -0.037  1.00  0.00     0.082 C 
HETATM    4  C8  UNL     1       2.714  -0.263  -1.303  1.00  0.00     0.094 C 
HETATM    5  C9  UNL     1       2.381   1.216  -1.261  1.00  0.00     0.128 C 
HETATM    6  C10 UNL     1       3.265   2.005  -2.210  1.00  0.00     0.040 C 
HETATM    7  O2  UNL     1       1.040   1.359  -1.588  1.00  0.00    -0.338 OA
HETATM    8  C11 UNL     1       0.346   1.769  -0.383  1.00  0.00     0.378 C 
HETATM    9  O3  UNL     1      -0.817   2.280  -0.799  1.00  0.00    -0.327 OA
HETATM   10  C12 UNL     1      -1.624   3.024   0.016  1.00  0.00     0.102 C 
HETATM   11  C17 UNL     1      -2.368   2.340   1.065  1.00  0.00     0.022 C 
HETATM   12  C20 UNL     1      -2.132   0.959   1.481  1.00  0.00     0.042 C 
HETATM   13  C21 UNL     1      -1.107   0.077   0.970  1.00  0.00     0.215 C 
HETATM   14  N5  UNL     1       0.107   0.590   0.411  1.00  0.00    -0.273 N 
HETATM   15  C27 UNL     1       1.085  -0.386   0.769  1.00  0.00     0.272 C 
HETATM   16  O5  UNL     1       0.957  -0.898   1.894  1.00  0.00    -0.266 OA
ENDROOT
BRANCH  13  17
HETATM   17  N3  UNL     1      -1.626  -0.832  -0.061  1.00  0.00    -0.371 N 
ATOM     18  H3  UNL     1      -1.277  -0.806  -1.019  1.00  0.00     0.158 HD
BRANCH  17  19
HETATM   19  C22 UNL     1      -2.624  -1.737   0.332  1.00  0.00     0.246 C 
BRANCH  19  20
HETATM   20  O4  UNL     1      -2.848  -1.920   1.686  1.00  0.00    -0.375 OA
ATOM     21  H4  UNL     1      -3.524  -2.533   1.952  1.00  0.00     0.212 HD
ENDBRANCH  19  20
BRANCH  19  22
HETATM   22  C23 UNL     1      -2.483  -3.134  -0.264  1.00  0.00     0.234 C 
BRANCH  22  23
HETATM   23  N4  UNL     1      -2.140  -3.011  -1.690  1.00  0.00    -0.071 N 
ATOM     24  H43 UNL     1      -2.808  -2.435  -2.203  1.00  0.00     0.274 HD
ATOM     25  H42 UNL     1      -1.311  -2.437  -1.843  1.00  0.00     0.274 HD
ATOM     26  H41 UNL     1      -2.046  -3.945  -2.089  1.00  0.00     0.274 HD
ENDBRANCH  22  23
BRANCH  22  27
HETATM   27  C24 UNL     1      -3.850  -3.792  -0.255  1.00  0.00     0.012 C 
HETATM   28  C25 UNL     1      -4.468  -3.923   1.095  1.00  0.00     0.012 C 
HETATM   29  C26 UNL     1      -3.807  -5.174  -0.882  1.00  0.00     0.012 C 
ENDBRANCH  22  27
ENDBRANCH  19  22
ENDBRANCH  17  19
ENDBRANCH  13  17
BRANCH  11  30
HETATM   30  N2  UNL     1      -3.796   2.593   1.108  1.00  0.00    -0.293 NA
HETATM   31  C18 UNL     1      -4.272   2.816   2.484  1.00  0.00     0.116 C 
HETATM   32  C19 UNL     1      -4.652   1.599   0.543  1.00  0.00     0.116 C 
ENDBRANCH  11  30
BRANCH  10  33
HETATM   33  C13 UNL     1      -2.391   3.899  -0.970  1.00  0.00     0.040 C 
HETATM   34  C14 UNL     1      -3.156   3.134  -2.023  1.00  0.00     0.008 C 
ENDBRANCH  10  33
BRANCH  10  35
HETATM   35  C15 UNL     1      -0.621   4.059   0.622  1.00  0.00     0.040 C 
HETATM   36  C16 UNL     1      -1.409   4.977   1.521  1.00  0.00     0.008 C 
ENDBRANCH  10  35
BRANCH   1  37
HETATM   37  C6  UNL     1       3.880  -2.633  -0.141  1.00  0.00     0.119 C 
BRANCH  37  38
HETATM   38  C4  UNL     1       5.291  -2.280  -0.327  1.00  0.00     0.056 C 
HETATM   39  C5  UNL     1       6.179  -3.539  -0.187  1.00  0.00     0.018 C 
BRANCH  38  40
HETATM   40  C3  UNL     1       5.844  -1.312   0.691  1.00  0.00     0.012 C 
BRANCH  40  41
HETATM   41  C2  UNL     1       7.295  -1.054   0.319  1.00  0.00    -0.004 C 
HETATM   42  C1  UNL     1       7.912  -0.075   1.285  1.00  0.00     0.005 C 
ENDBRANCH  40  41
ENDBRANCH  38  40
ENDBRANCH  37  38
BRANCH  37  43
HETATM   43  O1  UNL     1       3.592  -3.851  -0.524  1.00  0.00    -0.349 OA
ATOM     44  H1  UNL     1       2.678  -4.080  -0.403  1.00  0.00     0.219 HD
ENDBRANCH  37  43
ENDBRANCH   1  37
TORSDOF 14
