REMARK  13 active torsions:
REMARK  status: ('A' for Active; 'I' for Inactive)
REMARK    1  A    between atoms: C3_3  and  N1_4 
REMARK       I    between atoms: N1_4  and  C4_6 
REMARK    2  A    between atoms: C4_6  and  C5_8 
REMARK    3  A    between atoms: C7_10  and  N2_11 
REMARK       I    between atoms: N2_11  and  C8_13 
REMARK    4  A    between atoms: C8_13  and  C9_15 
REMARK    5  A    between atoms: C9_15  and  C10_17 
REMARK    6  A    between atoms: C10_17  and  C11_18 
REMARK    7  A    between atoms: C13_20  and  O4_21 
REMARK    8  A    between atoms: C13_20  and  C14_23 
REMARK    9  A    between atoms: C14_23  and  C15_24 
REMARK   10  A    between atoms: C14_23  and  N3_28 
REMARK   11  A    between atoms: C15_24  and  C16_25 
REMARK       I    between atoms: N3_28  and  C19_30 
REMARK   12  A    between atoms: C19_30  and  O6_32 
REMARK   13  A    between atoms: O6_32  and  C20_33 
ROOT
HETATM    1  C1  UNL     1      10.299   1.244   1.775  1.00  0.00     0.014 C 
HETATM    2  C2  UNL     1      10.084   1.179   0.591  1.00  0.00    -0.098 C 
HETATM    3  C3  UNL     1       9.832   1.123  -0.857  1.00  0.00     0.216 C 
ENDROOT
BRANCH   3   4
HETATM    4  N1  UNL     1       8.665   0.350  -1.185  1.00  0.00    -0.350 N 
HETATM    5  C4  UNL     1       7.403   0.723  -0.689  1.00  0.00     0.223 C 
HETATM    6  O1  UNL     1       7.286   1.750   0.053  1.00  0.00    -0.273 OA
ATOM      7  H1  UNL     1       8.753  -0.473  -1.781  1.00  0.00     0.163 HD
BRANCH   5   8
HETATM    8  C5  UNL     1       6.216  -0.054  -1.012  1.00  0.00     0.094 C 
HETATM    9  C6  UNL     1       4.932   0.565  -0.433  1.00  0.00     0.040 C 
HETATM   10  C7  UNL     1       4.009  -0.616  -0.644  1.00  0.00     0.092 C 
HETATM   11  C24 UNL     1       4.768  -1.717   0.018  1.00  0.00     0.047 C 
HETATM   12  C25 UNL     1       4.921  -1.574   1.486  1.00  0.00     0.186 C 
HETATM   13  C27 UNL     1       6.195  -1.464  -0.494  1.00  0.00     0.106 C 
HETATM   14  O7  UNL     1       6.315  -1.549   1.792  1.00  0.00    -0.321 OA
HETATM   15  C26 UNL     1       7.058  -1.715   0.659  1.00  0.00     0.264 C 
HETATM   16  O8  UNL     1       8.270  -2.028   0.617  1.00  0.00    -0.265 OA
BRANCH  10  17
HETATM   17  N2  UNL     1       2.669  -0.414  -0.185  1.00  0.00    -0.349 N 
HETATM   18  C8  UNL     1       1.536  -0.409  -1.035  1.00  0.00     0.292 C 
HETATM   19  O2  UNL     1       1.691  -0.587  -2.269  1.00  0.00    -0.264 OA
ATOM     20  H2  UNL     1       2.521  -0.265   0.813  1.00  0.00     0.163 HD
BRANCH  18  21
HETATM   21  C9  UNL     1       0.201  -0.195  -0.456  1.00  0.00     0.247 C 
HETATM   22  O3  UNL     1       0.168  -0.048   0.771  1.00  0.00    -0.282 OA
BRANCH  21  23
HETATM   23  C10 UNL     1      -1.017  -0.164  -1.294  1.00  0.00     0.028 C 
HETATM   24  C13 UNL     1      -2.283  -0.465  -0.697  1.00  0.00     0.076 C 
BRANCH  23  25
HETATM   25  C11 UNL     1      -0.958   0.858  -2.400  1.00  0.00     0.041 C 
HETATM   26  C12 UNL     1      -0.740   2.275  -1.976  1.00  0.00     0.010 C 
ENDBRANCH  23  25
BRANCH  24  27
HETATM   27  O4  UNL     1      -2.662  -1.672  -1.127  1.00  0.00    -0.362 OA
ATOM     28  H4  UNL     1      -3.502  -1.872  -0.731  1.00  0.00     0.217 HD
ENDBRANCH  24  27
BRANCH  24  29
HETATM   29  C14 UNL     1      -3.301   0.012   0.184  1.00  0.00     0.144 C 
BRANCH  29  30
HETATM   30  C15 UNL     1      -3.046   0.751   1.421  1.00  0.00     0.036 C 
BRANCH  30  31
HETATM   31  C16 UNL     1      -2.457   2.096   1.435  1.00  0.00    -0.020 C 
HETATM   32  C17 UNL     1      -3.309   3.131   0.709  1.00  0.00     0.009 C 
HETATM   33  C18 UNL     1      -2.480   2.565   2.904  1.00  0.00     0.009 C 
ENDBRANCH  30  31
ENDBRANCH  29  30
BRANCH  29  34
HETATM   34  N3  UNL     1      -4.227  -1.065   0.531  1.00  0.00    -0.326 N 
HETATM   35  C19 UNL     1      -5.596  -0.943   0.225  1.00  0.00     0.361 C 
HETATM   36  O5  UNL     1      -6.035   0.113  -0.356  1.00  0.00    -0.238 OA
ATOM     37  H3  UNL     1      -3.881  -1.905   0.995  1.00  0.00     0.165 HD
BRANCH  35  38
HETATM   38  O6  UNL     1      -6.545  -1.887   0.501  1.00  0.00    -0.294 OA
BRANCH  38  39
HETATM   39  C20 UNL     1      -7.902  -1.857   0.248  1.00  0.00     0.061 C 
HETATM   40  C21 UNL     1      -8.644  -0.731   0.925  1.00  0.00     0.046 C 
HETATM   41  C22 UNL     1      -8.121  -1.639  -1.258  1.00  0.00     0.046 C 
HETATM   42  C23 UNL     1      -8.551  -3.175   0.585  1.00  0.00     0.046 C 
ENDBRANCH  38  39
ENDBRANCH  35  38
ENDBRANCH  29  34
ENDBRANCH  24  29
ENDBRANCH  21  23
ENDBRANCH  18  21
ENDBRANCH  10  17
ENDBRANCH   5   8
ENDBRANCH   3   4
TORSDOF 13
