REMARK  7 active torsions:
REMARK  status: ('A' for Active; 'I' for Inactive)
REMARK    1  A    between atoms: C1_2  and  O2_4 
REMARK    2  A    between atoms: O2_4  and  C2_5 
REMARK    3  A    between atoms: C6_9  and  N2_10 
REMARK       I    between atoms: N2_10  and  C7_12 
REMARK    4  A    between atoms: C7_12  and  C8_14 
REMARK    5  A    between atoms: C8_14  and  N3_15 
REMARK    6  A    between atoms: C8_14  and  C18_27 
REMARK       I    between atoms: N3_15  and  C9_17 
REMARK    7  A    between atoms: C9_17  and  C10_19 
ROOT
HETATM    1  C8  UNL     1       0.155   0.589  -0.729  1.00  0.00     0.180 C 
ENDROOT
BRANCH   1   2
HETATM    2  C7  UNL     1      -1.011  -0.251  -0.581  1.00  0.00     0.241 C 
HETATM    3  N2  UNL     1      -2.233   0.046   0.014  1.00  0.00    -0.352 N 
ATOM      4  H2  UNL     1      -2.375   0.971   0.419  1.00  0.00     0.163 HD
HETATM    5  O3  UNL     1      -0.909  -1.445  -1.065  1.00  0.00    -0.271 OA
BRANCH   3   6
HETATM    6  C6  UNL     1      -3.321  -0.932   0.075  1.00  0.00     0.114 C 
HETATM    7  C2  UNL     1      -4.619  -0.404  -0.417  1.00  0.00     0.156 C 
HETATM    8  C3  UNL     1      -5.043   0.534   0.721  1.00  0.00     0.035 C 
HETATM    9  C4  UNL     1      -4.795  -0.382   1.927  1.00  0.00     0.005 C 
HETATM   10  C5  UNL     1      -3.596  -1.192   1.550  1.00  0.00     0.028 C 
BRANCH   7  11
HETATM   11  O2  UNL     1      -5.556  -1.474  -0.377  1.00  0.00    -0.299 OA
BRANCH  11  12
HETATM   12  C1  UNL     1      -6.349  -1.845  -1.439  1.00  0.00     0.373 C 
HETATM   13  N1  UNL     1      -7.238  -2.929  -1.256  1.00  0.00    -0.032 NA
HETATM   14  O1  UNL     1      -6.243  -1.206  -2.508  1.00  0.00    -0.242 OA
ENDBRANCH  11  12
ENDBRANCH   7  11
ENDBRANCH   3   6
ENDBRANCH   1   2
BRANCH   1  15
HETATM   15  N3  UNL     1       1.414  -0.126  -0.585  1.00  0.00    -0.347 N 
HETATM   16  C9  UNL     1       2.362  -0.324  -1.604  1.00  0.00     0.227 C 
HETATM   17  O4  UNL     1       2.149   0.132  -2.745  1.00  0.00    -0.273 OA
ATOM     18  H3  UNL     1       1.627  -0.517   0.333  1.00  0.00     0.163 HD
BRANCH  16  19
HETATM   19  C10 UNL     1       3.614  -1.065  -1.359  1.00  0.00     0.048 A 
HETATM   20  C11 UNL     1       4.555  -0.492  -0.305  1.00  0.00     0.020 C 
HETATM   21  C12 UNL     1       5.126  -1.556   0.594  1.00  0.00     0.005 C 
HETATM   22  C13 UNL     1       6.379  -2.177   0.017  1.00  0.00     0.027 C 
HETATM   23  C14 UNL     1       6.656  -1.770  -1.364  1.00  0.00    -0.030 C 
HETATM   24  C15 UNL     1       5.835  -1.559  -2.378  1.00  0.00    -0.025 C 
HETATM   25  C16 UNL     1       4.360  -1.657  -2.477  1.00  0.00     0.027 A 
HETATM   26  C17 UNL     1       3.584  -2.543  -1.593  1.00  0.00     0.029 A 
ENDBRANCH  16  19
ENDBRANCH   1  15
BRANCH   1  27
HETATM   27  C18 UNL     1       0.236   1.884  -0.020  1.00  0.00     0.018 C 
HETATM   28  C19 UNL     1      -0.765   2.925  -0.346  1.00  0.00     0.007 C 
HETATM   29  C20 UNL     1      -1.230   3.763   0.820  1.00  0.00     0.000 C 
HETATM   30  C21 UNL     1      -0.097   4.169   1.727  1.00  0.00     0.000 C 
HETATM   31  C22 UNL     1       0.831   3.020   2.040  1.00  0.00     0.000 C 
HETATM   32  C23 UNL     1       0.312   1.704   1.501  1.00  0.00     0.007 C 
ENDBRANCH   1  27
TORSDOF 7
