REMARK  8 active torsions:
REMARK  status: ('A' for Active; 'I' for Inactive)
REMARK    1  A    between atoms: O1_2  and  C2_3 
REMARK    2  A    between atoms: C2_3  and  C3_4 
REMARK    3  A    between atoms: C3_4  and  C4_5 
REMARK    4  A    between atoms: C4_5  and  C5_6 
REMARK    5  A    between atoms: C5_6  and  C6_7 
REMARK    6  A    between atoms: C6_7  and  O2_8 
REMARK    7  A    between atoms: C17_21  and  O4_22 
REMARK    8  A    between atoms: C23_29  and  O5_30 
ROOT
HETATM    1  C5  UNL     1       2.318   0.913  -0.509  1.00  0.00    -0.015 C 
HETATM    2  C7  UNL     1       2.334   1.994   0.546  1.00  0.00     0.012 C 
HETATM    3  C8  UNL     1       1.800   1.623   1.866  1.00  0.00     0.005 C 
HETATM    4  C9  UNL     1       0.722   0.614   1.926  1.00  0.00    -0.014 C 
HETATM    5  C10 UNL     1       0.904  -0.290   3.165  1.00  0.00     0.010 C 
HETATM    6  C11 UNL     1       0.538  -0.269   0.765  1.00  0.00    -0.001 C 
HETATM    7  C12 UNL     1      -0.930  -0.701   0.697  1.00  0.00     0.004 C 
HETATM    8  C13 UNL     1      -1.097  -1.911  -0.166  1.00  0.00     0.084 C 
HETATM    9  C14 UNL     1      -2.516  -2.202  -0.387  1.00  0.00     0.132 C 
HETATM   10  O3  UNL     1      -2.796  -3.348  -0.773  1.00  0.00    -0.298 OA
HETATM   11  C15 UNL     1      -3.638  -1.281  -0.201  1.00  0.00     0.066 C 
HETATM   12  C16 UNL     1      -4.354  -1.122  -1.518  1.00  0.00     0.044 C 
HETATM   13  C17 UNL     1      -5.611  -0.367  -1.233  1.00  0.00     0.119 C 
HETATM   14  C18 UNL     1      -5.267   1.003  -0.754  1.00  0.00     0.032 C 
HETATM   15  C19 UNL     1      -4.231   1.118   0.282  1.00  0.00     0.013 C 
HETATM   16  C20 UNL     1      -3.256   0.010   0.451  1.00  0.00    -0.027 C 
HETATM   17  C21 UNL     1      -3.254  -0.306   1.969  1.00  0.00     0.016 C 
HETATM   18  C22 UNL     1      -1.816   0.415   0.195  1.00  0.00     0.028 C 
HETATM   19  C23 UNL     1      -1.435   0.633  -1.218  1.00  0.00     0.123 C 
HETATM   20  C24 UNL     1      -0.015   1.158  -1.212  1.00  0.00     0.038 C 
HETATM   21  C25 UNL     1       0.985   0.228  -0.572  1.00  0.00     0.003 C 
ENDROOT
BRANCH   1  22
HETATM   22  C4  UNL     1       3.527   0.078  -0.549  1.00  0.00     0.014 C 
BRANCH  22  23
HETATM   23  C3  UNL     1       3.877  -0.866   0.516  1.00  0.00     0.027 C 
BRANCH  23  24
HETATM   24  C2  UNL     1       5.224  -1.564   0.250  1.00  0.00     0.167 C 
BRANCH  24  25
HETATM   25  O1  UNL     1       6.250  -0.659   0.161  1.00  0.00    -0.396 OA
HETATM   26  C1  UNL     1       7.422  -1.333  -0.075  1.00  0.00     0.201 C 
ENDBRANCH  24  25
ENDBRANCH  23  24
ENDBRANCH  22  23
ENDBRANCH   1  22
BRANCH   1  27
HETATM   27  C6  UNL     1       2.414   1.722  -1.846  1.00  0.00     0.173 C 
BRANCH  27  28
HETATM   28  O2  UNL     1       2.450   0.916  -2.943  1.00  0.00    -0.400 OA
ATOM     29  H2  UNL     1       2.508   1.407  -3.754  1.00  0.00     0.209 HD
ENDBRANCH  27  28
ENDBRANCH   1  27
BRANCH  19  30
HETATM   30  O5  UNL     1      -2.166   1.628  -1.880  1.00  0.00    -0.395 OA
ATOM     31  H5  UNL     1      -1.921   1.768  -2.787  1.00  0.00     0.210 HD
ENDBRANCH  19  30
BRANCH  13  32
HETATM   32  O4  UNL     1      -6.324  -0.251  -2.430  1.00  0.00    -0.396 OA
ATOM     33  H4  UNL     1      -7.123   0.229  -2.249  1.00  0.00     0.210 HD
ENDBRANCH  13  32
TORSDOF 8
