REMARK  5 active torsions:
REMARK  status: ('A' for Active; 'I' for Inactive)
REMARK    1  A    between atoms: C3_3  and  C4_4 
REMARK    2  A    between atoms: C4_4  and  O1_5 
REMARK    3  A    between atoms: O1_5  and  C5_6 
REMARK    4  A    between atoms: C5_6  and  C6_10 
REMARK    5  A    between atoms: C11_18  and  C12_19 
ROOT
HETATM    1  C1  UNL     1       5.244   1.723  -1.065  1.00  0.00     0.012 C 
HETATM    2  C2  UNL     1       4.518   1.662  -0.103  1.00  0.00    -0.115 C 
HETATM    3  C3  UNL     1       3.651   1.589   1.069  1.00  0.00     0.119 C 
ENDROOT
BRANCH   3   4
HETATM    4  C4  UNL     1       2.739   0.362   0.991  1.00  0.00     0.189 C 
BRANCH   4   5
HETATM    5  O1  UNL     1       1.931   0.435  -0.162  1.00  0.00    -0.338 OA
BRANCH   5   6
HETATM    6  C5  UNL     1       1.016  -0.589  -0.423  1.00  0.00     0.118 C 
HETATM    7  N1  UNL     1       1.358  -1.797  -0.169  1.00  0.00    -0.383 N 
ATOM      8  H12 UNL     1       2.283  -1.984   0.217  1.00  0.00     0.158 HD
ATOM      9  H11 UNL     1       0.690  -2.544  -0.359  1.00  0.00     0.158 HD
BRANCH   6  10
HETATM   10  C6  UNL     1      -0.322  -0.318  -0.981  1.00  0.00     0.102 C 
HETATM   11  C7  UNL     1      -1.154  -1.573  -1.052  1.00  0.00     0.203 C 
HETATM   12  N2  UNL     1      -1.113  -2.443   0.089  1.00  0.00    -0.070 N 
HETATM   13  C10 UNL     1      -2.357  -0.707  -0.715  1.00  0.00     0.030 C 
HETATM   14  C8  UNL     1      -2.526  -2.846   0.260  1.00  0.00     0.233 C 
ATOM     15  H22 UNL     1      -0.458  -3.220   0.006  1.00  0.00     0.277 HD
ATOM     16  H21 UNL     1      -0.686  -2.033   0.919  1.00  0.00     0.277 HD
HETATM   17  C9  UNL     1      -3.207  -1.481   0.238  1.00  0.00     0.035 C 
HETATM   18  C11 UNL     1      -1.358   0.254  -0.049  1.00  0.00     0.070 C 
BRANCH  18  19
HETATM   19  C12 UNL     1      -1.751   1.663  -0.362  1.00  0.00     0.092 C 
HETATM   20  N3  UNL     1      -2.983   1.930  -0.644  1.00  0.00    -0.391 N 
ATOM     21  H32 UNL     1      -3.637   1.148  -0.637  1.00  0.00     0.157 HD
ATOM     22  H31 UNL     1      -3.251   2.891  -0.857  1.00  0.00     0.157 HD
HETATM   23  N4  UNL     1      -0.848   2.743  -0.371  1.00  0.00    -0.088 NA
ENDBRANCH  18  19
ENDBRANCH   6  10
ENDBRANCH   5   6
ENDBRANCH   4   5
ENDBRANCH   3   4
TORSDOF 5
