REMARK  7 active torsions:
REMARK  status: ('A' for Active; 'I' for Inactive)
REMARK    1  A    between atoms: C2_2  and  N1_3 
REMARK    2  A    between atoms: N1_3  and  C3_4 
REMARK    3  A    between atoms: N1_3  and  C9_16 
REMARK    4  A    between atoms: C3_4  and  C4_5 
REMARK    5  A    between atoms: C4_5  and  O1_6 
REMARK    6  A    between atoms: C4_5  and  C5_8 
REMARK    7  A    between atoms: C9_16  and  N4_18 
ROOT
HETATM    1  C3  UNL     1       0.936   0.708  -0.406  1.00  0.00     0.164 C 
ENDROOT
BRANCH   1   2
HETATM    2  N1  UNL     1      -0.464   0.933  -0.146  1.00  0.00    -0.356 N 
BRANCH   2   3
HETATM    3  C2  UNL     1      -0.924   1.945   0.759  1.00  0.00     0.120 C 
HETATM    4  C1  UNL     1      -0.924   1.608   2.218  1.00  0.00     0.026 C 
ENDBRANCH   2   3
BRANCH   2   5
HETATM    5  C9  UNL     1      -1.374   0.053  -0.769  1.00  0.00     0.172 C 
HETATM    6  S1  UNL     1      -0.631  -1.037  -1.835  1.00  0.00    -0.041 SA
BRANCH   5   7
HETATM    7  N4  UNL     1      -2.757  -0.088  -0.675  1.00  0.00    -0.358 N 
HETATM    8  C10 UNL     1      -3.342  -1.167  -1.554  1.00  0.00     0.125 C 
HETATM    9  C11 UNL     1      -4.785  -1.376  -1.243  1.00  0.00     0.020 C 
HETATM   10  C12 UNL     1      -5.105  -1.507   0.219  1.00  0.00     0.003 C 
HETATM   11  C13 UNL     1      -4.308  -0.543   1.052  1.00  0.00     0.020 C 
HETATM   12  C14 UNL     1      -3.758   0.533   0.096  1.00  0.00     0.125 C 
ENDBRANCH   5   7
ENDBRANCH   2   5
ENDBRANCH   1   2
BRANCH   1  13
HETATM   13  C4  UNL     1       1.823   0.157   0.615  1.00  0.00     0.203 C 
BRANCH  13  14
HETATM   14  O1  UNL     1       1.985   0.976   1.703  1.00  0.00    -0.386 OA
ATOM     15  H1  UNL     1       2.562   0.618   2.367  1.00  0.00     0.210 HD
ENDBRANCH  13  14
BRANCH  13  16
HETATM   16  C5  UNL     1       3.215  -0.085   0.084  1.00  0.00     0.103 C 
HETATM   17  N2  UNL     1       3.545   0.192  -1.123  1.00  0.00    -0.378 N 
HETATM   18  C6  UNL     1       4.870  -0.028  -1.662  1.00  0.00     0.122 C 
ATOM     19  H2  UNL     1       2.835   0.589  -1.738  1.00  0.00     0.160 HD
HETATM   20  C7  UNL     1       5.923  -0.046  -0.579  1.00  0.00     0.039 C 
HETATM   21  C8  UNL     1       5.510  -0.982   0.537  1.00  0.00     0.122 C 
HETATM   22  N3  UNL     1       4.187  -0.636   0.951  1.00  0.00    -0.378 N 
ATOM     23  H3  UNL     1       3.930  -0.795   1.925  1.00  0.00     0.160 HD
ENDBRANCH  13  16
ENDBRANCH   1  13
TORSDOF 7
