REMARK  22 active torsions:
REMARK  status: ('A' for Active; 'I' for Inactive)
REMARK    1  A    between atoms: C3_3  and  C4_4 
REMARK    2  A    between atoms: C3_3  and  N1_7 
REMARK    3  A    between atoms: C4_4  and  C5_5 
REMARK    4  A    between atoms: N1_7  and  C7_9 
REMARK    5  A    between atoms: C7_9  and  C8_10 
REMARK    6  A    between atoms: C8_10  and  C9_11 
REMARK    7  A    between atoms: C8_10  and  N3_19 
REMARK    8  A    between atoms: C9_11  and  C10_12 
REMARK    9  A    between atoms: C10_12  and  C11_13 
REMARK   10  A    between atoms: C11_13  and  C12_14 
REMARK   11  A    between atoms: C12_14  and  N2_15 
REMARK       I    between atoms: N3_19  and  C13_21 
REMARK   12  A    between atoms: C13_21  and  C14_23 
REMARK   13  A    between atoms: C21_30  and  C22_31 
REMARK       I    between atoms: C22_31  and  N4_33 
REMARK   14  A    between atoms: N4_33  and  C23_35 
REMARK   15  A    between atoms: C23_35  and  C24_36 
REMARK   16  A    between atoms: C23_35  and  C31_50 
REMARK   17  A    between atoms: C24_36  and  O3_37 
REMARK   18  A    between atoms: N5_39  and  C25_41 
REMARK   19  A    between atoms: C25_41  and  C26_42 
REMARK   20  A    between atoms: C25_41  and  C28_47 
REMARK   21  A    between atoms: C26_42  and  C27_44 
REMARK   22  A    between atoms: C27_44  and  O5_45 
ROOT
HETATM    1  C1  UNL     1       8.647   0.712  -0.551  1.00  0.00     0.014 C 
HETATM    2  C2  UNL     1       7.667   0.631   0.155  1.00  0.00    -0.092 C 
HETATM    3  C3  UNL     1       6.472   0.462   1.016  1.00  0.00     0.156 C 
ENDROOT
BRANCH   3   4
HETATM    4  C4  UNL     1       6.514   1.490   2.138  1.00  0.00     0.037 C 
BRANCH   4   5
HETATM    5  C5  UNL     1       6.535   2.906   1.690  1.00  0.00    -0.002 C 
HETATM    6  C6  UNL     1       6.532   3.802   2.913  1.00  0.00     0.005 C 
ENDBRANCH   4   5
ENDBRANCH   3   4
BRANCH   3   7
HETATM    7  N1  UNL     1       5.279   0.365   0.300  1.00  0.00    -0.405 N 
ATOM      8  H1  UNL     1       4.788  -0.527   0.355  1.00  0.00     0.154 HD
BRANCH   7   9
HETATM    9  C7  UNL     1       4.700   1.326  -0.461  1.00  0.00     0.140 C 
BRANCH   9  10
HETATM   10  C8  UNL     1       3.658   0.556  -1.413  1.00  0.00     0.101 C 
BRANCH  10  11
HETATM   11  C9  UNL     1       4.502  -0.434  -2.149  1.00  0.00     0.027 C 
BRANCH  11  12
HETATM   12  C10 UNL     1       5.585   0.149  -3.013  1.00  0.00     0.004 C 
BRANCH  12  13
HETATM   13  C11 UNL     1       6.528  -0.968  -3.412  1.00  0.00     0.027 C 
BRANCH  13  14
HETATM   14  C12 UNL     1       5.918  -2.143  -4.070  1.00  0.00     0.229 C 
BRANCH  14  15
HETATM   15  N2  UNL     1       5.236  -1.866  -5.286  1.00  0.00    -0.079 N 
ATOM     16  H23 UNL     1       4.533  -1.142  -5.138  1.00  0.00     0.274 HD
ATOM     17  H22 UNL     1       5.857  -1.382  -5.935  1.00  0.00     0.274 HD
ATOM     18  H21 UNL     1       4.815  -2.677  -5.740  1.00  0.00     0.274 HD
ENDBRANCH  14  15
ENDBRANCH  13  14
ENDBRANCH  12  13
ENDBRANCH  11  12
ENDBRANCH  10  11
BRANCH  10  19
HETATM   19  N3  UNL     1       2.767  -0.103  -0.489  1.00  0.00    -0.355 N 
HETATM   20  C13 UNL     1       1.733   0.586   0.252  1.00  0.00     0.223 C 
HETATM   21  O1  UNL     1       1.593   1.835   0.071  1.00  0.00    -0.273 OA
ATOM     22  H3  UNL     1       2.872  -1.108  -0.351  1.00  0.00     0.162 HD
BRANCH  20  23
HETATM   23  C14 UNL     1       0.848  -0.078   1.189  1.00  0.00     0.091 C 
HETATM   24  C15 UNL     1       1.436  -1.363   1.720  1.00  0.00     0.020 C 
HETATM   25  C16 UNL     1       0.290  -2.326   1.623  1.00  0.00    -0.009 C 
HETATM   26  C17 UNL     1       0.569  -3.720   1.274  1.00  0.00     0.005 C 
HETATM   27  C20 UNL     1      -0.342  -1.813   0.333  1.00  0.00     0.003 C 
HETATM   28  C18 UNL     1      -0.523  -4.103   0.286  1.00  0.00     0.001 C 
HETATM   29  C19 UNL     1      -1.263  -2.822  -0.055  1.00  0.00     0.006 C 
HETATM   30  C21 UNL     1      -0.528  -0.441   0.633  1.00  0.00     0.095 C 
BRANCH  30  31
HETATM   31  C22 UNL     1      -1.592   0.104   1.483  1.00  0.00     0.223 C 
HETATM   32  O2  UNL     1      -1.234   0.792   2.478  1.00  0.00    -0.273 OA
HETATM   33  N4  UNL     1      -2.940  -0.067   1.273  1.00  0.00    -0.348 N 
ATOM     34  H4  UNL     1      -3.151  -0.656   0.468  1.00  0.00     0.163 HD
BRANCH  33  35
HETATM   35  C23 UNL     1      -4.104   0.406   1.944  1.00  0.00     0.162 C 
BRANCH  35  36
HETATM   36  C24 UNL     1      -4.830   1.243   0.881  1.00  0.00     0.135 C 
HETATM   37  N5  UNL     1      -5.571   0.790  -0.148  1.00  0.00    -0.361 N 
ATOM     38  H5  UNL     1      -5.625  -0.225  -0.066  1.00  0.00     0.162 HD
BRANCH  36  39
HETATM   39  O3  UNL     1      -4.617   2.514   1.059  1.00  0.00    -0.348 OA
ATOM     40  H3  UNL     1      -5.066   3.032   0.401  1.00  0.00     0.219 HD
ENDBRANCH  36  39
BRANCH  37  41
HETATM   41  C25 UNL     1      -6.309   1.169  -1.306  1.00  0.00     0.158 C 
BRANCH  41  42
HETATM   42  C26 UNL     1      -7.184   2.329  -1.236  1.00  0.00     0.172 C 
HETATM   43  O4  UNL     1      -8.413   2.151  -1.266  1.00  0.00    -0.293 OA
BRANCH  42  44
HETATM   44  C27 UNL     1      -6.765   3.759  -1.107  1.00  0.00     0.244 C 
BRANCH  44  45
HETATM   45  O5  UNL     1      -7.692   4.615  -1.664  1.00  0.00    -0.394 OA
ATOM     46  H5  UNL     1      -7.426   5.523  -1.582  1.00  0.00     0.209 HD
ENDBRANCH  44  45
ENDBRANCH  42  44
ENDBRANCH  41  42
BRANCH  41  47
HETATM   47  C28 UNL     1      -7.107  -0.075  -1.711  1.00  0.00     0.007 C 
HETATM   48  C29 UNL     1      -8.045  -0.478  -0.544  1.00  0.00     0.012 C 
HETATM   49  C30 UNL     1      -7.798  -0.070  -2.989  1.00  0.00     0.012 C 
ENDBRANCH  41  47
ENDBRANCH  37  41
ENDBRANCH  35  36
BRANCH  35  50
HETATM   50  C31 UNL     1      -5.048  -0.519   2.573  1.00  0.00     0.008 C 
HETATM   51  C32 UNL     1      -4.338  -1.415   3.607  1.00  0.00     0.012 C 
HETATM   52  C33 UNL     1      -5.994   0.322   3.446  1.00  0.00     0.012 C 
ENDBRANCH  35  50
ENDBRANCH  33  35
ENDBRANCH  30  31
ENDBRANCH  20  23
ENDBRANCH  10  19
ENDBRANCH   9  10
ENDBRANCH   7   9
ENDBRANCH   3   7
TORSDOF 22
