REMARK  5 active torsions:
REMARK  status: ('A' for Active; 'I' for Inactive)
REMARK    1  A    between atoms: C2_3  and  C3_4 
REMARK    2  A    between atoms: C3_4  and  C4_5 
REMARK    3  A    between atoms: C4_5  and  C5_6 
REMARK    4  A    between atoms: C6_7  and  N2_8 
REMARK    5  A    between atoms: N2_8  and  C7_10 
ROOT
HETATM    1  N1  UNL     1      -3.840  -0.444   2.144  1.00  0.00    -0.197 NA
HETATM    2  C1  UNL     1      -3.462   0.023   1.169  1.00  0.00     0.059 C 
HETATM    3  C2  UNL     1      -2.974   0.608  -0.083  1.00  0.00     0.124 C 
ENDROOT
BRANCH   3   4
HETATM    4  C3  UNL     1      -1.693  -0.060  -0.458  1.00  0.00     0.018 C 
BRANCH   4   5
HETATM    5  C4  UNL     1      -0.673   0.159   0.651  1.00  0.00     0.029 C 
BRANCH   5   6
HETATM    6  C5  UNL     1       0.569  -0.509   0.251  1.00  0.00    -0.010 C 
HETATM    7  C6  UNL     1       1.716   0.133   0.096  1.00  0.00     0.085 C 
BRANCH   7   8
HETATM    8  N2  UNL     1       2.900  -0.539  -0.291  1.00  0.00    -0.363 N 
ATOM      9  H2  UNL     1       2.855  -1.268  -1.003  1.00  0.00     0.165 HD
BRANCH   8  10
HETATM   10  C7  UNL     1       4.142  -0.215   0.295  1.00  0.00     0.173 C 
HETATM   11  N3  UNL     1       4.567   0.995   0.246  1.00  0.00    -0.395 N 
ATOM     12  H32 UNL     1       3.999   1.705  -0.217  1.00  0.00     0.156 HD
ATOM     13  H31 UNL     1       5.465   1.229   0.670  1.00  0.00     0.156 HD
ENDBRANCH   8  10
ENDBRANCH   7   8
ENDBRANCH   5   6
ENDBRANCH   4   5
ENDBRANCH   3   4
TORSDOF 5
