REMARK  3 active torsions:
REMARK  status: ('A' for Active; 'I' for Inactive)
REMARK       I    between atoms: N1_2  and  C2_4 
REMARK       I    between atoms: C2_4  and  N3_8 
REMARK    1  A    between atoms: N3_8  and  C3_10 
REMARK    2  A    between atoms: C3_10  and  C4_11 
REMARK       I    between atoms: N4_15  and  C8_16 
REMARK       I    between atoms: C8_16  and  N5_18 
REMARK    3  A    between atoms: N5_18  and  C9_20 
ROOT
HETATM    1  C4  UNL     1       1.148  -0.278   0.535  1.00  0.00     0.107 C 
HETATM    2  C5  UNL     1       1.387   0.187   1.963  1.00  0.00     0.028 C 
HETATM    3  C6  UNL     1       0.610  -0.870   2.722  1.00  0.00     0.022 C 
HETATM    4  C7  UNL     1      -0.354  -1.485   1.689  1.00  0.00     0.128 C 
HETATM    5  N4  UNL     1      -0.270  -0.554   0.593  1.00  0.00    -0.328 N 
HETATM    6  C8  UNL     1      -1.356  -0.092  -0.167  1.00  0.00     0.319 C 
HETATM    7  O1  UNL     1      -1.222   0.736  -1.130  1.00  0.00    -0.247 OA
HETATM    8  N5  UNL     1      -2.672  -0.524   0.098  1.00  0.00    -0.335 N 
ATOM      9  H5  UNL     1      -2.820  -1.185   0.860  1.00  0.00     0.165 HD
ENDROOT
BRANCH   1  10
HETATM   10  C3  UNL     1       1.538   0.737  -0.480  1.00  0.00     0.163 C 
BRANCH  10  11
HETATM   11  N3  UNL     1       2.947   1.007  -0.316  1.00  0.00    -0.225 N 
HETATM   12  C2  UNL     1       4.002   0.119  -0.598  1.00  0.00     0.667 C 
HETATM   13  N1  UNL     1       4.776   0.383  -1.777  1.00  0.00    -0.231 N 
HETATM   14  N2  UNL     1       4.355  -0.906   0.081  1.00  0.00    -0.235 N 
HETATM   15  C1  UNL     1       6.034   1.106  -1.661  1.00  0.00     0.165 C 
ATOM     16  H1  UNL     1       4.447   0.067  -2.689  1.00  0.00     0.177 HD
ATOM     17  H22 UNL     1       5.120  -1.550  -0.123  1.00  0.00     0.174 HD
ATOM     18  H21 UNL     1       3.805  -1.094   0.919  1.00  0.00     0.174 HD
ATOM     19  H3  UNL     1       3.202   1.929   0.038  1.00  0.00     0.177 HD
ENDBRANCH  10  11
ENDBRANCH   1  10
BRANCH   8  20
HETATM   20  C9  UNL     1      -3.827  -0.076  -0.658  1.00  0.00     0.023 C 
HETATM   21  C10 UNL     1      -3.708  -0.435  -2.131  1.00  0.00     0.037 C 
HETATM   22  C11 UNL     1      -4.006   1.424  -0.570  1.00  0.00     0.037 C 
HETATM   23  C12 UNL     1      -5.084  -0.736  -0.138  1.00  0.00     0.037 C 
ENDBRANCH   8  20
TORSDOF 3
