REMARK  2 active torsions:
REMARK  status: ('A' for Active; 'I' for Inactive)
REMARK       I    between atoms: C1_4  and  N3_6 
REMARK       I    between atoms: C2_8  and  N4_9 
REMARK       I    between atoms: C2_8  and  N7_18 
REMARK    1  A    between atoms: N4_9  and  N5_11 
REMARK    2  A    between atoms: C3_13  and  N6_14 
ROOT
HETATM    1  N1  UNL     1       2.564   2.120   2.224  1.00  0.00    -0.373 N 
ATOM      2  H11 UNL     1       2.259   1.298   2.745  1.00  0.00     0.158 HD
ATOM      3  H12 UNL     1       3.495   2.482   2.431  1.00  0.00     0.158 HD
HETATM    4  C1  UNL     1       1.770   2.638   1.356  1.00  0.00     0.200 C 
HETATM    5  N2  UNL     1       2.200   3.799   0.620  1.00  0.00    -0.063 NA
HETATM    6  N3  UNL     1       0.491   2.141   1.071  1.00  0.00    -0.163 N 
ATOM      7  H3  UNL     1      -0.302   2.748   1.276  1.00  0.00     0.187 HD
HETATM    8  C2  UNL     1       0.232   0.980   0.571  1.00  0.00     0.697 C 
HETATM    9  N4  UNL     1      -1.126   0.662   0.356  1.00  0.00    -0.131 N 
ATOM     10  H4  UNL     1      -1.501   0.638  -0.592  1.00  0.00     0.205 HD
HETATM   11  N7  UNL     1       1.254   0.057   0.247  1.00  0.00    -0.216 N 
HETATM   12  C7  UNL     1       1.516  -1.109   1.078  1.00  0.00     0.141 C 
HETATM   13  C8  UNL     1       1.983  -2.267   0.228  1.00  0.00     0.020 C 
HETATM   14  C9  UNL     1       3.322  -1.913  -0.396  1.00  0.00     0.003 C 
HETATM   15  C10 UNL     1       3.445  -0.427  -0.564  1.00  0.00     0.020 C 
HETATM   16  C11 UNL     1       2.104   0.209  -0.927  1.00  0.00     0.141 C 
ENDROOT
BRANCH   9  17
HETATM   17  N5  UNL     1      -1.946   0.384   1.432  1.00  0.00    -0.282 N 
HETATM   18  C3  UNL     1      -3.128  -0.079   1.216  1.00  0.00     0.195 C 
ATOM     19  H5  UNL     1      -1.620   0.543   2.385  1.00  0.00     0.188 HD
BRANCH  18  20
HETATM   20  N6  UNL     1      -3.660  -0.328  -0.065  1.00  0.00    -0.376 N 
HETATM   21  C4  UNL     1      -3.524  -1.361  -1.062  1.00  0.00     0.125 C 
HETATM   22  C5  UNL     1      -4.959  -1.026  -1.485  1.00  0.00     0.040 C 
HETATM   23  C6  UNL     1      -4.579   0.340  -0.952  1.00  0.00     0.125 C 
ENDBRANCH  18  20
ENDBRANCH   9  17
TORSDOF 2
