REMARK  5 active torsions:
REMARK  status: ('A' for Active; 'I' for Inactive)
REMARK       I    between atoms: N1_2  and  C2_4 
REMARK    1  A    between atoms: C2_4  and  C3_6 
REMARK    2  A    between atoms: C3_6  and  N2_7 
REMARK    3  A    between atoms: N2_7  and  C4_9 
REMARK    4  A    between atoms: C6_14  and  C12_24 
REMARK    5  A    between atoms: C10_18  and  N4_19 
ROOT
HETATM    1  C3  UNL     1       0.609   0.135  -0.391  1.00  0.00     0.121 C 
HETATM    2  C6  UNL     1      -0.576   0.205  -1.399  1.00  0.00     0.029 C 
HETATM    3  C7  UNL     1      -1.430   1.281  -0.784  1.00  0.00     0.013 C 
HETATM    4  C8  UNL     1      -1.341   0.968   0.675  1.00  0.00    -0.004 C 
HETATM    5  C9  UNL     1      -2.586   0.192   1.110  1.00  0.00     0.044 C 
HETATM    6  C10 UNL     1      -2.416  -1.171   0.544  1.00  0.00     0.129 C 
HETATM    7  C11 UNL     1      -2.632  -1.277  -0.953  1.00  0.00     0.044 C 
HETATM    8  C12 UNL     1      -1.148  -1.163  -1.142  1.00  0.00     0.002 C 
HETATM    9  C13 UNL     1      -0.961  -1.340   0.349  1.00  0.00     0.033 C 
HETATM   10  C14 UNL     1      -0.253  -0.060   0.801  1.00  0.00     0.035 C 
ENDROOT
BRANCH   1  11
HETATM   11  C2  UNL     1       1.459   1.318  -0.479  1.00  0.00     0.246 C 
HETATM   12  N1  UNL     1       1.460   2.508   0.223  1.00  0.00    -0.363 N 
HETATM   13  C1  UNL     1       2.449   3.555  -0.084  1.00  0.00     0.149 C 
ATOM     14  H1  UNL     1       0.771   2.662   0.959  1.00  0.00     0.162 HD
HETATM   15  O1  UNL     1       2.385   1.223  -1.385  1.00  0.00    -0.271 OA
ENDBRANCH   1  11
BRANCH   1  16
HETATM   16  N2  UNL     1       1.405  -1.046  -0.754  1.00  0.00    -0.362 N 
ATOM     17  H2  UNL     1       1.112  -1.587  -1.567  1.00  0.00     0.162 HD
BRANCH  16  18
HETATM   18  C4  UNL     1       2.543  -1.478  -0.054  1.00  0.00     0.067 C 
HETATM   19  C5  UNL     1       3.131  -0.829   1.145  1.00  0.00     0.088 C 
HETATM   20  N3  UNL     1       3.195  -2.523  -0.430  1.00  0.00    -0.389 N 
ATOM     21  H32 UNL     1       2.791  -2.969  -1.254  1.00  0.00     0.157 HD
ATOM     22  H31 UNL     1       4.022  -2.837   0.078  1.00  0.00     0.157 HD
ENDBRANCH  16  18
ENDBRANCH   1  16
BRANCH   6  23
HETATM   23  N4  UNL     1      -2.980  -2.267   1.314  1.00  0.00    -0.070 N 
ATOM     24  H43 UNL     1      -2.614  -2.242   2.266  1.00  0.00     0.275 HD
ATOM     25  H42 UNL     1      -3.969  -2.089   1.491  1.00  0.00     0.275 HD
ATOM     26  H41 UNL     1      -2.863  -3.203   0.925  1.00  0.00     0.275 HD
ENDBRANCH   6  23
TORSDOF 5
