REMARK  3 active torsions:
REMARK  status: ('A' for Active; 'I' for Inactive)
REMARK       I    between atoms: C1_4  and  N2_5 
REMARK       I    between atoms: C1_4  and  N3_12 
REMARK    1  A    between atoms: N2_5  and  C2_7 
REMARK    2  A    between atoms: C2_7  and  C3_8 
REMARK    3  A    between atoms: N3_12  and  N4_14 
REMARK       I    between atoms: N4_14  and  C5_16 
REMARK       I    between atoms: C5_16  and  N5_18 
ROOT
HETATM    1  C3  UNL     1       6.371   0.723   0.467  1.00  0.00    -0.056 C 
HETATM    2  C4  UNL     1       7.557   0.907   0.344  1.00  0.00     0.053 C 
HETATM    3  O1  UNL     1       8.916   1.122   0.227  1.00  0.00    -0.314 OA
ATOM      4  H1  UNL     1       9.850   1.267   0.130  1.00  0.00     0.230 HD
ENDROOT
BRANCH   1   5
HETATM    5  C2  UNL     1       4.936   0.489   0.647  1.00  0.00     0.235 C 
BRANCH   5   6
HETATM    6  N2  UNL     1       4.326  -0.139  -0.529  1.00  0.00    -0.215 N 
HETATM    7  C1  UNL     1       2.963  -0.522  -0.481  1.00  0.00     0.687 C 
HETATM    8  N1  UNL     1       2.588  -1.222   0.556  1.00  0.00    -0.234 N 
HETATM    9  N3  UNL     1       2.011  -0.201  -1.459  1.00  0.00    -0.129 N 
ATOM     10  H12 UNL     1       3.281  -1.456   1.267  1.00  0.00     0.174 HD
ATOM     11  H11 UNL     1       1.607  -1.498   0.591  1.00  0.00     0.174 HD
ATOM     12  H3  UNL     1       2.271  -0.270  -2.443  1.00  0.00     0.205 HD
ATOM     13  H2  UNL     1       4.877  -0.298  -1.372  1.00  0.00     0.178 HD
BRANCH   9  14
HETATM   14  N4  UNL     1       0.724   0.208  -1.130  1.00  0.00    -0.237 N 
HETATM   15  C5  UNL     1      -0.247  -0.748  -0.711  1.00  0.00     0.337 C 
HETATM   16  O2  UNL     1       0.021  -1.976  -0.632  1.00  0.00    -0.245 OA
HETATM   17  N5  UNL     1      -1.578  -0.348  -0.355  1.00  0.00    -0.333 N 
HETATM   18  C6  UNL     1      -1.826   1.061  -0.514  1.00  0.00     0.127 C 
HETATM   19  C11 UNL     1      -2.403  -1.446   0.106  1.00  0.00     0.127 C 
HETATM   20  C7  UNL     1      -3.189   1.500  -0.080  1.00  0.00     0.020 C 
HETATM   21  C8  UNL     1      -4.265   0.487  -0.279  1.00  0.00     0.002 C 
HETATM   22  C9  UNL     1      -4.431  -0.397   0.963  1.00  0.00     0.002 C 
HETATM   23  C10 UNL     1      -3.112  -0.985   1.368  1.00  0.00     0.020 C 
ATOM     24  H4  UNL     1       0.474   1.195  -1.189  1.00  0.00     0.192 HD
ENDBRANCH   9  14
ENDBRANCH   5   6
ENDBRANCH   1   5
TORSDOF 3
