REMARK  22 active torsions:
REMARK  status: ('A' for Active; 'I' for Inactive)
REMARK    1  A    between atoms: O1_2  and  N1_3 
REMARK    2  A    between atoms: C3_6  and  C4_7 
REMARK    3  A    between atoms: C4_7  and  C5_8 
REMARK    4  A    between atoms: C8_18  and  C9_19 
REMARK    5  A    between atoms: C9_19  and  C10_20 
REMARK       I    between atoms: C10_20  and  N5_22 
REMARK    6  A    between atoms: N5_22  and  C11_23 
REMARK    7  A    between atoms: C11_23  and  C12_24 
REMARK    8  A    between atoms: C12_24  and  C13_25 
REMARK    9  A    between atoms: C13_25  and  C14_26 
REMARK   10  A    between atoms: C14_26  and  C15_27 
REMARK   11  A    between atoms: C15_27  and  N6_28 
REMARK   12  A    between atoms: N6_28  and  C16_29 
REMARK   13  A    between atoms: N6_28  and  C19_35 
REMARK   14  A    between atoms: C16_29  and  C17_30 
REMARK   15  A    between atoms: C17_30  and  N7_31 
REMARK       I    between atoms: N7_31  and  C18_32 
REMARK   16  A    between atoms: C19_35  and  O5_36 
REMARK   17  A    between atoms: C19_35  and  C20_38 
REMARK   18  A    between atoms: C20_38  and  C21_39 
REMARK   19  A    between atoms: C21_39  and  C22_40 
REMARK   20  A    between atoms: C22_40  and  C23_41 
REMARK   21  A    between atoms: C23_41  and  C24_42 
REMARK   22  A    between atoms: C24_42  and  N10_43 
REMARK       I    between atoms: N10_43  and  C25_45 
ROOT
HETATM    1  C13 UNL     1      -0.070   1.914  -0.044  1.00  0.00     0.008 C 
ENDROOT
BRANCH   1   2
HETATM    2  C12 UNL     1       0.813   2.469  -1.163  1.00  0.00     0.060 C 
BRANCH   2   3
HETATM    3  C11 UNL     1       1.543   1.402  -1.906  1.00  0.00     0.159 C 
BRANCH   3   4
HETATM    4  N5  UNL     1       2.551   0.732  -1.269  1.00  0.00    -0.388 NA
HETATM    5  C10 UNL     1       3.539   0.065  -0.628  1.00  0.00     0.293 C 
HETATM    6  O4  UNL     1       3.449  -0.603   0.455  1.00  0.00    -0.257 OA
BRANCH   5   7
HETATM    7  C9  UNL     1       4.935   0.078  -1.282  1.00  0.00     0.157 C 
BRANCH   7   8
HETATM    8  C8  UNL     1       5.874  -0.776  -0.544  1.00  0.00     0.219 C 
HETATM    9  N1  UNL     1       6.244  -0.399   0.803  1.00  0.00    -0.210 N 
HETATM   10  C2  UNL     1       7.323  -1.180   1.374  1.00  0.00     0.267 C 
HETATM   11  O2  UNL     1       7.710  -0.981   2.586  1.00  0.00    -0.269 OA
HETATM   12  C3  UNL     1       8.055  -2.241   0.679  1.00  0.00     0.184 C 
HETATM   13  N4  UNL     1       8.002  -2.061  -0.753  1.00  0.00    -0.345 N 
HETATM   14  C7  UNL     1       7.112  -1.053  -1.281  1.00  0.00     0.244 C 
ATOM     15  H4  UNL     1       8.577  -2.630  -1.374  1.00  0.00     0.163 HD
HETATM   16  O3  UNL     1       7.461  -0.467  -2.354  1.00  0.00    -0.271 OA
BRANCH   9  17
HETATM   17  O1  UNL     1       5.730   0.590   1.505  1.00  0.00    -0.279 OA
HETATM   18  C1  UNL     1       6.569   1.699   1.664  1.00  0.00     0.238 C 
ENDBRANCH   9  17
BRANCH  12  19
HETATM   19  C4  UNL     1       9.554  -2.147   1.034  1.00  0.00     0.095 C 
BRANCH  19  20
HETATM   20  C5  UNL     1      10.081  -0.836   0.572  1.00  0.00     0.045 A 
HETATM   21  C6  UNL     1      10.194   0.425   1.021  1.00  0.00     0.133 A 
HETATM   22  N2  UNL     1      10.776   0.801  -0.083  1.00  0.00    -0.310 N 
HETATM   23  N3  UNL     1      10.680  -0.423  -0.541  1.00  0.00    -0.304 N 
ATOM     24  H2  UNL     1      11.150   1.680  -0.441  1.00  0.00     0.186 HD
ATOM     25  H3  UNL     1      10.956  -0.880  -1.410  1.00  0.00     0.186 HD
ENDBRANCH  19  20
ENDBRANCH  12  19
ENDBRANCH   7   8
ENDBRANCH   5   7
ENDBRANCH   3   4
ENDBRANCH   2   3
ENDBRANCH   1   2
BRANCH   1  26
HETATM   26  C14 UNL     1      -1.034   0.921  -0.617  1.00  0.00     0.020 C 
BRANCH  26  27
HETATM   27  C15 UNL     1      -2.047   0.489   0.449  1.00  0.00     0.125 C 
BRANCH  27  28
HETATM   28  N6  UNL     1      -2.843  -0.601  -0.156  1.00  0.00    -0.360 N 
BRANCH  28  29
HETATM   29  C16 UNL     1      -2.327  -1.934   0.213  1.00  0.00     0.184 C 
BRANCH  29  30
HETATM   30  C17 UNL     1      -3.053  -2.500   1.445  1.00  0.00     0.178 C 
BRANCH  30  31
HETATM   31  N7  UNL     1      -4.321  -2.872   1.291  1.00  0.00    -0.392 NA
HETATM   32  C18 UNL     1      -5.482  -3.149   1.207  1.00  0.00     0.274 C 
HETATM   33  N8  UNL     1      -5.969  -4.210   0.329  1.00  0.00    -0.052 NA
HETATM   34  N9  UNL     1      -6.539  -2.479   1.941  1.00  0.00    -0.052 NA
ENDBRANCH  30  31
ENDBRANCH  29  30
ENDBRANCH  28  29
BRANCH  28  35
HETATM   35  C19 UNL     1      -3.931  -0.383  -0.966  1.00  0.00     0.113 C 
BRANCH  35  36
HETATM   36  O5  UNL     1      -4.457  -1.509  -1.468  1.00  0.00    -0.349 OA
ATOM     37  H5  UNL     1      -5.209  -1.358  -2.028  1.00  0.00     0.219 HD
ENDBRANCH  35  36
BRANCH  35  38
HETATM   38  C20 UNL     1      -4.608   0.818  -1.389  1.00  0.00     0.084 C 
BRANCH  38  39
HETATM   39  C21 UNL     1      -5.230   1.654  -0.329  1.00  0.00     0.008 C 
BRANCH  39  40
HETATM   40  C22 UNL     1      -6.055   0.847   0.610  1.00  0.00     0.002 C 
BRANCH  40  41
HETATM   41  C23 UNL     1      -6.735   1.740   1.596  1.00  0.00     0.020 C 
BRANCH  41  42
HETATM   42  C24 UNL     1      -7.773   2.654   0.988  1.00  0.00     0.122 C 
BRANCH  42  43
HETATM   43  N10 UNL     1      -8.911   1.996   0.418  1.00  0.00    -0.365 N 
HETATM   44  C25 UNL     1      -9.016   1.171  -0.706  1.00  0.00     0.181 C 
HETATM   45  N11 UNL     1      -8.680   1.481  -1.867  1.00  0.00    -0.374 N 
HETATM   46  N12 UNL     1      -9.580  -0.150  -0.486  1.00  0.00    -0.064 NA
ATOM     47 2H11 UNL     1      -8.284   2.408  -2.021  1.00  0.00     0.158 HD
ATOM     48 1H11 UNL     1      -8.757   0.879  -2.687  1.00  0.00     0.158 HD
ATOM     49  H10 UNL     1      -9.788   2.156   0.913  1.00  0.00     0.162 HD
ENDBRANCH  42  43
ENDBRANCH  41  42
ENDBRANCH  40  41
ENDBRANCH  39  40
ENDBRANCH  38  39
ENDBRANCH  35  38
ENDBRANCH  28  35
ENDBRANCH  27  28
ENDBRANCH  26  27
ENDBRANCH   1  26
TORSDOF 22
