REMARK  8 active torsions:
REMARK  status: ('A' for Active; 'I' for Inactive)
REMARK    1  A    between atoms: N1_1  and  C1_4 
REMARK    2  A    between atoms: C4_9  and  N3_10 
REMARK    3  A    between atoms: N3_10  and  C5_12 
REMARK    4  A    between atoms: C5_12  and  C6_13 
REMARK    5  A    between atoms: C6_13  and  O1_14 
REMARK    6  A    between atoms: O1_14  and  C7_15 
REMARK    7  A    between atoms: C7_15  and  C8_16 
REMARK    8  A    between atoms: C8_16  and  N4_17 
ROOT
HETATM    1  C1  UNL     1       4.074   0.626   0.397  1.00  0.00     0.677 A 
HETATM    2  N2  UNL     1       4.289  -0.356  -0.484  1.00  0.00    -0.202 N 
ATOM      3  H2  UNL     1       5.245  -0.510  -0.805  1.00  0.00     0.183 HD
HETATM    4  C2  UNL     1       3.331  -1.147  -0.969  1.00  0.00     0.110 A 
HETATM    5  C3  UNL     1       2.025  -0.934  -0.528  1.00  0.00     0.066 A 
HETATM    6  C4  UNL     1       1.782   0.062   0.369  1.00  0.00     0.118 A 
HETATM    7  N5  UNL     1       2.811   0.809   0.803  1.00  0.00    -0.177 N 
ATOM      8  H5  UNL     1       2.621   1.552   1.475  1.00  0.00     0.185 HD
ENDROOT
BRANCH   6   9
HETATM    9  N3  UNL     1       0.628   0.311   0.811  1.00  0.00    -0.374 N 
ATOM     10  H3  UNL     1       0.511   1.070   1.483  1.00  0.00     0.161 HD
BRANCH   9  11
HETATM   11  C5  UNL     1      -0.528  -0.436   0.402  1.00  0.00     0.147 C 
BRANCH  11  12
HETATM   12  C6  UNL     1      -1.080   0.169  -0.854  1.00  0.00     0.187 C 
BRANCH  12  13
HETATM   13  O1  UNL     1      -2.179  -0.513  -1.282  1.00  0.00    -0.388 OA
BRANCH  13  14
HETATM   14  C7  UNL     1      -3.211  -0.544  -0.393  1.00  0.00     0.195 C 
BRANCH  14  15
HETATM   15  C8  UNL     1      -3.692   0.874  -0.054  1.00  0.00     0.255 C 
BRANCH  15  16
HETATM   16  N4  UNL     1      -4.794   0.658   0.902  1.00  0.00    -0.077 N 
ATOM     17  H43 UNL     1      -5.528   0.036   0.563  1.00  0.00     0.274 HD
ATOM     18  H42 UNL     1      -4.540   0.096   1.714  1.00  0.00     0.274 HD
ATOM     19  H41 UNL     1      -5.114   1.600   1.127  1.00  0.00     0.274 HD
ENDBRANCH  15  16
ENDBRANCH  14  15
ENDBRANCH  13  14
ENDBRANCH  12  13
ENDBRANCH  11  12
ENDBRANCH   9  11
ENDBRANCH   6   9
BRANCH   1  20
HETATM   20  N1  UNL     1       5.057   1.333   0.806  1.00  0.00    -0.234 N 
ATOM     21  H12 UNL     1       6.019   1.194   0.497  1.00  0.00     0.174 HD
ATOM     22  H11 UNL     1       4.893   2.082   1.478  1.00  0.00     0.174 HD
ENDBRANCH   1  20
TORSDOF 8
