REMARK  9 active torsions:
REMARK  status: ('A' for Active; 'I' for Inactive)
REMARK    1  A    between atoms: N1_1  and  C1_5 
REMARK    2  A    between atoms: C1_5  and  O1_6 
REMARK    3  A    between atoms: C1_5  and  C2_8 
REMARK    4  A    between atoms: C2_8  and  O2_9 
REMARK    5  A    between atoms: C3_11  and  N2_12 
REMARK    6  A    between atoms: C8_22  and  C9_23 
REMARK    7  A    between atoms: C9_23  and  O6_24 
REMARK    8  A    between atoms: C10_26  and  O7_27 
REMARK    9  A    between atoms: C10_26  and  C11_29 
ROOT
HETATM    1  C2  UNL     1      -0.460  -0.872  -0.091  1.00  0.00     0.197 C 
HETATM    2  C3  UNL     1       0.571  -0.219  -0.922  1.00  0.00     0.275 C 
HETATM    3  O5  UNL     1       0.070   1.091  -1.155  1.00  0.00    -0.352 OA
HETATM    4  C8  UNL     1      -0.641   1.405  -0.002  1.00  0.00     0.196 C 
HETATM    5  C10 UNL     1      -1.521   0.212   0.120  1.00  0.00     0.213 C 
ENDROOT
BRANCH   1   6
HETATM    6  C1  UNL     1      -1.043  -2.149  -0.566  1.00  0.00     0.359 C 
BRANCH   6   7
HETATM    7  N1  UNL     1      -2.098  -2.609   0.322  1.00  0.00    -0.050 N 
ATOM      8  H13 UNL     1      -2.976  -2.112   0.170  1.00  0.00     0.277 HD
ATOM      9  H12 UNL     1      -2.421  -3.547   0.086  1.00  0.00     0.277 HD
ATOM     10  H11 UNL     1      -1.776  -2.541   1.288  1.00  0.00     0.277 HD
ENDBRANCH   6   7
BRANCH   6  11
HETATM   11  O1  UNL     1      -1.471  -2.239  -1.851  1.00  0.00    -0.367 OA
ATOM     12  H1  UNL     1      -0.782  -1.938  -2.431  1.00  0.00     0.212 HD
ENDBRANCH   6  11
ENDBRANCH   1   6
BRANCH   1  13
HETATM   13  O2  UNL     1       0.104  -1.119   1.176  1.00  0.00    -0.378 OA
ATOM     14  H2  UNL     1       0.478  -0.300   1.480  1.00  0.00     0.211 HD
ENDBRANCH   1  13
BRANCH   2  15
HETATM   15  N2  UNL     1       1.881  -0.007  -0.362  1.00  0.00    -0.279 N 
HETATM   16  C4  UNL     1       2.403   1.232  -0.140  1.00  0.00     0.104 A 
HETATM   17  C5  UNL     1       3.636   1.472   0.382  1.00  0.00     0.092 A 
HETATM   18  C6  UNL     1       4.431   0.413   0.717  1.00  0.00     0.250 A 
HETATM   19  O3  UNL     1       5.581   0.611   1.204  1.00  0.00    -0.268 OA
HETATM   20  N3  UNL     1       3.933  -0.807   0.504  1.00  0.00    -0.275 N 
HETATM   21  C7  UNL     1       2.692  -1.022  -0.021  1.00  0.00     0.331 A 
ATOM     22  H3  UNL     1       4.506  -1.616   0.745  1.00  0.00     0.173 HD
HETATM   23  O4  UNL     1       2.391  -2.234  -0.153  1.00  0.00    -0.246 OA
ENDBRANCH   2  15
BRANCH   5  24
HETATM   24  O7  UNL     1      -1.945   0.103   1.444  1.00  0.00    -0.374 OA
ATOM     25  H7  UNL     1      -2.603   0.775   1.575  1.00  0.00     0.211 HD
ENDBRANCH   5  24
BRANCH   5  26
HETATM   26  C11 UNL     1      -2.636   0.185  -0.814  1.00  0.00     0.215 C 
HETATM   27  O8  UNL     1      -2.552   0.356  -2.055  1.00  0.00    -0.646 OA
HETATM   28  O9  UNL     1      -3.922  -0.047  -0.314  1.00  0.00    -0.646 OA
ENDBRANCH   5  26
BRANCH   4  29
HETATM   29  C9  UNL     1      -1.343   2.710  -0.140  1.00  0.00     0.199 C 
BRANCH  29  30
HETATM   30  O6  UNL     1      -2.042   2.994   1.028  1.00  0.00    -0.398 OA
ATOM     31  H6  UNL     1      -2.490   3.827   0.940  1.00  0.00     0.209 HD
ENDBRANCH  29  30
ENDBRANCH   4  29
TORSDOF 9
