REMARK  5 active torsions:
REMARK  status: ('A' for Active; 'I' for Inactive)
REMARK    1  A    between atoms: C2_2  and  C3_3 
REMARK    2  A    between atoms: C2_2  and  C9_9 
REMARK    3  A    between atoms: C14_14  and  N1_15 
REMARK    4  A    between atoms: N1_15  and  C15_17 
REMARK    5  A    between atoms: C15_17  and  C16_18 
ROOT
HETATM    1  C9  UNL     1      -1.209  -1.217   0.779  1.00  0.00     0.001 A 
HETATM    2  C10 UNL     1      -2.090  -2.294   0.987  1.00  0.00     0.014 A 
HETATM    3  C11 UNL     1      -1.660  -3.592   0.818  1.00  0.00     0.001 A 
HETATM    4  C12 UNL     1      -0.357  -3.830   0.443  1.00  0.00     0.002 A 
HETATM    5  C13 UNL     1       0.513  -2.784   0.236  1.00  0.00     0.030 A 
HETATM    6  C14 UNL     1       0.076  -1.457   0.407  1.00  0.00     0.039 A 
ENDROOT
BRANCH   6   7
HETATM    7  N1  UNL     1       0.973  -0.395   0.151  1.00  0.00    -0.385 N 
ATOM      8  H1  UNL     1       0.674   0.579   0.197  1.00  0.00     0.160 HD
BRANCH   7   9
HETATM    9  C15 UNL     1       2.343  -0.756  -0.182  1.00  0.00     0.158 C 
BRANCH   9  10
HETATM   10  C16 UNL     1       3.231   0.369  -0.457  1.00  0.00    -0.041 A 
HETATM   11  C17 UNL     1       2.852   1.659  -0.708  1.00  0.00     0.009 A 
HETATM   12  C18 UNL     1       3.796   2.657  -0.953  1.00  0.00     0.001 A 
HETATM   13  C19 UNL     1       5.131   2.333  -0.940  1.00  0.00     0.000 A 
HETATM   14  C20 UNL     1       5.557   1.045  -0.691  1.00  0.00     0.001 A 
HETATM   15  C21 UNL     1       4.604   0.085  -0.454  1.00  0.00     0.009 A 
ENDBRANCH   9  10
ENDBRANCH   7   9
ENDBRANCH   6   7
BRANCH   1  16
HETATM   16  C2  UNL     1      -1.704   0.136   0.967  1.00  0.00    -0.023 C 
HETATM   17  C1  UNL     1      -1.176   0.859   1.904  1.00  0.00     0.025 C 
BRANCH  16  18
HETATM   18  C3  UNL     1      -2.767   0.618   0.101  1.00  0.00    -0.026 A 
HETATM   19  C4  UNL     1      -3.414   1.794   0.370  1.00  0.00     0.012 A 
HETATM   20  C5  UNL     1      -4.428   2.264  -0.470  1.00  0.00     0.001 A 
HETATM   21  C6  UNL     1      -4.802   1.557  -1.589  1.00  0.00     0.000 A 
HETATM   22  C7  UNL     1      -4.157   0.380  -1.862  1.00  0.00     0.001 A 
HETATM   23  C8  UNL     1      -3.162  -0.070  -1.028  1.00  0.00     0.012 A 
ENDBRANCH  16  18
ENDBRANCH   1  16
TORSDOF 5
