REMARK  9 active torsions:
REMARK  status: ('A' for Active; 'I' for Inactive)
REMARK    1  A    between atoms: C2_2  and  C3_3 
REMARK    2  A    between atoms: C3_3  and  N1_4 
REMARK    3  A    between atoms: C11_12  and  C12_13 
REMARK    4  A    between atoms: C12_13  and  O1_14 
REMARK    5  A    between atoms: N2_17  and  C15_18 
REMARK    6  A    between atoms: C16_20  and  C17_21 
REMARK    7  A    between atoms: C17_21  and  O3_22 
REMARK    8  A    between atoms: C18_24  and  O4_25 
REMARK    9  A    between atoms: C22_30  and  O5_31 
ROOT
HETATM    1  N1  UNL     1       2.775  -1.436  -0.948  1.00  0.00    -0.336 N 
HETATM    2  C4  UNL     1       1.458  -1.199  -0.585  1.00  0.00     0.107 A 
HETATM    3  C5  UNL     1       1.275   0.120  -0.417  1.00  0.00     0.022 A 
HETATM    4  C6  UNL     1       2.531   0.724  -0.688  1.00  0.00     0.035 A 
HETATM    5  C7  UNL     1       2.705   2.079  -0.528  1.00  0.00    -0.046 A 
HETATM    6  C8  UNL     1       3.985   2.734  -0.876  1.00  0.00     0.049 C 
HETATM    7  C9  UNL     1       1.638   2.807  -0.086  1.00  0.00     0.022 A 
HETATM    8  C10 UNL     1       0.412   2.203   0.179  1.00  0.00     0.002 A 
HETATM    9  C11 UNL     1      -0.756   2.814   0.691  1.00  0.00    -0.006 A 
HETATM   10  C14 UNL     1      -1.616   1.775   0.801  1.00  0.00     0.104 A 
HETATM   11  N2  UNL     1      -1.067   0.582   0.394  1.00  0.00    -0.327 N 
HETATM   12  C21 UNL     1       0.210   0.875   0.015  1.00  0.00     0.060 A 
HETATM   13  C22 UNL     1       3.415  -0.296  -1.015  1.00  0.00     0.154 A 
ENDROOT
BRANCH  11  14
HETATM   14  C15 UNL     1      -1.761  -0.650   0.168  1.00  0.00     0.234 C 
HETATM   15  O2  UNL     1      -2.216  -1.399   1.202  1.00  0.00    -0.356 OA
HETATM   16  C16 UNL     1      -3.130  -2.306   0.574  1.00  0.00     0.176 C 
HETATM   17  C18 UNL     1      -4.068  -1.207   0.002  1.00  0.00     0.157 C 
HETATM   18  C19 UNL     1      -3.056  -0.320  -0.660  1.00  0.00     0.062 C 
HETATM   19  C20 UNL     1      -2.900  -0.738  -2.097  1.00  0.00     0.017 C 
BRANCH  16  20
HETATM   20  C17 UNL     1      -3.839  -3.158   1.564  1.00  0.00     0.198 C 
BRANCH  20  21
HETATM   21  O3  UNL     1      -4.675  -4.127   0.972  1.00  0.00    -0.398 OA
ATOM     22  H3  UNL     1      -5.128  -4.672   1.605  1.00  0.00     0.209 HD
ENDBRANCH  20  21
ENDBRANCH  16  20
BRANCH  17  23
HETATM   23  O4  UNL     1      -4.699  -0.548   1.071  1.00  0.00    -0.392 OA
ATOM     24  H4  UNL     1      -5.272   0.124   0.721  1.00  0.00     0.210 HD
ENDBRANCH  17  23
ENDBRANCH  11  14
BRANCH   9  25
HETATM   25  C12 UNL     1      -0.825   4.281   0.767  1.00  0.00     0.208 C 
BRANCH  25  26
HETATM   26  O1  UNL     1      -1.241   4.911   1.892  1.00  0.00    -0.391 OA
HETATM   27  C13 UNL     1      -0.966   6.319   1.623  1.00  0.00     0.201 C 
ENDBRANCH  25  26
ENDBRANCH   9  25
BRANCH   1  28
HETATM   28  C3  UNL     1       3.217  -2.818  -1.082  1.00  0.00     0.130 C 
BRANCH  28  29
HETATM   29  C2  UNL     1       3.449  -3.265   0.394  1.00  0.00     0.016 C 
HETATM   30  C1  UNL     1       3.645  -4.743   0.469  1.00  0.00     0.006 C 
ENDBRANCH  28  29
ENDBRANCH   1  28
BRANCH  13  31
HETATM   31  O5  UNL     1       4.760  -0.083  -1.353  1.00  0.00    -0.345 OA
ATOM     32  H5  UNL     1       5.224   0.744  -1.402  1.00  0.00     0.219 HD
ENDBRANCH  13  31
TORSDOF 9
