REMARK  13 active torsions:
REMARK  status: ('A' for Active; 'I' for Inactive)
REMARK       I    between atoms: N1_3  and  C3_5 
REMARK       I    between atoms: C3_5  and  N5_32 
REMARK    1  A    between atoms: N2_6  and  C4_8 
REMARK    2  A    between atoms: C4_8  and  C5_9 
REMARK    3  A    between atoms: C5_9  and  C6_10 
REMARK    4  A    between atoms: C6_10  and  C7_11 
REMARK    5  A    between atoms: C7_11  and  N3_12 
REMARK    6  A    between atoms: C7_11  and  C17_24 
REMARK       I    between atoms: N3_12  and  C8_14 
REMARK    7  A    between atoms: C8_14  and  C9_16 
REMARK    8  A    between atoms: C9_16  and  C10_17 
REMARK    9  A    between atoms: C10_17  and  C11_18 
REMARK   10  A    between atoms: N4_28  and  C21_29 
REMARK   11  A    between atoms: N5_32  and  C24_34 
REMARK   12  A    between atoms: C24_34  and  C27_37 
REMARK   13  A    between atoms: C27_37  and  O2_38 
ROOT
HETATM    1  C7  UNL     1       1.372   0.656  -0.604  1.00  0.00     0.119 C 
ENDROOT
BRANCH   1   2
HETATM    2  C6  UNL     1       0.030   0.048  -0.893  1.00  0.00     0.032 C 
BRANCH   2   3
HETATM    3  C5  UNL     1      -0.732  -0.355   0.329  1.00  0.00     0.022 C 
BRANCH   3   4
HETATM    4  C4  UNL     1      -2.082  -0.967  -0.056  1.00  0.00     0.138 C 
BRANCH   4   5
HETATM    5  N2  UNL     1      -2.892  -0.036  -0.793  1.00  0.00    -0.226 N 
HETATM    6  C3  UNL     1      -4.045   0.372  -0.388  1.00  0.00     0.674 C 
HETATM    7  N1  UNL     1      -4.857   1.288  -1.101  1.00  0.00    -0.206 N 
HETATM    8  N5  UNL     1      -4.531  -0.129   0.849  1.00  0.00    -0.216 N 
HETATM    9  C2  UNL     1      -5.030   1.254  -2.370  1.00  0.00     0.074 C 
ATOM     10  H1  UNL     1      -5.333   2.019  -0.572  1.00  0.00     0.183 HD
HETATM   11  C1  UNL     1      -4.402   0.247  -3.268  1.00  0.00     0.055 C 
ATOM     12  H5  UNL     1      -4.016   0.112   1.696  1.00  0.00     0.178 HD
ATOM     13  H2  UNL     1      -2.536   0.319  -1.681  1.00  0.00     0.177 HD
BRANCH   8  14
HETATM   14  C24 UNL     1      -5.692  -0.947   0.985  1.00  0.00     0.061 C 
HETATM   15  C25 UNL     1      -6.929  -0.232   0.471  1.00  0.00     0.041 C 
HETATM   16  C26 UNL     1      -5.591  -2.249   0.220  1.00  0.00     0.041 C 
BRANCH  14  17
HETATM   17  C27 UNL     1      -5.920  -1.277   2.441  1.00  0.00     0.194 C 
BRANCH  17  18
HETATM   18  O2  UNL     1      -4.816  -1.961   2.939  1.00  0.00    -0.398 OA
ATOM     19  H2  UNL     1      -4.959  -2.169   3.855  1.00  0.00     0.209 HD
ENDBRANCH  17  18
ENDBRANCH  14  17
ENDBRANCH   8  14
ENDBRANCH   4   5
ENDBRANCH   3   4
ENDBRANCH   2   3
ENDBRANCH   1   2
BRANCH   1  20
HETATM   20  N3  UNL     1       2.246  -0.238   0.112  1.00  0.00    -0.352 N 
HETATM   21  C8  UNL     1       3.441  -0.719  -0.468  1.00  0.00     0.218 C 
HETATM   22  O1  UNL     1       3.740  -0.354  -1.634  1.00  0.00    -0.274 OA
ATOM     23  H3  UNL     1       1.997  -0.530   1.057  1.00  0.00     0.163 HD
BRANCH  21  24
HETATM   24  C9  UNL     1       4.318  -1.634   0.289  1.00  0.00     0.107 C 
BRANCH  24  25
HETATM   25  C10 UNL     1       5.514  -1.981  -0.573  1.00  0.00     0.047 C 
BRANCH  25  26
HETATM   26  C11 UNL     1       6.406  -2.906   0.185  1.00  0.00    -0.058 A 
HETATM   27  C12 UNL     1       7.401  -2.352   0.971  1.00  0.00     0.007 A 
HETATM   28  C13 UNL     1       8.216  -3.232   1.666  1.00  0.00     0.001 A 
HETATM   29  C14 UNL     1       8.070  -4.601   1.600  1.00  0.00     0.000 A 
HETATM   30  C15 UNL     1       7.077  -5.135   0.815  1.00  0.00     0.001 A 
HETATM   31  C16 UNL     1       6.261  -4.272   0.120  1.00  0.00     0.007 A 
ENDBRANCH  25  26
ENDBRANCH  24  25
ENDBRANCH  21  24
ENDBRANCH   1  20
BRANCH   1  32
HETATM   32  C17 UNL     1       1.319   1.949   0.098  1.00  0.00    -0.020 A 
HETATM   33  C18 UNL     1       1.184   1.956   1.461  1.00  0.00     0.012 A 
HETATM   34  C19 UNL     1       1.135   3.162   2.114  1.00  0.00     0.018 A 
HETATM   35  C20 UNL     1       1.224   4.349   1.375  1.00  0.00     0.090 A 
HETATM   36  N4  UNL     1       1.356   4.327   0.043  1.00  0.00    -0.366 N 
HETATM   37  C23 UNL     1       1.403   3.143  -0.588  1.00  0.00     0.099 A 
BRANCH  36  38
HETATM   38  C21 UNL     1       1.446   5.543  -0.696  1.00  0.00     0.123 C 
HETATM   39  C22 UNL     1       0.112   6.079  -1.146  1.00  0.00     0.027 C 
ENDBRANCH  36  38
ENDBRANCH   1  32
TORSDOF 13
