REMARK  16 active torsions:
REMARK  status: ('A' for Active; 'I' for Inactive)
REMARK    1  A    between atoms: C2_2  and  N1_3 
REMARK    2  A    between atoms: N1_3  and  C3_4 
REMARK    3  A    between atoms: N1_3  and  C7_14 
REMARK    4  A    between atoms: N1_3  and  C20_28 
REMARK    5  A    between atoms: C3_4  and  C4_5 
REMARK    6  A    between atoms: C4_5  and  C5_6 
REMARK    7  A    between atoms: C5_6  and  N2_7 
REMARK       I    between atoms: N2_7  and  C6_9 
REMARK    8  A    between atoms: C7_14  and  C8_15 
REMARK    9  A    between atoms: C8_15  and  C9_16 
REMARK   10  A    between atoms: C9_16  and  C10_17 
REMARK   11  A    between atoms: C13_20  and  C14_21 
REMARK   12  A    between atoms: C14_21  and  N5_22 
REMARK   13  A    between atoms: C20_28  and  C21_29 
REMARK   14  A    between atoms: C21_29  and  N6_32 
REMARK   15  A    between atoms: N6_32  and  C24_35 
REMARK   16  A    between atoms: C24_35  and  C25_36 
ROOT
HETATM    1  N1  UNL     1       1.384   1.068   0.071  1.00  0.00    -0.065 N 
ENDROOT
BRANCH   1   2
HETATM    2  C2  UNL     1       0.874   1.132   1.464  1.00  0.00     0.233 C 
HETATM    3  C1  UNL     1       1.915   0.923   2.498  1.00  0.00     0.035 C 
ENDBRANCH   1   2
BRANCH   1   4
HETATM    4  C3  UNL     1       2.124   2.190  -0.293  1.00  0.00     0.239 C 
BRANCH   4   5
HETATM    5  C4  UNL     1       2.013   3.445   0.526  1.00  0.00     0.048 C 
BRANCH   5   6
HETATM    6  C5  UNL     1       2.921   4.527  -0.091  1.00  0.00     0.124 C 
BRANCH   6   7
HETATM    7  N2  UNL     1       2.816   5.729   0.692  1.00  0.00    -0.365 N 
HETATM    8  C6  UNL     1       3.549   6.899   0.349  1.00  0.00     0.181 C 
HETATM    9  N3  UNL     1       2.975   7.790  -0.371  1.00  0.00    -0.374 N 
HETATM   10  N4  UNL     1       4.887   7.030   0.820  1.00  0.00    -0.064 NA
ATOM     11  H32 UNL     1       2.017   7.696  -0.708  1.00  0.00     0.158 HD
ATOM     12  H31 UNL     1       3.501   8.629  -0.617  1.00  0.00     0.158 HD
ATOM     13  H2  UNL     1       2.205   5.743   1.508  1.00  0.00     0.162 HD
ENDBRANCH   6   7
ENDBRANCH   5   6
ENDBRANCH   4   5
ENDBRANCH   1   4
BRANCH   1  14
HETATM   14  C7  UNL     1       0.113   1.011  -0.687  1.00  0.00     0.238 C 
BRANCH  14  15
HETATM   15  C8  UNL     1      -0.642   2.272  -0.765  1.00  0.00     0.032 C 
BRANCH  15  16
HETATM   16  C9  UNL     1      -1.901   2.030  -1.583  1.00  0.00     0.040 C 
BRANCH  16  17
HETATM   17  C10 UNL     1      -2.802   1.020  -1.045  1.00  0.00    -0.058 A 
HETATM   18  C11 UNL     1      -3.781   1.391  -0.119  1.00  0.00     0.007 A 
HETATM   19  C12 UNL     1      -4.664   0.472   0.407  1.00  0.00     0.009 A 
HETATM   20  C13 UNL     1      -4.615  -0.863   0.036  1.00  0.00    -0.032 A 
HETATM   21  C18 UNL     1      -3.655  -1.235  -0.874  1.00  0.00     0.009 A 
HETATM   22  C19 UNL     1      -2.778  -0.313  -1.394  1.00  0.00     0.007 A 
BRANCH  20  23
HETATM   23  C14 UNL     1      -5.574  -1.837   0.614  1.00  0.00     0.274 C 
BRANCH  23  24
HETATM   24  N5  UNL     1      -6.802  -1.939  -0.112  1.00  0.00    -0.075 N 
HETATM   25  C15 UNL     1      -6.821  -1.245  -1.365  1.00  0.00     0.272 C 
HETATM   26  C16 UNL     1      -7.101  -3.363  -0.309  1.00  0.00     0.272 C 
HETATM   27  C17 UNL     1      -7.931  -1.419   0.675  1.00  0.00     0.272 C 
ENDBRANCH  23  24
ENDBRANCH  20  23
ENDBRANCH  16  17
ENDBRANCH  15  16
ENDBRANCH  14  15
ENDBRANCH   1  14
BRANCH   1  28
HETATM   28  C20 UNL     1       1.941  -0.237  -0.039  1.00  0.00     0.275 C 
BRANCH  28  29
HETATM   29  C21 UNL     1       2.779  -0.747  -1.078  1.00  0.00     0.143 C 
HETATM   30  C22 UNL     1       2.308  -0.756  -2.506  1.00  0.00     0.047 C 
HETATM   31  C23 UNL     1       4.215  -0.277  -1.090  1.00  0.00     0.047 C 
BRANCH  29  32
HETATM   32  N6  UNL     1       2.927  -2.211  -0.822  1.00  0.00    -0.061 N 
ATOM     33  H62 UNL     1       2.023  -2.680  -0.878  1.00  0.00     0.278 HD
ATOM     34  H61 UNL     1       3.403  -2.666  -1.601  1.00  0.00     0.278 HD
BRANCH  32  35
HETATM   35  C24 UNL     1       3.572  -2.512   0.404  1.00  0.00     0.271 C 
BRANCH  35  36
HETATM   36  C25 UNL     1       3.735  -4.007   0.569  1.00  0.00    -0.033 A 
HETATM   37  C26 UNL     1       3.278  -4.796  -0.447  1.00  0.00     0.009 A 
HETATM   38  C27 UNL     1       3.433  -6.175  -0.285  1.00  0.00     0.001 A 
HETATM   39  C28 UNL     1       4.024  -6.679   0.860  1.00  0.00     0.000 A 
HETATM   40  C29 UNL     1       4.471  -5.837   1.863  1.00  0.00     0.001 A 
HETATM   41  C30 UNL     1       4.328  -4.493   1.721  1.00  0.00     0.009 A 
ENDBRANCH  35  36
ENDBRANCH  32  35
ENDBRANCH  29  32
ENDBRANCH  28  29
ENDBRANCH   1  28
TORSDOF 16
