REMARK  5 active torsions:
REMARK  status: ('A' for Active; 'I' for Inactive)
REMARK    1  A    between atoms: C2_2  and  C3_3 
REMARK    2  A    between atoms: C3_3  and  S1_6 
REMARK    3  A    between atoms: S1_6  and  C5_7 
REMARK    4  A    between atoms: C5_7  and  C6_8 
REMARK       I    between atoms: C6_8  and  N2_10 
REMARK    5  A    between atoms: N2_10  and  C7_12 
ROOT
HETATM    1  C3  UNL     1       4.746   1.168   0.405  1.00  0.00     0.154 C 
HETATM    2  C4  UNL     1       5.858   1.506  -0.574  1.00  0.00     0.074 C 
HETATM    3  N1  UNL     1       6.669   1.783  -1.342  1.00  0.00    -0.196 NA
ENDROOT
BRANCH   1   4
HETATM    4  C2  UNL     1       4.532  -0.307   0.196  1.00  0.00     0.025 C 
HETATM    5  C1  UNL     1       5.830  -1.057   0.463  1.00  0.00     0.007 C 
ENDBRANCH   1   4
BRANCH   1   6
HETATM    6  S1  UNL     1       3.301   2.111  -0.091  1.00  0.00    -0.140 SA
BRANCH   6   7
HETATM    7  C5  UNL     1       1.923   1.132  -0.612  1.00  0.00     0.177 C 
BRANCH   7   8
HETATM    8  C6  UNL     1       0.748   1.099   0.255  1.00  0.00     0.227 C 
HETATM    9  O1  UNL     1       0.738   1.619   1.375  1.00  0.00    -0.273 OA
HETATM   10  N2  UNL     1      -0.415   0.445  -0.265  1.00  0.00    -0.352 N 
ATOM     11  H2  UNL     1      -0.353   0.013  -1.187  1.00  0.00     0.163 HD
BRANCH  10  12
HETATM   12  C7  UNL     1      -1.674   0.362   0.444  1.00  0.00     0.117 C 
HETATM   13  C8  UNL     1      -2.177  -1.038   0.308  1.00  0.00    -0.005 C 
HETATM   14  C9  UNL     1      -3.453  -1.530   0.729  1.00  0.00    -0.028 C 
HETATM   15  C10 UNL     1      -4.708  -1.518  -0.161  1.00  0.00     0.038 C 
HETATM   16  C11 UNL     1      -5.033  -0.059  -0.619  1.00  0.00     0.083 C 
HETATM   17  C12 UNL     1      -3.845   0.671  -0.461  1.00  0.00    -0.180 C 
HETATM   18  C13 UNL     1      -2.661   1.363  -0.298  1.00  0.00     0.109 C 
ENDBRANCH  10  12
ENDBRANCH   7   8
ENDBRANCH   6   7
ENDBRANCH   1   6
TORSDOF 5
