REMARK  20 active torsions:
REMARK  status: ('A' for Active; 'I' for Inactive)
REMARK    1  A    between atoms: N1_1  and  C1_4 
REMARK    2  A    between atoms: C2_10  and  N4_11 
REMARK    3  A    between atoms: N5_13  and  N6_15 
REMARK    4  A    between atoms: N6_15  and  C3_17 
REMARK    5  A    between atoms: C3_17  and  C4_19 
REMARK    6  A    between atoms: C4_19  and  N7_20 
REMARK    7  A    between atoms: C4_19  and  C17_51 
REMARK       I    between atoms: N7_20  and  C5_21 
REMARK    8  A    between atoms: C5_21  and  C6_23 
REMARK    9  A    between atoms: C6_23  and  N8_24 
REMARK   10  A    between atoms: C6_23  and  C11_39 
REMARK       I    between atoms: N8_24  and  C7_26 
REMARK   11  A    between atoms: C7_26  and  C8_28 
REMARK   12  A    between atoms: C8_28  and  N9_29 
REMARK   13  A    between atoms: C8_28  and  C9_33 
REMARK   14  A    between atoms: C9_33  and  C10_34 
REMARK   15  A    between atoms: C10_34  and  N10_35 
REMARK   16  A    between atoms: C13_41  and  N11_42 
REMARK   17  A    between atoms: C15_46  and  N12_47 
REMARK   18  A    between atoms: C17_51  and  N13_52 
REMARK   19  A    between atoms: C17_51  and  C18_56 
REMARK   20  A    between atoms: C18_56  and  O8_57 
ROOT
HETATM    1  N7  UNL     1       0.827  -0.329   1.145  1.00  0.00    -0.398 NA
HETATM    2  C5  UNL     1      -0.097  -0.117   0.162  1.00  0.00     0.314 C 
HETATM    3  O2  UNL     1       0.169  -0.101  -1.104  1.00  0.00    -0.255 OA
ENDROOT
BRANCH   2   4
HETATM    4  C6  UNL     1      -1.561   0.142   0.403  1.00  0.00     0.225 C 
BRANCH   4   5
HETATM    5  N8  UNL     1      -2.030   0.882  -0.799  1.00  0.00    -0.341 N 
HETATM    6  C7  UNL     1      -2.927   1.961  -0.646  1.00  0.00     0.249 C 
HETATM    7  O3  UNL     1      -3.344   2.294   0.504  1.00  0.00    -0.271 OA
ATOM      8  H8  UNL     1      -1.706   0.612  -1.727  1.00  0.00     0.163 HD
BRANCH   6   9
HETATM    9  C8  UNL     1      -3.377   2.705  -1.873  1.00  0.00     0.276 C 
BRANCH   9  10
HETATM   10  N9  UNL     1      -4.486   3.582  -1.550  1.00  0.00    -0.066 N 
ATOM     11  H93 UNL     1      -5.254   3.077  -1.108  1.00  0.00     0.275 HD
ATOM     12  H92 UNL     1      -4.260   4.215  -0.783  1.00  0.00     0.275 HD
ATOM     13  H91 UNL     1      -4.791   4.087  -2.382  1.00  0.00     0.275 HD
ENDBRANCH   9  10
BRANCH   9  14
HETATM   14  C9  UNL     1      -2.184   3.449  -2.387  1.00  0.00     0.069 C 
BRANCH  14  15
HETATM   15  C10 UNL     1      -2.517   4.249  -3.612  1.00  0.00     0.232 C 
BRANCH  15  16
HETATM   16  N10 UNL     1      -3.536   5.236  -3.287  1.00  0.00    -0.079 N 
ATOM     17 3H10 UNL     1      -4.363   4.812  -2.868  1.00  0.00     0.274 HD
ATOM     18 2H10 UNL     1      -3.262   5.828  -2.503  1.00  0.00     0.274 HD
ATOM     19 1H10 UNL     1      -3.762   5.780  -4.120  1.00  0.00     0.274 HD
ENDBRANCH  15  16
ENDBRANCH  14  15
ENDBRANCH   9  14
ENDBRANCH   6   9
ENDBRANCH   4   5
BRANCH   4  20
HETATM   20  C11 UNL     1      -2.251  -1.175   0.429  1.00  0.00    -0.021 A 
HETATM   21  C12 UNL     1      -2.870  -1.585   1.614  1.00  0.00     0.046 A 
HETATM   22  C13 UNL     1      -3.525  -2.794   1.603  1.00  0.00     0.105 A 
HETATM   23  C14 UNL     1      -3.592  -3.609   0.477  1.00  0.00     0.072 A 
HETATM   24  C15 UNL     1      -2.974  -3.197  -0.696  1.00  0.00     0.105 A 
HETATM   25  C16 UNL     1      -2.320  -1.986  -0.678  1.00  0.00     0.046 A 
BRANCH  22  26
HETATM   26  N11 UNL     1      -4.139  -3.200   2.817  1.00  0.00    -0.116 N 
HETATM   27  O4  UNL     1      -4.736  -4.280   2.865  1.00  0.00    -0.532 OA
HETATM   28  O5  UNL     1      -4.081  -2.415   3.924  1.00  0.00    -0.532 OA
ENDBRANCH  22  26
BRANCH  24  29
HETATM   29  N12 UNL     1      -3.053  -4.043  -1.837  1.00  0.00    -0.116 N 
HETATM   30  O6  UNL     1      -2.501  -3.674  -2.880  1.00  0.00    -0.532 OA
HETATM   31  O7  UNL     1      -3.708  -5.237  -1.819  1.00  0.00    -0.532 OA
ENDBRANCH  24  29
ENDBRANCH   4  20
ENDBRANCH   2   4
BRANCH   1  32
HETATM   32  C4  UNL     1       1.755  -0.541   2.130  1.00  0.00     0.262 C 
BRANCH  32  33
HETATM   33  C3  UNL     1       3.189  -0.118   1.833  1.00  0.00     0.131 C 
HETATM   34  S1  UNL     1       3.912   0.998   2.817  1.00  0.00    -0.060 SA
BRANCH  33  35
HETATM   35  N6  UNL     1       3.943  -0.612   0.773  1.00  0.00    -0.277 N 
ATOM     36  H6  UNL     1       3.522  -1.297   0.145  1.00  0.00     0.189 HD
BRANCH  35  37
HETATM   37  N5  UNL     1       5.273  -0.197   0.537  1.00  0.00    -0.240 N 
HETATM   38  N4  UNL     1       5.516   0.956   0.042  1.00  0.00    -0.266 N 
ATOM     39  H4  UNL     1       4.755   1.593  -0.193  1.00  0.00     0.190 HD
ATOM     40  H5  UNL     1       6.046  -0.823   0.764  1.00  0.00     0.208 HD
BRANCH  38  41
HETATM   41  C2  UNL     1       6.871   1.330  -0.173  1.00  0.00     0.189 A 
HETATM   42  C1  UNL     1       7.601   1.199  -1.309  1.00  0.00     0.169 A 
HETATM   43  N2  UNL     1       8.848   1.686  -1.057  1.00  0.00    -0.222 N 
HETATM   44  O1  UNL     1       8.870   2.101   0.197  1.00  0.00    -0.153 OA
ATOM     45  H2  UNL     1       9.625   1.723  -1.717  1.00  0.00     0.198 HD
HETATM   46  N3  UNL     1       7.705   1.900   0.743  1.00  0.00    -0.221 N 
ATOM     47  H3  UNL     1       7.456   2.132   1.704  1.00  0.00     0.198 HD
BRANCH  42  48
HETATM   48  N1  UNL     1       7.258   0.726  -2.452  1.00  0.00    -0.381 N 
ATOM     49  H12 UNL     1       7.807   0.628  -3.306  1.00  0.00     0.157 HD
ATOM     50  H11 UNL     1       6.324   0.361  -2.641  1.00  0.00     0.157 HD
ENDBRANCH  42  48
ENDBRANCH  38  41
ENDBRANCH  35  37
ENDBRANCH  33  35
ENDBRANCH  32  33
BRANCH  32  51
HETATM   51  C17 UNL     1       1.871  -1.915   2.709  1.00  0.00     0.249 C 
BRANCH  51  52
HETATM   52  N13 UNL     1       2.483  -2.845   1.765  1.00  0.00    -0.070 N 
ATOM     53 3H13 UNL     1       1.984  -2.856   0.876  1.00  0.00     0.275 HD
ATOM     54 2H13 UNL     1       3.385  -2.502   1.436  1.00  0.00     0.275 HD
ATOM     55 1H13 UNL     1       2.562  -3.782   2.160  1.00  0.00     0.275 HD
ENDBRANCH  51  52
BRANCH  51  56
HETATM   56  C18 UNL     1       0.549  -2.511   3.106  1.00  0.00     0.200 C 
BRANCH  56  57
HETATM   57  O8  UNL     1      -0.102  -1.667   3.990  1.00  0.00    -0.399 OA
ATOM     58  H8  UNL     1      -0.937  -2.044   4.241  1.00  0.00     0.209 HD
ENDBRANCH  56  57
ENDBRANCH  51  56
ENDBRANCH  32  51
ENDBRANCH   1  32
TORSDOF 20
