REMARK  22 active torsions:
REMARK  status: ('A' for Active; 'I' for Inactive)
REMARK    1  A    between atoms: C3_5  and  C4_6 
REMARK    2  A    between atoms: C5_7  and  C6_8 
REMARK    3  A    between atoms: C7_9  and  C8_10 
REMARK    4  A    between atoms: C8_10  and  C9_11 
REMARK    5  A    between atoms: C9_11  and  N2_12 
REMARK    6  A    between atoms: C9_11  and  C22_38 
REMARK    7  A    between atoms: N2_12  and  C10_14 
REMARK    8  A    between atoms: C10_14  and  O1_15 
REMARK    9  A    between atoms: C10_14  and  N3_17 
REMARK   10  A    between atoms: N3_17  and  C12_19 
REMARK   11  A    between atoms: C12_19  and  C13_20 
REMARK   12  A    between atoms: C13_20  and  C14_21 
REMARK   13  A    between atoms: C14_21  and  N4_24 
REMARK   14  A    between atoms: N5_28  and  C17_30 
REMARK   15  A    between atoms: C17_30  and  C18_31 
REMARK   16  A    between atoms: C18_31  and  C19_32 
REMARK   17  A    between atoms: C19_32  and  C20_33 
REMARK   18  A    between atoms: C24_42  and  C25_43 
REMARK   19  A    between atoms: C25_43  and  C26_44 
REMARK   20  A    between atoms: C26_44  and  C27_45 
REMARK       I    between atoms: C27_45  and  N8_47 
REMARK   21  A    between atoms: N8_47  and  C28_48 
REMARK   22  A    between atoms: N8_47  and  C30_50 
ROOT
HETATM    1  N2  UNL     1      -3.490  -1.444  -2.545  1.00  0.00    -0.342 N 
ATOM      2  H2  UNL     1      -4.022  -0.578  -2.632  1.00  0.00     0.164 HD
ENDROOT
BRANCH   1   3
HETATM    3  C9  UNL     1      -3.177  -2.200  -3.742  1.00  0.00     0.185 C 
BRANCH   3   4
HETATM    4  C8  UNL     1      -2.197  -1.410  -4.576  1.00  0.00     0.129 C 
BRANCH   4   5
HETATM    5  C7  UNL     1      -0.975  -1.208  -3.804  1.00  0.00    -0.090 C 
HETATM    6  C6  UNL     1       0.065  -1.067  -3.176  1.00  0.00    -0.015 C 
BRANCH   6   7
HETATM    7  C5  UNL     1       1.288  -0.937  -2.456  1.00  0.00    -0.008 C 
HETATM    8  C4  UNL     1       2.335  -0.858  -1.850  1.00  0.00    -0.035 C 
BRANCH   8   9
HETATM    9  C3  UNL     1       3.590  -0.803  -1.132  1.00  0.00     0.089 A 
HETATM   10  N1  UNL     1       4.004  -1.668  -0.174  1.00  0.00    -0.349 N 
HETATM   11  C2  UNL     1       5.242  -1.313   0.275  1.00  0.00     0.033 A 
ATOM     12  H1  UNL     1       3.468  -2.468   0.162  1.00  0.00     0.166 HD
HETATM   13  C1  UNL     1       5.864  -1.991   1.212  1.00  0.00     0.044 C 
HETATM   14  C24 UNL     1       5.661  -0.200  -0.389  1.00  0.00    -0.011 A 
HETATM   15  C23 UNL     1       4.611   0.103  -1.264  1.00  0.00     0.052 A 
BRANCH  14  16
HETATM   16  C25 UNL     1       6.764   0.524  -0.340  1.00  0.00    -0.004 C 
BRANCH  16  17
HETATM   17  C26 UNL     1       7.918   0.290   0.519  1.00  0.00     0.131 C 
BRANCH  17  18
HETATM   18  C27 UNL     1       9.029   1.222   0.110  1.00  0.00     0.223 C 
HETATM   19  O4  UNL     1       8.835   2.026  -0.831  1.00  0.00    -0.273 OA
HETATM   20  N8  UNL     1      10.251   1.155   0.806  1.00  0.00    -0.353 N 
BRANCH  20  21
HETATM   21  C28 UNL     1      11.333   2.029   0.435  1.00  0.00     0.121 C 
HETATM   22  C29 UNL     1      11.297   3.333   1.198  1.00  0.00     0.026 C 
ENDBRANCH  20  21
BRANCH  20  23
HETATM   23  C30 UNL     1      10.430   0.225   1.885  1.00  0.00     0.121 C 
HETATM   24  C31 UNL     1      10.041   0.824   3.223  1.00  0.00     0.026 C 
ENDBRANCH  20  23
ENDBRANCH  17  18
ENDBRANCH  16  17
ENDBRANCH  14  16
ENDBRANCH   8   9
ENDBRANCH   6   7
ENDBRANCH   4   5
ENDBRANCH   3   4
BRANCH   3  25
HETATM   25  C22 UNL     1      -4.364  -2.438  -4.584  1.00  0.00     0.254 C 
HETATM   26  N7  UNL     1      -4.226  -3.137  -5.804  1.00  0.00    -0.060 NA
HETATM   27  O3  UNL     1      -5.480  -2.019  -4.209  1.00  0.00    -0.275 OA
ENDBRANCH   3  25
ENDBRANCH   1   3
BRANCH   1  28
HETATM   28  C10 UNL     1      -3.085  -1.866  -1.274  1.00  0.00     0.221 C 
BRANCH  28  29
HETATM   29  O1  UNL     1      -2.384  -2.977  -1.316  1.00  0.00    -0.332 OA
ATOM     30  H1  UNL     1      -2.109  -3.264  -0.453  1.00  0.00     0.220 HD
ENDBRANCH  28  29
BRANCH  28  31
HETATM   31  N3  UNL     1      -3.292  -1.297  -0.038  1.00  0.00    -0.307 N 
HETATM   32  C11 UNL     1      -2.356  -1.841   1.045  1.00  0.00     0.161 C 
BRANCH  31  33
HETATM   33  C12 UNL     1      -4.294  -0.505   0.527  1.00  0.00     0.087 C 
HETATM   34  N5  UNL     1      -5.476  -0.321   0.172  1.00  0.00    -0.359 N 
ATOM     35  H5  UNL     1      -5.979   0.325   0.780  1.00  0.00     0.166 HD
BRANCH  33  36
HETATM   36  C13 UNL     1      -3.864   0.262   1.784  1.00  0.00     0.114 C 
BRANCH  36  37
HETATM   37  C14 UNL     1      -4.810   1.292   2.245  1.00  0.00     0.123 C 
HETATM   38  C15 UNL     1      -5.071   2.403   1.261  1.00  0.00     0.046 C 
HETATM   39  C16 UNL     1      -4.206   1.989   3.492  1.00  0.00     0.046 C 
BRANCH  37  40
HETATM   40  N4  UNL     1      -6.070   0.745   2.720  1.00  0.00    -0.071 N 
ATOM     41  H43 UNL     1      -6.498   0.152   2.009  1.00  0.00     0.275 HD
ATOM     42  H42 UNL     1      -5.911   0.048   3.447  1.00  0.00     0.275 HD
ATOM     43  H41 UNL     1      -6.725   1.458   3.039  1.00  0.00     0.275 HD
ENDBRANCH  37  40
ENDBRANCH  36  37
ENDBRANCH  33  36
BRANCH  34  44
HETATM   44  C17 UNL     1      -6.258  -0.804  -0.871  1.00  0.00     0.062 C 
BRANCH  44  45
HETATM   45  C18 UNL     1      -7.742  -0.768  -0.587  1.00  0.00     0.047 C 
BRANCH  45  46
HETATM   46  C19 UNL     1      -8.241   0.624  -0.426  1.00  0.00     0.040 C 
BRANCH  46  47
HETATM   47  C20 UNL     1      -9.752   0.587  -0.156  1.00  0.00     0.177 A 
HETATM   48  N6  UNL     1     -10.360   1.899   0.016  1.00  0.00    -0.346 N 
HETATM   49  C21 UNL     1     -10.198   1.072   1.160  1.00  0.00     0.241 A 
ATOM     50  H6  UNL     1     -10.675   2.779  -0.392  1.00  0.00     0.163 HD
HETATM   51  O2  UNL     1     -10.347   0.914   2.396  1.00  0.00    -0.271 OA
ENDBRANCH  46  47
ENDBRANCH  45  46
ENDBRANCH  44  45
ENDBRANCH  34  44
ENDBRANCH  31  33
ENDBRANCH  28  31
ENDBRANCH   1  28
TORSDOF 22
