REMARK  15 active torsions:
REMARK  status: ('A' for Active; 'I' for Inactive)
REMARK    1  A    between atoms: C3_3  and  C4_4 
REMARK    2  A    between atoms: C4_4  and  N1_5 
REMARK       I    between atoms: N1_5  and  C5_7 
REMARK    3  A    between atoms: C5_7  and  C6_9 
REMARK    4  A    between atoms: N2_13  and  C10_14 
REMARK    5  A    between atoms: C10_14  and  O2_15 
REMARK    6  A    between atoms: C10_14  and  C11_17 
REMARK       I    between atoms: N3_22  and  C16_23 
REMARK    7  A    between atoms: C16_23  and  C17_25 
REMARK    8  A    between atoms: C17_25  and  C18_26 
REMARK    9  A    between atoms: C17_25  and  N4_28 
REMARK       I    between atoms: N4_28  and  C20_30 
REMARK   10  A    between atoms: C20_30  and  C21_32 
REMARK   11  A    between atoms: C21_32  and  C22_33 
REMARK   12  A    between atoms: C22_33  and  C23_34 
REMARK   13  A    between atoms: C27_41  and  C28_42 
REMARK   14  A    between atoms: C28_42  and  C29_43 
REMARK   15  A    between atoms: C29_43  and  C30_44 
ROOT
HETATM    1  C1  UNL     1       8.161   0.712   2.362  1.00  0.00     0.097 C 
HETATM    2  C2  UNL     1       8.223  -0.580   2.163  1.00  0.00    -0.186 C 
HETATM    3  C3  UNL     1       8.196  -1.877   1.936  1.00  0.00     0.099 C 
ENDROOT
BRANCH   3   4
HETATM    4  C4  UNL     1       7.349  -2.304   0.813  1.00  0.00     0.134 C 
BRANCH   4   5
HETATM    5  N1  UNL     1       5.959  -2.080   1.010  1.00  0.00    -0.358 N 
HETATM    6  C5  UNL     1       5.217  -2.676   2.091  1.00  0.00     0.240 C 
HETATM    7  O1  UNL     1       5.884  -3.414   2.858  1.00  0.00    -0.271 OA
ATOM      8  H1  UNL     1       5.466  -1.471   0.357  1.00  0.00     0.162 HD
BRANCH   6   9
HETATM    9  C6  UNL     1       3.796  -2.484   2.342  1.00  0.00     0.178 C 
HETATM   10  C7  UNL     1       3.058  -3.792   2.184  1.00  0.00     0.037 C 
HETATM   11  C8  UNL     1       2.909  -3.848   0.679  1.00  0.00     0.022 C 
HETATM   12  C9  UNL     1       2.550  -2.389   0.375  1.00  0.00     0.126 C 
HETATM   13  N2  UNL     1       3.178  -1.574   1.358  1.00  0.00    -0.350 N 
BRANCH  13  14
HETATM   14  C10 UNL     1       3.237  -0.188   1.466  1.00  0.00     0.138 C 
BRANCH  14  15
HETATM   15  O2  UNL     1       3.892   0.203   2.553  1.00  0.00    -0.348 OA
ATOM     16  H2  UNL     1       3.932   1.149   2.627  1.00  0.00     0.219 HD
ENDBRANCH  14  15
BRANCH  14  17
HETATM   17  C11 UNL     1       2.732   0.889   0.638  1.00  0.00     0.161 C 
HETATM   18  C12 UNL     1       3.680   2.090   0.603  1.00  0.00     0.034 C 
HETATM   19  C13 UNL     1       3.638   2.765  -0.744  1.00  0.00     0.004 C 
HETATM   20  C14 UNL     1       4.043   1.803  -1.811  1.00  0.00     0.020 C 
HETATM   21  C15 UNL     1       3.006   0.699  -1.870  1.00  0.00     0.127 C 
HETATM   22  N3  UNL     1       2.195   0.621  -0.657  1.00  0.00    -0.338 N 
HETATM   23  C16 UNL     1       0.815   0.309  -0.838  1.00  0.00     0.243 C 
HETATM   24  O3  UNL     1       0.089   0.253   0.228  1.00  0.00    -0.271 OA
BRANCH  23  25
HETATM   25  C17 UNL     1       0.139   0.053  -2.118  1.00  0.00     0.176 C 
BRANCH  25  26
HETATM   26  C18 UNL     1       0.600  -1.188  -2.795  1.00  0.00     0.030 C 
HETATM   27  C19 UNL     1      -0.124  -1.383  -4.140  1.00  0.00     0.007 C 
ENDBRANCH  25  26
BRANCH  25  28
HETATM   28  N4  UNL     1      -1.318  -0.155  -1.859  1.00  0.00    -0.348 N 
HETATM   29  C20 UNL     1      -2.198   0.950  -1.908  1.00  0.00     0.218 C 
HETATM   30  O4  UNL     1      -1.751   2.097  -2.162  1.00  0.00    -0.274 OA
ATOM     31  H4  UNL     1      -1.675  -1.087  -1.648  1.00  0.00     0.163 HD
BRANCH  29  32
HETATM   32  C21 UNL     1      -3.641   0.733  -1.651  1.00  0.00     0.105 C 
BRANCH  32  33
HETATM   33  C22 UNL     1      -4.298   2.066  -1.341  1.00  0.00     0.040 C 
BRANCH  33  34
HETATM   34  C23 UNL     1      -5.761   1.859  -1.102  1.00  0.00     0.037 C 
HETATM   35  C24 UNL     1      -6.424   1.307  -2.351  1.00  0.00     0.039 C 
HETATM   36  N5  UNL     1      -6.435   3.022  -0.620  1.00  0.00    -0.352 N 
HETATM   37  C25 UNL     1      -7.520   2.599   0.192  1.00  0.00     0.218 C 
ATOM     38  H5  UNL     1      -6.181   3.989  -0.824  1.00  0.00     0.163 HD
HETATM   39  O5  UNL     1      -8.357   3.243   0.850  1.00  0.00    -0.274 OA
HETATM   40  C26 UNL     1      -7.525   1.083   0.148  1.00  0.00     0.113 C 
HETATM   41  C27 UNL     1      -6.004   0.823   0.031  1.00  0.00     0.045 C 
BRANCH  41  42
HETATM   42  C28 UNL     1      -5.350   1.289   1.258  1.00  0.00    -0.014 C 
BRANCH  42  43
HETATM   43  C29 UNL     1      -5.278   0.459   2.475  1.00  0.00     0.067 C 
BRANCH  43  44
HETATM   44  C30 UNL     1      -6.436  -0.109   3.116  1.00  0.00     0.254 C 
HETATM   45  N6  UNL     1      -6.872   0.352   4.397  1.00  0.00    -0.058 NA
HETATM   46  O6  UNL     1      -7.120  -1.054   2.580  1.00  0.00    -0.272 OA
ENDBRANCH  43  44
ENDBRANCH  42  43
ENDBRANCH  41  42
ENDBRANCH  33  34
ENDBRANCH  32  33
ENDBRANCH  29  32
ENDBRANCH  25  28
ENDBRANCH  23  25
ENDBRANCH  14  17
ENDBRANCH  13  14
ENDBRANCH   6   9
ENDBRANCH   4   5
ENDBRANCH   3   4
TORSDOF 15
