REMARK  14 active torsions:
REMARK  status: ('A' for Active; 'I' for Inactive)
REMARK    1  A    between atoms: O1_2  and  C2_3 
REMARK       I    between atoms: C2_3  and  N1_5 
REMARK    2  A    between atoms: N1_5  and  C3_7 
REMARK    3  A    between atoms: C3_7  and  C4_8 
REMARK    4  A    between atoms: N2_10  and  C5_11 
REMARK    5  A    between atoms: C5_11  and  C6_12 
REMARK    6  A    between atoms: N5_17  and  C7_18 
REMARK    7  A    between atoms: N7_24  and  C9_25 
REMARK    8  A    between atoms: C12_28  and  N8_29 
REMARK    9  A    between atoms: N8_29  and  C13_30 
REMARK   10  A    between atoms: C13_30  and  O5_32 
REMARK   11  A    between atoms: C15_36  and  C16_37 
REMARK   12  A    between atoms: C17_40  and  N10_41 
REMARK   13  A    between atoms: N14_52  and  C23_53 
REMARK   14  A    between atoms: C23_53  and  S1_54 
ROOT
HETATM    1  N10 UNL     1       3.903  -0.993   1.908  1.00  0.00    -0.317 N 
ATOM      2  H10 UNL     1       3.574  -0.118   2.316  1.00  0.00     0.172 HD
HETATM    3  C18 UNL     1       4.286  -1.996   2.789  1.00  0.00     0.178 C 
HETATM    4  N11 UNL     1       4.588  -2.830   3.545  1.00  0.00    -0.172 NA
ENDROOT
BRANCH   1   5
HETATM    5  C17 UNL     1       3.928  -1.075   0.475  1.00  0.00     0.156 C 
HETATM    6  C10 UNL     1       3.502   0.263  -0.062  1.00  0.00    -0.030 C 
HETATM    7  C9  UNL     1       2.474   0.522  -0.824  1.00  0.00     0.122 C 
HETATM    8  C11 UNL     1       4.432   1.363   0.399  1.00  0.00     0.130 C 
HETATM    9  C12 UNL     1       5.825   1.002   0.073  1.00  0.00     0.159 C 
HETATM   10  N9  UNL     1       6.127  -0.237  -0.131  1.00  0.00    -0.352 N 
HETATM   11  C15 UNL     1       5.296  -1.348  -0.090  1.00  0.00     0.212 C 
ATOM     12  H9  UNL     1       7.105  -0.424  -0.351  1.00  0.00     0.162 HD
BRANCH   7  13
HETATM   13  N7  UNL     1       1.568  -0.447  -1.283  1.00  0.00    -0.142 N 
HETATM   14  C6  UNL     1       0.305  -0.511  -0.624  1.00  0.00     0.140 A 
HETATM   15  N3  UNL     1      -0.524  -1.410  -0.977  1.00  0.00    -0.271 N 
HETATM   16  N4  UNL     1      -0.291  -2.355  -1.974  1.00  0.00    -0.218 N 
ATOM     17  H3  UNL     1      -1.423  -1.441  -0.496  1.00  0.00     0.190 HD
HETATM   18  N5  UNL     1       0.901  -2.367  -2.667  1.00  0.00    -0.046 N 
ATOM     19  H4  UNL     1      -1.009  -3.045  -2.193  1.00  0.00     0.209 HD
HETATM   20  C8  UNL     1       1.895  -1.367  -2.318  1.00  0.00     0.708 A 
HETATM   21  N6  UNL     1       2.977  -1.350  -3.001  1.00  0.00    -0.232 N 
ATOM     22  H62 UNL     1       3.211  -2.010  -3.743  1.00  0.00     0.174 HD
ATOM     23  H61 UNL     1       3.675  -0.648  -2.756  1.00  0.00     0.174 HD
BRANCH  14  24
HETATM   24  C5  UNL     1      -0.067   0.470   0.467  1.00  0.00     0.234 C 
BRANCH  24  25
HETATM   25  N2  UNL     1      -1.526   0.634   0.340  1.00  0.00    -0.262 N 
HETATM   26  O3  UNL     1      -2.325   0.178   1.304  1.00  0.00    -0.269 OA
HETATM   27  C4  UNL     1      -3.630   0.098   0.836  1.00  0.00     0.197 C 
HETATM   28  C25 UNL     1      -4.040   1.463   0.395  1.00  0.00     0.153 C 
HETATM   29  C20 UNL     1      -3.248   1.687  -0.869  1.00  0.00    -0.019 C 
HETATM   30  N14 UNL     1      -5.446   1.642   0.104  1.00  0.00    -0.336 N 
HETATM   31  C19 UNL     1      -2.025   1.278  -0.869  1.00  0.00     0.124 C 
HETATM   32  C21 UNL     1      -3.880   2.345  -2.032  1.00  0.00     0.160 C 
HETATM   33  N12 UNL     1      -5.243   1.846  -2.215  1.00  0.00    -0.360 N 
HETATM   34  C22 UNL     1      -5.972   1.523  -1.177  1.00  0.00     0.188 C 
ATOM     35  H12 UNL     1      -5.627   1.749  -3.155  1.00  0.00     0.162 HD
HETATM   36  N13 UNL     1      -7.276   1.048  -1.411  1.00  0.00    -0.064 NA
BRANCH  27  37
HETATM   37  C3  UNL     1      -4.540  -0.616   1.759  1.00  0.00     0.161 C 
BRANCH  37  38
HETATM   38  N1  UNL     1      -4.064  -1.979   1.895  1.00  0.00    -0.334 N 
HETATM   39  C2  UNL     1      -4.019  -2.908   0.848  1.00  0.00     0.360 C 
HETATM   40  O2  UNL     1      -4.378  -2.703  -0.338  1.00  0.00    -0.239 OA
ATOM     41  H1  UNL     1      -3.741  -2.281   2.814  1.00  0.00     0.164 HD
BRANCH  39  42
HETATM   42  O1  UNL     1      -3.539  -4.202   1.116  1.00  0.00    -0.309 OA
HETATM   43  C1  UNL     1      -3.504  -5.138   0.054  1.00  0.00     0.215 C 
ENDBRANCH  39  42
ENDBRANCH  37  38
ENDBRANCH  27  37
BRANCH  30  44
HETATM   44  C23 UNL     1      -6.322   1.970   1.224  1.00  0.00     0.200 C 
BRANCH  44  45
HETATM   45  S1  UNL     1      -7.196   3.559   0.917  1.00  0.00    -0.154 SA
HETATM   46  C24 UNL     1      -6.006   4.943   0.892  1.00  0.00     0.091 C 
ENDBRANCH  44  45
ENDBRANCH  30  44
ENDBRANCH  24  25
ENDBRANCH  14  24
BRANCH  18  47
HETATM   47  C7  UNL     1       1.193  -3.301  -3.695  1.00  0.00     0.395 C 
HETATM   48  O4  UNL     1       2.318  -3.236  -4.300  1.00  0.00    -0.281 OA
ENDBRANCH  18  47
ENDBRANCH   7  13
BRANCH   9  49
HETATM   49  N8  UNL     1       6.914   1.943   0.022  1.00  0.00    -0.372 NA
BRANCH  49  50
HETATM   50  C13 UNL     1       7.865   2.771  -0.023  1.00  0.00     0.187 C 
HETATM   51  C14 UNL     1       9.296   2.351  -0.432  1.00  0.00     0.114 C 
BRANCH  50  52
HETATM   52  O5  UNL     1       7.870   4.053   0.231  1.00  0.00    -0.339 OA
ATOM     53  H5  UNL     1       8.586   4.676   0.197  1.00  0.00     0.220 HD
ENDBRANCH  50  52
ENDBRANCH  49  50
ENDBRANCH   9  49
BRANCH  11  54
HETATM   54  C16 UNL     1       5.898  -2.588   0.464  1.00  0.00     0.199 C 
HETATM   55  O6  UNL     1       5.262  -3.666   0.373  1.00  0.00    -0.646 OA
HETATM   56  O7  UNL     1       7.132  -2.560   1.063  1.00  0.00    -0.646 OA
ENDBRANCH  11  54
ENDBRANCH   1   5
TORSDOF 14
