REMARK  8 active torsions:
REMARK  status: ('A' for Active; 'I' for Inactive)
REMARK    1  A    between atoms: C2_2  and  O1_3 
REMARK    2  A    between atoms: C2_2  and  C3_5 
REMARK    3  A    between atoms: C2_2  and  C4_14 
REMARK    4  A    between atoms: N6_17  and  C5_18 
REMARK    5  A    between atoms: C5_18  and  C6_19 
REMARK       I    between atoms: C6_19  and  N7_21 
REMARK       I    between atoms: N7_21  and  C7_22 
REMARK    6  A    between atoms: N7_21  and  C8_31 
REMARK       I    between atoms: C7_22  and  N8_23 
REMARK       I    between atoms: C7_22  and  N9_27 
REMARK    7  A    between atoms: N8_23  and  O3_25 
REMARK    8  A    between atoms: N9_27  and  O4_29 
ROOT
HETATM    1  C5  UNL     1       0.330   0.815  -0.952  1.00  0.00     0.255 C 
ENDROOT
BRANCH   1   2
HETATM    2  N6  UNL     1      -0.824   0.899  -0.019  1.00  0.00    -0.261 N 
HETATM    3  N5  UNL     1      -1.869   0.202  -0.173  1.00  0.00    -0.290 N 
HETATM    4  C4  UNL     1      -2.863   0.282   0.697  1.00  0.00     0.112 A 
ATOM      5  H5  UNL     1      -1.946  -0.426  -0.973  1.00  0.00     0.187 HD
HETATM    6  S1  UNL     1      -2.249   1.432   1.798  1.00  0.00    -0.035 SA
HETATM    7  C10 UNL     1      -0.746   1.717   1.039  1.00  0.00     0.161 A 
HETATM    8  N13 UNL     1       0.242   2.514   1.370  1.00  0.00    -0.378 N 
ATOM      9 2H13 UNL     1       1.140   2.684   0.917  1.00  0.00     0.158 HD
ATOM     10 1H13 UNL     1       0.301   3.137   2.176  1.00  0.00     0.158 HD
BRANCH   4  11
HETATM   11  C2  UNL     1      -4.178  -0.445   0.750  1.00  0.00     0.165 C 
HETATM   12  C1  UNL     1      -3.891  -1.895   1.132  1.00  0.00     0.062 C 
BRANCH  11  13
HETATM   13  O1  UNL     1      -4.940   0.099   1.808  1.00  0.00    -0.375 OA
ATOM     14  H1  UNL     1      -5.119   1.001   1.570  1.00  0.00     0.211 HD
ENDBRANCH  11  13
BRANCH  11  15
HETATM   15  C3  UNL     1      -4.937  -0.349  -0.510  1.00  0.00     0.154 A 
HETATM   16  N1  UNL     1      -5.511   0.719  -1.076  1.00  0.00    -0.269 N 
HETATM   17  N2  UNL     1      -6.103   0.354  -2.223  1.00  0.00    -0.227 N 
ATOM     18  H1  UNL     1      -5.500   1.665  -0.694  1.00  0.00     0.190 HD
HETATM   19  N3  UNL     1      -5.894  -0.919  -2.356  1.00  0.00    -0.227 N 
ATOM     20  H2  UNL     1      -6.616   0.959  -2.864  1.00  0.00     0.210 HD
HETATM   21  N4  UNL     1      -5.189  -1.380  -1.335  1.00  0.00    -0.269 N 
ATOM     22  H3  UNL     1      -6.226  -1.485  -3.137  1.00  0.00     0.210 HD
ATOM     23  H4  UNL     1      -4.890  -2.346  -1.198  1.00  0.00     0.190 HD
ENDBRANCH  11  15
ENDBRANCH   4  11
ENDBRANCH   1   2
BRANCH   1  24
HETATM   24  C6  UNL     1       1.208  -0.293  -0.512  1.00  0.00     0.264 C 
HETATM   25  O2  UNL     1       0.652  -1.365  -0.205  1.00  0.00    -0.270 OA
HETATM   26  N7  UNL     1       2.592  -0.158  -0.437  1.00  0.00    -0.089 N 
HETATM   27  C7  UNL     1       3.395  -1.266  -0.037  1.00  0.00     0.732 C 
HETATM   28  N8  UNL     1       2.815  -2.409   0.232  1.00  0.00    -0.096 N 
HETATM   29  N9  UNL     1       4.815  -1.185   0.099  1.00  0.00    -0.096 N 
ATOM     30  H8  UNL     1       1.800  -2.449   0.139  1.00  0.00     0.213 HD
ATOM     31  H9  UNL     1       5.392  -0.637  -0.538  1.00  0.00     0.213 HD
BRANCH  26  32
HETATM   32  C8  UNL     1       3.309   1.047  -0.746  1.00  0.00     0.199 A 
HETATM   33  N10 UNL     1       3.524   1.620  -1.941  1.00  0.00    -0.221 N 
HETATM   34  O5  UNL     1       4.234   2.702  -1.775  1.00  0.00    -0.153 OA
ATOM     35  H10 UNL     1       3.186   1.266  -2.836  1.00  0.00     0.198 HD
HETATM   36  N11 UNL     1       4.502   2.876  -0.533  1.00  0.00    -0.222 N 
HETATM   37  C9  UNL     1       3.953   1.874   0.173  1.00  0.00     0.168 A 
ATOM     38  H11 UNL     1       5.043   3.649  -0.145  1.00  0.00     0.198 HD
HETATM   39  N12 UNL     1       4.004   1.713   1.461  1.00  0.00    -0.381 N 
ATOM     40 2H12 UNL     1       3.587   0.952   1.997  1.00  0.00     0.157 HD
ATOM     41 1H12 UNL     1       4.475   2.318   2.133  1.00  0.00     0.157 HD
ENDBRANCH  26  32
BRANCH  28  42
HETATM   42  O3  UNL     1       3.441  -3.536   0.621  1.00  0.00    -0.276 OA
ATOM     43  H3  UNL     1       3.020  -4.365   0.816  1.00  0.00     0.245 HD
ENDBRANCH  28  42
BRANCH  29  44
HETATM   44  O4  UNL     1       5.347  -1.891   1.140  1.00  0.00    -0.276 OA
ATOM     45  H4  UNL     1       6.291  -1.837   1.230  1.00  0.00     0.245 HD
ENDBRANCH  29  44
ENDBRANCH   1  24
TORSDOF 8
