REMARK  12 active torsions:
REMARK  status: ('A' for Active; 'I' for Inactive)
REMARK    1  A    between atoms: O1_2  and  C2_3 
REMARK    2  A    between atoms: C2_3  and  C3_5 
REMARK    3  A    between atoms: C3_5  and  N1_6 
REMARK    4  A    between atoms: C5_9  and  C6_10 
REMARK    5  A    between atoms: C6_10  and  N3_11 
REMARK    6  A    between atoms: C6_10  and  N4_15 
REMARK    7  A    between atoms: N5_19  and  N6_20 
REMARK       I    between atoms: N6_20  and  C7_22 
REMARK    8  A    between atoms: C7_22  and  C8_24 
REMARK    9  A    between atoms: C12_31  and  N8_32 
REMARK   10  A    between atoms: N8_32  and  N9_34 
REMARK   11  A    between atoms: N9_34  and  C13_36 
REMARK   12  A    between atoms: C14_39  and  O5_40 
ROOT
HETATM    1  N1  UNL     1      -2.073  -0.596  -0.566  1.00  0.00    -0.156 N 
HETATM    2  C4  UNL     1      -1.853  -1.714  -1.290  1.00  0.00     0.164 A 
HETATM    3  N2  UNL     1      -2.887  -2.511  -1.873  1.00  0.00    -0.080 NA
HETATM    4  C5  UNL     1      -0.491  -1.933  -1.358  1.00  0.00     0.151 A 
HETATM    5  N5  UNL     1       0.131  -0.926  -0.659  1.00  0.00    -0.079 N 
HETATM    6  C12 UNL     1      -0.846  -0.134  -0.192  1.00  0.00     0.723 A 
ENDROOT
BRANCH   6   7
HETATM    7  N8  UNL     1      -0.716   0.906   0.521  1.00  0.00    -0.116 N 
ATOM      8  H8  UNL     1       0.260   1.128   0.719  1.00  0.00     0.206 HD
BRANCH   7   9
HETATM    9  N9  UNL     1      -1.570   1.782   1.075  1.00  0.00    -0.116 N 
ATOM     10  H9  UNL     1      -2.348   1.438   1.637  1.00  0.00     0.206 HD
BRANCH   9  11
HETATM   11  C13 UNL     1      -1.419   3.073   0.904  1.00  0.00     0.715 A 
HETATM   12  N10 UNL     1      -2.199   4.056   1.402  1.00  0.00    -0.151 N 
HETATM   13  C14 UNL     1      -1.715   5.245   1.000  1.00  0.00     0.251 A 
ATOM     14  H10 UNL     1      -3.022   3.919   1.988  1.00  0.00     0.188 HD
HETATM   15  N11 UNL     1      -0.640   5.017   0.257  1.00  0.00    -0.250 N 
HETATM   16  N12 UNL     1      -0.458   3.700   0.197  1.00  0.00    -0.128 N 
ATOM     17  H11 UNL     1      -0.057   5.725  -0.189  1.00  0.00     0.191 HD
ATOM     18  H12 UNL     1       0.296   3.235  -0.308  1.00  0.00     0.205 HD
BRANCH  13  19
HETATM   19  O5  UNL     1      -2.236   6.496   1.302  1.00  0.00    -0.331 OA
ATOM     20  H5  UNL     1      -1.894   7.336   1.018  1.00  0.00     0.221 HD
ENDBRANCH  13  19
ENDBRANCH   9  11
ENDBRANCH   7   9
ENDBRANCH   6   7
BRANCH   1  21
HETATM   21  C3  UNL     1      -3.368  -0.032  -0.259  1.00  0.00     0.260 C 
BRANCH  21  22
HETATM   22  C2  UNL     1      -3.852  -0.574   1.054  1.00  0.00     0.277 C 
HETATM   23  O2  UNL     1      -3.131  -1.386   1.689  1.00  0.00    -0.263 OA
BRANCH  22  24
HETATM   24  O1  UNL     1      -5.059  -0.222   1.603  1.00  0.00    -0.325 OA
HETATM   25  C1  UNL     1      -5.497  -0.756   2.862  1.00  0.00     0.213 C 
ENDBRANCH  22  24
ENDBRANCH  21  22
ENDBRANCH   1  21
BRANCH   5  26
HETATM   26  N6  UNL     1       1.499  -0.847  -0.489  1.00  0.00    -0.243 N 
HETATM   27  C7  UNL     1       2.319   0.083   0.127  1.00  0.00     0.289 C 
HETATM   28  O3  UNL     1       1.964   1.121   0.699  1.00  0.00    -0.264 OA
ATOM     29  H6  UNL     1       2.007  -1.631  -0.899  1.00  0.00     0.191 HD
BRANCH  27  30
HETATM   30  C8  UNL     1       3.799  -0.160   0.119  1.00  0.00     0.126 A 
HETATM   31  C9  UNL     1       4.785   0.605   0.649  1.00  0.00     0.071 A 
HETATM   32  C10 UNL     1       5.969  -0.027   0.390  1.00  0.00     0.075 A 
HETATM   33  C11 UNL     1       7.335   0.408   0.763  1.00  0.00     0.079 C 
HETATM   34  O4  UNL     1       5.687  -1.119  -0.266  1.00  0.00    -0.242 OA
HETATM   35  N7  UNL     1       4.396  -1.221  -0.440  1.00  0.00    -0.256 N 
ATOM     36  H7  UNL     1       3.921  -1.984  -0.922  1.00  0.00     0.195 HD
ENDBRANCH  27  30
ENDBRANCH   5  26
BRANCH   4  37
HETATM   37  C6  UNL     1       0.125  -3.089  -2.075  1.00  0.00     0.433 C 
BRANCH  37  38
HETATM   38  N3  UNL     1       1.211  -2.749  -2.935  1.00  0.00    -0.045 N 
ATOM     39  H33 UNL     1       0.923  -2.032  -3.601  1.00  0.00     0.277 HD
ATOM     40  H32 UNL     1       1.923  -2.234  -2.418  1.00  0.00     0.277 HD
ATOM     41  H31 UNL     1       1.632  -3.539  -3.425  1.00  0.00     0.277 HD
ENDBRANCH  37  38
BRANCH  37  42
HETATM   42  N4  UNL     1       0.494  -4.134  -1.114  1.00  0.00    -0.045 N 
ATOM     43  H43 UNL     1       1.098  -3.777  -0.373  1.00  0.00     0.277 HD
ATOM     44  H42 UNL     1      -0.297  -4.419  -0.536  1.00  0.00     0.277 HD
ATOM     45  H41 UNL     1       0.915  -4.924  -1.604  1.00  0.00     0.277 HD
ENDBRANCH  37  42
ENDBRANCH   4  37
TORSDOF 12
