REMARK  10 active torsions:
REMARK  status: ('A' for Active; 'I' for Inactive)
REMARK    1  A    between atoms: C3_4  and  S1_5 
REMARK    2  A    between atoms: S1_5  and  S2_6 
REMARK    3  A    between atoms: S2_6  and  C4_7 
REMARK       I    between atoms: N3_11  and  C6_12 
REMARK    4  A    between atoms: C6_12  and  O3_14 
REMARK    5  A    between atoms: O3_14  and  S3_15 
REMARK    6  A    between atoms: C7_19  and  O7_20 
REMARK    7  A    between atoms: C7_19  and  N4_22 
REMARK    8  A    between atoms: N4_22  and  O8_23 
REMARK    9  A    between atoms: O8_23  and  C8_24 
REMARK       I    between atoms: C8_24  and  N5_26 
REMARK   10  A    between atoms: N5_26  and  N6_28 
ROOT
HETATM    1  C1  UNL     1       2.152  -2.312   2.895  1.00  0.00     0.071 C 
HETATM    2  C2  UNL     1       1.849  -1.262   1.845  1.00  0.00     0.263 C 
HETATM    3  O1  UNL     1       0.731  -0.532   2.142  1.00  0.00    -0.338 OA
HETATM    4  C3  UNL     1       0.921   0.740   1.649  1.00  0.00     0.279 C 
HETATM    5  C7  UNL     1       2.220   0.618   0.893  1.00  0.00     0.305 C 
HETATM    6  O10 UNL     1       2.874  -0.349   1.707  1.00  0.00    -0.307 OA
ENDROOT
BRANCH   4   7
HETATM    7  S1  UNL     1      -0.477   1.335   0.765  1.00  0.00    -0.056 SA
BRANCH   7   8
HETATM    8  S2  UNL     1      -1.009   0.349  -0.986  1.00  0.00    -0.066 SA
BRANCH   8   9
HETATM    9  C4  UNL     1      -2.178  -0.975  -0.799  1.00  0.00     0.199 C 
HETATM   10  C5  UNL     1      -1.614  -2.138  -0.059  1.00  0.00     0.171 C 
HETATM   11  N1  UNL     1      -2.322  -2.248   1.182  1.00  0.00    -0.123 NA
HETATM   12  N2  UNL     1      -3.239  -1.202   1.273  1.00  0.00    -0.023 NA
HETATM   13  N3  UNL     1      -3.325  -0.630   0.005  1.00  0.00    -0.206 N 
HETATM   14  C6  UNL     1      -4.398   0.177  -0.425  1.00  0.00     0.397 C 
HETATM   15  O2  UNL     1      -5.382   0.451   0.317  1.00  0.00    -0.236 OA
BRANCH  14  16
HETATM   16  O3  UNL     1      -4.401   0.704  -1.702  1.00  0.00    -0.157 OA
BRANCH  16  17
HETATM   17  S3  UNL     1      -5.681   1.689  -2.269  1.00  0.00     0.260 S 
HETATM   18  O4  UNL     1      -5.587   1.886  -3.754  1.00  0.00    -0.572 OA
HETATM   19  O5  UNL     1      -6.982   1.002  -1.902  1.00  0.00    -0.572 OA
HETATM   20  O6  UNL     1      -5.578   3.188  -1.524  1.00  0.00    -0.572 OA
ENDBRANCH  16  17
ENDBRANCH  14  16
ENDBRANCH   8   9
ENDBRANCH   7   8
ENDBRANCH   4   7
BRANCH   5  21
HETATM   21  O7  UNL     1       2.875   1.823   0.936  1.00  0.00    -0.348 OA
ATOM     22  H7  UNL     1       3.693   1.746   0.460  1.00  0.00     0.214 HD
ENDBRANCH   5  21
BRANCH   5  23
HETATM   23  N4  UNL     1       2.117   0.051  -0.409  1.00  0.00    -0.017 NA
BRANCH  23  24
HETATM   24  O8  UNL     1       3.386  -0.063  -0.987  1.00  0.00    -0.182 OA
BRANCH  24  25
HETATM   25  C8  UNL     1       3.934   0.936  -1.769  1.00  0.00     0.397 C 
HETATM   26  O9  UNL     1       3.253   1.967  -1.952  1.00  0.00    -0.235 OA
HETATM   27  N5  UNL     1       5.240   0.805  -2.358  1.00  0.00    -0.251 N 
ATOM     28  H5  UNL     1       5.782  -0.044  -2.198  1.00  0.00     0.191 HD
BRANCH  27  29
HETATM   29  N6  UNL     1       5.767   1.813  -3.135  1.00  0.00    -0.341 N 
ATOM     30  H62 UNL     1       5.212   2.656  -3.285  1.00  0.00     0.177 HD
ATOM     31  H61 UNL     1       6.693   1.720  -3.553  1.00  0.00     0.177 HD
ENDBRANCH  27  29
ENDBRANCH  24  25
ENDBRANCH  23  24
ENDBRANCH   5  23
TORSDOF 10
