REMARK  21 active torsions:
REMARK  status: ('A' for Active; 'I' for Inactive)
REMARK    1  A    between atoms: C2_2  and  C3_3 
REMARK    2  A    between atoms: C2_2  and  C18_25 
REMARK    3  A    between atoms: C3_3  and  C4_4 
REMARK    4  A    between atoms: C10_12  and  C11_13 
REMARK    5  A    between atoms: C11_13  and  C12_14 
REMARK    6  A    between atoms: C12_14  and  N2_15 
REMARK    7  A    between atoms: C12_14  and  C13_19 
REMARK    8  A    between atoms: C13_19  and  N3_20 
REMARK    9  A    between atoms: N3_20  and  C14_21 
REMARK   10  A    between atoms: C14_21  and  C15_22 
REMARK       I    between atoms: C18_25  and  N4_27 
REMARK   11  A    between atoms: N4_27  and  C19_29 
REMARK   12  A    between atoms: C19_29  and  C20_30 
REMARK   13  A    between atoms: C19_29  and  C24_38 
REMARK   14  A    between atoms: C20_30  and  C21_31 
REMARK   15  A    between atoms: C21_31  and  C22_32 
REMARK   16  A    between atoms: C22_32  and  N5_33 
REMARK   17  A    between atoms: C24_38  and  O2_39 
REMARK   18  A    between atoms: C24_38  and  N8_41 
REMARK   19  A    between atoms: N8_41  and  C26_43 
REMARK   20  A    between atoms: C26_43  and  C27_44 
REMARK   21  A    between atoms: C27_44  and  C28_45 
ROOT
HETATM    1  C18 UNL     1      -0.620   0.306  -1.203  1.00  0.00     0.247 C 
HETATM    2  O1  UNL     1      -0.113  -0.168  -0.148  1.00  0.00    -0.268 OA
HETATM    3  N4  UNL     1      -1.988   0.394  -1.391  1.00  0.00    -0.345 N 
ATOM      4  H4  UNL     1      -2.284   0.788  -2.284  1.00  0.00     0.163 HD
ENDROOT
BRANCH   1   5
HETATM    5  C2  UNL     1       0.325   0.758  -2.228  1.00  0.00     0.004 C 
HETATM    6  C1  UNL     1      -0.043   1.276  -3.364  1.00  0.00     0.025 C 
BRANCH   5   7
HETATM    7  C3  UNL     1       1.820   0.585  -1.980  1.00  0.00     0.083 C 
BRANCH   7   8
HETATM    8  C4  UNL     1       2.124   1.465  -0.826  1.00  0.00    -0.041 A 
HETATM    9  C5  UNL     1       1.359   2.619  -0.600  1.00  0.00     0.008 A 
HETATM   10  C6  UNL     1       1.584   3.463   0.465  1.00  0.00     0.003 A 
HETATM   11  C7  UNL     1       2.596   3.175   1.352  1.00  0.00     0.030 A 
HETATM   12  C8  UNL     1       3.351   2.071   1.163  1.00  0.00     0.043 A 
HETATM   13  N1  UNL     1       4.400   1.588   1.890  1.00  0.00    -0.365 N 
HETATM   14  C17 UNL     1       3.126   1.214   0.086  1.00  0.00     0.005 A 
HETATM   15  C9  UNL     1       4.852   0.469   1.327  1.00  0.00     0.096 A 
ATOM     16  H1  UNL     1       4.779   2.018   2.734  1.00  0.00     0.165 HD
HETATM   17  C10 UNL     1       4.080   0.220   0.211  1.00  0.00    -0.027 A 
BRANCH  17  18
HETATM   18  C11 UNL     1       4.244  -0.925  -0.693  1.00  0.00     0.080 C 
BRANCH  18  19
HETATM   19  C12 UNL     1       5.610  -1.600  -0.472  1.00  0.00     0.240 C 
BRANCH  19  20
HETATM   20  N2  UNL     1       5.745  -2.739  -1.364  1.00  0.00    -0.069 N 
ATOM     21  H23 UNL     1       4.972  -3.397  -1.266  1.00  0.00     0.275 HD
ATOM     22  H22 UNL     1       5.597  -2.482  -2.340  1.00  0.00     0.275 HD
ATOM     23  H21 UNL     1       6.650  -3.186  -1.218  1.00  0.00     0.275 HD
ENDBRANCH  19  20
BRANCH  19  24
HETATM   24  C13 UNL     1       6.708  -0.651  -0.800  1.00  0.00     0.199 C 
BRANCH  24  25
HETATM   25  N3  UNL     1       7.897  -0.878  -0.494  1.00  0.00    -0.381 NA
BRANCH  25  26
HETATM   26  C14 UNL     1       9.075  -1.279  -0.425  1.00  0.00     0.015 C 
BRANCH  26  27
HETATM   27  C15 UNL     1      10.353  -1.375  -0.196  1.00  0.00     0.116 C 
HETATM   28  C16 UNL     1      11.242  -0.214   0.046  1.00  0.00     0.020 C 
ENDBRANCH  26  27
ENDBRANCH  25  26
ENDBRANCH  24  25
ENDBRANCH  19  24
ENDBRANCH  18  19
ENDBRANCH  17  18
ENDBRANCH   7   8
ENDBRANCH   5   7
ENDBRANCH   1   5
BRANCH   3  29
HETATM   29  C19 UNL     1      -3.069   0.001  -0.488  1.00  0.00     0.159 C 
BRANCH  29  30
HETATM   30  C20 UNL     1      -2.698   0.190   0.924  1.00  0.00     0.035 C 
BRANCH  30  31
HETATM   31  C21 UNL     1      -2.351   1.611   1.323  1.00  0.00     0.022 C 
BRANCH  31  32
HETATM   32  C22 UNL     1      -3.504   2.575   1.115  1.00  0.00     0.122 C 
BRANCH  32  33
HETATM   33  N5  UNL     1      -3.034   3.891   1.569  1.00  0.00    -0.367 N 
HETATM   34  C23 UNL     1      -3.542   4.996   1.123  1.00  0.00     0.196 C 
HETATM   35  N6  UNL     1      -4.595   4.977   0.159  1.00  0.00    -0.067 NA
HETATM   36  N7  UNL     1      -3.029   6.212   1.612  1.00  0.00    -0.067 NA
ATOM     37  H5  UNL     1      -2.283   3.936   2.258  1.00  0.00     0.161 HD
ENDBRANCH  32  33
ENDBRANCH  31  32
ENDBRANCH  30  31
ENDBRANCH  29  30
BRANCH  29  38
HETATM   38  C24 UNL     1      -3.585  -1.280  -0.943  1.00  0.00     0.136 C 
BRANCH  38  39
HETATM   39  O2  UNL     1      -3.691  -1.346  -2.254  1.00  0.00    -0.348 OA
ATOM     40  H2  UNL     1      -4.028  -2.183  -2.551  1.00  0.00     0.219 HD
ENDBRANCH  38  39
BRANCH  38  41
HETATM   41  N8  UNL     1      -3.983  -2.447  -0.295  1.00  0.00    -0.368 N 
HETATM   42  C25 UNL     1      -3.949  -2.634   1.130  1.00  0.00     0.151 C 
BRANCH  41  43
HETATM   43  C26 UNL     1      -4.449  -3.618  -1.076  1.00  0.00     0.130 C 
BRANCH  43  44
HETATM   44  C27 UNL     1      -5.904  -3.638  -1.344  1.00  0.00     0.078 C 
BRANCH  44  45
HETATM   45  C28 UNL     1      -6.718  -3.665  -0.110  1.00  0.00     0.027 A 
HETATM   46  C29 UNL     1      -7.102  -4.823   0.582  1.00  0.00     0.114 A 
HETATM   47  N9  UNL     1      -7.828  -4.437   1.618  1.00  0.00    -0.360 N 
HETATM   48  C30 UNL     1      -7.938  -3.087   1.636  1.00  0.00     0.180 A 
ATOM     49  H9  UNL     1      -8.245  -5.065   2.305  1.00  0.00     0.166 HD
HETATM   50  N10 UNL     1      -7.256  -2.629   0.577  1.00  0.00    -0.355 N 
ATOM     51  H10 UNL     1      -7.157  -1.645   0.326  1.00  0.00     0.166 HD
ENDBRANCH  44  45
ENDBRANCH  43  44
ENDBRANCH  41  43
ENDBRANCH  38  41
ENDBRANCH  29  38
ENDBRANCH   3  29
TORSDOF 21
