REMARK  18 active torsions:
REMARK  status: ('A' for Active; 'I' for Inactive)
REMARK    1  A    between atoms: N1_2  and  C2_4 
REMARK    2  A    between atoms: N2_6  and  C4_7 
REMARK    3  A    between atoms: C4_7  and  C5_8 
REMARK    4  A    between atoms: C5_8  and  C6_9 
REMARK    5  A    between atoms: C6_9  and  C7_10 
REMARK    6  A    between atoms: C7_10  and  C8_11 
REMARK    7  A    between atoms: C8_11  and  C9_12 
REMARK    8  A    between atoms: C9_12  and  C10_13 
REMARK    9  A    between atoms: C10_13  and  C11_14 
REMARK   10  A    between atoms: C11_14  and  N3_15 
REMARK   11  A    between atoms: C22_28  and  C23_29 
REMARK   12  A    between atoms: C23_29  and  C24_30 
REMARK   13  A    between atoms: C24_30  and  N6_31 
REMARK   14  A    between atoms: N7_34  and  C27_35 
REMARK   15  A    between atoms: C27_35  and  C28_36 
REMARK   16  A    between atoms: C28_36  and  O1_37 
REMARK   17  A    between atoms: C28_36  and  C29_39 
REMARK   18  A    between atoms: C29_39  and  O2_40 
ROOT
HETATM    1  C2  UNL     1      -0.924  -2.545  -2.172  1.00  0.00     0.116 A 
HETATM    2  C3  UNL     1      -0.395  -1.496  -2.880  1.00  0.00     0.138 A 
HETATM    3  N2  UNL     1      -0.824  -0.248  -2.661  1.00  0.00    -0.361 N 
HETATM    4  C21 UNL     1      -1.794  -0.042  -1.724  1.00  0.00     0.115 A 
HETATM    5  C22 UNL     1      -2.324  -1.094  -1.014  1.00  0.00     0.028 A 
HETATM    6  N8  UNL     1      -1.893  -2.347  -1.234  1.00  0.00    -0.344 N 
ATOM      7  H8  UNL     1      -2.282  -3.132  -0.711  1.00  0.00     0.167 HD
ENDROOT
BRANCH   3   8
HETATM    8  C4  UNL     1      -0.263   0.839  -3.415  1.00  0.00     0.128 C 
BRANCH   8   9
HETATM    9  C5  UNL     1       0.945   1.483  -2.765  1.00  0.00     0.020 C 
BRANCH   9  10
HETATM   10  C6  UNL     1       2.067   0.527  -2.563  1.00  0.00     0.002 C 
BRANCH  10  11
HETATM   11  C7  UNL     1       3.306   1.203  -1.932  1.00  0.00     0.000 C 
BRANCH  11  12
HETATM   12  C8  UNL     1       3.010   1.774  -0.602  1.00  0.00     0.000 C 
BRANCH  12  13
HETATM   13  C9  UNL     1       4.024   2.510   0.148  1.00  0.00     0.002 C 
BRANCH  13  14
HETATM   14  C10 UNL     1       5.288   1.944   0.602  1.00  0.00     0.020 C 
BRANCH  14  15
HETATM   15  C11 UNL     1       6.274   1.477  -0.409  1.00  0.00     0.128 C 
BRANCH  15  16
HETATM   16  N3  UNL     1       7.471   1.010   0.338  1.00  0.00    -0.364 N 
HETATM   17  C12 UNL     1       8.442   1.884   0.609  1.00  0.00     0.117 A 
HETATM   18  C13 UNL     1       9.559   1.471   1.300  1.00  0.00     0.073 A 
HETATM   19  N4  UNL     1      10.570   2.444   1.566  1.00  0.00    -0.100 NA
HETATM   20  C14 UNL     1       9.688   0.151   1.721  1.00  0.00     0.003 A 
HETATM   21  C15 UNL     1      10.796  -0.263   2.409  1.00  0.00     0.014 A 
HETATM   22  C19 UNL     1       8.655  -0.726   1.418  1.00  0.00     0.016 A 
HETATM   23  C16 UNL     1      10.862  -1.572   2.794  1.00  0.00     0.003 A 
HETATM   24  C17 UNL     1       9.876  -2.478   2.524  1.00  0.00     0.027 A 
HETATM   25  C18 UNL     1       8.751  -2.044   1.822  1.00  0.00     0.058 A 
HETATM   26  N5  UNL     1       7.704  -2.961   1.522  1.00  0.00    -0.102 NA
HETATM   27  C20 UNL     1       7.558  -0.256   0.722  1.00  0.00     0.104 A 
ENDBRANCH  15  16
ENDBRANCH  14  15
ENDBRANCH  13  14
ENDBRANCH  12  13
ENDBRANCH  11  12
ENDBRANCH  10  11
ENDBRANCH   9  10
ENDBRANCH   8   9
ENDBRANCH   3   8
BRANCH   1  28
HETATM   28  N1  UNL     1      -0.533  -3.772  -2.357  1.00  0.00    -0.380 N 
HETATM   29  C1  UNL     1       0.504  -4.031  -3.354  1.00  0.00     0.147 C 
ATOM     30  H1  UNL     1      -0.941  -4.536  -1.818  1.00  0.00     0.160 HD
ENDBRANCH   1  28
BRANCH   5  31
HETATM   31  C23 UNL     1      -3.385  -0.862   0.008  1.00  0.00     0.086 C 
BRANCH  31  32
HETATM   32  C24 UNL     1      -4.755  -0.918  -0.589  1.00  0.00     0.245 C 
BRANCH  32  33
HETATM   33  N6  UNL     1      -5.741  -0.703   0.396  1.00  0.00    -0.039 N 
HETATM   34  C25 UNL     1      -5.402   0.149   1.494  1.00  0.00     0.267 C 
HETATM   35  C26 UNL     1      -6.764   0.607   2.041  1.00  0.00     0.267 C 
HETATM   36  N7  UNL     1      -7.677   0.040   1.107  1.00  0.00    -0.037 N 
HETATM   37  C30 UNL     1      -7.726  -1.396   1.353  1.00  0.00     0.267 C 
HETATM   38  C32 UNL     1      -6.909   0.039  -0.130  1.00  0.00     0.473 C 
HETATM   39  C31 UNL     1      -6.379  -1.900   0.882  1.00  0.00     0.267 C 
BRANCH  36  40
HETATM   40  C27 UNL     1      -8.945   0.667   0.983  1.00  0.00     0.273 C 
BRANCH  40  41
HETATM   41  C28 UNL     1      -9.740   0.729   2.240  1.00  0.00     0.168 C 
BRANCH  41  42
HETATM   42  O1  UNL     1      -9.085   1.437   3.249  1.00  0.00    -0.392 OA
ATOM     43  H1  UNL     1      -9.592   1.477   4.051  1.00  0.00     0.210 HD
ENDBRANCH  41  42
BRANCH  41  44
HETATM   44  C29 UNL     1     -11.030   1.477   1.954  1.00  0.00     0.197 C 
BRANCH  44  45
HETATM   45  O2  UNL     1     -10.811   2.780   1.536  1.00  0.00    -0.398 OA
ATOM     46  H2  UNL     1     -11.618   3.248   1.357  1.00  0.00     0.209 HD
ENDBRANCH  44  45
ENDBRANCH  41  44
ENDBRANCH  40  41
ENDBRANCH  36  40
ENDBRANCH  32  33
ENDBRANCH  31  32
ENDBRANCH   5  31
TORSDOF 18
