REMARK  1 active torsions:
REMARK  status: ('A' for Active; 'I' for Inactive)
REMARK    1  A    between atoms: C5_11  and  C6_12 
ROOT
HETATM    1  O1  UNL     1       3.138  -1.822  -1.541  1.00  0.00    -0.245 OA
HETATM    2  C1  UNL     1       2.675  -0.915  -0.766  1.00  0.00     0.342 A 
HETATM    3  N1  UNL     1       3.483  -0.115  -0.074  1.00  0.00    -0.271 N 
ATOM      4  H1  UNL     1       4.495  -0.215  -0.152  1.00  0.00     0.174 HD
HETATM    5  C2  UNL     1       2.957   0.821   0.725  1.00  0.00     0.295 A 
HETATM    6  O2  UNL     1       3.746   1.569   1.371  1.00  0.00    -0.264 OA
HETATM    7  C3  UNL     1       1.592   0.945   0.824  1.00  0.00     0.197 A 
HETATM    8  N2  UNL     1       0.824   1.789   1.543  1.00  0.00    -0.344 N 
ATOM      9  H2  UNL     1       1.153   2.521   2.173  1.00  0.00     0.167 HD
HETATM   10  C4  UNL     1      -0.449   1.486   1.275  1.00  0.00     0.122 A 
HETATM   11  C5  UNL     1      -0.523   0.419   0.360  1.00  0.00     0.087 A 
HETATM   12  N5  UNL     1       0.762   0.127   0.116  1.00  0.00    -0.229 N 
HETATM   13  N6  UNL     1       1.343  -0.767  -0.647  1.00  0.00    -0.242 N 
ATOM     14  H6  UNL     1       0.745  -1.393  -1.187  1.00  0.00     0.192 HD
ENDROOT
BRANCH  11  15
HETATM   15  C6  UNL     1      -1.753  -0.164  -0.148  1.00  0.00     0.028 A 
HETATM   16  C7  UNL     1      -1.986  -1.183  -1.023  1.00  0.00     0.122 A 
HETATM   17  N3  UNL     1      -3.347  -1.333  -1.159  1.00  0.00    -0.311 N 
HETATM   18  N4  UNL     1      -3.944  -0.445  -0.402  1.00  0.00    -0.311 N 
ATOM     19  H3  UNL     1      -3.814  -2.021  -1.750  1.00  0.00     0.186 HD
HETATM   20  C8  UNL     1      -3.018   0.283   0.229  1.00  0.00     0.122 A 
ATOM     21  H4  UNL     1      -4.953  -0.328  -0.309  1.00  0.00     0.186 HD
ENDBRANCH  11  15
TORSDOF 1
