REMARK  15 active torsions:
REMARK  status: ('A' for Active; 'I' for Inactive)
REMARK    1  A    between atoms: C2_2  and  C3_3 
REMARK    2  A    between atoms: C2_2  and  C13_18 
REMARK    3  A    between atoms: C3_3  and  C4_4 
REMARK    4  A    between atoms: C4_4  and  C5_5 
REMARK       I    between atoms: C5_5  and  N1_7 
REMARK    5  A    between atoms: N1_7  and  C6_9 
REMARK    6  A    between atoms: C6_9  and  C7_10 
REMARK    7  A    between atoms: C13_18  and  C14_20 
REMARK    8  A    between atoms: C14_20  and  C15_21 
REMARK    9  A    between atoms: C15_21  and  C16_22 
REMARK   10  A    between atoms: C16_22  and  C17_23 
REMARK   11  A    between atoms: C16_22  and  N3_38 
REMARK   12  A    between atoms: C17_23  and  C18_24 
REMARK   13  A    between atoms: C21_27  and  C22_28 
REMARK       I    between atoms: C22_28  and  N2_30 
REMARK       I    between atoms: N3_38  and  C29_40 
REMARK   14  A    between atoms: C29_40  and  O8_42 
REMARK   15  A    between atoms: O8_42  and  C30_43 
ROOT
HETATM    1  C16 UNL     1      -1.156   0.733   0.681  1.00  0.00     0.087 C 
ENDROOT
BRANCH   1   2
HETATM    2  C15 UNL     1      -0.188  -0.277   0.212  1.00  0.00     0.032 C 
BRANCH   2   3
HETATM    3  C14 UNL     1       0.701   0.041  -0.920  1.00  0.00     0.080 C 
BRANCH   3   4
HETATM    4  C13 UNL     1       1.623   1.165  -0.795  1.00  0.00     0.130 C 
HETATM    5  O4  UNL     1       1.325   2.220  -1.335  1.00  0.00    -0.298 OA
BRANCH   4   6
HETATM    6  C2  UNL     1       2.910   1.149  -0.057  1.00  0.00     0.052 C 
HETATM    7  C1  UNL     1       2.734   0.919   1.436  1.00  0.00     0.018 C 
BRANCH   6   8
HETATM    8  C3  UNL     1       3.898   0.150  -0.638  1.00  0.00     0.021 C 
BRANCH   8   9
HETATM    9  C4  UNL     1       5.251   0.279  -0.002  1.00  0.00     0.103 C 
BRANCH   9  10
HETATM   10  C5  UNL     1       6.224  -0.721  -0.550  1.00  0.00     0.218 C 
HETATM   11  O1  UNL     1       5.853  -1.612  -1.346  1.00  0.00    -0.274 OA
HETATM   12  N1  UNL     1       7.580  -0.625  -0.138  1.00  0.00    -0.341 N 
ATOM     13  H1  UNL     1       7.861   0.117   0.504  1.00  0.00     0.163 HD
BRANCH  12  14
HETATM   14  C6  UNL     1       8.589  -1.587  -0.628  1.00  0.00     0.128 C 
HETATM   15  C8  UNL     1       9.955  -0.991  -0.474  1.00  0.00     0.025 C 
HETATM   16  C9  UNL     1      10.871  -1.910  -1.179  1.00  0.00     0.008 C 
HETATM   17  C12 UNL     1       9.515  -0.076  -1.646  1.00  0.00     0.015 C 
HETATM   18  C10 UNL     1      10.033  -2.211  -2.412  1.00  0.00     0.008 C 
HETATM   19  C11 UNL     1       8.844  -1.386  -2.122  1.00  0.00     0.025 C 
BRANCH  14  20
HETATM   20  C7  UNL     1       8.332  -2.943  -0.194  1.00  0.00     0.203 C 
HETATM   21  O2  UNL     1       7.309  -3.185   0.539  1.00  0.00    -0.646 OA
HETATM   22  O3  UNL     1       9.110  -4.014  -0.510  1.00  0.00    -0.646 OA
ENDBRANCH  14  20
ENDBRANCH  12  14
ENDBRANCH   9  10
ENDBRANCH   8   9
ENDBRANCH   6   8
ENDBRANCH   4   6
ENDBRANCH   3   4
ENDBRANCH   2   3
ENDBRANCH   1   2
BRANCH   1  23
HETATM   23  C17 UNL     1      -2.002   0.268   1.844  1.00  0.00     0.029 C 
BRANCH  23  24
HETATM   24  C18 UNL     1      -2.837  -0.934   1.648  1.00  0.00    -0.013 C 
HETATM   25  C19 UNL     1      -3.840  -0.780   0.544  1.00  0.00     0.005 C 
HETATM   26  C20 UNL     1      -5.025  -1.694   0.619  1.00  0.00     0.014 C 
HETATM   27  C21 UNL     1      -5.700  -1.775   1.939  1.00  0.00     0.078 C 
HETATM   28  C27 UNL     1      -4.977  -0.971   2.970  1.00  0.00     0.014 C 
HETATM   29  C28 UNL     1      -3.499  -1.235   3.003  1.00  0.00     0.005 C 
BRANCH  27  30
HETATM   30  C22 UNL     1      -5.822  -3.210   2.320  1.00  0.00     0.224 C 
HETATM   31  O5  UNL     1      -5.258  -3.609   3.369  1.00  0.00    -0.273 OA
HETATM   32  N2  UNL     1      -6.543  -4.140   1.554  1.00  0.00    -0.348 N 
HETATM   33  C23 UNL     1      -6.598  -5.522   2.015  1.00  0.00     0.152 C 
HETATM   34  C26 UNL     1      -7.260  -3.868   0.331  1.00  0.00     0.152 C 
HETATM   35  C24 UNL     1      -8.056  -5.711   2.459  1.00  0.00     0.187 C 
HETATM   36  O6  UNL     1      -8.900  -4.920   1.705  1.00  0.00    -0.388 OA
HETATM   37  C25 UNL     1      -8.496  -4.779   0.375  1.00  0.00     0.187 C 
ENDBRANCH  27  30
ENDBRANCH  23  24
ENDBRANCH   1  23
BRANCH   1  38
HETATM   38  N3  UNL     1      -1.914   1.430  -0.332  1.00  0.00    -0.332 N 
HETATM   39  C29 UNL     1      -2.062   2.859  -0.316  1.00  0.00     0.361 C 
HETATM   40  O7  UNL     1      -1.514   3.495   0.607  1.00  0.00    -0.238 OA
ATOM     41  H3  UNL     1      -2.356   0.893  -1.078  1.00  0.00     0.165 HD
BRANCH  39  42
HETATM   42  O8  UNL     1      -2.776   3.525  -1.270  1.00  0.00    -0.296 OA
BRANCH  42  43
HETATM   43  C30 UNL     1      -2.877   4.927  -1.177  1.00  0.00     0.166 C 
HETATM   44  C31 UNL     1      -4.323   5.314  -1.233  1.00  0.00     0.204 C 
HETATM   45  O9  UNL     1      -4.283   6.628  -1.678  1.00  0.00    -0.358 OA
HETATM   46  C32 UNL     1      -3.395   6.588  -2.743  1.00  0.00     0.266 C 
HETATM   47  O10 UNL     1      -2.777   7.831  -2.905  1.00  0.00    -0.361 OA
HETATM   48  C35 UNL     1      -2.335   5.582  -2.432  1.00  0.00     0.075 C 
HETATM   49  C33 UNL     1      -1.631   7.826  -2.151  1.00  0.00     0.171 C 
HETATM   50  C34 UNL     1      -1.124   6.401  -2.131  1.00  0.00     0.038 C 
ENDBRANCH  42  43
ENDBRANCH  39  42
ENDBRANCH   1  38
TORSDOF 15
