REMARK  3 active torsions:
REMARK  status: ('A' for Active; 'I' for Inactive)
REMARK    1  A    between atoms: N1_1  and  N2_4 
REMARK       I    between atoms: N2_4  and  C1_5 
REMARK    2  A    between atoms: C1_5  and  C2_7 
REMARK       I    between atoms: C2_7  and  N3_9 
REMARK    3  A    between atoms: N3_9  and  C3_11 
ROOT
HETATM    1  C2  UNL     1       0.477  -0.580   1.106  1.00  0.00     0.344 C 
HETATM    2  O2  UNL     1       0.741  -1.803   1.221  1.00  0.00    -0.260 OA
HETATM    3  N3  UNL     1      -0.766  -0.063   1.525  1.00  0.00    -0.149 N 
ATOM      4  H3  UNL     1      -0.925   0.193   2.499  1.00  0.00     0.188 HD
ENDROOT
BRANCH   3   5
HETATM    5  C3  UNL     1      -1.695   0.077   0.643  1.00  0.00     0.700 A 
HETATM    6  N4  UNL     1      -2.929   0.568   0.947  1.00  0.00    -0.185 N 
HETATM    7  C4  UNL     1      -3.680   0.594  -0.165  1.00  0.00     0.215 A 
ATOM      8  H4  UNL     1      -3.234   0.868   1.873  1.00  0.00     0.185 HD
HETATM    9  N5  UNL     1      -2.884   0.112  -1.143  1.00  0.00    -0.281 N 
HETATM   10  N6  UNL     1      -1.687  -0.203  -0.671  1.00  0.00    -0.131 N 
ATOM     11  H5  UNL     1      -3.167   0.005  -2.117  1.00  0.00     0.188 HD
ATOM     12  H6  UNL     1      -0.907  -0.586  -1.204  1.00  0.00     0.205 HD
ENDBRANCH   3   5
BRANCH   1  13
HETATM   13  C1  UNL     1       1.537   0.308   0.503  1.00  0.00     0.403 C 
HETATM   14  N2  UNL     1       2.716  -0.188   0.102  1.00  0.00    -0.284 NA
HETATM   15  O1  UNL     1       1.124   1.524   0.456  1.00  0.00    -0.244 OA
BRANCH  14  16
HETATM   16  N1  UNL     1       3.892  -0.684  -0.298  1.00  0.00    -0.276 N 
ATOM     17  H12 UNL     1       2.980  -0.348   0.011  1.00  0.00     0.191 HD
ATOM     18  H11 UNL     1       4.789  -1.061  -0.603  1.00  0.00     0.191 HD
ENDBRANCH  14  16
ENDBRANCH   1  13
TORSDOF 3
