REMARK  5 active torsions:
REMARK  status: ('A' for Active; 'I' for Inactive)
REMARK    1  A    between atoms: C5_8  and  C6_9 
REMARK    2  A    between atoms: C6_9  and  N2_11 
REMARK    3  A    between atoms: N2_11  and  N3_13 
REMARK    4  A    between atoms: C8_15  and  C9_16 
REMARK    5  A    between atoms: C9_16  and  N4_17 
ROOT
HETATM    1  C6  UNL     1      -0.180   0.140  -1.037  1.00  0.00     0.105 C 
HETATM    2  C7  UNL     1      -0.268  -1.343  -0.788  1.00  0.00     0.034 C 
ENDROOT
BRANCH   1   3
HETATM    3  C5  UNL     1      -1.476   0.862  -0.907  1.00  0.00     0.065 C 
HETATM    4  C2  UNL     1      -2.122   0.772   0.407  1.00  0.00    -0.056 C 
HETATM    5  C1  UNL     1      -1.900   1.568   1.433  1.00  0.00     0.016 C 
HETATM    6  C3  UNL     1      -3.057  -0.361   0.366  1.00  0.00     0.266 C 
HETATM    7  N1  UNL     1      -3.330  -0.635  -1.031  1.00  0.00    -0.071 N 
HETATM    8  C4  UNL     1      -2.497   0.229  -1.823  1.00  0.00     0.243 C 
ATOM      9  H12 UNL     1      -3.217  -1.620  -1.270  1.00  0.00     0.277 HD
ATOM     10  H11 UNL     1      -4.320  -0.551  -1.264  1.00  0.00     0.277 HD
ENDBRANCH   1   3
BRANCH   1  11
HETATM   11  N2  UNL     1       0.880   0.671  -0.213  1.00  0.00    -0.332 N 
ATOM     12  H2  UNL     1       0.722   1.475   0.395  1.00  0.00     0.180 HD
BRANCH  11  13
HETATM   13  N3  UNL     1       2.127   0.049  -0.275  1.00  0.00    -0.318 N 
HETATM   14  C8  UNL     1       2.830  -0.240   0.751  1.00  0.00     0.106 C 
ATOM     15  H3  UNL     1       2.499  -0.189  -1.194  1.00  0.00     0.185 HD
BRANCH  14  16
HETATM   16  C9  UNL     1       4.149  -0.909   0.498  1.00  0.00     0.275 C 
BRANCH  16  17
HETATM   17  N4  UNL     1       4.959  -0.060  -0.362  1.00  0.00    -0.075 N 
ATOM     18  H43 UNL     1       4.478   0.187  -1.227  1.00  0.00     0.274 HD
ATOM     19  H42 UNL     1       5.068   0.881   0.015  1.00  0.00     0.274 HD
ATOM     20  H41 UNL     1       5.856  -0.515  -0.534  1.00  0.00     0.274 HD
ENDBRANCH  16  17
ENDBRANCH  14  16
ENDBRANCH  11  13
ENDBRANCH   1  11
TORSDOF 5
