REMARK  6 active torsions:
REMARK  status: ('A' for Active; 'I' for Inactive)
REMARK    1  A    between atoms: C3_6  and  C4_7 
REMARK    2  A    between atoms: C4_7  and  N2_8 
REMARK    3  A    between atoms: N2_8  and  C5_11 
REMARK    4  A    between atoms: C5_11  and  C6_12 
REMARK    5  A    between atoms: C6_12  and  C7_13 
REMARK    6  A    between atoms: C7_13  and  N3_14 
ROOT
HETATM    1  C4  UNL     1       0.211  -0.805  -0.339  1.00  0.00     0.293 C 
ENDROOT
BRANCH   1   2
HETATM    2  C3  UNL     1      -1.121  -0.597   0.281  1.00  0.00     0.347 C 
HETATM    3  N1  UNL     1      -2.170  -1.327  -0.485  1.00  0.00    -0.041 N 
HETATM    4  C2  UNL     1      -3.333  -0.808   0.254  1.00  0.00     0.213 C 
ATOM      5  H12 UNL     1      -2.076  -2.341  -0.547  1.00  0.00     0.280 HD
ATOM      6  H11 UNL     1      -2.173  -1.205  -1.498  1.00  0.00     0.280 HD
HETATM    7  C1  UNL     1      -4.617  -1.151  -0.373  1.00  0.00     0.043 C 
HETATM    8  C8  UNL     1      -2.988   0.597   0.504  1.00  0.00     0.150 C 
HETATM    9  O1  UNL     1      -1.595   0.684   0.314  1.00  0.00    -0.351 OA
HETATM   10  C9  UNL     1      -3.617   1.654  -0.310  1.00  0.00     0.042 C 
ENDBRANCH   1   2
BRANCH   1  11
HETATM   11  N2  UNL     1       1.196   0.024   0.326  1.00  0.00    -0.071 N 
ATOM     12  H22 UNL     1       1.011   1.017   0.183  1.00  0.00     0.277 HD
ATOM     13  H21 UNL     1       1.092  -0.008   1.340  1.00  0.00     0.277 HD
BRANCH  11  14
HETATM   14  C5  UNL     1       2.522  -0.330  -0.080  1.00  0.00     0.234 C 
BRANCH  14  15
HETATM   15  C6  UNL     1       3.567   0.704   0.304  1.00  0.00     0.055 C 
BRANCH  15  16
HETATM   16  C7  UNL     1       4.943   0.245  -0.149  1.00  0.00     0.231 C 
BRANCH  16  17
HETATM   17  N3  UNL     1       5.902   1.295   0.212  1.00  0.00    -0.079 N 
ATOM     18  H33 UNL     1       5.647   2.210  -0.159  1.00  0.00     0.274 HD
ATOM     19  H32 UNL     1       5.871   1.538   1.202  1.00  0.00     0.274 HD
ATOM     20  H31 UNL     1       6.826   0.987  -0.092  1.00  0.00     0.274 HD
ENDBRANCH  16  17
ENDBRANCH  15  16
ENDBRANCH  14  15
ENDBRANCH  11  14
ENDBRANCH   1  11
TORSDOF 6
