REMARK  2 active torsions:
REMARK  status: ('A' for Active; 'I' for Inactive)
REMARK    1  A    between atoms: C5_5  and  C6_6 
REMARK    2  A    between atoms: C7_7  and  C8_8 
ROOT
HETATM    1  C8  UNL     1      -0.983   0.110   0.140  1.00  0.00     0.018 A 
HETATM    2  C9  UNL     1      -1.702   0.950   0.963  1.00  0.00     0.021 A 
HETATM    3  C10 UNL     1      -3.077   0.961   1.003  1.00  0.00     0.015 A 
HETATM    4  C11 UNL     1      -3.779   0.096   0.187  1.00  0.00    -0.009 A 
HETATM    5  C12 UNL     1      -3.078  -0.753  -0.644  1.00  0.00    -0.008 A 
HETATM    6  C13 UNL     1      -3.810  -1.604  -1.446  1.00  0.00     0.102 A 
HETATM    7  N1  UNL     1      -5.172  -1.615  -1.427  1.00  0.00    -0.350 N 
ATOM      8  H1  UNL     1      -5.671  -2.262  -2.038  1.00  0.00     0.166 HD
HETATM    9  C14 UNL     1      -5.878  -0.796  -0.624  1.00  0.00     0.132 A 
HETATM   10  N2  UNL     1      -7.183  -0.574  -0.382  1.00  0.00    -0.285 N 
ATOM     11  H2  UNL     1      -7.950  -1.067  -0.839  1.00  0.00     0.188 HD
HETATM   12  N3  UNL     1      -7.334   0.372   0.530  1.00  0.00    -0.309 N 
ATOM     13  H3  UNL     1      -8.220   0.727   0.890  1.00  0.00     0.186 HD
HETATM   14  C15 UNL     1      -6.114   0.779   0.895  1.00  0.00     0.123 A 
HETATM   15  C16 UNL     1      -5.159   0.060   0.183  1.00  0.00     0.037 A 
HETATM   16  C17 UNL     1      -1.679  -0.751  -0.673  1.00  0.00     0.034 A 
ENDROOT
BRANCH   1  17
HETATM   17  C7  UNL     1       0.452   0.104   0.103  1.00  0.00    -0.061 C 
HETATM   18  C6  UNL     1       1.677   0.111   0.087  1.00  0.00    -0.061 C 
BRANCH  18  19
HETATM   19  C5  UNL     1       3.112   0.141   0.083  1.00  0.00     0.018 A 
HETATM   20  C4  UNL     1       3.819  -0.518  -0.901  1.00  0.00     0.021 A 
HETATM   21  C3  UNL     1       5.190  -0.519  -0.946  1.00  0.00     0.008 A 
HETATM   22  C2  UNL     1       5.900   0.154   0.013  1.00  0.00    -0.062 A 
HETATM   23  C1  UNL     1       7.385   0.201   0.033  1.00  0.00     0.048 C 
HETATM   24  C19 UNL     1       5.237   0.829   1.018  1.00  0.00     0.008 A 
HETATM   25  C18 UNL     1       3.847   0.811   1.036  1.00  0.00     0.021 A 
ENDBRANCH  18  19
ENDBRANCH   1  17
TORSDOF 2
