REMARK  2 active torsions:
REMARK  status: ('A' for Active; 'I' for Inactive)
REMARK    1  A    between atoms: C5_6  and  C6_7 
REMARK    2  A    between atoms: C7_8  and  C8_9 
ROOT
HETATM    1  N1  UNL     1       9.219  -0.489  -1.110  1.00  0.00    -0.191 NA
HETATM    2  C1  UNL     1       8.095  -0.383  -0.865  1.00  0.00     0.099 C 
HETATM    3  C2  UNL     1       6.678  -0.234  -0.574  1.00  0.00     0.044 A 
HETATM    4  C3  UNL     1       5.810   0.021  -1.600  1.00  0.00     0.024 A 
HETATM    5  C4  UNL     1       4.440   0.169  -1.354  1.00  0.00     0.022 A 
HETATM    6  C5  UNL     1       3.939   0.062  -0.076  1.00  0.00     0.018 A 
HETATM    7  C19 UNL     1       4.826  -0.194   0.944  1.00  0.00     0.022 A 
HETATM    8  C20 UNL     1       6.190  -0.342   0.704  1.00  0.00     0.024 A 
ENDROOT
BRANCH   6   9
HETATM    9  C6  UNL     1       2.533   0.220   0.141  1.00  0.00    -0.059 C 
HETATM   10  C7  UNL     1       1.345   0.337   0.309  1.00  0.00    -0.025 C 
BRANCH  10  11
HETATM   11  C8  UNL     1      -0.092   0.456   0.500  1.00  0.00     0.163 A 
HETATM   12  N2  UNL     1      -0.724   1.275   1.359  1.00  0.00    -0.333 N 
HETATM   13  C9  UNL     1      -2.056   1.117   1.263  1.00  0.00     0.062 A 
ATOM     14  H2  UNL     1      -0.259   1.924   1.994  1.00  0.00     0.168 HD
HETATM   15  C10 UNL     1      -3.154   1.675   1.881  1.00  0.00     0.033 A 
HETATM   16  C18 UNL     1      -2.274   0.141   0.285  1.00  0.00     0.072 A 
HETATM   17  C11 UNL     1      -4.452   1.320   1.584  1.00  0.00     0.014 A 
HETATM   18  C12 UNL     1      -4.642   0.354   0.615  1.00  0.00    -0.024 A 
HETATM   19  C13 UNL     1      -5.942  -0.030   0.289  1.00  0.00     0.012 A 
HETATM   20  C17 UNL     1      -3.571  -0.235  -0.033  1.00  0.00     0.003 A 
HETATM   21  C14 UNL     1      -6.147  -0.979  -0.663  1.00  0.00     0.001 A 
HETATM   22  C15 UNL     1      -5.071  -1.551  -1.293  1.00  0.00     0.001 A 
HETATM   23  C16 UNL     1      -3.763  -1.194  -0.995  1.00  0.00     0.014 A 
HETATM   24  N3  UNL     1      -1.059  -0.221  -0.140  1.00  0.00    -0.333 N 
ATOM     25  H3  UNL     1      -0.888  -0.923  -0.860  1.00  0.00     0.168 HD
ENDBRANCH  10  11
ENDBRANCH   6   9
TORSDOF 2
