REMARK  10 active torsions:
REMARK  status: ('A' for Active; 'I' for Inactive)
REMARK    1  A    between atoms: C2_2  and  N1_3 
REMARK    2  A    between atoms: C2_2  and  C3_7 
REMARK    3  A    between atoms: C4_12  and  N4_13 
REMARK       I    between atoms: N4_13  and  C5_15 
REMARK    4  A    between atoms: C5_15  and  C6_17 
REMARK    5  A    between atoms: C6_17  and  C7_18 
REMARK       I    between atoms: C7_18  and  N5_20 
REMARK    6  A    between atoms: N5_20  and  C8_22 
REMARK    7  A    between atoms: C11_25  and  N6_26 
REMARK       I    between atoms: N6_26  and  C12_28 
REMARK    8  A    between atoms: C12_28  and  C13_30 
REMARK    9  A    between atoms: N9_34  and  N10_35 
REMARK   10  A    between atoms: N12_42  and  N13_43 
ROOT
HETATM    1  C7  UNL     1      -0.893  -0.216  -0.431  1.00  0.00     0.231 C 
HETATM    2  O2  UNL     1      -0.724   0.492  -1.438  1.00  0.00    -0.273 OA
HETATM    3  N5  UNL     1       0.136  -0.575   0.454  1.00  0.00    -0.327 N 
ATOM      4  H5  UNL     1      -0.106  -1.172   1.245  1.00  0.00     0.169 HD
ENDROOT
BRANCH   1   5
HETATM    5  C6  UNL     1      -2.278  -0.703  -0.157  1.00  0.00     0.206 C 
BRANCH   5   6
HETATM    6  C5  UNL     1      -3.173  -0.249  -1.228  1.00  0.00     0.244 C 
HETATM    7  N4  UNL     1      -4.373   0.477  -1.032  1.00  0.00    -0.156 N 
ATOM      8  H4  UNL     1      -4.379   1.484  -1.191  1.00  0.00     0.187 HD
HETATM    9  O1  UNL     1      -2.829  -0.535  -2.428  1.00  0.00    -0.272 OA
BRANCH   7  10
HETATM   10  C4  UNL     1      -5.456  -0.109  -0.657  1.00  0.00     0.722 A 
HETATM   11  N3  UNL     1      -5.698  -1.404  -0.386  1.00  0.00    -0.129 N 
HETATM   12  N2  UNL     1      -6.981  -1.551  -0.022  1.00  0.00    -0.271 N 
ATOM     13  H3  UNL     1      -5.013  -2.157  -0.448  1.00  0.00     0.205 HD
HETATM   14  C3  UNL     1      -7.582  -0.349  -0.056  1.00  0.00     0.166 A 
ATOM     15  H2  UNL     1      -7.427  -2.431   0.238  1.00  0.00     0.189 HD
HETATM   16  N12 UNL     1      -6.637   0.513  -0.444  1.00  0.00    -0.075 N 
BRANCH  14  17
HETATM   17  C2  UNL     1      -9.013  -0.137   0.291  1.00  0.00     0.250 C 
HETATM   18  C1  UNL     1      -9.375   1.317   0.460  1.00  0.00     0.048 C 
BRANCH  17  19
HETATM   19  N1  UNL     1      -9.370  -0.811   1.518  1.00  0.00    -0.068 N 
ATOM     20  H13 UNL     1      -8.948  -0.387   2.344  1.00  0.00     0.275 HD
ATOM     21  H12 UNL     1     -10.345  -0.670   1.782  1.00  0.00     0.275 HD
ATOM     22  H11 UNL     1      -9.125  -1.795   1.404  1.00  0.00     0.275 HD
ENDBRANCH  17  19
ENDBRANCH  14  17
BRANCH  16  23
HETATM   23  N13 UNL     1      -6.843   1.881  -0.601  1.00  0.00    -0.323 N 
ATOM     24 2H13 UNL     1      -7.734   2.350  -0.440  1.00  0.00     0.178 HD
ATOM     25 1H13 UNL     1      -6.122   2.539  -0.897  1.00  0.00     0.178 HD
ENDBRANCH  16  23
ENDBRANCH   7  10
ENDBRANCH   5   6
ENDBRANCH   1   5
BRANCH   3  26
HETATM   26  C8  UNL     1       1.502  -0.163   0.326  1.00  0.00     0.034 A 
HETATM   27  C9  UNL     1       1.920   0.939  -0.353  1.00  0.00     0.032 A 
HETATM   28  C10 UNL     1       3.256   1.225  -0.440  1.00  0.00     0.032 A 
HETATM   29  C11 UNL     1       4.198   0.396   0.163  1.00  0.00     0.035 A 
HETATM   30  C15 UNL     1       3.806  -0.712   0.849  1.00  0.00     0.032 A 
HETATM   31  C16 UNL     1       2.434  -0.980   0.922  1.00  0.00     0.032 A 
BRANCH  29  32
HETATM   32  N6  UNL     1       5.540   0.796   0.037  1.00  0.00    -0.322 N 
HETATM   33  C12 UNL     1       6.604  -0.110   0.035  1.00  0.00     0.277 C 
HETATM   34  O3  UNL     1       6.444  -1.332   0.134  1.00  0.00    -0.266 OA
ATOM     35  H6  UNL     1       5.746   1.791  -0.057  1.00  0.00     0.169 HD
BRANCH  33  36
HETATM   36  C13 UNL     1       7.977   0.428  -0.094  1.00  0.00     0.159 A 
HETATM   37  N7  UNL     1       8.334   1.719  -0.194  1.00  0.00    -0.274 N 
HETATM   38  N8  UNL     1       9.654   1.783  -0.285  1.00  0.00     0.002 NA
ATOM     39  H7  UNL     1       7.697   2.515  -0.199  1.00  0.00     0.184 HD
HETATM   40  N9  UNL     1      10.186   0.560  -0.249  1.00  0.00    -0.170 N 
HETATM   41  C14 UNL     1       9.151  -0.293  -0.130  1.00  0.00     0.187 A 
HETATM   42  N11 UNL     1       9.254  -1.709  -0.062  1.00  0.00    -0.077 NA
BRANCH  40  43
HETATM   43  N10 UNL     1      11.549   0.268  -0.323  1.00  0.00    -0.324 N 
ATOM     44 2H10 UNL     1      12.333   0.914  -0.413  1.00  0.00     0.178 HD
ATOM     45 1H10 UNL     1      11.956  -0.667  -0.295  1.00  0.00     0.178 HD
ENDBRANCH  40  43
ENDBRANCH  33  36
ENDBRANCH  29  32
ENDBRANCH   3  26
TORSDOF 10
