REMARK  4 active torsions:
REMARK  status: ('A' for Active; 'I' for Inactive)
REMARK    1  A    between atoms: C2_2  and  O1_3 
REMARK    2  A    between atoms: O1_3  and  C3_4 
REMARK    3  A    between atoms: C7_8  and  N1_9 
REMARK       I    between atoms: N1_9  and  C8_11 
REMARK       I    between atoms: C8_11  and  N2_13 
REMARK    4  A    between atoms: N2_13  and  C9_15 
REMARK       I    between atoms: N3_18  and  C12_19 
ROOT
HETATM    1  N1  UNL     1      -1.726  -0.769  -0.147  1.00  0.00    -0.336 N 
ATOM      2  H1  UNL     1      -1.936  -0.558  -1.123  1.00  0.00     0.164 HD
HETATM    3  C8  UNL     1      -0.390  -0.644   0.307  1.00  0.00     0.316 C 
HETATM    4  O2  UNL     1      -0.189  -0.917   1.525  1.00  0.00    -0.247 OA
HETATM    5  N2  UNL     1       0.638  -0.235  -0.571  1.00  0.00    -0.338 N 
ATOM      6  H2  UNL     1       0.374  -0.037  -1.536  1.00  0.00     0.164 HD
ENDROOT
BRANCH   5   7
HETATM    7  C9  UNL     1       2.015  -0.074  -0.225  1.00  0.00     0.095 C 
HETATM    8  C10 UNL     1       2.595   1.265  -0.432  1.00  0.00     0.045 C 
HETATM    9  C11 UNL     1       3.892   1.169  -1.224  1.00  0.00     0.134 C 
HETATM   10  N3  UNL     1       4.730   0.213  -0.521  1.00  0.00    -0.290 N 
HETATM   11  C12 UNL     1       5.922   0.580   0.134  1.00  0.00     0.220 C 
HETATM   12  C14 UNL     1       4.248  -1.164  -0.539  1.00  0.00     0.328 C 
HETATM   13  C13 UNL     1       6.429   1.975   0.164  1.00  0.00     0.117 C 
HETATM   14  O3  UNL     1       6.596  -0.303   0.722  1.00  0.00    -0.274 OA
HETATM   15  F1  UNL     1       4.935  -1.858  -1.522  1.00  0.00    -0.182 F 
HETATM   16  F2  UNL     1       4.445  -1.748   0.674  1.00  0.00    -0.182 F 
HETATM   17  C15 UNL     1       2.785  -1.193  -0.935  1.00  0.00     0.129 C 
ENDBRANCH   5   7
BRANCH   1  18
HETATM   18  C7  UNL     1      -2.787  -1.179   0.712  1.00  0.00     0.115 C 
HETATM   19  C3  UNL     1      -3.918  -0.186   0.849  1.00  0.00     0.144 C 
HETATM   20  C4  UNL     1      -4.934  -1.063   1.612  1.00  0.00     0.034 C 
HETATM   21  C5  UNL     1      -4.913  -2.322   0.781  1.00  0.00     0.005 C 
HETATM   22  C6  UNL     1      -3.549  -2.379   0.133  1.00  0.00     0.028 C 
BRANCH  19  23
HETATM   23  O1  UNL     1      -4.403   0.126  -0.388  1.00  0.00    -0.384 OA
BRANCH  23  24
HETATM   24  C2  UNL     1      -4.522   1.458  -0.680  1.00  0.00     0.163 C 
HETATM   25  C1  UNL     1      -3.234   2.240  -0.628  1.00  0.00     0.033 C 
ENDBRANCH  23  24
ENDBRANCH  19  23
ENDBRANCH   1  18
TORSDOF 4
