REMARK  6 active torsions:
REMARK  status: ('A' for Active; 'I' for Inactive)
REMARK    1  A    between atoms: C3_3  and  N1_4 
REMARK    2  A    between atoms: C6_8  and  N2_9 
REMARK    3  A    between atoms: N2_9  and  C7_11 
REMARK    4  A    between atoms: N3_15  and  C11_16 
REMARK    5  A    between atoms: C14_19  and  C15_20 
REMARK       I    between atoms: C15_20  and  N4_22 
REMARK    6  A    between atoms: N4_22  and  C16_24 
ROOT
HETATM    1  C1  UNL     1     -11.082   1.160   1.190  1.00  0.00     0.113 C 
HETATM    2  C2  UNL     1      -9.653   0.822   1.210  1.00  0.00    -0.087 C 
HETATM    3  C3  UNL     1      -8.477   0.523   1.224  1.00  0.00     0.021 C 
ENDROOT
BRANCH   3   4
HETATM    4  N1  UNL     1      -7.130   0.156   1.244  1.00  0.00    -0.218 N 
HETATM    5  C4  UNL     1      -6.327   0.514   2.270  1.00  0.00     0.263 A 
HETATM    6  O1  UNL     1      -6.799   1.198   3.238  1.00  0.00    -0.267 OA
HETATM    7  C5  UNL     1      -4.995   0.163   2.311  1.00  0.00     0.107 A 
HETATM    8  C6  UNL     1      -4.484  -0.574   1.268  1.00  0.00     0.070 A 
HETATM    9  C25 UNL     1      -5.298  -0.956   0.196  1.00  0.00     0.105 A 
HETATM   10  N9  UNL     1      -4.778  -1.676  -0.811  1.00  0.00    -0.360 N 
HETATM   11  C28 UNL     1      -6.636  -0.564   0.223  1.00  0.00     0.152 A 
HETATM   12  C26 UNL     1      -5.594  -2.026  -1.830  1.00  0.00     0.105 A 
ATOM     13  H9  UNL     1      -3.796  -1.951  -0.807  1.00  0.00     0.165 HD
HETATM   14  C27 UNL     1      -6.906  -1.670  -1.853  1.00  0.00     0.107 A 
HETATM   15  N10 UNL     1      -7.389  -0.950  -0.826  1.00  0.00    -0.348 N 
ATOM     16  H10 UNL     1      -8.373  -0.683  -0.841  1.00  0.00     0.167 HD
BRANCH   8  17
HETATM   17  N2  UNL     1      -3.130  -0.942   1.291  1.00  0.00    -0.339 N 
ATOM     18  H2  UNL     1      -2.854  -1.813   1.745  1.00  0.00     0.167 HD
BRANCH  17  19
HETATM   19  C7  UNL     1      -2.225  -0.193   0.744  1.00  0.00     0.122 A 
HETATM   20  C8  UNL     1      -2.461   1.008   0.098  1.00  0.00     0.076 A 
HETATM   21  C9  UNL     1      -1.227   1.467  -0.331  1.00  0.00     0.034 A 
HETATM   22  C10 UNL     1      -0.966   2.724  -1.076  1.00  0.00     0.070 C 
HETATM   23  N3  UNL     1      -0.284   0.569   0.048  1.00  0.00    -0.259 N 
HETATM   24  N8  UNL     1      -0.906  -0.389   0.674  1.00  0.00    -0.278 N 
ATOM     25  H8  UNL     1      -0.435  -1.203   1.069  1.00  0.00     0.189 HD
BRANCH  23  26
HETATM   26  C11 UNL     1       1.114   0.721  -0.230  1.00  0.00     0.058 A 
HETATM   27  C12 UNL     1       1.789  -0.236  -0.983  1.00  0.00     0.032 A 
HETATM   28  C13 UNL     1       3.137  -0.074  -1.241  1.00  0.00     0.021 A 
HETATM   29  C14 UNL     1       3.853   1.014  -0.776  1.00  0.00     0.056 A 
HETATM   30  C23 UNL     1       3.197   1.951  -0.038  1.00  0.00     0.064 A 
HETATM   31  N7  UNL     1       3.847   3.119   0.493  1.00  0.00    -0.101 NA
HETATM   32  C24 UNL     1       1.839   1.800   0.229  1.00  0.00     0.059 A 
BRANCH  29  33
HETATM   33  C15 UNL     1       5.269   1.164  -1.059  1.00  0.00     0.259 C 
HETATM   34  O2  UNL     1       5.850   2.199  -0.589  1.00  0.00    -0.267 OA
HETATM   35  N4  UNL     1       6.041   0.284  -1.793  1.00  0.00    -0.307 N 
ATOM     36  H4  UNL     1       6.007   0.442  -2.800  1.00  0.00     0.170 HD
BRANCH  35  37
HETATM   37  C16 UNL     1       6.784  -0.684  -1.447  1.00  0.00     0.135 A 
HETATM   38  N5  UNL     1       7.473  -1.441  -2.354  1.00  0.00    -0.284 N 
HETATM   39  N6  UNL     1       8.147  -2.357  -1.710  1.00  0.00    -0.298 N 
ATOM     40  H5  UNL     1       7.463  -1.312  -3.366  1.00  0.00     0.188 HD
HETATM   41  C17 UNL     1       7.954  -2.267  -0.386  1.00  0.00     0.062 A 
ATOM     42  H6  UNL     1       8.744  -3.052  -2.158  1.00  0.00     0.187 HD
HETATM   43  C18 UNL     1       8.446  -3.006   0.695  1.00  0.00     0.032 A 
HETATM   44  C22 UNL     1       7.091  -1.209  -0.216  1.00  0.00     0.037 A 
HETATM   45  C19 UNL     1       8.050  -2.658   1.982  1.00  0.00     0.002 A 
HETATM   46  C20 UNL     1       7.186  -1.595   2.125  1.00  0.00     0.001 A 
HETATM   47  C21 UNL     1       6.690  -0.855   1.071  1.00  0.00     0.017 A 
ENDBRANCH  35  37
ENDBRANCH  29  33
ENDBRANCH  23  26
ENDBRANCH  17  19
ENDBRANCH   8  17
ENDBRANCH   3   4
TORSDOF 6
