REMARK  6 active torsions:
REMARK  status: ('A' for Active; 'I' for Inactive)
REMARK    1  A    between atoms: C3_5  and  C4_6 
REMARK    2  A    between atoms: C14_16  and  C15_17 
REMARK    3  A    between atoms: C16_22  and  N4_23 
REMARK    4  A    between atoms: N4_23  and  C17_25 
REMARK    5  A    between atoms: C17_25  and  N5_27 
REMARK    6  A    between atoms: N5_27  and  C18_29 
ROOT
HETATM    1  C15 UNL     1      -0.788  -0.734  -0.885  1.00  0.00     0.113 A 
HETATM    2  N2  UNL     1      -0.209  -1.963  -0.867  1.00  0.00    -0.282 N 
ATOM      3  H2  UNL     1      -0.546  -2.668  -1.522  1.00  0.00     0.187 HD
HETATM    4  N3  UNL     1       0.753  -2.282  -0.055  1.00  0.00    -0.129 N 
ATOM      5  H3  UNL     1       1.137  -3.226  -0.101  1.00  0.00     0.205 HD
HETATM    6  C16 UNL     1       1.282  -1.397   0.872  1.00  0.00     0.723 A 
HETATM    7  N7  UNL     1       0.726  -0.164   0.878  1.00  0.00    -0.048 N 
HETATM    8  C24 UNL     1      -0.279   0.164   0.027  1.00  0.00     0.192 A 
HETATM    9  N8  UNL     1      -0.265   1.365   0.579  1.00  0.00    -0.264 N 
ATOM     10  H8  UNL     1      -0.806   2.216   0.424  1.00  0.00     0.190 HD
HETATM   11  N9  UNL     1       0.708   1.049   1.403  1.00  0.00    -0.214 N 
HETATM   12  C25 UNL     1       1.442   1.775   2.453  1.00  0.00     0.201 C 
ENDROOT
BRANCH   1  13
HETATM   13  C14 UNL     1      -1.848  -0.441  -1.835  1.00  0.00     0.081 A 
HETATM   14  C3  UNL     1      -2.959   0.228  -1.687  1.00  0.00     0.061 A 
HETATM   15  C2  UNL     1      -3.717   0.254  -2.967  1.00  0.00     0.262 A 
HETATM   16  N1  UNL     1      -2.966  -0.461  -3.913  1.00  0.00    -0.284 N 
HETATM   17  O1  UNL     1      -4.830   0.809  -3.189  1.00  0.00    -0.267 OA
HETATM   18  C1  UNL     1      -3.318  -0.702  -5.317  1.00  0.00     0.163 C 
HETATM   19  C26 UNL     1      -1.808  -0.901  -3.243  1.00  0.00     0.263 A 
HETATM   20  O2  UNL     1      -0.894  -1.578  -3.771  1.00  0.00    -0.267 OA
BRANCH  14  21
HETATM   21  C4  UNL     1      -3.549   0.866  -0.525  1.00  0.00    -0.008 A 
HETATM   22  C5  UNL     1      -3.720   2.222  -0.535  1.00  0.00     0.013 A 
HETATM   23  C6  UNL     1      -4.289   2.846   0.540  1.00  0.00     0.002 A 
HETATM   24  C7  UNL     1      -4.690   2.114   1.633  1.00  0.00     0.012 A 
HETATM   25  C8  UNL     1      -4.533   0.750   1.672  1.00  0.00    -0.025 A 
HETATM   26  C9  UNL     1      -4.971   0.059   2.771  1.00  0.00     0.012 A 
HETATM   27  C13 UNL     1      -3.949   0.143   0.556  1.00  0.00    -0.015 A 
HETATM   28  C10 UNL     1      -4.852  -1.310   2.820  1.00  0.00     0.001 A 
HETATM   29  C11 UNL     1      -4.283  -1.959   1.738  1.00  0.00     0.001 A 
HETATM   30  C12 UNL     1      -3.846  -1.233   0.636  1.00  0.00     0.013 A 
ENDBRANCH  14  21
ENDBRANCH   1  13
BRANCH   6  31
HETATM   31  N4  UNL     1       2.195  -1.751   1.608  1.00  0.00    -0.163 N 
ATOM     32  H4  UNL     1       2.438  -2.720   1.401  1.00  0.00     0.187 HD
BRANCH  31  33
HETATM   33  C17 UNL     1       2.988  -1.296   2.599  1.00  0.00     0.191 C 
HETATM   34  S1  UNL     1       2.441  -1.546   4.178  1.00  0.00    -0.040 SA
BRANCH  33  35
HETATM   35  N5  UNL     1       4.249  -0.659   2.544  1.00  0.00    -0.333 N 
ATOM     36  H5  UNL     1       4.652  -0.392   3.442  1.00  0.00     0.168 HD
BRANCH  35  37
HETATM   37  C18 UNL     1       5.016  -0.347   1.412  1.00  0.00     0.034 A 
HETATM   38  C19 UNL     1       4.884  -0.985   0.222  1.00  0.00     0.031 A 
HETATM   39  C20 UNL     1       5.640  -0.640  -0.907  1.00  0.00     0.029 A 
HETATM   40  C21 UNL     1       6.559   0.374  -0.848  1.00  0.00     0.046 A 
HETATM   41  N6  UNL     1       7.306   0.700  -2.006  1.00  0.00    -0.102 NA
HETATM   42  C22 UNL     1       6.702   1.027   0.354  1.00  0.00     0.029 A 
HETATM   43  C23 UNL     1       5.964   0.688   1.448  1.00  0.00     0.031 A 
ENDBRANCH  35  37
ENDBRANCH  33  35
ENDBRANCH  31  33
ENDBRANCH   6  31
TORSDOF 6
