REMARK  7 active torsions:
REMARK  status: ('A' for Active; 'I' for Inactive)
REMARK    1  A    between atoms: C2_6  and  N2_7 
REMARK    2  A    between atoms: N2_7  and  C3_10 
REMARK    3  A    between atoms: C3_10  and  C4_11 
REMARK    4  A    between atoms: C4_11  and  C5_12 
REMARK    5  A    between atoms: C5_12  and  N3_13 
REMARK    6  A    between atoms: C6_17  and  N4_18 
REMARK    7  A    between atoms: C7_22  and  N5_23 
ROOT
HETATM    1  N1  UNL     1      -3.930   2.141  -0.646  1.00  0.00    -0.382 N 
ATOM      2  H11 UNL     1      -4.891   1.897  -0.404  1.00  0.00     0.158 HD
ATOM      3  H12 UNL     1      -3.896   3.064  -1.080  1.00  0.00     0.158 HD
HETATM    4  C1  UNL     1      -2.864   1.414  -0.452  1.00  0.00     0.147 C 
HETATM    5  O1  UNL     1      -1.560   1.745  -0.780  1.00  0.00    -0.302 OA
HETATM    6  C2  UNL     1      -0.719   0.580  -0.677  1.00  0.00     0.361 C 
HETATM    7  C6  UNL     1      -1.564  -0.530  -0.192  1.00  0.00     0.278 C 
HETATM    8  C7  UNL     1      -2.914   0.076   0.177  1.00  0.00     0.291 C 
ENDROOT
BRANCH   6   9
HETATM    9  N2  UNL     1       0.449   0.927   0.010  1.00  0.00    -0.046 N 
ATOM     10  H22 UNL     1       0.807   1.820  -0.329  1.00  0.00     0.280 HD
ATOM     11  H21 UNL     1       0.231   1.179   0.974  1.00  0.00     0.280 HD
BRANCH   9  12
HETATM   12  C3  UNL     1       1.473  -0.061  -0.023  1.00  0.00     0.237 C 
BRANCH  12  13
HETATM   13  C4  UNL     1       2.669   0.370   0.822  1.00  0.00     0.055 C 
BRANCH  13  14
HETATM   14  C5  UNL     1       3.739  -0.702   0.773  1.00  0.00     0.231 C 
BRANCH  14  15
HETATM   15  N3  UNL     1       4.146  -0.846  -0.622  1.00  0.00    -0.079 N 
ATOM     16  H33 UNL     1       3.363  -1.035  -1.248  1.00  0.00     0.274 HD
ATOM     17  H32 UNL     1       4.443   0.034  -1.044  1.00  0.00     0.274 HD
ATOM     18  H31 UNL     1       4.866  -1.568  -0.655  1.00  0.00     0.274 HD
ENDBRANCH  14  15
ENDBRANCH  13  14
ENDBRANCH  12  13
ENDBRANCH   9  12
ENDBRANCH   6   9
BRANCH   7  19
HETATM   19  N4  UNL     1      -1.123  -1.258   0.948  1.00  0.00    -0.068 N 
ATOM     20  H43 UNL     1      -0.180  -1.606   0.777  1.00  0.00     0.275 HD
ATOM     21  H42 UNL     1      -0.954  -0.607   1.715  1.00  0.00     0.275 HD
ATOM     22  H41 UNL     1      -1.707  -2.025   1.283  1.00  0.00     0.275 HD
ENDBRANCH   7  19
BRANCH   8  23
HETATM   23  N5  UNL     1      -3.983  -0.674  -0.421  1.00  0.00    -0.066 N 
ATOM     24  H53 UNL     1      -4.877  -0.186  -0.372  1.00  0.00     0.275 HD
ATOM     25  H52 UNL     1      -3.905  -0.723  -1.437  1.00  0.00     0.275 HD
ATOM     26  H51 UNL     1      -4.017  -1.597   0.013  1.00  0.00     0.275 HD
ENDBRANCH   8  23
TORSDOF 7
