REMARK  17 active torsions:
REMARK  status: ('A' for Active; 'I' for Inactive)
REMARK    1  A    between atoms: S1_2  and  C2_3 
REMARK    2  A    between atoms: C4_8  and  C5_9 
REMARK    3  A    between atoms: C5_9  and  C6_10 
REMARK    4  A    between atoms: C5_9  and  C15_40 
REMARK    5  A    between atoms: N3_14  and  C8_15 
REMARK    6  A    between atoms: C8_15  and  C9_16 
REMARK    7  A    between atoms: C9_16  and  C10_17 
REMARK    8  A    between atoms: C9_16  and  N5_20 
REMARK    9  A    between atoms: N7_25  and  C12_26 
REMARK   10  A    between atoms: C12_26  and  C13_27 
REMARK   11  A    between atoms: C13_27  and  N8_28 
REMARK   12  A    between atoms: C13_27  and  N9_32 
REMARK   13  A    between atoms: C15_40  and  O5_41 
REMARK   14  A    between atoms: C15_40  and  O6_43 
REMARK   15  A    between atoms: N11_45  and  C16_46 
REMARK   16  A    between atoms: C19_49  and  N12_50 
REMARK   17  A    between atoms: C26_60  and  O7_61 
ROOT
HETATM    1  C5  UNL     1      -0.284   1.421   1.363  1.00  0.00     0.149 C 
ENDROOT
BRANCH   1   2
HETATM    2  C4  UNL     1      -0.251   2.118   0.088  1.00  0.00     0.102 C 
HETATM    3  C3  UNL     1       0.332   3.436  -0.034  1.00  0.00     0.271 C 
HETATM    4  N1  UNL     1      -0.085   3.898  -1.303  1.00  0.00    -0.302 N 
HETATM    5  O1  UNL     1       1.050   4.129   0.715  1.00  0.00    -0.266 OA
HETATM    6  C2  UNL     1      -1.093   3.136  -1.773  1.00  0.00     0.154 C 
ATOM      7  H1  UNL     1       0.320   4.695  -1.794  1.00  0.00     0.171 HD
HETATM    8  N11 UNL     1      -1.375   2.137  -0.799  1.00  0.00    -0.287 N 
BRANCH   6   9
HETATM    9  S1  UNL     1      -1.809   3.494  -3.349  1.00  0.00    -0.098 SA
HETATM   10  C1  UNL     1      -3.037   2.369  -3.930  1.00  0.00     0.099 C 
ENDBRANCH   6   9
BRANCH   8  11
HETATM   11  C16 UNL     1      -2.519   1.293  -0.787  1.00  0.00     0.075 A 
HETATM   12  C17 UNL     1      -3.754   1.800  -0.511  1.00  0.00     0.035 A 
HETATM   13  C18 UNL     1      -4.913   1.028  -0.416  1.00  0.00     0.032 A 
HETATM   14  C19 UNL     1      -4.799  -0.328  -0.614  1.00  0.00     0.033 A 
HETATM   15  C25 UNL     1      -3.547  -0.880  -0.901  1.00  0.00     0.068 A 
HETATM   16  C26 UNL     1      -2.419  -0.092  -0.988  1.00  0.00     0.095 A 
BRANCH  14  17
HETATM   17  N12 UNL     1      -5.958  -1.156  -0.508  1.00  0.00    -0.379 N 
HETATM   18  C20 UNL     1      -5.825  -2.537  -0.970  1.00  0.00     0.124 C 
HETATM   19  C21 UNL     1      -7.223  -3.069  -1.249  1.00  0.00     0.047 C 
HETATM   20  C22 UNL     1      -7.954  -2.175  -2.229  1.00  0.00     0.234 C 
HETATM   21  N13 UNL     1      -8.794  -1.191  -1.610  1.00  0.00    -0.074 N 
HETATM   22  C23 UNL     1      -8.069  -0.070  -1.043  1.00  0.00     0.252 C 
ATOM     23 2H13 UNL     1      -9.505  -0.864  -2.264  1.00  0.00     0.277 HD
ATOM     24 1H13 UNL     1      -9.393  -1.623  -0.907  1.00  0.00     0.277 HD
HETATM   25  C24 UNL     1      -7.157  -0.574   0.050  1.00  0.00     0.150 C 
ENDBRANCH  14  17
BRANCH  16  26
HETATM   26  O7  UNL     1      -1.198  -0.666  -1.273  1.00  0.00    -0.358 OA
ATOM     27  H7  UNL     1      -1.130  -1.604  -1.409  1.00  0.00     0.217 HD
ENDBRANCH  16  26
ENDBRANCH   8  11
ENDBRANCH   1   2
BRANCH   1  28
HETATM   28  C6  UNL     1       1.133   1.065   1.802  1.00  0.00     0.059 A 
HETATM   29  C7  UNL     1       1.527  -0.227   2.109  1.00  0.00     0.136 A 
HETATM   30  N2  UNL     1       2.823  -0.157   2.439  1.00  0.00    -0.293 N 
HETATM   31  N3  UNL     1       3.246   1.080   2.354  1.00  0.00    -0.232 N 
ATOM     32  H2  UNL     1       3.398  -0.952   2.717  1.00  0.00     0.187 HD
HETATM   33  N10 UNL     1       2.211   1.811   1.967  1.00  0.00    -0.286 N 
ATOM     34  H10 UNL     1       2.242   2.819   1.816  1.00  0.00     0.188 HD
BRANCH  31  35
HETATM   35  C8  UNL     1       4.562   1.615   2.606  1.00  0.00     0.206 C 
BRANCH  35  36
HETATM   36  C9  UNL     1       5.371   1.604   1.330  1.00  0.00     0.223 C 
BRANCH  36  37
HETATM   37  C10 UNL     1       6.716   2.151   1.540  1.00  0.00     0.258 C 
HETATM   38  N4  UNL     1       6.856   3.478   2.029  1.00  0.00    -0.060 NA
HETATM   39  O2  UNL     1       7.794   1.522   1.317  1.00  0.00    -0.274 OA
ENDBRANCH  36  37
BRANCH  36  40
HETATM   40  N5  UNL     1       5.403   0.284   0.724  1.00  0.00    -0.223 N 
HETATM   41  N6  UNL     1       4.814  -0.013  -0.425  1.00  0.00    -0.244 N 
HETATM   42  C11 UNL     1       5.030  -1.304  -0.709  1.00  0.00     0.345 A 
ATOM     43  H6  UNL     1       4.281   0.638  -1.002  1.00  0.00     0.192 HD
HETATM   44  O3  UNL     1       4.616  -1.947  -1.733  1.00  0.00    -0.245 OA
HETATM   45  N7  UNL     1       5.765  -1.815   0.280  1.00  0.00    -0.245 N 
HETATM   46  C14 UNL     1       5.990  -0.825   1.162  1.00  0.00     0.348 A 
HETATM   47  O4  UNL     1       6.654  -0.927   2.237  1.00  0.00    -0.245 OA
BRANCH  45  48
HETATM   48  C12 UNL     1       6.252  -3.193   0.414  1.00  0.00     0.200 C 
BRANCH  48  49
HETATM   49  C13 UNL     1       7.590  -3.345  -0.254  1.00  0.00     0.396 C 
BRANCH  49  50
HETATM   50  N8  UNL     1       7.990  -4.741  -0.065  1.00  0.00    -0.049 N 
ATOM     51  H83 UNL     1       7.990  -5.033   0.912  1.00  0.00     0.276 HD
ATOM     52  H82 UNL     1       7.294  -5.409  -0.396  1.00  0.00     0.276 HD
ATOM     53  H81 UNL     1       8.898  -4.844  -0.518  1.00  0.00     0.276 HD
ENDBRANCH  49  50
BRANCH  49  54
HETATM   54  N9  UNL     1       7.393  -3.095  -1.675  1.00  0.00    -0.049 N 
ATOM     55  H93 UNL     1       6.671  -3.685  -2.088  1.00  0.00     0.276 HD
ATOM     56  H92 UNL     1       6.952  -2.195  -1.865  1.00  0.00     0.276 HD
ATOM     57  H91 UNL     1       8.301  -3.198  -2.128  1.00  0.00     0.276 HD
ENDBRANCH  49  54
ENDBRANCH  48  49
ENDBRANCH  45  48
ENDBRANCH  36  40
ENDBRANCH  35  36
ENDBRANCH  31  35
ENDBRANCH   1  28
BRANCH   1  58
HETATM   58  C15 UNL     1      -0.839   2.278   2.533  1.00  0.00     0.270 C 
BRANCH  58  59
HETATM   59  O5  UNL     1      -2.119   2.711   2.362  1.00  0.00    -0.370 OA
ATOM     60  H5  UNL     1      -2.459   3.235   3.078  1.00  0.00     0.212 HD
ENDBRANCH  58  59
BRANCH  58  61
HETATM   61  O6  UNL     1      -0.749   1.566   3.723  1.00  0.00    -0.370 OA
ATOM     62  H6  UNL     1      -1.089   2.090   4.439  1.00  0.00     0.212 HD
ENDBRANCH  58  61
ENDBRANCH   1  58
TORSDOF 17
