REMARK  3 active torsions:
REMARK  status: ('A' for Active; 'I' for Inactive)
REMARK    1  A    between atoms: N1_1  and  C1_4 
REMARK    2  A    between atoms: C5_10  and  S1_11 
REMARK    3  A    between atoms: S1_11  and  N3_14 
ROOT
HETATM    1  C1  UNL     1      -3.558  -0.272  -0.308  1.00  0.00     0.125 A 
HETATM    2  C2  UNL     1      -3.595  -0.112  -1.692  1.00  0.00     0.067 A 
HETATM    3  C3  UNL     1      -2.435   0.264  -2.319  1.00  0.00     0.093 A 
HETATM    4  N2  UNL     1      -1.305   0.467  -1.617  1.00  0.00    -0.348 N 
ATOM      5  H2  UNL     1      -0.455   0.744  -2.108  1.00  0.00     0.167 HD
HETATM    6  C4  UNL     1      -1.274   0.312  -0.286  1.00  0.00     0.172 A 
HETATM    7  C5  UNL     1      -0.304   0.443   0.671  1.00  0.00     0.211 A 
HETATM    8  N6  UNL     1      -0.894   0.148   1.842  1.00  0.00    -0.270 N 
ATOM      9  H6  UNL     1      -0.424   0.158   2.747  1.00  0.00     0.189 HD
HETATM   10  N7  UNL     1      -2.164  -0.156   1.660  1.00  0.00    -0.232 N 
ATOM     11  H7  UNL     1      -2.833  -0.417   2.385  1.00  0.00     0.209 HD
HETATM   12  N8  UNL     1      -2.410  -0.060   0.366  1.00  0.00    -0.207 N 
ENDROOT
BRANCH   7  13
HETATM   13  S1  UNL     1       1.364   0.901   0.439  1.00  0.00     0.285 S 
HETATM   14  O1  UNL     1       1.487   1.903  -0.680  1.00  0.00    -0.198 OA
HETATM   15  O2  UNL     1       1.887   1.580   1.681  1.00  0.00    -0.198 OA
BRANCH  13  16
HETATM   16  N3  UNL     1       2.365  -0.477   0.165  1.00  0.00    -0.255 N 
HETATM   17  C6  UNL     1       3.634  -0.456   0.253  1.00  0.00     0.210 C 
HETATM   18  N4  UNL     1       4.365  -1.633   0.011  1.00  0.00    -0.066 NA
HETATM   19  N5  UNL     1       4.299   0.735   0.590  1.00  0.00    -0.066 NA
ATOM     20  H3  UNL     1       1.914  -1.358  -0.081  1.00  0.00     0.181 HD
ENDBRANCH  13  16
ENDBRANCH   7  13
BRANCH   1  21
HETATM   21  N1  UNL     1      -4.621  -0.622   0.318  1.00  0.00    -0.384 N 
ATOM     22  H12 UNL     1      -5.490  -0.782  -0.192  1.00  0.00     0.157 HD
ATOM     23  H11 UNL     1      -4.594  -0.739   1.331  1.00  0.00     0.157 HD
ENDBRANCH   1  21
TORSDOF 3
