REMARK  2 active torsions:
REMARK  status: ('A' for Active; 'I' for Inactive)
REMARK    1  A    between atoms: N1_2  and  C3_4 
REMARK    2  A    between atoms: C3_4  and  C4_5 
ROOT
HETATM    1  C4  UNL     1      -1.232  -0.153  -0.004  1.00  0.00     0.172 A 
HETATM    2  C5  UNL     1      -2.343  -0.300   1.038  1.00  0.00     0.050 C 
HETATM    3  C6  UNL     1      -1.584   0.845  -1.085  1.00  0.00     0.273 A 
HETATM    4  N2  UNL     1      -1.434  -0.604  -1.335  1.00  0.00    -0.061 N 
ATOM      5  H21 UNL     1      -2.042  -1.309  -1.751  1.00  0.00     0.278 HD
ATOM      6  H22 UNL     1      -0.865  -1.147  -1.984  1.00  0.00     0.278 HD
ENDROOT
BRANCH   1   7
HETATM    7  C3  UNL     1       0.115   0.002   0.602  1.00  0.00     0.311 C 
BRANCH   7   8
HETATM    8  N1  UNL     1       1.203   0.142  -0.311  1.00  0.00     0.082 N 
HETATM    9  C1  UNL     1       2.226   0.947   0.380  1.00  0.00     0.309 C 
HETATM   10  C2  UNL     1       1.845  -1.171  -0.497  1.00  0.00     0.309 C 
ENDBRANCH   7   8
ENDBRANCH   1   7
TORSDOF 2
