REMARK  1 active torsions:
REMARK  status: ('A' for Active; 'I' for Inactive)
REMARK    1  A    between atoms: C2_2  and  C3_3 
ROOT
HETATM    1  C3  UNL     1       0.486   0.127  -0.531  1.00  0.00     0.248 C 
HETATM    2  C4  UNL     1       0.528  -1.376  -0.327  1.00  0.00     0.067 C 
HETATM    3  C5  UNL     1      -0.860  -1.981  -0.336  1.00  0.00     0.237 C 
HETATM    4  N1  UNL     1      -1.833  -1.008   0.071  1.00  0.00    -0.049 N 
ATOM      5  H11 UNL     1      -2.677  -1.458   0.425  1.00  0.00     0.279 HD
ATOM      6  H12 UNL     1      -2.231  -0.526  -0.735  1.00  0.00     0.279 HD
HETATM    7  C6  UNL     1      -1.308  -0.078   1.020  1.00  0.00     0.503 C 
HETATM    8  N2  UNL     1      -0.318   0.796   0.456  1.00  0.00     0.117 N 
HETATM    9  C7  UNL     1      -1.037   1.905  -0.174  1.00  0.00     0.312 C 
ENDROOT
BRANCH   1  10
HETATM   10  C2  UNL     1       1.878   0.623  -0.592  1.00  0.00    -0.002 C 
HETATM   11  C1  UNL     1       2.714   0.462   0.432  1.00  0.00     0.009 C 
ENDBRANCH   1  10
TORSDOF 1
