REMARK  12 active torsions:
REMARK  status: ('A' for Active; 'I' for Inactive)
REMARK    1  A    between atoms: C2_2  and  C3_3 
REMARK    2  A    between atoms: C3_3  and  C4_4 
REMARK    3  A    between atoms: C4_4  and  C5_5 
REMARK    4  A    between atoms: C5_5  and  C6_6 
REMARK    5  A    between atoms: C6_6  and  C7_7 
REMARK    6  A    between atoms: C7_7  and  C8_8 
REMARK    7  A    between atoms: C8_8  and  C9_9 
REMARK    8  A    between atoms: C9_9  and  C10_10 
REMARK    9  A    between atoms: N2_12  and  C11_14 
REMARK   10  A    between atoms: C11_14  and  C12_15 
REMARK   11  A    between atoms: C12_15  and  N3_16 
REMARK   12  A    between atoms: C15_19  and  N4_20 
ROOT
HETATM    1  N3  UNL     1      -3.210  -0.320   0.309  1.00  0.00     0.088 N 
HETATM    2  C13 UNL     1      -3.423  -0.072   1.749  1.00  0.00     0.310 C 
HETATM    3  C14 UNL     1      -3.275   0.903  -0.373  1.00  0.00     0.298 C 
HETATM    4  C15 UNL     1      -4.497   1.389  -1.021  1.00  0.00     0.140 C 
HETATM    5  C17 UNL     1      -5.794   0.824  -0.582  1.00  0.00     0.300 C 
HETATM    6  N7  UNL     1      -5.920  -0.451  -1.267  1.00  0.00     0.114 N 
HETATM    7  C18 UNL     1      -7.124  -1.167  -0.924  1.00  0.00     0.312 C 
HETATM    8  C19 UNL     1      -4.732  -1.207  -1.309  1.00  0.00     0.541 C 
HETATM    9  N8  UNL     1      -3.934  -1.392  -0.144  1.00  0.00     0.106 N 
HETATM   10  C20 UNL     1      -4.681  -2.054   0.940  1.00  0.00     0.311 C 
HETATM   11  C21 UNL     1      -3.065  -2.527  -0.572  1.00  0.00     0.311 C 
ENDROOT
BRANCH   1  12
HETATM   12  C12 UNL     1      -1.771  -0.688   0.335  1.00  0.00     0.291 C 
BRANCH  12  13
HETATM   13  C11 UNL     1      -0.921   0.497   0.815  1.00  0.00     0.150 C 
BRANCH  13  14
HETATM   14  N2  UNL     1       0.445   0.003   0.793  1.00  0.00    -0.380 N 
HETATM   15  C10 UNL     1       1.114   0.157  -0.297  1.00  0.00     0.088 C 
HETATM   16  N1  UNL     1       0.575   0.785  -1.467  1.00  0.00    -0.088 NA
ATOM     17  H2  UNL     1       0.858  -0.448   1.609  1.00  0.00     0.160 HD
BRANCH  15  18
HETATM   18  C9  UNL     1       2.529  -0.315  -0.427  1.00  0.00     0.073 C 
BRANCH  18  19
HETATM   19  C8  UNL     1       2.932  -0.949   0.872  1.00  0.00     0.007 C 
BRANCH  19  20
HETATM   20  C7  UNL     1       4.341  -1.448   0.820  1.00  0.00     0.000 C 
BRANCH  20  21
HETATM   21  C6  UNL     1       5.352  -0.384   0.547  1.00  0.00     0.000 C 
BRANCH  21  22
HETATM   22  C5  UNL     1       6.725  -1.066   0.528  1.00  0.00     0.000 C 
BRANCH  22  23
HETATM   23  C4  UNL     1       7.811  -0.039   0.256  1.00  0.00     0.000 C 
BRANCH  23  24
HETATM   24  C3  UNL     1       9.134  -0.749   0.246  1.00  0.00    -0.000 C 
BRANCH  24  25
HETATM   25  C2  UNL     1      10.282   0.190  -0.016  1.00  0.00    -0.005 C 
HETATM   26  C1  UNL     1      10.156   0.879  -1.337  1.00  0.00     0.005 C 
ENDBRANCH  24  25
ENDBRANCH  23  24
ENDBRANCH  22  23
ENDBRANCH  21  22
ENDBRANCH  20  21
ENDBRANCH  19  20
ENDBRANCH  18  19
ENDBRANCH  15  18
ENDBRANCH  13  14
ENDBRANCH  12  13
ENDBRANCH   1  12
BRANCH   4  27
HETATM   27  N4  UNL     1      -4.604   2.829  -1.033  1.00  0.00    -0.359 N 
HETATM   28  C16 UNL     1      -4.948   3.612  -0.122  1.00  0.00     0.197 C 
HETATM   29  N5  UNL     1      -5.311   3.147   1.159  1.00  0.00    -0.067 NA
HETATM   30  N6  UNL     1      -4.975   5.007  -0.383  1.00  0.00    -0.067 NA
ATOM     31  H4  UNL     1      -4.362   3.274  -1.918  1.00  0.00     0.162 HD
ENDBRANCH   4  27
TORSDOF 12
