REMARK  13 active torsions:
REMARK  status: ('A' for Active; 'I' for Inactive)
REMARK       I    between atoms: C3_5  and  N2_6 
REMARK       I    between atoms: C3_5  and  N4_15 
REMARK    1  A    between atoms: N2_6  and  C4_8 
REMARK    2  A    between atoms: C4_8  and  C5_9 
REMARK    3  A    between atoms: C5_9  and  C6_10 
REMARK    4  A    between atoms: C6_10  and  N3_11 
REMARK    5  A    between atoms: N4_15  and  C10_16 
REMARK    6  A    between atoms: N4_15  and  C13_23 
REMARK    7  A    between atoms: C10_16  and  C11_17 
REMARK    8  A    between atoms: C11_17  and  C12_18 
REMARK    9  A    between atoms: C12_18  and  N5_19 
REMARK   10  A    between atoms: C13_23  and  C14_24 
REMARK   11  A    between atoms: C14_24  and  O1_25 
REMARK   12  A    between atoms: C14_24  and  C15_27 
REMARK   13  A    between atoms: C15_27  and  N6_28 
ROOT
HETATM    1  C1  UNL     1       0.894  -1.939  -3.654  1.00  0.00     0.037 C 
HETATM    2  C2  UNL     1       0.527  -1.032  -2.969  1.00  0.00     0.001 C 
HETATM    3  N1  UNL     1       0.092   0.001  -2.220  1.00  0.00    -0.292 N 
ATOM      4  H1  UNL     1      -0.771   0.403  -2.585  1.00  0.00     0.178 HD
HETATM    5  C3  UNL     1       0.484   0.587  -1.190  1.00  0.00     0.163 C 
HETATM    6  N2  UNL     1       1.637   0.277  -0.445  1.00  0.00    -0.366 N 
ATOM      7  H2  UNL     1       1.643   0.598   0.523  1.00  0.00     0.162 HD
HETATM    8  N4  UNL     1      -0.306   1.707  -0.695  1.00  0.00    -0.248 NA
ENDROOT
BRANCH   6   9
HETATM    9  C4  UNL     1       2.798  -0.430  -0.875  1.00  0.00     0.124 C 
BRANCH   9  10
HETATM   10  C5  UNL     1       3.840  -0.505   0.255  1.00  0.00     0.047 C 
BRANCH  10  11
HETATM   11  C6  UNL     1       5.065  -1.258  -0.220  1.00  0.00     0.237 C 
BRANCH  11  12
HETATM   12  N3  UNL     1       6.068  -1.362   0.800  1.00  0.00    -0.079 N 
HETATM   13  C7  UNL     1       7.255  -1.964   0.208  1.00  0.00     0.271 C 
HETATM   14  C8  UNL     1       6.450  -0.103   1.381  1.00  0.00     0.271 C 
HETATM   15  C9  UNL     1       5.655  -2.274   1.870  1.00  0.00     0.271 C 
ENDBRANCH  11  12
ENDBRANCH  10  11
ENDBRANCH   9  10
ENDBRANCH   6   9
BRANCH   8  16
HETATM   16  C10 UNL     1      -0.446   2.562  -1.885  1.00  0.00     0.100 C 
BRANCH  16  17
HETATM   17  C11 UNL     1      -1.133   3.855  -1.598  1.00  0.00     0.042 C 
BRANCH  17  18
HETATM   18  C12 UNL     1      -0.385   4.677  -0.568  1.00  0.00     0.230 C 
BRANCH  18  19
HETATM   19  N5  UNL     1      -1.135   5.919  -0.355  1.00  0.00    -0.079 N 
ATOM     20  H53 UNL     1      -1.307   6.431  -1.220  1.00  0.00     0.274 HD
ATOM     21  H52 UNL     1      -2.109   5.755  -0.099  1.00  0.00     0.274 HD
ATOM     22  H51 UNL     1      -0.631   6.472   0.338  1.00  0.00     0.274 HD
ENDBRANCH  18  19
ENDBRANCH  17  18
ENDBRANCH  16  17
ENDBRANCH   8  16
BRANCH   8  23
HETATM   23  C13 UNL     1      -1.654   1.282  -0.345  1.00  0.00     0.164 C 
BRANCH  23  24
HETATM   24  C14 UNL     1      -1.666   0.413   0.886  1.00  0.00     0.080 C 
BRANCH  24  25
HETATM   25  O1  UNL     1      -0.929  -0.725   0.698  1.00  0.00    -0.362 OA
ATOM     26  H1  UNL     1      -0.937  -1.273   1.474  1.00  0.00     0.217 HD
ENDBRANCH  24  25
BRANCH  24  27
HETATM   27  C15 UNL     1      -2.961   0.282   1.553  1.00  0.00     0.235 C 
BRANCH  27  28
HETATM   28  N6  UNL     1      -3.976  -0.550   1.038  1.00  0.00    -0.049 N 
HETATM   29  C16 UNL     1      -5.182  -0.181   1.824  1.00  0.00     0.278 C 
HETATM   30  C17 UNL     1      -3.796  -1.962   1.343  1.00  0.00     0.242 C 
HETATM   31  C18 UNL     1      -4.323  -2.867   0.276  1.00  0.00     0.028 C 
HETATM   32  C19 UNL     1      -5.639  -2.442  -0.310  1.00  0.00     0.003 C 
HETATM   33  C20 UNL     1      -5.757  -0.963  -0.519  1.00  0.00     0.028 C 
HETATM   34  C21 UNL     1      -4.361  -0.346  -0.331  1.00  0.00     0.242 C 
ENDBRANCH  27  28
ENDBRANCH  24  27
ENDBRANCH  23  24
ENDBRANCH   8  23
TORSDOF 13
