REMARK  5 active torsions:
REMARK  status: ('A' for Active; 'I' for Inactive)
REMARK    1  A    between atoms: N1_1  and  C1_4 
REMARK    2  A    between atoms: C4_9  and  O1_10 
REMARK    3  A    between atoms: O1_10  and  C5_11 
REMARK    4  A    between atoms: C5_11  and  C6_12 
REMARK    5  A    between atoms: N3_18  and  O2_19 
ROOT
HETATM    1  C1  UNL     1      -3.707  -1.111   0.313  1.00  0.00     0.704 A 
HETATM    2  N2  UNL     1      -4.282   0.101   0.402  1.00  0.00    -0.200 N 
ATOM      3  H2  UNL     1      -5.299   0.150   0.469  1.00  0.00     0.183 HD
HETATM    4  C2  UNL     1      -3.587   1.252   0.407  1.00  0.00     0.110 A 
HETATM    5  C3  UNL     1      -2.214   1.182   0.314  1.00  0.00     0.076 A 
HETATM    6  C4  UNL     1      -1.634  -0.069   0.223  1.00  0.00     0.189 A 
HETATM    7  N3  UNL     1      -2.377  -1.185   0.223  1.00  0.00    -0.029 N 
ENDROOT
BRANCH   6   8
HETATM    8  O1  UNL     1      -0.257  -0.211   0.127  1.00  0.00    -0.329 OA
BRANCH   8   9
HETATM    9  C5  UNL     1       0.598   0.914   0.120  1.00  0.00     0.216 C 
BRANCH   9  10
HETATM   10  C6  UNL     1       2.009   0.407   0.006  1.00  0.00    -0.034 A 
HETATM   11  C7  UNL     1       3.085   1.274  -0.026  1.00  0.00     0.009 A 
HETATM   12  C8  UNL     1       4.390   0.852  -0.130  1.00  0.00     0.001 A 
HETATM   13  C9  UNL     1       4.630  -0.510  -0.204  1.00  0.00     0.000 A 
HETATM   14  C10 UNL     1       3.581  -1.405  -0.174  1.00  0.00     0.001 A 
HETATM   15  C11 UNL     1       2.285  -0.947  -0.070  1.00  0.00     0.009 A 
ENDBRANCH   9  10
ENDBRANCH   8   9
ENDBRANCH   6   8
BRANCH   7  16
HETATM   16  O2  UNL     1      -1.757  -2.425   0.129  1.00  0.00    -0.267 OA
ATOM     17  H2  UNL     1      -0.811  -2.478   0.065  1.00  0.00     0.246 HD
ENDBRANCH   7  16
BRANCH   1  18
HETATM   18  N1  UNL     1      -4.368  -2.218   0.308  1.00  0.00    -0.232 N 
ATOM     19  H12 UNL     1      -5.384  -2.161   0.377  1.00  0.00     0.174 HD
ATOM     20  H11 UNL     1      -3.932  -3.138   0.240  1.00  0.00     0.174 HD
ENDBRANCH   1  18
TORSDOF 5
