REMARK  18 active torsions:
REMARK  status: ('A' for Active; 'I' for Inactive)
REMARK    1  A    between atoms: C2_2  and  C3_3 
REMARK    2  A    between atoms: C3_3  and  C4_4 
REMARK    3  A    between atoms: C4_4  and  C5_5 
REMARK    4  A    between atoms: C5_5  and  C6_6 
REMARK    5  A    between atoms: C6_6  and  C7_7 
REMARK    6  A    between atoms: C7_7  and  C8_8 
REMARK    7  A    between atoms: C8_8  and  C9_9 
REMARK    8  A    between atoms: C9_9  and  C10_10 
REMARK    9  A    between atoms: C10_10  and  C11_11 
REMARK   10  A    between atoms: C11_11  and  C12_12 
REMARK   11  A    between atoms: C12_12  and  O2_14 
REMARK   12  A    between atoms: O2_14  and  C13_15 
REMARK   13  A    between atoms: C13_15  and  C14_16 
REMARK   14  A    between atoms: C17_19  and  O3_20 
REMARK   15  A    between atoms: O3_20  and  C18_21 
REMARK   16  A    between atoms: C18_21  and  C19_23 
REMARK   17  A    between atoms: C19_23  and  C20_24 
REMARK   18  A    between atoms: C20_24  and  N1_25 
ROOT
HETATM    1  C14 UNL     1      -0.793  -0.075  -0.338  1.00  0.00     0.031 C 
HETATM    2  C15 UNL     1      -0.784  -1.289  -1.287  1.00  0.00     0.018 C 
HETATM    3  C16 UNL     1      -2.108  -1.335  -1.960  1.00  0.00     0.034 C 
HETATM    4  C17 UNL     1      -2.752   0.012  -1.796  1.00  0.00     0.141 C 
HETATM    5  C25 UNL     1      -1.771   0.851  -1.020  1.00  0.00    -0.004 C 
HETATM    6  C26 UNL     1      -0.993   1.644  -2.089  1.00  0.00     0.019 C 
HETATM    7  C27 UNL     1      -2.409   1.869  -0.150  1.00  0.00     0.013 C 
HETATM    8  C28 UNL     1      -3.001   1.346   1.135  1.00  0.00     0.010 C 
HETATM    9  C29 UNL     1      -1.978   0.534   1.814  1.00  0.00     0.045 C 
HETATM   10  C30 UNL     1      -2.398  -0.261   2.990  1.00  0.00     0.023 C 
HETATM   11  C31 UNL     1      -2.271   0.531   4.293  1.00  0.00     0.023 C 
HETATM   12  C32 UNL     1      -3.719  -0.924   2.897  1.00  0.00     0.023 C 
HETATM   13  C33 UNL     1      -1.351  -1.336   3.052  1.00  0.00     0.172 C 
HETATM   14  O6  UNL     1      -1.276  -2.301   3.758  1.00  0.00    -0.294 OA
HETATM   15  C34 UNL     1      -0.307  -0.994   1.996  1.00  0.00     0.281 C 
HETATM   16  F1  UNL     1       0.390   0.033   2.618  1.00  0.00    -0.238 F 
HETATM   17  C35 UNL     1      -1.290  -0.502   0.955  1.00  0.00     0.156 C 
HETATM   18  F2  UNL     1      -2.142  -1.607   0.754  1.00  0.00    -0.238 F 
ENDROOT
BRANCH   1  19
HETATM   19  C13 UNL     1       0.621   0.442  -0.410  1.00  0.00     0.192 C 
BRANCH  19  20
HETATM   20  O2  UNL     1       1.532  -0.552   0.005  1.00  0.00    -0.321 OA
BRANCH  20  21
HETATM   21  C12 UNL     1       2.908  -0.361   0.021  1.00  0.00     0.258 C 
HETATM   22  O1  UNL     1       3.344   0.740  -0.351  1.00  0.00    -0.265 OA
BRANCH  21  23
HETATM   23  C11 UNL     1       3.730  -1.488   0.480  1.00  0.00     0.111 C 
BRANCH  23  24
HETATM   24  C10 UNL     1       4.321  -2.279  -0.670  1.00  0.00     0.010 C 
BRANCH  24  25
HETATM   25  C9  UNL     1       5.153  -3.425  -0.199  1.00  0.00     0.000 C 
BRANCH  25  26
HETATM   26  C8  UNL     1       6.322  -3.046   0.651  1.00  0.00     0.000 C 
BRANCH  26  27
HETATM   27  C7  UNL     1       7.305  -2.132  -0.059  1.00  0.00     0.000 C 
BRANCH  27  28
HETATM   28  C6  UNL     1       8.412  -1.843   0.915  1.00  0.00     0.000 C 
BRANCH  28  29
HETATM   29  C5  UNL     1       9.460  -0.958   0.342  1.00  0.00     0.000 C 
BRANCH  29  30
HETATM   30  C4  UNL     1       8.924   0.370  -0.078  1.00  0.00     0.000 C 
BRANCH  30  31
HETATM   31  C3  UNL     1      10.093   1.165  -0.632  1.00  0.00    -0.000 C 
BRANCH  31  32
HETATM   32  C2  UNL     1       9.688   2.530  -1.094  1.00  0.00    -0.005 C 
HETATM   33  C1  UNL     1       9.094   3.352   0.046  1.00  0.00     0.005 C 
ENDBRANCH  31  32
ENDBRANCH  30  31
ENDBRANCH  29  30
ENDBRANCH  28  29
ENDBRANCH  27  28
ENDBRANCH  26  27
ENDBRANCH  25  26
ENDBRANCH  24  25
ENDBRANCH  23  24
ENDBRANCH  21  23
ENDBRANCH  20  21
ENDBRANCH  19  20
ENDBRANCH   1  19
BRANCH   4  34
HETATM   34  O3  UNL     1      -4.016  -0.104  -1.212  1.00  0.00    -0.315 OA
BRANCH  34  35
HETATM   35  C18 UNL     1      -5.209   0.209  -1.811  1.00  0.00     0.260 C 
HETATM   36  O4  UNL     1      -5.210   0.636  -2.971  1.00  0.00    -0.265 OA
BRANCH  35  37
HETATM   37  C19 UNL     1      -6.458   0.018  -1.028  1.00  0.00     0.141 C 
BRANCH  37  38
HETATM   38  C20 UNL     1      -7.688   0.401  -1.813  1.00  0.00     0.282 C 
BRANCH  38  39
HETATM   39  N1  UNL     1      -8.833   0.168  -0.938  1.00  0.00     0.093 N 
HETATM   40  C21 UNL     1     -10.012   0.527  -1.669  1.00  0.00     0.298 C 
HETATM   41  C22 UNL     1     -10.579   1.797  -1.076  1.00  0.00     0.198 C 
HETATM   42  O5  UNL     1     -10.993   1.483   0.208  1.00  0.00    -0.388 OA
HETATM   43  C23 UNL     1      -9.911   1.233   1.011  1.00  0.00     0.198 C 
HETATM   44  C24 UNL     1      -8.657   0.871   0.295  1.00  0.00     0.298 C 
ENDBRANCH  38  39
ENDBRANCH  37  38
ENDBRANCH  35  37
ENDBRANCH  34  35
ENDBRANCH   4  34
TORSDOF 18
