REMARK  17 active torsions:
REMARK  status: ('A' for Active; 'I' for Inactive)
REMARK    1  A    between atoms: C2_2  and  C3_4 
REMARK    2  A    between atoms: C5_8  and  N1_9 
REMARK    3  A    between atoms: N1_9  and  C7_11 
REMARK    4  A    between atoms: C7_11  and  C8_12 
REMARK    5  A    between atoms: C8_12  and  C9_13 
REMARK    6  A    between atoms: C9_13  and  C10_14 
REMARK    7  A    between atoms: C10_14  and  C11_15 
REMARK    8  A    between atoms: C11_15  and  C12_16 
REMARK    9  A    between atoms: C12_16  and  C13_17 
REMARK   10  A    between atoms: C13_17  and  N2_18 
REMARK   11  A    between atoms: N2_18  and  N3_20 
REMARK   12  A    between atoms: C15_26  and  C16_27 
REMARK   13  A    between atoms: C16_27  and  C17_28 
REMARK   14  A    between atoms: C21_34  and  C22_35 
REMARK   15  A    between atoms: C22_35  and  C23_36 
REMARK   16  A    between atoms: C23_36  and  C24_37 
REMARK   17  A    between atoms: C27_40  and  N5_41 
ROOT
HETATM    1  C3  UNL     1      -0.629  -2.222   0.509  1.00  0.00     0.188 C 
HETATM    2  C4  UNL     1      -1.388  -2.545   1.789  1.00  0.00     0.276 C 
HETATM    3  O2  UNL     1      -1.056  -3.441   2.620  1.00  0.00    -0.264 OA
HETATM    4  O3  UNL     1      -2.477  -1.691   1.842  1.00  0.00    -0.291 OA
HETATM    5  C5  UNL     1      -2.389  -0.609   0.930  1.00  0.00     0.260 C 
HETATM    6  C14 UNL     1      -1.104  -0.880   0.215  1.00  0.00    -0.003 C 
HETATM    7  C15 UNL     1      -0.772  -0.198  -0.986  1.00  0.00     0.065 C 
ENDROOT
BRANCH   1   8
HETATM    8  C2  UNL     1      -0.686  -3.310  -0.433  1.00  0.00     0.141 C 
HETATM    9  C1  UNL     1      -0.087  -4.673  -0.000  1.00  0.00     0.092 C 
HETATM   10  O1  UNL     1      -1.128  -3.346  -1.536  1.00  0.00    -0.297 OA
ENDBRANCH   1   8
BRANCH   5  11
HETATM   11  N1  UNL     1      -3.627  -0.657   0.188  1.00  0.00    -0.388 N 
HETATM   12  C6  UNL     1      -3.785   0.406  -0.717  1.00  0.00     0.146 C 
BRANCH  11  13
HETATM   13  C7  UNL     1      -4.753  -1.126   0.927  1.00  0.00     0.119 C 
BRANCH  13  14
HETATM   14  C8  UNL     1      -5.903  -1.661   0.161  1.00  0.00     0.019 C 
BRANCH  14  15
HETATM   15  C9  UNL     1      -6.699  -0.934  -0.787  1.00  0.00     0.002 C 
BRANCH  15  16
HETATM   16  C10 UNL     1      -7.554   0.228  -0.366  1.00  0.00     0.000 C 
BRANCH  16  17
HETATM   17  C11 UNL     1      -8.685  -0.148   0.597  1.00  0.00     0.002 C 
BRANCH  17  18
HETATM   18  C12 UNL     1      -9.396   1.158   1.014  1.00  0.00     0.021 C 
BRANCH  18  19
HETATM   19  C13 UNL     1      -9.892   1.900  -0.148  1.00  0.00     0.141 C 
BRANCH  19  20
HETATM   20  N2  UNL     1     -10.521   3.131   0.286  1.00  0.00    -0.323 N 
ATOM     21  H2  UNL     1     -10.302   4.030  -0.143  1.00  0.00     0.181 HD
BRANCH  20  22
HETATM   22  N3  UNL     1     -11.352   3.025   1.223  1.00  0.00    -0.254 N 
HETATM   23  N4  UNL     1     -12.129   3.508   2.029  1.00  0.00    -0.331 N 
ATOM     24  H42 UNL     1     -12.052   4.504   1.824  1.00  0.00     0.178 HD
ATOM     25  H41 UNL     1     -12.803   3.422   2.789  1.00  0.00     0.178 HD
ATOM     26  H3  UNL     1     -11.402   2.022   1.399  1.00  0.00     0.207 HD
ENDBRANCH  20  22
ENDBRANCH  19  20
ENDBRANCH  18  19
ENDBRANCH  17  18
ENDBRANCH  16  17
ENDBRANCH  15  16
ENDBRANCH  14  15
ENDBRANCH  13  14
ENDBRANCH  11  13
ENDBRANCH   5  11
BRANCH   7  27
HETATM   27  C16 UNL     1       0.211   0.451  -1.413  1.00  0.00    -0.110 C 
BRANCH  27  28
HETATM   28  C17 UNL     1       1.314   1.170  -1.872  1.00  0.00     0.086 A 
HETATM   29  C18 UNL     1       0.966   1.897  -3.008  1.00  0.00     0.106 A 
HETATM   30 CL1  UNL     1      -0.662   1.789  -3.622  1.00  0.00    -0.078 Cl
HETATM   31  C19 UNL     1       1.946   2.711  -3.644  1.00  0.00     0.196 A 
HETATM   32  O4  UNL     1       1.581   3.395  -4.667  1.00  0.00    -0.287 OA
HETATM   33  C20 UNL     1       3.306   2.803  -3.176  1.00  0.00     0.072 A 
HETATM   34  C21 UNL     1       3.684   2.072  -2.106  1.00  0.00     0.027 A 
HETATM   35  C32 UNL     1       2.690   1.241  -1.416  1.00  0.00     0.202 A 
HETATM   36  O5  UNL     1       3.072   0.571  -0.394  1.00  0.00    -0.286 OA
BRANCH  34  37
HETATM   37  C22 UNL     1       5.049   2.227  -1.702  1.00  0.00     0.072 C 
BRANCH  37  38
HETATM   38  C23 UNL     1       5.921   1.756  -0.961  1.00  0.00    -0.116 C 
BRANCH  38  39
HETATM   39  C24 UNL     1       6.938   1.277  -0.154  1.00  0.00     0.009 A 
HETATM   40  C25 UNL     1       7.297  -0.101  -0.338  1.00  0.00     0.022 A 
HETATM   41  C26 UNL     1       8.424  -0.646   0.232  1.00  0.00     0.031 A 
HETATM   42  C27 UNL     1       9.271   0.110   1.015  1.00  0.00     0.029 A 
HETATM   43  C30 UNL     1       8.955   1.423   1.213  1.00  0.00     0.031 A 
HETATM   44  C31 UNL     1       7.820   2.022   0.647  1.00  0.00     0.022 A 
BRANCH  42  45
HETATM   45  N5  UNL     1      10.449  -0.465   1.545  1.00  0.00    -0.390 N 
HETATM   46  C28 UNL     1      11.678   0.264   1.282  1.00  0.00     0.149 C 
HETATM   47  C29 UNL     1      10.490  -1.725   2.293  1.00  0.00     0.149 C 
ENDBRANCH  42  45
ENDBRANCH  38  39
ENDBRANCH  37  38
ENDBRANCH  34  37
ENDBRANCH  27  28
ENDBRANCH   7  27
TORSDOF 17
