REMARK  3 active torsions:
REMARK  status: ('A' for Active; 'I' for Inactive)
REMARK    1  A    between atoms: N2_4  and  N3_6 
REMARK       I    between atoms: N3_6  and  C1_8 
REMARK    2  A    between atoms: N5_10  and  N6_12 
REMARK    3  A    between atoms: C2_14  and  C3_15 
ROOT
HETATM    1  N6  UNL     1      -0.426  -1.125   1.036  1.00  0.00    -0.307 N 
ATOM      2  H6  UNL     1       0.210  -1.923   1.021  1.00  0.00     0.186 HD
HETATM    3  C2  UNL     1       0.017   0.057   0.738  1.00  0.00     0.137 C 
ENDROOT
BRANCH   1   4
HETATM    4  N5  UNL     1      -1.766  -1.313   1.377  1.00  0.00    -0.273 N 
HETATM    5  C1  UNL     1      -2.675  -1.004   0.501  1.00  0.00     0.223 C 
HETATM    6  N3  UNL     1      -2.325  -0.487  -0.771  1.00  0.00    -0.258 N 
HETATM    7  N4  UNL     1      -4.066  -1.176   0.796  1.00  0.00    -0.061 NA
ATOM      8  H3  UNL     1      -1.526  -0.887  -1.263  1.00  0.00     0.191 HD
ATOM      9  H5  UNL     1      -2.026  -1.684   2.291  1.00  0.00     0.189 HD
BRANCH   6  10
HETATM   10  N2  UNL     1      -3.037   0.550  -1.371  1.00  0.00    -0.247 N 
HETATM   11  N1  UNL     1      -2.936   0.785  -2.613  1.00  0.00    -0.331 N 
ATOM     12  H12 UNL     1      -2.318   0.195  -3.169  1.00  0.00     0.178 HD
ATOM     13  H11 UNL     1      -3.457   1.544  -3.052  1.00  0.00     0.178 HD
ATOM     14  H2  UNL     1      -3.651   1.131  -0.800  1.00  0.00     0.207 HD
ENDBRANCH   6  10
ENDBRANCH   1   4
BRANCH   3  15
HETATM   15  C3  UNL     1       1.401   0.265   0.384  1.00  0.00     0.058 A 
HETATM   16  C4  UNL     1       2.263  -0.839   0.368  1.00  0.00     0.105 A 
HETATM   17  C5  UNL     1       3.586  -0.642   0.030  1.00  0.00     0.251 A 
HETATM   18  O1  UNL     1       4.426  -1.580  -0.008  1.00  0.00    -0.268 OA
HETATM   19  N7  UNL     1       3.983   0.610  -0.269  1.00  0.00    -0.275 N 
HETATM   20  C6  UNL     1       3.128   1.645  -0.243  1.00  0.00     0.327 A 
ATOM     21  H7  UNL     1       4.957   0.776  -0.521  1.00  0.00     0.173 HD
HETATM   22  O2  UNL     1       3.536   2.808  -0.530  1.00  0.00    -0.247 OA
HETATM   23  N8  UNL     1       1.835   1.499   0.080  1.00  0.00    -0.307 N 
ATOM     24  H8  UNL     1       1.202   2.299   0.094  1.00  0.00     0.170 HD
ENDBRANCH   3  15
TORSDOF 3
