REMARK  10 active torsions:
REMARK  status: ('A' for Active; 'I' for Inactive)
REMARK    1  A    between atoms: C1_4  and  C2_5 
REMARK    2  A    between atoms: C1_4  and  N4_19 
REMARK    3  A    between atoms: C2_5  and  C3_6 
REMARK    4  A    between atoms: C3_6  and  C4_7 
REMARK    5  A    between atoms: C4_7  and  C5_8 
REMARK    6  A    between atoms: C5_8  and  C6_9 
REMARK    7  A    between atoms: C6_9  and  C7_10 
REMARK    8  A    between atoms: C7_10  and  C8_11 
REMARK    9  A    between atoms: C8_11  and  N2_12 
REMARK   10  A    between atoms: C14_25  and  O2_26 
ROOT
HETATM    1  C2  UNL     1      -2.206  -0.550  -0.961  1.00  0.00     0.076 C 
ENDROOT
BRANCH   1   2
HETATM    2  C1  UNL     1      -3.442  -0.503  -0.175  1.00  0.00     0.081 C 
HETATM    3  N1  UNL     1      -3.583  -1.266   0.847  1.00  0.00    -0.389 N 
ATOM      4  H12 UNL     1      -2.806  -1.873   1.108  1.00  0.00     0.157 HD
ATOM      5  H11 UNL     1      -4.443  -1.233   1.394  1.00  0.00     0.157 HD
BRANCH   2   6
HETATM    6  N4  UNL     1      -4.539   0.355  -0.544  1.00  0.00    -0.285 N 
HETATM    7  C12 UNL     1      -5.333   1.022   0.432  1.00  0.00     0.177 C 
HETATM    8  S1  UNL     1      -5.136   0.991   2.069  1.00  0.00    -0.041 SA
HETATM    9  N5  UNL     1      -6.350   1.738  -0.283  1.00  0.00    -0.363 N 
HETATM   10  C13 UNL     1      -6.472   1.077  -1.571  1.00  0.00     0.176 C 
ATOM     11  H5  UNL     1      -6.879   2.546   0.046  1.00  0.00     0.162 HD
HETATM   12  C14 UNL     1      -5.029   0.695  -1.850  1.00  0.00     0.246 C 
BRANCH  12  13
HETATM   13  O2  UNL     1      -4.410   1.859  -2.349  1.00  0.00    -0.374 OA
ATOM     14  H2  UNL     1      -4.734   2.084  -3.213  1.00  0.00     0.212 HD
ENDBRANCH  12  13
ENDBRANCH   2   6
ENDBRANCH   1   2
BRANCH   1  15
HETATM   15  C3  UNL     1      -1.002  -1.079  -0.266  1.00  0.00     0.007 C 
BRANCH  15  16
HETATM   16  C4  UNL     1      -0.594  -0.252   0.902  1.00  0.00     0.000 C 
BRANCH  16  17
HETATM   17  C5  UNL     1       0.623  -0.801   1.607  1.00  0.00     0.000 C 
BRANCH  17  18
HETATM   18  C6  UNL     1       1.833  -0.883   0.725  1.00  0.00     0.002 C 
BRANCH  18  19
HETATM   19  C7  UNL     1       2.957  -1.454   1.603  1.00  0.00     0.020 C 
BRANCH  19  20
HETATM   20  C8  UNL     1       4.243  -1.583   0.810  1.00  0.00     0.127 C 
BRANCH  20  21
HETATM   21  N2  UNL     1       4.696  -0.327   0.301  1.00  0.00    -0.333 N 
HETATM   22  C9  UNL     1       5.590   0.586   0.994  1.00  0.00     0.147 C 
HETATM   23  C10 UNL     1       6.064   1.579  -0.053  1.00  0.00     0.144 C 
HETATM   24  N3  UNL     1       4.897   1.628  -0.931  1.00  0.00    -0.341 N 
HETATM   25  C11 UNL     1       4.386   0.287  -0.946  1.00  0.00     0.318 C 
ATOM     26  H3  UNL     1       4.526   2.439  -1.426  1.00  0.00     0.164 HD
HETATM   27  O1  UNL     1       3.762  -0.249  -1.922  1.00  0.00    -0.247 OA
ENDBRANCH  20  21
ENDBRANCH  19  20
ENDBRANCH  18  19
ENDBRANCH  17  18
ENDBRANCH  16  17
ENDBRANCH  15  16
ENDBRANCH   1  15
TORSDOF 10
