REMARK  8 active torsions:
REMARK  status: ('A' for Active; 'I' for Inactive)
REMARK    1  A    between atoms: S1_2  and  N1_5 
REMARK    2  A    between atoms: N1_5  and  S2_7 
REMARK    3  A    between atoms: S2_7  and  N2_10 
REMARK    4  A    between atoms: N2_10  and  C1_12 
REMARK    5  A    between atoms: C1_12  and  C2_13 
REMARK    6  A    between atoms: C2_13  and  C3_14 
REMARK    7  A    between atoms: C3_14  and  C4_15 
REMARK    8  A    between atoms: C4_15  and  C5_16 
ROOT
HETATM    1  C1  UNL     1       1.798   0.660  -0.573  1.00  0.00     0.133 C 
ENDROOT
BRANCH   1   2
HETATM    2  N2  UNL     1       2.767  -0.383  -0.434  1.00  0.00    -0.302 N 
ATOM      3  H2  UNL     1       2.580  -1.367  -0.240  1.00  0.00     0.173 HD
BRANCH   2   4
HETATM    4  S2  UNL     1       4.345   0.363  -0.664  1.00  0.00     0.329 S 
HETATM    5  O4  UNL     1       4.534   1.631   0.021  1.00  0.00    -0.182 OA
HETATM    6  O5  UNL     1       4.394   0.701  -2.198  1.00  0.00    -0.182 OA
BRANCH   4   7
HETATM    7  N1  UNL     1       5.570  -0.802  -0.424  1.00  0.00    -0.175 N 
ATOM      8  H1  UNL     1       5.936  -1.437  -1.133  1.00  0.00     0.196 HD
BRANCH   7   9
HETATM    9  S1  UNL     1       6.085  -0.723   1.225  1.00  0.00     0.219 S 
HETATM   10  O1  UNL     1       4.911  -0.959   2.111  1.00  0.00    -0.577 OA
HETATM   11  O2  UNL     1       7.035  -1.881   1.429  1.00  0.00    -0.577 OA
HETATM   12  O3  UNL     1       6.877   0.709   1.561  1.00  0.00    -0.577 OA
ENDBRANCH   7   9
ENDBRANCH   4   7
ENDBRANCH   2   4
ENDBRANCH   1   2
BRANCH   1  13
HETATM   13  C2  UNL     1       0.693   0.086  -1.435  1.00  0.00     0.020 C 
BRANCH  13  14
HETATM   14  C3  UNL     1      -0.089  -1.050  -1.064  1.00  0.00     0.004 C 
BRANCH  14  15
HETATM   15  C4  UNL     1      -0.622  -0.949   0.333  1.00  0.00     0.024 C 
BRANCH  15  16
HETATM   16  C5  UNL     1      -1.957  -0.249   0.473  1.00  0.00     0.076 C 
HETATM   17  C6  UNL     1      -3.005  -1.307   0.431  1.00  0.00     0.024 C 
HETATM   18  C7  UNL     1      -4.413  -0.888   0.477  1.00  0.00     0.002 C 
HETATM   19  C8  UNL     1      -4.703   0.461   1.044  1.00  0.00     0.002 C 
HETATM   20  C9  UNL     1      -3.971   1.582   0.371  1.00  0.00     0.019 C 
HETATM   21  C10 UNL     1      -3.336   1.183  -0.929  1.00  0.00     0.114 C 
HETATM   22  N3  UNL     1      -2.021   0.679  -0.638  1.00  0.00    -0.417 N 
ATOM     23  H3  UNL     1      -1.197   0.954  -1.172  1.00  0.00     0.153 HD
ENDBRANCH  15  16
ENDBRANCH  14  15
ENDBRANCH  13  14
ENDBRANCH   1  13
TORSDOF 8
