REMARK  12 active torsions:
REMARK  status: ('A' for Active; 'I' for Inactive)
REMARK    1  A    between atoms: N1_2  and  C2_5 
REMARK    2  A    between atoms: C2_5  and  C3_6 
REMARK    3  A    between atoms: C3_6  and  C4_7 
REMARK    4  A    between atoms: C4_7  and  C5_8 
REMARK    5  A    between atoms: C5_8  and  N2_9 
REMARK    6  A    between atoms: N2_9  and  C6_11 
REMARK    7  A    between atoms: C7_14  and  N4_15 
REMARK    8  A    between atoms: N4_15  and  C8_17 
REMARK    9  A    between atoms: C8_17  and  C9_18 
REMARK   10  A    between atoms: C9_18  and  N5_19 
REMARK   11  A    between atoms: C10_25  and  N7_26 
REMARK   12  A    between atoms: N7_26  and  C11_28 
ROOT
HETATM    1  C6  UNL     1      -0.168  -0.339   0.312  1.00  0.00     0.707 A 
HETATM    2  N3  UNL     1      -1.108   0.608   0.114  1.00  0.00    -0.022 N 
ATOM      3  H3  UNL     1      -0.870   1.579   0.315  1.00  0.00     0.203 HD
HETATM    4  C7  UNL     1      -2.344   0.332  -0.336  1.00  0.00     0.707 A 
HETATM    5  N6  UNL     1      -2.617  -0.972  -0.591  1.00  0.00    -0.022 N 
ATOM      6  H6  UNL     1      -3.544  -1.222  -0.936  1.00  0.00     0.203 HD
HETATM    7  C10 UNL     1      -1.717  -1.939  -0.407  1.00  0.00     0.707 A 
HETATM    8  N8  UNL     1      -0.499  -1.612   0.043  1.00  0.00    -0.022 N 
ATOM      9  H8  UNL     1       0.194  -2.347   0.185  1.00  0.00     0.203 HD
ENDROOT
BRANCH   1  10
HETATM   10  N2  UNL     1       1.020  -0.030   0.750  1.00  0.00    -0.225 N 
ATOM     11  H2  UNL     1       1.266   0.939   0.953  1.00  0.00     0.177 HD
BRANCH  10  12
HETATM   12  C5  UNL     1       1.972  -1.082   0.939  1.00  0.00     0.138 C 
BRANCH  12  13
HETATM   13  C4  UNL     1       3.285  -0.589   1.494  1.00  0.00     0.022 C 
BRANCH  13  14
HETATM   14  C3  UNL     1       3.864   0.411   0.521  1.00  0.00     0.029 C 
BRANCH  14  15
HETATM   15  C2  UNL     1       5.201   0.957   1.012  1.00  0.00     0.231 C 
BRANCH  15  16
HETATM   16  N1  UNL     1       5.672   1.902   0.023  1.00  0.00    -0.079 N 
HETATM   17  C1  UNL     1       6.029   1.233  -1.198  1.00  0.00     0.266 C 
ATOM     18  H12 UNL     1       6.441   2.469   0.380  1.00  0.00     0.276 HD
ATOM     19  H11 UNL     1       4.994   2.646  -0.140  1.00  0.00     0.276 HD
ENDBRANCH  15  16
ENDBRANCH  14  15
ENDBRANCH  13  14
ENDBRANCH  12  13
ENDBRANCH  10  12
ENDBRANCH   1  10
BRANCH   4  20
HETATM   20  N4  UNL     1      -3.215   1.257  -0.513  1.00  0.00    -0.223 N 
ATOM     21  H4  UNL     1      -4.147   1.025  -0.856  1.00  0.00     0.177 HD
BRANCH  20  22
HETATM   22  C8  UNL     1      -2.868   2.627  -0.224  1.00  0.00     0.165 C 
BRANCH  22  23
HETATM   23  C9  UNL     1      -4.070   3.542  -0.254  1.00  0.00     0.249 C 
BRANCH  23  24
HETATM   24  N5  UNL     1      -3.596   4.881   0.049  1.00  0.00    -0.078 N 
ATOM     25  H53 UNL     1      -3.076   4.932   0.925  1.00  0.00     0.274 HD
ATOM     26  H52 UNL     1      -2.844   5.188  -0.568  1.00  0.00     0.274 HD
ATOM     27  H51 UNL     1      -4.407   5.499   0.029  1.00  0.00     0.274 HD
ENDBRANCH  23  24
ENDBRANCH  22  23
ENDBRANCH  20  22
ENDBRANCH   4  20
BRANCH   7  28
HETATM   28  N7  UNL     1      -1.941  -3.186  -0.637  1.00  0.00    -0.220 N 
ATOM     29  H7  UNL     1      -1.225  -3.896  -0.483  1.00  0.00     0.178 HD
BRANCH  28  30
HETATM   30  C11 UNL     1      -3.262  -3.529  -1.126  1.00  0.00     0.099 A 
HETATM   31  C12 UNL     1      -4.328  -3.607  -0.054  1.00  0.00     0.028 A 
HETATM   32  C13 UNL     1      -3.866  -4.838  -0.746  1.00  0.00     0.028 A 
ENDBRANCH  28  30
ENDBRANCH   7  28
TORSDOF 12
