REMARK  9 active torsions:
REMARK  status: ('A' for Active; 'I' for Inactive)
REMARK    1  A    between atoms: N3_4  and  C2_6 
REMARK    2  A    between atoms: C2_6  and  C3_7 
REMARK    3  A    between atoms: C3_7  and  C4_8 
REMARK    4  A    between atoms: C4_8  and  C5_9 
REMARK    5  A    between atoms: C5_9  and  C6_10 
REMARK    6  A    between atoms: C5_9  and  N7_23 
REMARK    7  A    between atoms: C6_10  and  N4_11 
REMARK    8  A    between atoms: C6_10  and  C7_15 
REMARK    9  A    between atoms: C7_15  and  C8_16 
ROOT
HETATM    1  C5  UNL     1      -0.301  -0.737   0.189  1.00  0.00     0.256 C 
ENDROOT
BRANCH   1   2
HETATM    2  C4  UNL     1       0.571   0.453   0.304  1.00  0.00     0.040 C 
BRANCH   2   3
HETATM    3  C3  UNL     1       2.030   0.310   0.508  1.00  0.00     0.022 C 
BRANCH   3   4
HETATM    4  C2  UNL     1       2.546   1.774   0.558  1.00  0.00     0.122 C 
BRANCH   4   5
HETATM    5  N3  UNL     1       3.961   1.800   0.753  1.00  0.00    -0.367 N 
HETATM    6  C1  UNL     1       4.717   1.625  -0.272  1.00  0.00     0.196 C 
HETATM    7  N1  UNL     1       4.246   1.408  -1.588  1.00  0.00    -0.067 NA
HETATM    8  N2  UNL     1       6.120   1.653  -0.065  1.00  0.00    -0.067 NA
ATOM      9  H3  UNL     1       4.360   1.953   1.679  1.00  0.00     0.161 HD
ENDBRANCH   4   5
ENDBRANCH   3   4
ENDBRANCH   2   3
ENDBRANCH   1   2
BRANCH   1  10
HETATM   10  C6  UNL     1      -1.687  -0.223   0.021  1.00  0.00     0.222 C 
BRANCH  10  11
HETATM   11  N4  UNL     1      -2.764  -1.101  -0.128  1.00  0.00    -0.073 N 
ATOM     12  H43 UNL     1      -2.560  -1.724  -0.909  1.00  0.00     0.274 HD
ATOM     13  H42 UNL     1      -2.758  -1.747   0.661  1.00  0.00     0.274 HD
ATOM     14  H41 UNL     1      -3.714  -0.749  -0.243  1.00  0.00     0.274 HD
ENDBRANCH  10  11
BRANCH  10  15
HETATM   15  C7  UNL     1      -1.796   0.843  -1.047  1.00  0.00     0.093 C 
BRANCH  15  16
HETATM   16  C8  UNL     1      -3.248   1.280  -1.159  1.00  0.00     0.027 A 
HETATM   17  C9  UNL     1      -3.862   2.298  -0.458  1.00  0.00     0.114 A 
HETATM   18  N5  UNL     1      -5.149   2.356  -0.854  1.00  0.00    -0.360 N 
HETATM   19  C10 UNL     1      -5.356   1.405  -1.781  1.00  0.00     0.180 A 
ATOM     20  H5  UNL     1      -5.849   3.012  -0.508  1.00  0.00     0.166 HD
HETATM   21  N6  UNL     1      -4.192   0.760  -1.955  1.00  0.00    -0.355 N 
ATOM     22  H6  UNL     1      -4.047  -0.016  -2.601  1.00  0.00     0.166 HD
ENDBRANCH  15  16
ENDBRANCH  10  15
ENDBRANCH   1  10
BRANCH   1  23
HETATM   23  N7  UNL     1      -0.117  -1.793   1.114  1.00  0.00     0.120 N 
HETATM   24  C11 UNL     1      -1.040  -2.883   0.860  1.00  0.00     0.301 C 
HETATM   25  C12 UNL     1      -0.332  -4.146   1.342  1.00  0.00     0.200 C 
HETATM   26  O1  UNL     1       0.966  -3.839   1.154  1.00  0.00    -0.361 OA
HETATM   27  C13 UNL     1       1.129  -2.454   1.074  1.00  0.00     0.441 C 
ENDBRANCH   1  23
TORSDOF 9
