REMARK  4 active torsions:
REMARK  status: ('A' for Active; 'I' for Inactive)
REMARK    1  A    between atoms: O1_1  and  C1_3 
REMARK    2  A    between atoms: C1_3  and  C2_4 
REMARK    3  A    between atoms: C8_12  and  O3_13 
REMARK    4  A    between atoms: C9_15  and  O4_16 
ROOT
HETATM    1  C2  UNL     1       1.292   0.380   0.310  1.00  0.00     0.063 C 
HETATM    2  C3  UNL     1       0.742  -0.609   1.261  1.00  0.00    -0.020 C 
HETATM    3  C4  UNL     1      -0.428  -1.048   1.641  1.00  0.00    -0.010 C 
HETATM    4  C5  UNL     1      -1.820  -0.732   1.266  1.00  0.00     0.124 C 
HETATM    5  S1  UNL     1      -2.136   1.016   1.634  1.00  0.00    -0.153 SA
HETATM    6  C6  UNL     1      -1.126   1.957   0.439  1.00  0.00     0.109 C 
HETATM    7  C7  UNL     1      -0.892   1.086  -0.774  1.00  0.00     0.163 C 
HETATM    8  O2  UNL     1      -1.880   0.169  -0.983  1.00  0.00    -0.351 OA
HETATM    9  C8  UNL     1      -1.974  -0.917  -0.216  1.00  0.00     0.274 C 
HETATM   10  C9  UNL     1       0.499   0.591  -0.921  1.00  0.00     0.157 C 
ENDROOT
BRANCH   1  11
HETATM   11  C1  UNL     1       2.660  -0.149  -0.165  1.00  0.00     0.175 C 
BRANCH  11  12
HETATM   12  O1  UNL     1       2.546  -1.367  -0.788  1.00  0.00    -0.400 OA
ATOM     13  H1  UNL     1       3.389  -1.693  -1.081  1.00  0.00     0.209 HD
ENDBRANCH  11  12
ENDBRANCH   1  11
BRANCH  10  14
HETATM   14  O4  UNL     1       1.296   1.427  -1.748  1.00  0.00    -0.392 OA
ATOM     15  H4  UNL     1       0.787   1.562  -2.538  1.00  0.00     0.210 HD
ENDBRANCH  10  14
BRANCH   9  16
HETATM   16  O3  UNL     1      -1.152  -2.001  -0.605  1.00  0.00    -0.370 OA
ATOM     17  H3  UNL     1      -1.249  -2.118  -1.543  1.00  0.00     0.212 HD
ENDBRANCH   9  16
TORSDOF 4
