REMARK  6 active torsions:
REMARK  status: ('A' for Active; 'I' for Inactive)
REMARK    1  A    between atoms: C2_2  and  N1_4 
REMARK    2  A    between atoms: C2_2  and  C10_20 
REMARK       I    between atoms: N1_4  and  C4_6 
REMARK    3  A    between atoms: C4_6  and  C5_8 
REMARK    4  A    between atoms: C5_8  and  N2_9 
REMARK    5  A    between atoms: N8_24  and  N9_25 
REMARK    6  A    between atoms: C11_28  and  N10_29 
ROOT
HETATM    1  N1  UNL     1      -0.626  -1.321  -0.959  1.00  0.00    -0.345 N 
ATOM      2  H1  UNL     1      -0.560  -1.523  -1.957  1.00  0.00     0.163 HD
HETATM    3  C4  UNL     1       0.560  -1.074  -0.259  1.00  0.00     0.236 C 
HETATM    4  O1  UNL     1       0.521  -0.823   0.965  1.00  0.00    -0.272 OA
ENDROOT
BRANCH   1   5
HETATM    5  C2  UNL     1      -1.942  -1.307  -0.352  1.00  0.00     0.073 C 
HETATM    6  C1  UNL     1      -1.915  -2.381   0.733  1.00  0.00     0.045 C 
HETATM    7  C3  UNL     1      -2.943  -1.744  -1.390  1.00  0.00     0.045 C 
BRANCH   5   8
HETATM    8  C10 UNL     1      -2.285  -0.012   0.234  1.00  0.00     0.098 A 
HETATM    9  N6  UNL     1      -2.575   0.207   1.526  1.00  0.00    -0.280 N 
HETATM   10  N7  UNL     1      -2.840   1.507   1.709  1.00  0.00     0.002 NA
ATOM     11  H6  UNL     1      -2.591  -0.506   2.255  1.00  0.00     0.184 HD
HETATM   12  N8  UNL     1      -2.719   2.121   0.526  1.00  0.00    -0.168 N 
HETATM   13  C11 UNL     1      -2.378   1.204  -0.395  1.00  0.00     0.163 A 
BRANCH  12  14
HETATM   14  N9  UNL     1      -2.912   3.491   0.271  1.00  0.00    -0.324 N 
ATOM     15  H92 UNL     1      -3.171   4.187   0.970  1.00  0.00     0.178 HD
ATOM     16  H91 UNL     1      -2.820   3.959  -0.631  1.00  0.00     0.178 HD
ENDBRANCH  12  14
BRANCH  13  17
HETATM   17  N10 UNL     1      -2.185   1.482  -1.640  1.00  0.00    -0.381 N 
ATOM     18 2H10 UNL     1      -1.926   0.786  -2.339  1.00  0.00     0.157 HD
ATOM     19 1H10 UNL     1      -2.254   2.386  -2.108  1.00  0.00     0.157 HD
ENDBRANCH  13  17
ENDBRANCH   5   8
ENDBRANCH   1   5
BRANCH   3  20
HETATM   20  C5  UNL     1       1.862  -1.107  -0.953  1.00  0.00     0.234 C 
BRANCH  20  21
HETATM   21  N2  UNL     1       2.972  -0.833  -0.092  1.00  0.00    -0.317 N 
HETATM   22  C6  UNL     1       3.691  -1.716   0.612  1.00  0.00     0.186 A 
HETATM   23  N3  UNL     1       4.663  -1.056   1.307  1.00  0.00    -0.335 N 
HETATM   24  C7  UNL     1       4.538   0.243   1.027  1.00  0.00     0.152 A 
ATOM     25  H3  UNL     1       5.356  -1.477   1.925  1.00  0.00     0.168 HD
HETATM   26  N4  UNL     1       5.018   1.481   1.244  1.00  0.00    -0.335 N 
HETATM   27  C9  UNL     1       3.485   0.380   0.155  1.00  0.00     0.154 A 
HETATM   28  C8  UNL     1       4.291   2.361   0.533  1.00  0.00     0.183 A 
ATOM     29  H4  UNL     1       5.805   1.714   1.849  1.00  0.00     0.168 HD
HETATM   30  N5  UNL     1       3.351   1.684  -0.134  1.00  0.00    -0.335 N 
ATOM     31  H5  UNL     1       2.652   2.089  -0.756  1.00  0.00     0.168 HD
ENDBRANCH  20  21
ENDBRANCH   3  20
TORSDOF 6
