REMARK  3 active torsions:
REMARK  status: ('A' for Active; 'I' for Inactive)
REMARK    1  A    between atoms: O1_1  and  C1_3 
REMARK    2  A    between atoms: C3_5  and  N1_6 
REMARK    3  A    between atoms: N1_6  and  C4_9 
ROOT
HETATM    1  N1  UNL     1       0.192   0.335   0.963  1.00  0.00    -0.064 N 
ATOM      2  H11 UNL     1       0.522  -0.254   1.728  1.00  0.00     0.278 HD
ATOM      3  H12 UNL     1      -0.183   1.117   1.500  1.00  0.00     0.278 HD
ENDROOT
BRANCH   1   4
HETATM    4  C3  UNL     1      -0.846  -0.320   0.233  1.00  0.00     0.217 A 
HETATM    5  C1  UNL     1      -2.224  -0.190   0.850  1.00  0.00     0.150 A 
HETATM    6  C2  UNL     1      -1.924   0.349  -0.495  1.00  0.00     0.069 A 
BRANCH   5   7
HETATM    7  O1  UNL     1      -2.859  -1.418   1.030  1.00  0.00    -0.393 OA
ATOM      8  H1  UNL     1      -3.052  -1.764   1.894  1.00  0.00     0.210 HD
ENDBRANCH   5   7
ENDBRANCH   1   4
BRANCH   1   9
HETATM    9  C4  UNL     1       1.296   0.766   0.137  1.00  0.00     0.186 A 
HETATM   10  C5  UNL     1       2.018  -0.378  -0.561  1.00  0.00     0.035 A 
HETATM   11  C6  UNL     1       2.691   0.341   0.551  1.00  0.00     0.035 A 
ENDBRANCH   1   9
TORSDOF 3
