REMARK  15 active torsions:
REMARK  status: ('A' for Active; 'I' for Inactive)
REMARK    1  A    between atoms: N1_2  and  C2_4 
REMARK    2  A    between atoms: C2_4  and  C3_6 
REMARK    3  A    between atoms: C4_7  and  C5_8 
REMARK    4  A    between atoms: N2_10  and  C7_11 
REMARK    5  A    between atoms: C7_11  and  C8_12 
REMARK       I    between atoms: C8_12  and  N3_14 
REMARK    6  A    between atoms: N3_14  and  C9_16 
REMARK    7  A    between atoms: C9_16  and  C10_17 
REMARK    8  A    between atoms: C10_17  and  N4_18 
REMARK    9  A    between atoms: C10_17  and  C11_22 
REMARK       I    between atoms: C11_22  and  N5_24 
REMARK   10  A    between atoms: N5_24  and  C12_26 
REMARK   11  A    between atoms: C12_26  and  C13_27 
REMARK   12  A    between atoms: C12_26  and  C14_29 
REMARK   13  A    between atoms: C14_29  and  O4_31 
REMARK   14  A    between atoms: C16_35  and  N7_36 
REMARK       I    between atoms: N7_36  and  C17_38 
REMARK   15  A    between atoms: C17_38  and  O6_40 
ROOT
HETATM    1  C8  UNL     1       0.279  -2.114   2.927  1.00  0.00     0.237 C 
HETATM    2  O1  UNL     1       1.175  -2.671   3.607  1.00  0.00    -0.272 OA
HETATM    3  N3  UNL     1       0.671  -1.096   2.016  1.00  0.00    -0.357 N 
ATOM      4  H3  UNL     1      -0.046  -0.635   1.456  1.00  0.00     0.162 HD
ENDROOT
BRANCH   1   5
HETATM    5  C7  UNL     1      -1.113  -2.529   3.098  1.00  0.00     0.250 C 
BRANCH   5   6
HETATM    6  N2  UNL     1      -1.994  -1.771   2.229  1.00  0.00    -0.291 N 
HETATM    7  C6  UNL     1      -2.596  -0.611   2.549  1.00  0.00     0.135 A 
HETATM    8  C5  UNL     1      -3.364  -0.167   1.481  1.00  0.00     0.080 A 
HETATM    9  C16 UNL     1      -3.192  -1.124   0.503  1.00  0.00     0.145 A 
HETATM   10  N6  UNL     1      -2.362  -2.056   1.012  1.00  0.00    -0.282 N 
ATOM     11  H6  UNL     1      -2.058  -2.887   0.504  1.00  0.00     0.189 HD
BRANCH   8  12
HETATM   12  C4  UNL     1      -4.166   1.037   1.421  1.00  0.00    -0.054 C 
HETATM   13  C3  UNL     1      -4.820   2.052   1.370  1.00  0.00    -0.032 C 
BRANCH  13  14
HETATM   14  C2  UNL     1      -5.577   3.267   1.299  1.00  0.00     0.151 C 
HETATM   15  S1  UNL     1      -5.285   4.569   2.237  1.00  0.00    -0.051 SA
BRANCH  14  16
HETATM   16  N1  UNL     1      -6.638   3.347   0.363  1.00  0.00    -0.378 N 
HETATM   17  C1  UNL     1      -7.463   4.530   0.212  1.00  0.00     0.147 C 
ATOM     18  H1  UNL     1      -6.829   2.539  -0.229  1.00  0.00     0.160 HD
ENDBRANCH  14  16
ENDBRANCH  13  14
ENDBRANCH   8  12
BRANCH   9  19
HETATM   19  N7  UNL     1      -3.798  -1.085  -0.780  1.00  0.00    -0.286 N 
HETATM   20  C17 UNL     1      -3.577  -2.109  -1.747  1.00  0.00     0.365 C 
HETATM   21  O5  UNL     1      -2.821  -3.086  -1.464  1.00  0.00    -0.238 OA
ATOM     22  H7  UNL     1      -4.408  -0.303  -1.017  1.00  0.00     0.172 HD
BRANCH  20  23
HETATM   23  O6  UNL     1      -4.156  -2.082  -2.990  1.00  0.00    -0.309 OA
HETATM   24  C18 UNL     1      -3.956  -3.078  -3.963  1.00  0.00     0.215 C 
ENDBRANCH  20  23
ENDBRANCH   9  19
ENDBRANCH   5   6
ENDBRANCH   1   5
BRANCH   3  25
HETATM   25  C9  UNL     1       2.049  -0.690   1.853  1.00  0.00     0.165 C 
BRANCH  25  26
HETATM   26  C10 UNL     1       2.130   0.412   0.811  1.00  0.00     0.292 C 
BRANCH  26  27
HETATM   27  N4  UNL     1       1.598  -0.158  -0.423  1.00  0.00    -0.065 N 
ATOM     28  H43 UNL     1       2.064  -1.020  -0.706  1.00  0.00     0.275 HD
ATOM     29  H42 UNL     1       0.662  -0.551  -0.319  1.00  0.00     0.275 HD
ATOM     30  H41 UNL     1       1.652   0.582  -1.123  1.00  0.00     0.275 HD
ENDBRANCH  26  27
BRANCH  26  31
HETATM   31  C11 UNL     1       3.538   0.792   0.540  1.00  0.00     0.250 C 
HETATM   32  O2  UNL     1       4.201   1.311   1.475  1.00  0.00    -0.271 OA
HETATM   33  N5  UNL     1       4.153   0.593  -0.724  1.00  0.00    -0.346 N 
ATOM     34  H5  UNL     1       3.598   0.172  -1.469  1.00  0.00     0.163 HD
BRANCH  33  35
HETATM   35  C12 UNL     1       5.507   0.950  -1.011  1.00  0.00     0.174 C 
BRANCH  35  36
HETATM   36  C13 UNL     1       5.518   1.988  -2.068  1.00  0.00     0.258 C 
HETATM   37  O3  UNL     1       4.493   2.413  -2.559  1.00  0.00    -0.305 OA
ENDBRANCH  35  36
BRANCH  35  38
HETATM   38  C14 UNL     1       6.353  -0.251  -1.392  1.00  0.00     0.143 C 
HETATM   39  C15 UNL     1       7.772   0.205  -1.651  1.00  0.00     0.042 C 
BRANCH  38  40
HETATM   40  O4  UNL     1       6.368  -1.157  -0.359  1.00  0.00    -0.393 OA
ATOM     41  H4  UNL     1       6.898  -1.909  -0.597  1.00  0.00     0.210 HD
ENDBRANCH  38  40
ENDBRANCH  35  38
ENDBRANCH  33  35
ENDBRANCH  26  31
ENDBRANCH  25  26
ENDBRANCH   3  25
TORSDOF 15
