REMARK  4 active torsions:
REMARK  status: ('A' for Active; 'I' for Inactive)
REMARK    1  A    between atoms: N1_1  and  N2_4 
REMARK    2  A    between atoms: C1_6  and  C2_7 
REMARK    3  A    between atoms: N4_13  and  C6_14 
REMARK    4  A    between atoms: C6_14  and  C7_15 
ROOT
HETATM    1  C2  UNL     1       1.724  -0.308  -0.016  1.00  0.00     0.067 A 
HETATM    2  C3  UNL     1       2.735  -0.246   0.944  1.00  0.00     0.118 A 
HETATM    3  N3  UNL     1       2.575  -1.008   2.068  1.00  0.00    -0.372 N 
ATOM      4  H3  UNL     1       3.299  -0.981   2.786  1.00  0.00     0.164 HD
HETATM    5  C4  UNL     1       1.512  -1.782   2.260  1.00  0.00     0.104 A 
HETATM    6  C5  UNL     1       0.550  -1.814   1.303  1.00  0.00     0.108 A 
HETATM    7  N4  UNL     1       0.657  -1.088   0.187  1.00  0.00    -0.349 N 
ENDROOT
BRANCH   7   8
HETATM    8  C6  UNL     1      -0.428  -1.154  -0.737  1.00  0.00     0.167 C 
BRANCH   8   9
HETATM    9  C7  UNL     1      -1.563  -0.267  -0.472  1.00  0.00    -0.040 A 
HETATM   10  C8  UNL     1      -2.574  -0.674   0.403  1.00  0.00     0.009 A 
HETATM   11  C9  UNL     1      -3.676   0.128   0.680  1.00  0.00     0.001 A 
HETATM   12  C10 UNL     1      -3.810   1.368   0.094  1.00  0.00     0.000 A 
HETATM   13  C11 UNL     1      -2.826   1.786  -0.769  1.00  0.00     0.001 A 
HETATM   14  C12 UNL     1      -1.724   0.964  -1.036  1.00  0.00     0.009 A 
ENDBRANCH   8   9
ENDBRANCH   7   8
BRANCH   1  15
HETATM   15  C1  UNL     1       1.917   0.482  -1.219  1.00  0.00     0.137 C 
HETATM   16  N2  UNL     1       2.813   1.252  -1.540  1.00  0.00    -0.316 N 
ATOM     17  H2  UNL     1       2.629   1.641  -2.465  1.00  0.00     0.185 HD
BRANCH  16  18
HETATM   18  N1  UNL     1       3.959   1.741  -1.052  1.00  0.00    -0.345 N 
ATOM     19  H12 UNL     1       4.119   1.338  -0.129  1.00  0.00     0.176 HD
ATOM     20  H11 UNL     1       4.706   2.383  -1.319  1.00  0.00     0.176 HD
ENDBRANCH  16  18
ENDBRANCH   1  15
TORSDOF 4
