REMARK  2 active torsions:
REMARK  status: ('A' for Active; 'I' for Inactive)
REMARK    1  A    between atoms: N1_4  and  O1_5 
REMARK    2  A    between atoms: N2_9  and  O3_10 
ROOT
HETATM    1  C1  UNL     1       0.511   0.580  -1.408  1.00  0.00     0.068 C 
HETATM    2  C2  UNL     1       0.244   0.002  -0.046  1.00  0.00     0.159 C 
HETATM    3  C3  UNL     1       1.477  -0.072   0.832  1.00  0.00     0.068 C 
HETATM    4  N1  UNL     1      -0.822   0.650   0.696  1.00  0.00    -0.176 N 
HETATM    5  C4  UNL     1      -1.241  -0.646   1.110  1.00  0.00     0.372 C 
HETATM    6  O2  UNL     1      -1.915  -1.065   2.092  1.00  0.00    -0.242 OA
HETATM    7  N2  UNL     1      -0.585  -1.176  -0.024  1.00  0.00    -0.176 N 
ENDROOT
BRANCH   4   8
HETATM    8  O1  UNL     1      -1.257   1.921   0.920  1.00  0.00    -0.281 OA
ATOM      9  H1  UNL     1      -1.955   2.345   1.406  1.00  0.00     0.245 HD
ENDBRANCH   4   8
BRANCH   7  10
HETATM   10  O3  UNL     1      -0.745  -2.312  -0.714  1.00  0.00    -0.281 OA
ATOM     11  H3  UNL     1      -1.292  -3.089  -0.699  1.00  0.00     0.245 HD
ENDBRANCH   7  10
TORSDOF 2
