REMARK  13 active torsions:
REMARK  status: ('A' for Active; 'I' for Inactive)
REMARK    1  A    between atoms: N1_2  and  C4_5 
REMARK    2  A    between atoms: C4_5  and  C5_6 
REMARK    3  A    between atoms: C7_8  and  N2_9 
REMARK    4  A    between atoms: N4_15  and  C9_16 
REMARK    5  A    between atoms: C9_16  and  C10_17 
REMARK    6  A    between atoms: C10_17  and  C11_18 
REMARK    7  A    between atoms: C11_18  and  C12_19 
REMARK    8  A    between atoms: C12_19  and  C13_20 
REMARK    9  A    between atoms: C13_20  and  C14_21 
REMARK   10  A    between atoms: C14_21  and  N5_22 
REMARK   11  A    between atoms: C17_25  and  C18_26 
REMARK       I    between atoms: C18_26  and  N6_28 
REMARK   12  A    between atoms: N6_28  and  N7_30 
REMARK       I    between atoms: C19_32  and  N9_34 
REMARK   13  A    between atoms: N9_34  and  N10_36 
ROOT
HETATM    1  N5  UNL     1       3.120  -1.118   0.918  1.00  0.00    -0.366 N 
HETATM    2  C15 UNL     1       3.752  -1.361  -0.221  1.00  0.00     0.091 A 
HETATM    3  C16 UNL     1       4.962  -0.750  -0.481  1.00  0.00     0.034 A 
HETATM    4  C17 UNL     1       5.554   0.115   0.401  1.00  0.00     0.036 A 
HETATM    5  C20 UNL     1       4.884   0.367   1.601  1.00  0.00     0.034 A 
HETATM    6  C21 UNL     1       3.686  -0.269   1.803  1.00  0.00     0.091 A 
ENDROOT
BRANCH   1   7
HETATM    7  C14 UNL     1       1.850  -1.703   1.286  1.00  0.00     0.128 C 
BRANCH   7   8
HETATM    8  C13 UNL     1       0.688  -0.825   0.815  1.00  0.00     0.020 C 
BRANCH   8   9
HETATM    9  C12 UNL     1      -0.576  -1.502   1.234  1.00  0.00     0.002 C 
BRANCH   9  10
HETATM   10  C11 UNL     1      -1.818  -0.731   0.827  1.00  0.00     0.005 C 
BRANCH  10  11
HETATM   11  C10 UNL     1      -1.884   0.623   1.404  1.00  0.00     0.045 C 
BRANCH  11  12
HETATM   12  C9  UNL     1      -3.134   1.357   1.001  1.00  0.00     0.071 C 
BRANCH  12  13
HETATM   13  N4  UNL     1      -4.321   0.712   1.400  1.00  0.00    -0.324 N 
HETATM   14  C5  UNL     1      -5.077  -0.057   0.619  1.00  0.00     0.046 A 
HETATM   15  C6  UNL     1      -6.176  -0.680   1.189  1.00  0.00     0.075 A 
HETATM   16  C7  UNL     1      -6.526  -0.544   2.510  1.00  0.00     0.101 A 
HETATM   17  N3  UNL     1      -5.730   0.247   3.260  1.00  0.00    -0.339 N 
HETATM   18  C8  UNL     1      -4.672   0.843   2.703  1.00  0.00     0.189 A 
ATOM     19  H3  UNL     1      -5.936   0.389   4.249  1.00  0.00     0.168 HD
BRANCH  14  20
HETATM   20  C4  UNL     1      -4.862  -0.258  -0.830  1.00  0.00     0.293 C 
BRANCH  20  21
HETATM   21  N1  UNL     1      -5.905   0.351  -1.631  1.00  0.00    -0.073 N 
HETATM   22  C1  UNL     1      -6.830   1.142  -0.861  1.00  0.00     0.272 C 
HETATM   23  C2  UNL     1      -5.366   1.185  -2.686  1.00  0.00     0.272 C 
HETATM   24  C3  UNL     1      -6.666  -0.704  -2.263  1.00  0.00     0.272 C 
ENDBRANCH  20  21
ENDBRANCH  14  20
BRANCH  16  25
HETATM   25  N2  UNL     1      -7.569  -1.145   3.015  1.00  0.00    -0.385 N 
ATOM     26  H22 UNL     1      -8.171  -1.743   2.448  1.00  0.00     0.157 HD
ATOM     27  H21 UNL     1      -7.829  -1.044   3.996  1.00  0.00     0.157 HD
ENDBRANCH  16  25
ENDBRANCH  12  13
ENDBRANCH  11  12
ENDBRANCH  10  11
ENDBRANCH   9  10
ENDBRANCH   8   9
ENDBRANCH   7   8
ENDBRANCH   1   7
BRANCH   4  28
HETATM   28  C18 UNL     1       6.819   0.776   0.168  1.00  0.00     0.270 C 
HETATM   29  O1  UNL     1       7.277   1.550   1.035  1.00  0.00    -0.266 OA
HETATM   30  N6  UNL     1       7.534   0.558  -1.020  1.00  0.00    -0.263 N 
ATOM     31  H6  UNL     1       7.164  -0.073  -1.731  1.00  0.00     0.190 HD
BRANCH  30  32
HETATM   32  N7  UNL     1       8.749   1.204  -1.227  1.00  0.00    -0.270 N 
HETATM   33  C19 UNL     1       9.509   0.886  -2.212  1.00  0.00     0.223 C 
HETATM   34  N8  UNL     1       9.088  -0.143  -3.093  1.00  0.00    -0.061 NA
HETATM   35  N9  UNL     1      10.758   1.518  -2.463  1.00  0.00    -0.258 N 
ATOM     36  H9  UNL     1      10.916   1.976  -3.361  1.00  0.00     0.191 HD
ATOM     37  H7  UNL     1       9.041   1.942  -0.586  1.00  0.00     0.190 HD
BRANCH  35  38
HETATM   38  N10 UNL     1      11.772   1.523  -1.503  1.00  0.00    -0.247 N 
HETATM   39  N11 UNL     1      12.393   2.594  -1.203  1.00  0.00    -0.331 N 
ATOM     40 2H11 UNL     1      12.132   3.456  -1.682  1.00  0.00     0.178 HD
ATOM     41 1H11 UNL     1      13.134   2.598  -0.502  1.00  0.00     0.178 HD
ATOM     42  H10 UNL     1      12.020   0.652  -1.033  1.00  0.00     0.207 HD
ENDBRANCH  35  38
ENDBRANCH  30  32
ENDBRANCH   4  28
TORSDOF 13
