REMARK  7 active torsions:
REMARK  status: ('A' for Active; 'I' for Inactive)
REMARK    1  A    between atoms: C2_2  and  O1_4 
REMARK    2  A    between atoms: C2_2  and  C4_6 
REMARK    3  A    between atoms: C4_6  and  C5_8 
REMARK    4  A    between atoms: C5_8  and  N1_9 
REMARK    5  A    between atoms: C6_10  and  O3_11 
REMARK    6  A    between atoms: C9_15  and  O4_16 
REMARK    7  A    between atoms: C14_22  and  O5_23 
ROOT
HETATM    1  N1  UNL     1       0.316   0.043  -0.294  1.00  0.00    -0.300 N 
HETATM    2  C6  UNL     1      -0.445  -1.010  -0.620  1.00  0.00     0.152 A 
HETATM    3  C7  UNL     1      -1.758  -0.724  -0.356  1.00  0.00     0.008 A 
HETATM    4  C8  UNL     1      -1.782   0.561   0.151  1.00  0.00     0.011 A 
HETATM    5  C9  UNL     1      -0.471   1.023   0.182  1.00  0.00     0.152 A 
HETATM    6  C10 UNL     1      -3.220   0.889   0.445  1.00  0.00     0.053 C 
HETATM    7  C11 UNL     1      -3.685  -0.508   0.898  1.00  0.00     0.021 C 
HETATM    8  C12 UNL     1      -3.178  -1.201  -0.381  1.00  0.00     0.027 C 
HETATM    9  C13 UNL     1      -3.892  -0.406  -1.424  1.00  0.00     0.042 C 
HETATM   10  C14 UNL     1      -3.996   1.013  -0.838  1.00  0.00     0.127 C 
ENDROOT
BRANCH   1  11
HETATM   11  C5  UNL     1       1.779   0.142  -0.424  1.00  0.00     0.215 C 
BRANCH  11  12
HETATM   12  C4  UNL     1       2.437  -0.331   0.823  1.00  0.00     0.178 C 
HETATM   13  O2  UNL     1       1.798  -0.730   1.777  1.00  0.00    -0.293 OA
BRANCH  12  14
HETATM   14  C2  UNL     1       3.911  -0.309   0.889  1.00  0.00     0.112 C 
HETATM   15  C1  UNL     1       4.446  -1.153  -0.249  1.00  0.00     0.054 C 
HETATM   16  C3  UNL     1       4.468   1.091   0.702  1.00  0.00     0.054 C 
BRANCH  14  17
HETATM   17  O1  UNL     1       4.391  -0.776   2.105  1.00  0.00    -0.383 OA
ATOM     18  H1  UNL     1       4.055  -0.247   2.819  1.00  0.00     0.211 HD
ENDBRANCH  14  17
ENDBRANCH  12  14
ENDBRANCH  11  12
ENDBRANCH   1  11
BRANCH   2  19
HETATM   19  O3  UNL     1       0.031  -2.201  -1.143  1.00  0.00    -0.345 OA
ATOM     20  H3  UNL     1      -0.509  -2.948  -1.374  1.00  0.00     0.219 HD
ENDBRANCH   2  19
BRANCH   5  21
HETATM   21  O4  UNL     1      -0.085   2.270   0.627  1.00  0.00    -0.345 OA
ATOM     22  H4  UNL     1      -0.641   2.963   0.963  1.00  0.00     0.219 HD
ENDBRANCH   5  21
BRANCH  10  23
HETATM   23  O5  UNL     1      -5.335   1.199  -0.498  1.00  0.00    -0.395 OA
ATOM     24  H5  UNL     1      -5.825   1.277  -1.308  1.00  0.00     0.210 HD
ENDBRANCH  10  23
TORSDOF 7
