REMARK  12 active torsions:
REMARK  status: ('A' for Active; 'I' for Inactive)
REMARK    1  A    between atoms: C9_10  and  N2_11 
REMARK       I    between atoms: N2_11  and  C10_13 
REMARK    2  A    between atoms: C10_13  and  C11_15 
REMARK    3  A    between atoms: C11_15  and  C12_16 
REMARK    4  A    between atoms: C11_15  and  N6_24 
REMARK    5  A    between atoms: C12_16  and  C13_17 
REMARK    6  A    between atoms: C13_17  and  C14_18 
REMARK    7  A    between atoms: C14_18  and  N3_19 
REMARK       I    between atoms: N6_24  and  C16_26 
REMARK    8  A    between atoms: C16_26  and  C17_28 
REMARK    9  A    between atoms: C17_28  and  N7_29 
REMARK   10  A    between atoms: C17_28  and  C18_33 
REMARK       I    between atoms: C18_33  and  N8_35 
REMARK   11  A    between atoms: C22_39  and  C23_40 
REMARK   12  A    between atoms: C24_43  and  C25_44 
ROOT
HETATM    1  C11 UNL     1       1.432   1.202   0.027  1.00  0.00     0.176 C 
ENDROOT
BRANCH   1   2
HETATM    2  C10 UNL     1       0.393   0.307   0.594  1.00  0.00     0.240 C 
HETATM    3  N2  UNL     1      -0.858   0.810   1.059  1.00  0.00    -0.352 N 
ATOM      4  H2  UNL     1      -1.030   1.813   0.991  1.00  0.00     0.163 HD
HETATM    5  O1  UNL     1       0.565  -0.936   0.693  1.00  0.00    -0.271 OA
BRANCH   3   6
HETATM    6  C9  UNL     1      -1.887  -0.017   1.617  1.00  0.00     0.121 C 
HETATM    7  C8  UNL     1      -2.149   0.220   3.080  1.00  0.00     0.055 C 
HETATM    8  C7  UNL     1      -3.649   0.076   3.157  1.00  0.00     0.241 C 
HETATM    9  N1  UNL     1      -4.131   0.557   1.868  1.00  0.00    -0.054 N 
HETATM   10  C2  UNL     1      -5.508   0.317   1.775  1.00  0.00     0.187 C 
HETATM   11  C6  UNL     1      -3.994   2.025   1.985  1.00  0.00     0.239 C 
HETATM   12  C24 UNL     1      -3.233   0.123   0.899  1.00  0.00     0.236 C 
HETATM   13  C1  UNL     1      -5.992  -1.098   1.762  1.00  0.00     0.040 C 
HETATM   14  C3  UNL     1      -6.259   1.056   0.699  1.00  0.00     0.033 C 
HETATM   15  C4  UNL     1      -5.509   2.107  -0.025  1.00  0.00     0.004 C 
HETATM   16  C5  UNL     1      -4.390   2.739   0.739  1.00  0.00     0.028 C 
BRANCH  12  17
HETATM   17  C25 UNL     1      -3.469  -1.143   0.224  1.00  0.00     0.011 C 
HETATM   18  C26 UNL     1      -3.433  -1.318  -1.087  1.00  0.00    -0.081 C 
HETATM   19  C27 UNL     1      -3.170  -0.385  -2.203  1.00  0.00     0.034 C 
HETATM   20  C32 UNL     1      -3.677  -2.625  -1.805  1.00  0.00     0.042 C 
HETATM   21  C28 UNL     1      -4.409  -0.667  -3.065  1.00  0.00     0.013 C 
HETATM   22  C29 UNL     1      -4.620  -2.168  -2.902  1.00  0.00    -0.044 C 
HETATM   23  C30 UNL     1      -4.334  -2.860  -4.215  1.00  0.00     0.015 C 
HETATM   24  C31 UNL     1      -6.024  -2.487  -2.463  1.00  0.00     0.015 C 
ENDBRANCH  12  17
ENDBRANCH   3   6
ENDBRANCH   1   2
BRANCH   1  25
HETATM   25  C12 UNL     1       1.676   2.271   1.086  1.00  0.00     0.036 C 
BRANCH  25  26
HETATM   26  C13 UNL     1       2.143   1.663   2.372  1.00  0.00     0.022 C 
BRANCH  26  27
HETATM   27  C14 UNL     1       2.378   2.773   3.396  1.00  0.00     0.122 C 
BRANCH  27  28
HETATM   28  N3  UNL     1       3.378   3.692   2.930  1.00  0.00    -0.367 N 
HETATM   29  C15 UNL     1       3.678   4.818   3.429  1.00  0.00     0.196 C 
HETATM   30  N4  UNL     1       3.042   5.360   4.571  1.00  0.00    -0.067 NA
HETATM   31  N5  UNL     1       4.726   5.554   2.771  1.00  0.00    -0.067 NA
ATOM     32  H3  UNL     1       3.906   3.407   2.105  1.00  0.00     0.161 HD
ENDBRANCH  27  28
ENDBRANCH  26  27
ENDBRANCH  25  26
ENDBRANCH   1  25
BRANCH   1  33
HETATM   33  N6  UNL     1       2.635   0.541  -0.345  1.00  0.00    -0.346 N 
HETATM   34  C16 UNL     1       3.261   0.531  -1.607  1.00  0.00     0.258 C 
HETATM   35  O2  UNL     1       2.746   1.155  -2.570  1.00  0.00    -0.271 OA
ATOM     36  H6  UNL     1       3.101   0.010   0.391  1.00  0.00     0.163 HD
BRANCH  34  37
HETATM   37  C17 UNL     1       4.532  -0.194  -1.866  1.00  0.00     0.365 C 
BRANCH  37  38
HETATM   38  N7  UNL     1       5.049   0.111  -3.171  1.00  0.00    -0.058 N 
ATOM     39  H73 UNL     1       4.359  -0.071  -3.899  1.00  0.00     0.275 HD
ATOM     40  H72 UNL     1       5.157   1.116  -3.306  1.00  0.00     0.275 HD
ATOM     41  H71 UNL     1       5.921  -0.387  -3.349  1.00  0.00     0.275 HD
ENDBRANCH  37  38
BRANCH  37  42
HETATM   42  C18 UNL     1       4.495  -1.613  -1.520  1.00  0.00     0.260 C 
HETATM   43  O3  UNL     1       3.437  -2.136  -1.019  1.00  0.00    -0.270 OA
HETATM   44  N8  UNL     1       5.609  -2.459  -1.713  1.00  0.00    -0.337 N 
HETATM   45  C19 UNL     1       5.556  -3.900  -1.407  1.00  0.00     0.127 C 
HETATM   46  C22 UNL     1       6.965  -2.145  -2.164  1.00  0.00     0.176 C 
HETATM   47  C20 UNL     1       6.936  -4.417  -1.625  1.00  0.00     0.022 C 
HETATM   48  C21 UNL     1       7.550  -3.466  -2.610  1.00  0.00     0.036 C 
BRANCH  46  49
HETATM   49  C23 UNL     1       7.746  -1.564  -1.032  1.00  0.00     0.254 C 
HETATM   50  N9  UNL     1       9.060  -1.078  -1.158  1.00  0.00    -0.060 NA
HETATM   51  O4  UNL     1       7.220  -1.490   0.129  1.00  0.00    -0.275 OA
ENDBRANCH  46  49
ENDBRANCH  37  42
ENDBRANCH  34  37
ENDBRANCH   1  33
TORSDOF 12
