REMARK  3 active torsions:
REMARK  status: ('A' for Active; 'I' for Inactive)
REMARK    1  A    between atoms: N5_15  and  C6_16 
REMARK    2  A    between atoms: C8_18  and  N6_19 
REMARK    3  A    between atoms: C9_23  and  N7_24 
ROOT
HETATM    1  C6  UNL     1       0.779  -0.153  -0.951  1.00  0.00     0.096 C 
HETATM    2  C7  UNL     1       0.730  -1.629  -0.616  1.00  0.00     0.060 C 
HETATM    3  C8  UNL     1      -0.715  -1.784  -0.158  1.00  0.00     0.208 C 
HETATM    4  C9  UNL     1      -0.886  -0.547   0.672  1.00  0.00     0.123 C 
HETATM    5  C17 UNL     1      -0.099   0.546   0.051  1.00  0.00     0.053 C 
ENDROOT
BRANCH   1   6
HETATM    6  N5  UNL     1       2.104   0.370  -1.031  1.00  0.00    -0.322 N 
HETATM    7  C3  UNL     1       3.007   0.466  -0.010  1.00  0.00     0.140 A 
HETATM    8  N3  UNL     1       2.931   0.123   1.285  1.00  0.00    -0.336 N 
HETATM    9  C4  UNL     1       4.173   1.023  -0.483  1.00  0.00     0.122 A 
HETATM   10  C2  UNL     1       3.972   0.318   2.110  1.00  0.00     0.183 A 
ATOM     11  H3  UNL     1       2.072  -0.291   1.647  1.00  0.00     0.168 HD
HETATM   12  N2  UNL     1       5.113   0.863   1.651  1.00  0.00    -0.337 N 
HETATM   13  C1  UNL     1       5.244   1.224   0.369  1.00  0.00     0.131 A 
ATOM     14  H2  UNL     1       5.893   1.004   2.292  1.00  0.00     0.168 HD
HETATM   15  N1  UNL     1       6.303   1.748  -0.135  1.00  0.00    -0.383 N 
ATOM     16  H12 UNL     1       7.093   1.896   0.493  1.00  0.00     0.157 HD
ATOM     17  H11 UNL     1       6.403   2.023  -1.112  1.00  0.00     0.157 HD
HETATM   18  N4  UNL     1       3.969   1.260  -1.777  1.00  0.00    -0.346 N 
HETATM   19  C5  UNL     1       2.741   0.871  -2.100  1.00  0.00     0.185 A 
ATOM     20  H4  UNL     1       4.647   1.674  -2.417  1.00  0.00     0.167 HD
ENDBRANCH   1   6
BRANCH   3  21
HETATM   21  N6  UNL     1      -0.779  -2.951   0.733  1.00  0.00    -0.073 N 
ATOM     22  H63 UNL     1      -0.406  -3.798   0.304  1.00  0.00     0.274 HD
ATOM     23  H62 UNL     1      -0.121  -2.893   1.510  1.00  0.00     0.274 HD
ATOM     24  H61 UNL     1      -1.746  -3.055   1.040  1.00  0.00     0.274 HD
ENDBRANCH   3  21
BRANCH   4  25
HETATM   25  N7  UNL     1      -2.256  -0.223   0.972  1.00  0.00    -0.334 N 
HETATM   26  C10 UNL     1      -2.847  -0.236   2.177  1.00  0.00     0.184 A 
HETATM   27  N8  UNL     1      -4.132   0.128   2.037  1.00  0.00    -0.350 N 
HETATM   28  C11 UNL     1      -4.384   0.380   0.730  1.00  0.00     0.060 A 
ATOM     29  H8  UNL     1      -4.811   0.203   2.795  1.00  0.00     0.166 HD
HETATM   30  C12 UNL     1      -5.545   0.784   0.063  1.00  0.00     0.032 A 
HETATM   31  C16 UNL     1      -3.199   0.156   0.071  1.00  0.00     0.062 A 
HETATM   32  C13 UNL     1      -5.461   0.957  -1.312  1.00  0.00     0.002 A 
HETATM   33  C14 UNL     1      -4.279   0.736  -1.992  1.00  0.00     0.002 A 
HETATM   34  C15 UNL     1      -3.163   0.340  -1.296  1.00  0.00     0.032 A 
ENDBRANCH   4  25
TORSDOF 3
