REMARK  4 active torsions:
REMARK  status: ('A' for Active; 'I' for Inactive)
REMARK    1  A    between atoms: O1_1  and  N1_3 
REMARK    2  A    between atoms: C1_5  and  O2_6 
REMARK    3  A    between atoms: C1_5  and  C2_8 
REMARK    4  A    between atoms: N2_10  and  C4_11 
ROOT
HETATM    1  C2  UNL     1       3.416  -0.287   0.334  1.00  0.00     0.055 A 
HETATM    2  C3  UNL     1       2.075  -0.494   0.701  1.00  0.00     0.109 A 
HETATM    3  N2  UNL     1       1.243   0.155  -0.127  1.00  0.00    -0.354 N 
HETATM    4  C15 UNL     1       2.012   0.769  -1.010  1.00  0.00     0.116 A 
HETATM    5  C16 UNL     1       3.361   0.531  -0.772  1.00  0.00     0.065 A 
HETATM    6 CL1  UNL     1       4.685   1.177  -1.734  1.00  0.00    -0.082 Cl
ENDROOT
BRANCH   3   7
HETATM    7  C4  UNL     1      -0.219   0.170  -0.055  1.00  0.00     0.037 C 
HETATM    8  C5  UNL     1      -0.583   0.758   1.272  1.00  0.00     0.032 C 
HETATM    9  C6  UNL     1      -1.897   1.449   1.314  1.00  0.00     0.007 C 
HETATM   10  C7  UNL     1      -3.036   0.676   0.734  1.00  0.00    -0.014 C 
HETATM   11  C8  UNL     1      -3.230   1.159  -0.686  1.00  0.00     0.009 C 
HETATM   12  C12 UNL     1      -2.912  -0.799   0.856  1.00  0.00     0.009 C 
HETATM   13  C9  UNL     1      -2.196   0.546  -1.567  1.00  0.00    -0.012 C 
HETATM   14  C10 UNL     1      -2.438  -0.948  -1.601  1.00  0.00     0.009 C 
HETATM   15  C14 UNL     1      -0.792   0.884  -1.230  1.00  0.00     0.036 C 
HETATM   16  C11 UNL     1      -2.121  -1.465  -0.214  1.00  0.00    -0.012 C 
HETATM   17  C13 UNL     1      -0.631  -1.305  -0.014  1.00  0.00     0.036 C 
ENDBRANCH   3   7
BRANCH   1  18
HETATM   18  C1  UNL     1       4.557  -0.845   1.020  1.00  0.00     0.173 C 
HETATM   19  N1  UNL     1       5.751  -0.727   0.783  1.00  0.00    -0.247 N 
ATOM     20  H1  UNL     1       6.262  -1.266   1.482  1.00  0.00     0.196 HD
BRANCH  19  21
HETATM   21  O1  UNL     1       6.622  -0.181  -0.014  1.00  0.00    -0.288 OA
ATOM     22  H1  UNL     1       7.549  -0.089  -0.198  1.00  0.00     0.244 HD
ENDBRANCH  19  21
BRANCH  18  23
HETATM   23  O2  UNL     1       4.253  -1.665   2.152  1.00  0.00    -0.344 OA
ATOM     24  H2  UNL     1       3.326  -1.757   2.336  1.00  0.00     0.219 HD
ENDBRANCH  18  23
ENDBRANCH   1  18
TORSDOF 4
