REMARK  5 active torsions:
REMARK  status: ('A' for Active; 'I' for Inactive)
REMARK    1  A    between atoms: C2_2  and  C3_3 
REMARK    2  A    between atoms: C3_3  and  N1_4 
REMARK    3  A    between atoms: C3_3  and  C4_8 
REMARK    4  A    between atoms: C4_8  and  N2_9 
REMARK    5  A    between atoms: C5_16  and  N6_17 
ROOT
HETATM    1  N2  UNL     1       1.132   0.429  -0.418  1.00  0.00    -0.083 N 
HETATM    2  N3  UNL     1       1.215   1.709  -0.686  1.00  0.00    -0.207 N 
ATOM      3  H3  UNL     1       0.614   2.218  -1.334  1.00  0.00     0.211 HD
HETATM    4  N4  UNL     1       2.191   2.229   0.009  1.00  0.00    -0.213 N 
ATOM      5  H4  UNL     1       2.471   3.210  -0.011  1.00  0.00     0.210 HD
HETATM    6  N5  UNL     1       2.750   1.306   0.729  1.00  0.00    -0.115 N 
ATOM      7  H5  UNL     1       3.536   1.427   1.367  1.00  0.00     0.207 HD
HETATM    8  C5  UNL     1       2.101   0.168   0.476  1.00  0.00     0.713 A 
ENDROOT
BRANCH   1   9
HETATM    9  C4  UNL     1       0.267  -0.545  -0.950  1.00  0.00     0.142 C 
BRANCH   9  10
HETATM   10  C3  UNL     1      -0.980  -0.921  -0.274  1.00  0.00     0.224 C 
BRANCH  10  11
HETATM   11  C2  UNL     1      -2.036   0.066  -0.023  1.00  0.00     0.034 C 
HETATM   12  C1  UNL     1      -1.645   1.221   0.852  1.00  0.00     0.007 C 
ENDBRANCH  10  11
BRANCH  10  13
HETATM   13  N1  UNL     1      -1.575  -2.017  -1.128  1.00  0.00    -0.070 N 
ATOM     14  H13 UNL     1      -2.414  -2.428  -0.719  1.00  0.00     0.275 HD
ATOM     15  H12 UNL     1      -2.002  -1.665  -1.985  1.00  0.00     0.275 HD
ATOM     16  H11 UNL     1      -0.841  -2.703  -1.303  1.00  0.00     0.275 HD
ENDBRANCH  10  13
ENDBRANCH   9  10
ENDBRANCH   1   9
BRANCH   8  17
HETATM   17  N6  UNL     1       2.363  -1.001   1.008  1.00  0.00    -0.231 N 
ATOM     18  H62 UNL     1       1.867  -1.871   0.815  1.00  0.00     0.174 HD
ATOM     19  H61 UNL     1       3.098  -1.199   1.686  1.00  0.00     0.174 HD
ENDBRANCH   8  17
TORSDOF 5
