REMARK  10 active torsions:
REMARK  status: ('A' for Active; 'I' for Inactive)
REMARK    1  A    between atoms: N1_1  and  C1_5 
REMARK    2  A    between atoms: C1_5  and  C2_6 
REMARK    3  A    between atoms: C5_9  and  N2_10 
REMARK    4  A    between atoms: C6_14  and  O1_15 
REMARK    5  A    between atoms: O1_15  and  C7_16 
REMARK    6  A    between atoms: C8_17  and  O2_18 
REMARK    7  A    between atoms: C9_20  and  N3_21 
REMARK    8  A    between atoms: C10_26  and  C11_27 
REMARK    9  A    between atoms: C11_27  and  N4_28 
REMARK   10  A    between atoms: C17_34  and  O4_35 
ROOT
HETATM    1  C7  UNL     1      -0.551  -0.537  -0.204  1.00  0.00     0.189 C 
HETATM    2  C8  UNL     1       0.132  -1.893  -0.405  1.00  0.00     0.206 C 
HETATM    3  C9  UNL     1       1.427  -1.605  -1.125  1.00  0.00     0.350 C 
HETATM    4  O3  UNL     1       2.255  -0.992  -0.201  1.00  0.00    -0.347 OA
HETATM    5  C10 UNL     1       1.817   0.235   0.214  1.00  0.00     0.173 C 
HETATM    6  C17 UNL     1       0.391   0.287   0.633  1.00  0.00     0.180 C 
ENDROOT
BRANCH   1   7
HETATM    7  O1  UNL     1      -1.784  -0.687   0.384  1.00  0.00    -0.348 OA
BRANCH   7   8
HETATM    8  C6  UNL     1      -2.790  -0.208  -0.453  1.00  0.00     0.291 C 
HETATM    9  C5  UNL     1      -3.633  -1.366  -0.942  1.00  0.00     0.238 C 
HETATM   10  C4  UNL     1      -4.870  -0.787  -1.567  1.00  0.00     0.040 C 
HETATM   11  C3  UNL     1      -5.659  -0.145  -0.452  1.00  0.00     0.036 C 
HETATM   12  C2  UNL     1      -4.765   0.502   0.576  1.00  0.00     0.150 C 
HETATM   13  O5  UNL     1      -3.518   0.832   0.086  1.00  0.00    -0.352 OA
BRANCH   9  14
HETATM   14  N2  UNL     1      -4.020  -2.254   0.131  1.00  0.00    -0.070 N 
ATOM     15  H23 UNL     1      -4.623  -1.797   0.815  1.00  0.00     0.274 HD
ATOM     16  H22 UNL     1      -4.673  -2.974  -0.177  1.00  0.00     0.274 HD
ATOM     17  H21 UNL     1      -3.180  -2.647   0.555  1.00  0.00     0.274 HD
ENDBRANCH   9  14
BRANCH  12  18
HETATM   18  C1  UNL     1      -5.447   1.800   0.979  1.00  0.00     0.261 C 
BRANCH  18  19
HETATM   19  N1  UNL     1      -6.775   1.553   1.520  1.00  0.00    -0.077 N 
ATOM     20  H13 UNL     1      -7.349   1.014   0.872  1.00  0.00     0.274 HD
ATOM     21  H12 UNL     1      -6.747   0.889   2.294  1.00  0.00     0.274 HD
ATOM     22  H11 UNL     1      -7.232   2.424   1.790  1.00  0.00     0.274 HD
ENDBRANCH  18  19
ENDBRANCH  12  18
ENDBRANCH   7   8
ENDBRANCH   1   7
BRANCH   2  23
HETATM   23  O2  UNL     1       0.460  -2.342   0.876  1.00  0.00    -0.388 OA
ATOM     24  H2  UNL     1       0.884  -3.183   0.751  1.00  0.00     0.210 HD
ENDBRANCH   2  23
BRANCH   6  25
HETATM   25  O4  UNL     1      -0.022   1.634   0.526  1.00  0.00    -0.390 OA
ATOM     26  H4  UNL     1       0.572   2.154   1.054  1.00  0.00     0.210 HD
ENDBRANCH   6  25
BRANCH   3  27
HETATM   27  N3  UNL     1       1.228  -0.852  -2.317  1.00  0.00    -0.050 N 
ATOM     28  H33 UNL     1       0.558  -1.310  -2.934  1.00  0.00     0.277 HD
ATOM     29  H32 UNL     1       0.713   0.008  -2.127  1.00  0.00     0.277 HD
ATOM     30  H31 UNL     1       2.103  -0.657  -2.804  1.00  0.00     0.277 HD
ENDBRANCH   3  27
BRANCH   5  31
HETATM   31  C11 UNL     1       2.678   0.625   1.409  1.00  0.00     0.151 C 
BRANCH  31  32
HETATM   32  N4  UNL     1       4.067   0.704   1.134  1.00  0.00    -0.410 N 
HETATM   33  C12 UNL     1       4.739  -0.510   0.857  1.00  0.00     0.117 C 
HETATM   34  C13 UNL     1       6.235  -0.289   1.114  1.00  0.00     0.019 C 
HETATM   35  C14 UNL     1       6.692   0.679   0.062  1.00  0.00     0.003 C 
HETATM   36  C15 UNL     1       5.997   2.002   0.348  1.00  0.00     0.019 C 
HETATM   37  C16 UNL     1       4.497   1.850   0.416  1.00  0.00     0.117 C 
ENDBRANCH  31  32
ENDBRANCH   5  31
TORSDOF 10
