REMARK  13 active torsions:
REMARK  status: ('A' for Active; 'I' for Inactive)
REMARK    1  A    between atoms: C4_5  and  C5_6 
REMARK    2  A    between atoms: C5_6  and  C6_8 
REMARK    3  A    between atoms: C6_8  and  O2_9 
REMARK    4  A    between atoms: C6_8  and  N2_11 
REMARK    5  A    between atoms: N2_11  and  C7_14 
REMARK    6  A    between atoms: C7_14  and  C8_15 
REMARK    7  A    between atoms: C7_14  and  C14_21 
REMARK    8  A    between atoms: C8_15  and  C9_16 
REMARK    9  A    between atoms: C14_21  and  C15_23 
REMARK   10  A    between atoms: C20_28  and  C21_29 
REMARK       I    between atoms: C21_29  and  N3_31 
REMARK   11  A    between atoms: N3_31  and  C22_33 
REMARK   12  A    between atoms: C26_40  and  C27_41 
REMARK   13  A    between atoms: C27_41  and  C28_42 
ROOT
HETATM    1  N2  UNL     1      -0.775   1.067  -1.204  1.00  0.00    -0.031 N 
ATOM      2  H21 UNL     1      -0.807   0.061  -1.039  1.00  0.00     0.281 HD
ATOM      3  H22 UNL     1      -1.191   1.082  -2.135  1.00  0.00     0.281 HD
ENDROOT
BRANCH   1   4
HETATM    4  C6  UNL     1       0.583   1.568  -1.213  1.00  0.00     0.392 C 
BRANCH   4   5
HETATM    5  C5  UNL     1       1.478   0.441  -1.633  1.00  0.00     0.213 C 
HETATM    6  O1  UNL     1       1.263  -0.062  -2.714  1.00  0.00    -0.291 OA
BRANCH   5   7
HETATM    7  C4  UNL     1       2.587  -0.034  -0.750  1.00  0.00     0.262 C 
HETATM    8  C3  UNL     1       2.094  -0.570   0.548  1.00  0.00     0.061 C 
HETATM    9  C2  UNL     1       2.956  -0.060   1.681  1.00  0.00     0.128 C 
HETATM   10  N1  UNL     1       4.333   0.143   1.207  1.00  0.00    -0.355 N 
HETATM   11  C1  UNL     1       5.231   0.964   1.966  1.00  0.00     0.152 C 
HETATM   12  C32 UNL     1       4.910  -0.404   0.002  1.00  0.00     0.250 C 
HETATM   13  C26 UNL     1       4.360  -1.647  -0.621  1.00  0.00     0.278 C 
HETATM   14  O5  UNL     1       5.867   0.192  -0.498  1.00  0.00    -0.271 OA
HETATM   15  N4  UNL     1       3.277  -1.106  -1.475  1.00  0.00    -0.051 N 
ATOM     16  H42 UNL     1       2.637  -1.832  -1.796  1.00  0.00     0.279 HD
ATOM     17  H41 UNL     1       3.617  -0.801  -2.387  1.00  0.00     0.279 HD
BRANCH  13  18
HETATM   18  C27 UNL     1       5.312  -2.366  -1.507  1.00  0.00     0.051 C 
BRANCH  18  19
HETATM   19  C28 UNL     1       6.452  -3.075  -0.889  1.00  0.00    -0.049 C 
HETATM   20  C29 UNL     1       5.989  -4.142   0.105  1.00  0.00     0.014 C 
HETATM   21  C30 UNL     1       7.566  -2.296  -0.288  1.00  0.00     0.014 C 
HETATM   22  C31 UNL     1       7.119  -3.888  -2.038  1.00  0.00     0.014 C 
ENDBRANCH  18  19
ENDBRANCH  13  18
ENDBRANCH   5   7
ENDBRANCH   4   5
BRANCH   4  23
HETATM   23  O2  UNL     1       0.961   2.043   0.047  1.00  0.00    -0.364 OA
ATOM     24  H2  UNL     1       0.394   2.757   0.313  1.00  0.00     0.212 HD
ENDBRANCH   4  23
ENDBRANCH   1   4
BRANCH   1  25
HETATM   25  C7  UNL     1      -1.608   1.825  -0.206  1.00  0.00     0.259 C 
BRANCH  25  26
HETATM   26  C8  UNL     1      -1.599   3.209  -0.783  1.00  0.00     0.045 C 
BRANCH  26  27
HETATM   27  C9  UNL     1      -2.311   4.278  -0.047  1.00  0.00    -0.012 C 
HETATM   28  C10 UNL     1      -2.170   5.603  -0.834  1.00  0.00     0.005 C 
HETATM   29  C11 UNL     1      -1.102   6.395  -0.163  1.00  0.00     0.000 C 
HETATM   30  C12 UNL     1      -0.455   5.533   0.869  1.00  0.00     0.000 C 
HETATM   31  C13 UNL     1      -1.612   4.633   1.272  1.00  0.00     0.005 C 
ENDBRANCH  26  27
ENDBRANCH  25  26
BRANCH  25  32
HETATM   32  C14 UNL     1      -2.921   1.140  -0.279  1.00  0.00     0.162 C 
HETATM   33  O3  UNL     1      -3.300   0.942  -1.455  1.00  0.00    -0.295 OA
BRANCH  32  34
HETATM   34  C15 UNL     1      -3.782   0.678   0.801  1.00  0.00     0.070 C 
HETATM   35  C16 UNL     1      -4.110   1.719   1.796  1.00  0.00     0.013 C 
HETATM   36  C17 UNL     1      -4.997   1.241   2.920  1.00  0.00     0.001 C 
HETATM   37  C18 UNL     1      -5.379  -0.228   2.718  1.00  0.00     0.001 C 
HETATM   38  C19 UNL     1      -4.103  -0.994   2.650  1.00  0.00     0.015 C 
HETATM   39  C20 UNL     1      -3.372  -0.650   1.402  1.00  0.00     0.089 C 
BRANCH  39  40
HETATM   40  C21 UNL     1      -3.421  -1.737   0.390  1.00  0.00     0.223 C 
HETATM   41  O4  UNL     1      -2.437  -2.469   0.116  1.00  0.00    -0.273 OA
HETATM   42  N3  UNL     1      -4.634  -1.999  -0.337  1.00  0.00    -0.353 N 
ATOM     43  H3  UNL     1      -5.454  -1.424  -0.145  1.00  0.00     0.163 HD
BRANCH  42  44
HETATM   44  C22 UNL     1      -4.735  -3.042  -1.326  1.00  0.00     0.022 C 
HETATM   45  C23 UNL     1      -4.452  -4.366  -0.619  1.00  0.00     0.037 C 
HETATM   46  C24 UNL     1      -6.120  -3.026  -1.916  1.00  0.00     0.037 C 
HETATM   47  C25 UNL     1      -3.721  -2.851  -2.442  1.00  0.00     0.037 C 
ENDBRANCH  42  44
ENDBRANCH  39  40
ENDBRANCH  32  34
ENDBRANCH  25  32
ENDBRANCH   1  25
TORSDOF 13
