REMARK  5 active torsions:
REMARK  status: ('A' for Active; 'I' for Inactive)
REMARK    1  A    between atoms: C5_7  and  O1_8 
REMARK    2  A    between atoms: O1_8  and  C6_9 
REMARK    3  A    between atoms: C6_9  and  C7_10 
REMARK    4  A    between atoms: C7_10  and  N2_11 
REMARK    5  A    between atoms: C17_24  and  N4_25 
ROOT
HETATM    1  C1  UNL     1       6.599  -2.001   1.200  1.00  0.00     0.072 C 
HETATM    2  C2  UNL     1       5.674  -0.936   0.686  1.00  0.00     0.050 A 
HETATM    3  N1  UNL     1       4.394  -1.203   0.391  1.00  0.00    -0.355 N 
ATOM      4  H1  UNL     1       4.006  -2.139   0.509  1.00  0.00     0.166 HD
HETATM    5  C3  UNL     1       3.625  -0.164  -0.077  1.00  0.00     0.062 A 
HETATM    6  C4  UNL     1       2.312  -0.364  -0.397  1.00  0.00     0.071 A 
HETATM    7  C5  UNL     1       1.499   0.683  -0.880  1.00  0.00     0.109 A 
HETATM    8  C14 UNL     1       2.036   1.963  -1.039  1.00  0.00     0.151 A 
HETATM    9  F1  UNL     1       1.207   2.929  -1.506  1.00  0.00    -0.203 F 
HETATM   10  C15 UNL     1       3.349   2.150  -0.715  1.00  0.00     0.077 A 
HETATM   11  C16 UNL     1       4.137   1.102  -0.240  1.00  0.00     0.063 A 
HETATM   12  N3  UNL     1       5.416   1.330   0.064  1.00  0.00    -0.339 N 
ATOM     13  H3  UNL     1       5.807   2.265  -0.053  1.00  0.00     0.167 HD
HETATM   14  C17 UNL     1       6.191   0.334   0.523  1.00  0.00     0.122 A 
ENDROOT
BRANCH   7  15
HETATM   15  O1  UNL     1       0.268   0.395  -1.159  1.00  0.00    -0.346 OA
BRANCH  15  16
HETATM   16  C6  UNL     1      -0.966   0.101  -1.438  1.00  0.00     0.206 C 
BRANCH  16  17
HETATM   17  C7  UNL     1      -1.680  -0.401  -0.192  1.00  0.00     0.299 C 
BRANCH  17  18
HETATM   18  N2  UNL     1      -3.077  -0.717  -0.403  1.00  0.00     0.094 N 
HETATM   19  C8  UNL     1      -3.486  -1.436   0.787  1.00  0.00     0.273 C 
HETATM   20  C9  UNL     1      -4.932  -1.677   0.908  1.00  0.00     0.030 C 
HETATM   21  C10 UNL     1      -5.810  -0.572   0.411  1.00  0.00     0.004 C 
HETATM   22  C11 UNL     1      -5.297   0.106  -0.817  1.00  0.00     0.035 C 
HETATM   23  C12 UNL     1      -3.862   0.504  -0.562  1.00  0.00     0.219 C 
HETATM   24  C13 UNL     1      -3.847   1.363   0.684  1.00  0.00     0.043 C 
ENDBRANCH  17  18
ENDBRANCH  16  17
ENDBRANCH  15  16
ENDBRANCH   7  15
BRANCH  14  25
HETATM   25  N4  UNL     1       7.416   0.562   0.812  1.00  0.00    -0.384 N 
ATOM     26  H42 UNL     1       8.005  -0.195   1.161  1.00  0.00     0.157 HD
ATOM     27  H41 UNL     1       7.798   1.500   0.692  1.00  0.00     0.157 HD
ENDBRANCH  14  25
TORSDOF 5
