REMARK  4 active torsions:
REMARK  status: ('A' for Active; 'I' for Inactive)
REMARK    1  A    between atoms: C5_5  and  N1_6 
REMARK       I    between atoms: N1_6  and  C6_8 
REMARK    2  A    between atoms: C6_8  and  C7_10 
REMARK    3  A    between atoms: C7_10  and  S1_11 
REMARK    4  A    between atoms: S1_11  and  C8_12 
ROOT
HETATM    1  N1  UNL     1       0.750   0.075  -0.161  1.00  0.00    -0.353 N 
ATOM      2  H1  UNL     1       0.807   0.109  -1.179  1.00  0.00     0.163 HD
HETATM    3  C6  UNL     1       1.960   0.034   0.587  1.00  0.00     0.227 C 
HETATM    4  O1  UNL     1       1.911  -0.008   1.836  1.00  0.00    -0.273 OA
ENDROOT
BRANCH   1   5
HETATM    5  C5  UNL     1      -0.562   0.071   0.460  1.00  0.00     0.119 C 
HETATM    6  C4  UNL     1      -1.373   1.274   0.165  1.00  0.00     0.036 C 
HETATM    7  C2  UNL     1      -2.656   1.092  -0.531  1.00  0.00    -0.045 C 
HETATM    8  C1  UNL     1      -3.616   2.193  -0.037  1.00  0.00     0.015 C 
HETATM    9  C3  UNL     1      -2.508   1.387  -2.022  1.00  0.00     0.015 C 
HETATM   10  C14 UNL     1      -3.375  -0.195  -0.325  1.00  0.00     0.020 C 
HETATM   11  C11 UNL     1      -2.654  -1.195   0.529  1.00  0.00    -0.014 C 
HETATM   12  C10 UNL     1      -1.213  -1.239   0.118  1.00  0.00     0.200 C 
HETATM   13  C12 UNL     1      -3.233  -2.566   0.218  1.00  0.00     0.018 C 
HETATM   14  C13 UNL     1      -2.834  -0.977   1.994  1.00  0.00     0.018 C 
HETATM   15  F1  UNL     1      -1.079  -1.604  -1.192  1.00  0.00    -0.246 F 
ENDBRANCH   1   5
BRANCH   3  16
HETATM   16  C7  UNL     1       3.295   0.039  -0.038  1.00  0.00     0.185 C 
BRANCH  16  17
HETATM   17  S1  UNL     1       4.555  -0.022   1.259  1.00  0.00    -0.083 SA
BRANCH  17  18
HETATM   18  C8  UNL     1       6.194  -0.020   0.611  1.00  0.00     0.160 A 
HETATM   19  N2  UNL     1       6.926   1.073   0.357  1.00  0.00    -0.331 N 
HETATM   20  C9  UNL     1       8.131   0.726  -0.131  1.00  0.00     0.199 A 
ATOM     21  H2  UNL     1       6.614   2.032   0.512  1.00  0.00     0.168 HD
HETATM   22  N3  UNL     1       8.126  -0.627  -0.173  1.00  0.00    -0.294 N 
HETATM   23  N4  UNL     1       6.954  -1.071   0.276  1.00  0.00    -0.279 N 
ATOM     24  H3  UNL     1       8.896  -1.212  -0.497  1.00  0.00     0.187 HD
ATOM     25  H4  UNL     1       6.680  -2.050   0.352  1.00  0.00     0.189 HD
ENDBRANCH  17  18
ENDBRANCH  16  17
ENDBRANCH   3  16
TORSDOF 4
