REMARK  8 active torsions:
REMARK  status: ('A' for Active; 'I' for Inactive)
REMARK    1  A    between atoms: C2_2  and  O1_3 
REMARK    2  A    between atoms: O1_3  and  C3_4 
REMARK    3  A    between atoms: C8_9  and  O2_10 
REMARK    4  A    between atoms: C10_13  and  O3_14 
REMARK    5  A    between atoms: C13_18  and  C14_19 
REMARK    6  A    between atoms: C18_23  and  O5_24 
REMARK    7  A    between atoms: C19_26  and  O6_27 
REMARK    8  A    between atoms: C20_29  and  O7_30 
ROOT
HETATM    1  C3  UNL     1       0.291   1.626   0.784  1.00  0.00     0.054 C 
HETATM    2  C4  UNL     1       1.520   2.249   0.390  1.00  0.00     0.029 C 
HETATM    3  C5  UNL     1       2.733   1.746   0.173  1.00  0.00    -0.017 C 
HETATM    4  C6  UNL     1       3.084   0.306   0.309  1.00  0.00     0.033 C 
HETATM    5  C7  UNL     1       4.497   0.233   0.918  1.00  0.00     0.017 C 
HETATM    6  C8  UNL     1       2.970  -0.508  -0.957  1.00  0.00     0.128 C 
HETATM    7  C9  UNL     1       2.280  -1.810  -0.825  1.00  0.00     0.067 C 
HETATM    8  C10 UNL     1       0.869  -1.926  -1.419  1.00  0.00     0.153 C 
HETATM    9  C12 UNL     1       0.049  -0.811  -1.079  1.00  0.00     0.167 C 
HETATM   10  O4  UNL     1      -0.923  -0.310  -1.982  1.00  0.00    -0.370 OA
HETATM   11  C13 UNL     1      -1.051   0.998  -1.394  1.00  0.00     0.077 C 
HETATM   12  C17 UNL     1      -2.652   0.956  -1.408  1.00  0.00     0.074 C 
HETATM   13  C18 UNL     1      -3.094  -0.158  -0.545  1.00  0.00     0.159 C 
HETATM   14  C19 UNL     1      -2.122  -1.059   0.036  1.00  0.00     0.126 C 
HETATM   15  C20 UNL     1      -2.132  -1.041   1.574  1.00  0.00     0.196 C 
HETATM   16  C22 UNL     1      -0.602  -1.204   1.400  1.00  0.00     0.125 A 
HETATM   17  C23 UNL     1       0.128  -1.605   2.461  1.00  0.00     0.211 A 
HETATM   18  O8  UNL     1      -0.240  -2.535   1.527  1.00  0.00    -0.371 OA
HETATM   19  C24 UNL     1      -0.689  -0.588   0.145  1.00  0.00     0.072 C 
HETATM   20  C25 UNL     1      -0.724   0.970   0.008  1.00  0.00     0.095 C 
ENDROOT
BRANCH   1  21
HETATM   21  O1  UNL     1      -0.318   2.586   1.666  1.00  0.00    -0.355 OA
BRANCH  21  22
HETATM   22  C2  UNL     1      -0.245   2.236   2.982  1.00  0.00     0.170 C 
HETATM   23  C1  UNL     1       1.168   2.086   3.498  1.00  0.00     0.034 C 
ENDBRANCH  21  22
ENDBRANCH   1  21
BRANCH  11  24
HETATM   24  C14 UNL     1      -0.788   2.091  -2.333  1.00  0.00     0.013 C 
HETATM   25  C15 UNL     1       0.553   2.059  -3.011  1.00  0.00     0.012 C 
HETATM   26  C16 UNL     1      -1.787   2.201  -3.501  1.00  0.00     0.012 C 
ENDBRANCH  11  24
BRANCH  14  27
HETATM   27  O6  UNL     1      -2.272  -2.393  -0.347  1.00  0.00    -0.383 OA
ATOM     28  H6  UNL     1      -1.634  -2.984   0.034  1.00  0.00     0.210 HD
ENDBRANCH  14  27
BRANCH   6  29
HETATM   29  O2  UNL     1       4.327  -0.837  -1.277  1.00  0.00    -0.395 OA
ATOM     30  H2  UNL     1       4.255  -1.349  -2.074  1.00  0.00     0.210 HD
ENDBRANCH   6  29
BRANCH  13  31
HETATM   31  O5  UNL     1      -3.964   0.308   0.479  1.00  0.00    -0.392 OA
ATOM     32  H5  UNL     1      -4.248  -0.409   1.034  1.00  0.00     0.210 HD
ENDBRANCH  13  31
BRANCH   8  33
HETATM   33  O3  UNL     1       0.457  -3.208  -1.178  1.00  0.00    -0.388 OA
HETATM   34  C11 UNL     1       0.405  -4.020  -2.294  1.00  0.00     0.202 C 
ENDBRANCH   8  33
BRANCH  15  35
HETATM   35  O7  UNL     1      -2.734  -2.119   2.166  1.00  0.00    -0.384 OA
HETATM   36  C21 UNL     1      -3.554  -1.856   3.223  1.00  0.00     0.202 C 
ENDBRANCH  15  35
TORSDOF 8
