REMARK  4 active torsions:
REMARK  status: ('A' for Active; 'I' for Inactive)
REMARK    1  A    between atoms: N2_4  and  N3_6 
REMARK    2  A    between atoms: C1_8  and  N4_9 
REMARK    3  A    between atoms: N4_9  and  C2_11 
REMARK    4  A    between atoms: C2_11  and  C3_12 
ROOT
HETATM    1  N3  UNL     1       2.909  -0.321   0.322  1.00  0.00    -0.283 N 
ATOM      2  H3  UNL     1       3.665  -0.567   0.961  1.00  0.00     0.189 HD
HETATM    3  C1  UNL     1       1.707  -0.508   0.731  1.00  0.00     0.194 C 
ENDROOT
BRANCH   3   4
HETATM    4  N4  UNL     1       0.563  -0.210  -0.051  1.00  0.00    -0.383 N 
ATOM      5  H4  UNL     1       0.631   0.425  -0.846  1.00  0.00     0.160 HD
BRANCH   4   6
HETATM    6  C2  UNL     1      -0.715  -0.826   0.298  1.00  0.00     0.155 C 
BRANCH   6   7
HETATM    7  C3  UNL     1      -1.753  -0.356  -0.669  1.00  0.00     0.229 A 
HETATM    8  C4  UNL     1      -1.977   1.145  -0.700  1.00  0.00     0.267 A 
HETATM    9  N5  UNL     1      -2.988   0.222  -0.193  1.00  0.00    -0.066 N 
ATOM     10  H52 UNL     1      -3.969   0.064  -0.424  1.00  0.00     0.277 HD
ATOM     11  H51 UNL     1      -3.496   0.157   0.689  1.00  0.00     0.277 HD
ENDBRANCH   6   7
ENDBRANCH   4   6
ENDBRANCH   3   4
BRANCH   1  12
HETATM   12  N2  UNL     1       3.263   0.187  -0.914  1.00  0.00    -0.248 N 
HETATM   13  N1  UNL     1       3.619   1.394  -1.077  1.00  0.00    -0.331 N 
ATOM     14  H12 UNL     1       3.639   1.998  -0.256  1.00  0.00     0.178 HD
ATOM     15  H11 UNL     1       3.880   1.769  -1.989  1.00  0.00     0.178 HD
ATOM     16  H2  UNL     1       3.237  -0.431  -1.725  1.00  0.00     0.207 HD
ENDBRANCH   1  12
TORSDOF 4
