REMARK  15 active torsions:
REMARK  status: ('A' for Active; 'I' for Inactive)
REMARK    1  A    between atoms: C3_3  and  C4_4 
REMARK    2  A    between atoms: C4_4  and  O1_5 
REMARK    3  A    between atoms: C4_4  and  C5_7 
REMARK    4  A    between atoms: C15_21  and  C16_22 
REMARK    5  A    between atoms: N2_26  and  C19_27 
REMARK    6  A    between atoms: C19_27  and  C20_28 
REMARK    7  A    between atoms: C20_28  and  C21_29 
REMARK    8  A    between atoms: C21_29  and  C22_30 
REMARK    9  A    between atoms: C22_30  and  C23_31 
REMARK   10  A    between atoms: C23_31  and  C24_32 
REMARK   11  A    between atoms: C24_32  and  N3_33 
REMARK       I    between atoms: N3_33  and  C25_35 
REMARK   12  A    between atoms: C25_35  and  C26_37 
REMARK   13  A    between atoms: C26_37  and  C27_38 
REMARK   14  A    between atoms: C27_38  and  C28_39 
REMARK   15  A    between atoms: C28_39  and  C29_40 
ROOT
HETATM    1  C1  UNL     1      -2.871   5.307   0.500  1.00  0.00     0.112 C 
HETATM    2  C2  UNL     1      -3.073   3.986  -0.067  1.00  0.00    -0.108 C 
HETATM    3  C3  UNL     1      -3.247   2.888  -0.556  1.00  0.00    -0.074 C 
ENDROOT
BRANCH   3   4
HETATM    4  C4  UNL     1      -3.496   1.527  -1.154  1.00  0.00     0.208 C 
BRANCH   4   5
HETATM    5  O1  UNL     1      -4.395   1.896  -2.217  1.00  0.00    -0.383 OA
ATOM      6  H1  UNL     1      -4.552   1.038  -2.594  1.00  0.00     0.211 HD
ENDBRANCH   4   5
BRANCH   4   7
HETATM    7  C5  UNL     1      -4.143   0.622  -0.241  1.00  0.00     0.096 C 
HETATM    8  C6  UNL     1      -4.454  -0.760  -0.833  1.00  0.00    -0.028 C 
HETATM    9  C7  UNL     1      -3.260  -1.389  -1.232  1.00  0.00     0.117 C 
HETATM   10  C12 UNL     1      -5.924  -1.010  -0.984  1.00  0.00    -0.021 C 
HETATM   11  C8  UNL     1      -3.606  -2.809  -1.694  1.00  0.00     0.316 C 
HETATM   12  N2  UNL     1      -1.971  -0.999  -0.861  1.00  0.00    -0.310 N 
HETATM   13  O2  UNL     1      -3.680  -3.582  -2.504  1.00  0.00    -0.257 OA
HETATM   14  O3  UNL     1      -4.079  -3.479  -0.314  1.00  0.00    -0.261 OA
HETATM   15  C9  UNL     1      -4.212  -2.571   0.833  1.00  0.00     0.124 C 
HETATM   16  C10 UNL     1      -5.720  -2.469   1.130  1.00  0.00     0.085 C 
HETATM   17  N1  UNL     1      -3.495  -1.475   1.049  1.00  0.00    -0.355 N 
HETATM   18  C11 UNL     1      -6.492  -1.901   0.035  1.00  0.00     0.021 C 
HETATM   19  C15 UNL     1      -3.289  -0.083   0.881  1.00  0.00     0.124 C 
ATOM     20  H1  UNL     1      -2.704  -1.789   1.612  1.00  0.00     0.162 HD
HETATM   21  C18 UNL     1      -1.971   0.142   0.111  1.00  0.00     0.253 C 
HETATM   22  O4  UNL     1      -1.138   0.978   0.222  1.00  0.00    -0.270 OA
HETATM   23  C13 UNL     1      -6.724   0.250  -1.180  1.00  0.00     0.019 C 
HETATM   24  C14 UNL     1      -6.189  -1.752  -2.332  1.00  0.00     0.019 C 
BRANCH  19  25
HETATM   25  C16 UNL     1      -3.293   0.632   2.108  1.00  0.00     0.037 C 
HETATM   26  C17 UNL     1      -4.652   0.845   2.753  1.00  0.00     0.008 C 
ENDBRANCH  19  25
BRANCH  12  27
HETATM   27  C19 UNL     1      -0.550  -1.249  -1.239  1.00  0.00     0.132 C 
BRANCH  27  28
HETATM   28  C20 UNL     1       0.064  -2.249  -0.327  1.00  0.00     0.020 C 
BRANCH  28  29
HETATM   29  C21 UNL     1       1.476  -2.526  -0.717  1.00  0.00     0.002 C 
BRANCH  29  30
HETATM   30  C22 UNL     1       2.290  -1.263  -0.658  1.00  0.00     0.002 C 
BRANCH  30  31
HETATM   31  C23 UNL     1       3.745  -1.557  -1.023  1.00  0.00     0.020 C 
BRANCH  31  32
HETATM   32  C24 UNL     1       4.482  -0.236  -0.929  1.00  0.00     0.122 C 
BRANCH  32  33
HETATM   33  N3  UNL     1       5.874  -0.429  -1.251  1.00  0.00    -0.361 N 
HETATM   34  C25 UNL     1       6.759   0.667  -1.226  1.00  0.00     0.217 C 
HETATM   35  O5  UNL     1       6.339   1.805  -0.931  1.00  0.00    -0.274 OA
ATOM     36  H3  UNL     1       6.218  -1.357  -1.497  1.00  0.00     0.162 HD
BRANCH  34  37
HETATM   37  C26 UNL     1       8.178   0.459  -1.552  1.00  0.00     0.103 C 
BRANCH  37  38
HETATM   38  C27 UNL     1       9.043   1.670  -1.422  1.00  0.00     0.009 C 
BRANCH  38  39
HETATM   39  C28 UNL     1       9.121   2.260  -0.056  1.00  0.00     0.000 C 
BRANCH  39  40
HETATM   40  C29 UNL     1       9.677   1.224   0.925  1.00  0.00    -0.005 C 
HETATM   41  C30 UNL     1       9.737   1.868   2.284  1.00  0.00     0.005 C 
ENDBRANCH  39  40
ENDBRANCH  38  39
ENDBRANCH  37  38
ENDBRANCH  34  37
ENDBRANCH  32  33
ENDBRANCH  31  32
ENDBRANCH  30  31
ENDBRANCH  29  30
ENDBRANCH  28  29
ENDBRANCH  27  28
ENDBRANCH  12  27
ENDBRANCH   4   7
ENDBRANCH   3   4
TORSDOF 15
