REMARK  13 active torsions:
REMARK  status: ('A' for Active; 'I' for Inactive)
REMARK    1  A    between atoms: C2_2  and  C3_3 
REMARK    2  A    between atoms: C3_3  and  C4_4 
REMARK    3  A    between atoms: C4_4  and  C5_5 
REMARK    4  A    between atoms: C5_5  and  C6_6 
REMARK    5  A    between atoms: C6_6  and  N1_7 
REMARK       I    between atoms: N1_7  and  C7_9 
REMARK       I    between atoms: C7_9  and  N2_11 
REMARK    6  A    between atoms: N2_11  and  C8_13 
REMARK    7  A    between atoms: C8_13  and  C9_14 
REMARK    8  A    between atoms: C12_17  and  C13_18 
REMARK    9  A    between atoms: C13_18  and  N3_19 
REMARK       I    between atoms: N3_19  and  C14_21 
REMARK   10  A    between atoms: C14_21  and  C15_23 
REMARK   11  A    between atoms: C18_28  and  N5_29 
REMARK   12  A    between atoms: N5_29  and  S1_31 
REMARK   13  A    between atoms: S1_31  and  C19_34 
ROOT
HETATM    1  N3  UNL     1      -1.872   2.037   0.008  1.00  0.00    -0.356 N 
ATOM      2  H3  UNL     1      -1.981   2.475   0.923  1.00  0.00     0.162 HD
HETATM    3  C14 UNL     1      -2.611   0.879  -0.264  1.00  0.00     0.251 C 
HETATM    4  O2  UNL     1      -2.530   0.250  -1.375  1.00  0.00    -0.268 OA
ENDROOT
BRANCH   1   5
HETATM    5  C13 UNL     1      -0.975   2.637  -0.926  1.00  0.00     0.127 C 
BRANCH   5   6
HETATM    6  C12 UNL     1       0.167   1.765  -1.386  1.00  0.00     0.003 C 
HETATM    7  C11 UNL     1       0.975   2.579  -2.343  1.00  0.00     0.007 C 
HETATM    8  C10 UNL     1       2.388   2.142  -2.513  1.00  0.00     0.007 C 
HETATM    9  C9  UNL     1       2.983   1.996  -1.120  1.00  0.00     0.003 C 
HETATM   10  C27 UNL     1       2.322   0.814  -0.517  1.00  0.00     0.007 C 
HETATM   11  C26 UNL     1       0.884   1.185  -0.244  1.00  0.00     0.007 C 
BRANCH   9  12
HETATM   12  C8  UNL     1       4.475   1.943  -1.141  1.00  0.00     0.129 C 
BRANCH  12  13
HETATM   13  N2  UNL     1       5.011   0.841  -1.910  1.00  0.00    -0.343 N 
HETATM   14  C7  UNL     1       6.397   0.646  -1.997  1.00  0.00     0.316 C 
HETATM   15  N1  UNL     1       6.953  -0.469  -2.745  1.00  0.00    -0.343 N 
HETATM   16  O1  UNL     1       7.213   1.388  -1.449  1.00  0.00    -0.247 OA
ATOM     17  H1  UNL     1       6.304  -1.087  -3.232  1.00  0.00     0.164 HD
ATOM     18  H2  UNL     1       4.378   0.203  -2.391  1.00  0.00     0.164 HD
BRANCH  15  19
HETATM   19  C6  UNL     1       8.334  -0.753  -2.842  1.00  0.00     0.124 C 
BRANCH  19  20
HETATM   20  C5  UNL     1       8.976  -1.092  -1.501  1.00  0.00     0.020 C 
BRANCH  20  21
HETATM   21  C4  UNL     1       8.359  -2.306  -0.883  1.00  0.00     0.002 C 
BRANCH  21  22
HETATM   22  C3  UNL     1       9.022  -2.632   0.417  1.00  0.00    -0.000 C 
BRANCH  22  23
HETATM   23  C2  UNL     1       8.826  -1.457   1.372  1.00  0.00    -0.005 C 
HETATM   24  C1  UNL     1       9.469  -1.765   2.702  1.00  0.00     0.005 C 
ENDBRANCH  22  23
ENDBRANCH  21  22
ENDBRANCH  20  21
ENDBRANCH  19  20
ENDBRANCH  15  19
ENDBRANCH  12  13
ENDBRANCH   9  12
ENDBRANCH   5   6
ENDBRANCH   1   5
BRANCH   3  25
HETATM   25  C15 UNL     1      -3.529   0.340   0.742  1.00  0.00     0.036 A 
HETATM   26  C16 UNL     1      -3.638   0.896   1.985  1.00  0.00     0.034 A 
HETATM   27  C17 UNL     1      -4.563   0.352   2.864  1.00  0.00     0.090 A 
HETATM   28  N4  UNL     1      -5.310  -0.669   2.510  1.00  0.00    -0.352 N 
HETATM   29  C18 UNL     1      -5.247  -1.261   1.307  1.00  0.00     0.115 A 
ATOM     30  H4  UNL     1      -5.978  -1.034   3.190  1.00  0.00     0.166 HD
HETATM   31  C25 UNL     1      -4.342  -0.740   0.421  1.00  0.00     0.066 A 
BRANCH  29  32
HETATM   32  N5  UNL     1      -6.075  -2.343   0.969  1.00  0.00    -0.270 N 
ATOM     33  H5  UNL     1      -5.871  -2.797   0.079  1.00  0.00     0.180 HD
BRANCH  32  34
HETATM   34  S1  UNL     1      -7.382  -3.000   1.856  1.00  0.00     0.236 S 
HETATM   35  O3  UNL     1      -6.889  -3.178   3.325  1.00  0.00    -0.205 OA
HETATM   36  O4  UNL     1      -7.790  -4.366   1.363  1.00  0.00    -0.205 OA
BRANCH  34  37
HETATM   37  C19 UNL     1      -8.769  -1.935   1.927  1.00  0.00     0.129 C 
HETATM   38  C20 UNL     1      -8.488  -0.519   2.174  1.00  0.00     0.022 C 
HETATM   39  C21 UNL     1      -9.811   0.292   2.050  1.00  0.00     0.001 C 
HETATM   40  C22 UNL     1     -10.166   0.372   0.581  1.00  0.00     0.000 C 
HETATM   41  C23 UNL     1      -9.471  -0.757  -0.193  1.00  0.00     0.001 C 
HETATM   42  C24 UNL     1      -9.528  -2.074   0.569  1.00  0.00     0.022 C 
ENDBRANCH  34  37
ENDBRANCH  32  34
ENDBRANCH  29  32
ENDBRANCH   3  25
TORSDOF 13
