REMARK  0 active torsions:
REMARK  status: ('A' for Active; 'I' for Inactive)
ROOT
HETATM    1  C1  UNL     1      -1.887   0.821   0.558  1.00  0.00     0.011 C 
HETATM    2  C2  UNL     1      -1.234  -0.062  -0.491  1.00  0.00     0.009 C 
HETATM    3  C3  UNL     1      -0.830  -1.374   0.144  1.00  0.00     0.237 C 
HETATM    4  N1  UNL     1       0.630  -1.410   0.107  1.00  0.00    -0.071 N 
ATOM      5  H11 UNL     1       1.032  -1.857  -0.717  1.00  0.00     0.277 HD
ATOM      6  H12 UNL     1       1.066  -2.042   0.778  1.00  0.00     0.277 HD
HETATM    7  C4  UNL     1       0.959  -0.022   0.272  1.00  0.00     0.182 C 
HETATM    8  C5  UNL     1       2.415   0.284   0.113  1.00  0.00     0.040 C 
HETATM    9  C6  UNL     1       0.107   0.610  -0.814  1.00  0.00     0.038 C 
ENDROOT
TORSDOF 0
