REMARK  1 active torsions:
REMARK  status: ('A' for Active; 'I' for Inactive)
REMARK    1  A    between atoms: N1_2  and  C2_4 
ROOT
HETATM    1  C2  UNL     1       0.255   0.271  -0.826  1.00  0.00     0.076 C 
HETATM    2  C3  UNL     1      -0.446   1.287  -0.005  1.00  0.00     0.024 C 
HETATM    3  C4  UNL     1      -1.782   0.635   0.336  1.00  0.00     0.002 C 
HETATM    4  C5  UNL     1      -1.371  -0.804   0.521  1.00  0.00     0.002 C 
HETATM    5  C6  UNL     1      -0.470  -1.041  -0.667  1.00  0.00     0.024 C 
ENDROOT
BRANCH   1   6
HETATM    6  N1  UNL     1       1.665   0.195  -0.643  1.00  0.00    -0.421 N 
HETATM    7  C1  UNL     1       2.133  -0.171   0.646  1.00  0.00     0.140 C 
ATOM      8  H1  UNL     1       2.312   0.395  -1.406  1.00  0.00     0.153 HD
ENDBRANCH   1   6
TORSDOF 1
