REMARK  1 active torsions:
REMARK  status: ('A' for Active; 'I' for Inactive)
REMARK    1  A    between atoms: C6_6  and  N1_7 
ROOT
HETATM    1  C1  UNL     1      -2.444  -0.690  -0.298  1.00  0.00     0.010 C 
HETATM    2  C2  UNL     1      -1.132  -0.145   0.170  1.00  0.00    -0.017 C 
HETATM    3  C3  UNL     1      -0.874   1.271  -0.331  1.00  0.00     0.004 C 
HETATM    4  C4  UNL     1       0.402   1.777   0.274  1.00  0.00     0.002 C 
HETATM    5  C5  UNL     1       1.564   0.854   0.111  1.00  0.00     0.033 C 
HETATM    6  C6  UNL     1       1.240  -0.568   0.478  1.00  0.00     0.183 C 
HETATM    7  C7  UNL     1       0.039  -0.982  -0.367  1.00  0.00     0.037 C 
ENDROOT
BRANCH   6   8
HETATM    8  N1  UNL     1       2.347  -1.432   0.244  1.00  0.00    -0.075 N 
ATOM      9  H13 UNL     1       2.679  -1.361  -0.718  1.00  0.00     0.274 HD
ATOM     10  H12 UNL     1       3.185  -1.104   0.725  1.00  0.00     0.274 HD
ATOM     11  H11 UNL     1       2.127  -2.396   0.493  1.00  0.00     0.274 HD
ENDBRANCH   6   8
TORSDOF 1
