REMARK  3 active torsions:
REMARK  status: ('A' for Active; 'I' for Inactive)
REMARK    1  A    between atoms: C6_6  and  N1_7 
REMARK    2  A    between atoms: C7_10  and  C8_11 
REMARK       I    between atoms: N3_17  and  C14_19 
REMARK       I    between atoms: C14_19  and  N5_23 
REMARK    3  A    between atoms: N5_23  and  C15_25 
ROOT
HETATM    1  N1  UNL     1      -1.919   0.518   0.287  1.00  0.00    -0.239 N 
HETATM    2  N2  UNL     1      -2.852  -0.332  -0.105  1.00  0.00    -0.295 N 
ATOM      3  H2  UNL     1      -3.726  -0.061  -0.556  1.00  0.00     0.187 HD
HETATM    4  C7  UNL     1      -2.500  -1.600   0.168  1.00  0.00     0.037 A 
HETATM    5  C12 UNL     1      -1.264  -1.534   0.772  1.00  0.00     0.078 A 
HETATM    6  C13 UNL     1      -0.914  -0.192   0.838  1.00  0.00     0.144 A 
HETATM    7  N3  UNL     1       0.171   0.274   1.332  1.00  0.00    -0.175 N 
ATOM      8  H3  UNL     1       0.333   1.281   1.328  1.00  0.00     0.186 HD
HETATM    9  C14 UNL     1       1.168  -0.604   1.894  1.00  0.00     0.692 C 
HETATM   10  N4  UNL     1       1.176  -0.846   3.163  1.00  0.00    -0.234 N 
ATOM     11  H41 UNL     1       1.881  -1.467   3.560  1.00  0.00     0.174 HD
ATOM     12  H42 UNL     1       0.462  -0.398   3.738  1.00  0.00     0.174 HD
HETATM   13  N5  UNL     1       2.163  -1.229   1.093  1.00  0.00    -0.022 N 
ATOM     14  H5  UNL     1       2.060  -2.195   0.783  1.00  0.00     0.203 HD
ENDROOT
BRANCH   1  15
HETATM   15  C6  UNL     1      -1.935   1.951   0.170  1.00  0.00     0.059 A 
HETATM   16  C5  UNL     1      -1.837   2.760   1.292  1.00  0.00     0.031 A 
HETATM   17  C4  UNL     1      -1.851   4.132   1.220  1.00  0.00     0.003 A 
HETATM   18  C3  UNL     1      -1.963   4.730   0.004  1.00  0.00     0.007 A 
HETATM   19  C2  UNL     1      -2.063   3.960  -1.147  1.00  0.00    -0.060 A 
HETATM   20  C1  UNL     1      -2.185   4.661  -2.464  1.00  0.00     0.048 C 
HETATM   21  C20 UNL     1      -2.047   2.586  -1.047  1.00  0.00     0.038 A 
ENDBRANCH   1  15
BRANCH  13  22
HETATM   22  C15 UNL     1       3.201  -0.532   0.771  1.00  0.00     0.705 A 
HETATM   23  N6  UNL     1       3.465   0.754   1.111  1.00  0.00    -0.197 N 
HETATM   24  C16 UNL     1       4.643   1.119   0.590  1.00  0.00     0.157 A 
ATOM     25  H6  UNL     1       2.860   1.350   1.676  1.00  0.00     0.183 HD
HETATM   26  C17 UNL     1       5.138   0.032  -0.098  1.00  0.00     0.162 A 
HETATM   27  N7  UNL     1       6.199  -0.370  -0.842  1.00  0.00    -0.278 N 
HETATM   28  N9  UNL     1       4.250  -0.953   0.025  1.00  0.00    -0.124 N 
HETATM   29  C18 UNL     1       7.362   0.420  -1.194  1.00  0.00     0.179 C 
HETATM   30  N8  UNL     1       5.932  -1.627  -1.167  1.00  0.00    -0.292 N 
HETATM   31  C19 UNL     1       4.747  -1.996  -0.646  1.00  0.00     0.225 A 
ATOM     32  H8  UNL     1       6.536  -2.227  -1.729  1.00  0.00     0.188 HD
ENDBRANCH  13  22
BRANCH   4  33
HETATM   33  C8  UNL     1      -3.217  -2.870  -0.084  1.00  0.00    -0.007 C 
HETATM   34  C9  UNL     1      -2.344  -3.699  -1.000  1.00  0.00     0.021 C 
HETATM   35  C10 UNL     1      -3.339  -3.635   1.229  1.00  0.00     0.021 C 
HETATM   36  C11 UNL     1      -4.601  -2.656  -0.635  1.00  0.00     0.021 C 
ENDBRANCH   4  33
TORSDOF 3
