REMARK  7 active torsions:
REMARK  status: ('A' for Active; 'I' for Inactive)
REMARK    1  A    between atoms: C2_2  and  C3_3 
REMARK    2  A    between atoms: C8_8  and  C9_9 
REMARK    3  A    between atoms: C9_9  and  C11_11 
REMARK    4  A    between atoms: C12_12  and  C13_13 
REMARK    5  A    between atoms: C14_14  and  C15_15 
REMARK    6  A    between atoms: C16_16  and  C17_17 
REMARK    7  A    between atoms: C17_17  and  N1_18 
ROOT
HETATM    1  C9  UNL     1      -0.407  -1.205  -0.226  1.00  0.00     0.008 C 
HETATM    2  C10 UNL     1      -0.848  -2.596   0.129  1.00  0.00     0.014 C 
ENDROOT
BRANCH   1   3
HETATM    3  C8  UNL     1      -1.509  -0.175  -0.005  1.00  0.00    -0.006 C 
HETATM    4  C7  UNL     1      -1.961  -0.126   1.407  1.00  0.00     0.005 C 
HETATM    5  C6  UNL     1      -3.344   0.383   1.621  1.00  0.00     0.001 C 
HETATM    6  C5  UNL     1      -3.841   1.192   0.456  1.00  0.00     0.013 C 
HETATM    7  C3  UNL     1      -3.816   0.398  -0.824  1.00  0.00    -0.027 C 
HETATM    8  C4  UNL     1      -4.055   1.418  -1.947  1.00  0.00     0.019 C 
HETATM    9  C18 UNL     1      -2.560  -0.369  -1.039  1.00  0.00     0.018 C 
BRANCH   7  10
HETATM   10  C2  UNL     1      -4.998  -0.503  -0.811  1.00  0.00    -0.028 C 
HETATM   11  C1  UNL     1      -4.961  -1.715  -0.278  1.00  0.00     0.007 C 
ENDBRANCH   7  10
ENDBRANCH   1   3
BRANCH   1  12
HETATM   12  C11 UNL     1       0.795  -0.887   0.582  1.00  0.00    -0.022 C 
HETATM   13  C12 UNL     1       1.960  -0.587   0.047  1.00  0.00    -0.004 C 
BRANCH  13  14
HETATM   14  C13 UNL     1       3.100  -0.285   0.891  1.00  0.00    -0.000 C 
HETATM   15  C14 UNL     1       4.266   0.014   0.355  1.00  0.00    -0.000 C 
BRANCH  15  16
HETATM   16  C15 UNL     1       5.418   0.320   1.186  1.00  0.00    -0.002 C 
HETATM   17  C16 UNL     1       6.601   0.624   0.727  1.00  0.00     0.000 C 
BRANCH  17  18
HETATM   18  C17 UNL     1       7.002   0.718  -0.694  1.00  0.00     0.257 C 
BRANCH  18  19
HETATM   19  N1  UNL     1       7.465   2.081  -0.942  1.00  0.00    -0.076 N 
ATOM     20  H13 UNL     1       6.776   2.786  -0.679  1.00  0.00     0.274 HD
ATOM     21  H12 UNL     1       8.206   2.369  -0.303  1.00  0.00     0.274 HD
ATOM     22  H11 UNL     1       7.741   2.146  -1.922  1.00  0.00     0.274 HD
ENDBRANCH  18  19
ENDBRANCH  17  18
ENDBRANCH  15  16
ENDBRANCH  13  14
ENDBRANCH   1  12
TORSDOF 7
