REMARK  12 active torsions:
REMARK  status: ('A' for Active; 'I' for Inactive)
REMARK       I    between atoms: C2_4  and  N2_5 
REMARK       I    between atoms: C2_4  and  N8_39 
REMARK       I    between atoms: N3_9  and  C5_10 
REMARK    1  A    between atoms: N5_12  and  C6_14 
REMARK    2  A    between atoms: C6_14  and  C7_15 
REMARK    3  A    between atoms: C7_15  and  N6_16 
REMARK    4  A    between atoms: C12_21  and  C13_22 
REMARK    5  A    between atoms: C13_22  and  C14_23 
REMARK    6  A    between atoms: C14_23  and  C15_24 
REMARK    7  A    between atoms: C15_24  and  N7_25 
REMARK    8  A    between atoms: N7_25  and  C18_28 
REMARK    9  A    between atoms: C18_28  and  C19_29 
REMARK   10  A    between atoms: C19_29  and  C20_30 
REMARK   11  A    between atoms: C25_35  and  O1_36 
REMARK   12  A    between atoms: N8_39  and  C27_41 
ROOT
HETATM    1  C1  UNL     1      -4.302  -4.714  -2.545  1.00  0.00     0.165 C 
HETATM    2  N1  UNL     1      -3.356  -3.855  -1.879  1.00  0.00    -0.231 N 
ATOM      3  H1  UNL     1      -2.979  -3.069  -2.409  1.00  0.00     0.177 HD
HETATM    4  C2  UNL     1      -2.951  -4.004  -0.666  1.00  0.00     0.674 C 
HETATM    5  N2  UNL     1      -2.018  -3.074  -0.161  1.00  0.00    -0.198 N 
ATOM      6  H2  UNL     1      -1.074  -3.431  -0.014  1.00  0.00     0.183 HD
HETATM    7  C3  UNL     1      -2.195  -1.866   0.131  1.00  0.00     0.026 C 
HETATM    8  C4  UNL     1      -3.470  -1.096   0.014  1.00  0.00     0.178 C 
HETATM    9  N3  UNL     1      -3.099   0.194  -0.514  1.00  0.00    -0.350 N 
HETATM   10  C5  UNL     1      -3.914   1.314  -0.270  1.00  0.00     0.186 C 
HETATM   11  N4  UNL     1      -3.611   2.286   0.737  1.00  0.00    -0.064 NA
HETATM   12  N5  UNL     1      -5.001   1.522  -0.962  1.00  0.00    -0.363 N 
ATOM     13  H5  UNL     1      -5.258   0.857  -1.691  1.00  0.00     0.162 HD
HETATM   14  C10 UNL     1      -1.878   0.267  -1.277  1.00  0.00     0.126 C 
HETATM   15  C11 UNL     1      -0.666  -0.025  -0.389  1.00  0.00     0.030 C 
HETATM   16  C12 UNL     1      -1.007  -1.063   0.663  1.00  0.00     0.035 C 
HETATM   17  N8  UNL     1      -3.454  -5.090   0.095  1.00  0.00    -0.218 N 
ATOM     18  H8  UNL     1      -3.169  -6.030  -0.180  1.00  0.00     0.178 HD
ENDROOT
BRANCH  16  19
HETATM   19  C13 UNL     1       0.078  -2.043   0.862  1.00  0.00     0.012 C 
BRANCH  19  20
HETATM   20  C14 UNL     1       1.379  -1.653   1.417  1.00  0.00     0.029 C 
BRANCH  20  21
HETATM   21  C15 UNL     1       2.181  -0.655   0.685  1.00  0.00     0.236 C 
BRANCH  21  22
HETATM   22  N7  UNL     1       3.474  -0.418   1.344  1.00  0.00    -0.075 N 
HETATM   23  C16 UNL     1       3.343   0.570   2.390  1.00  0.00     0.272 C 
HETATM   24  C17 UNL     1       3.958  -1.631   1.965  1.00  0.00     0.272 C 
BRANCH  22  25
HETATM   25  C18 UNL     1       4.418   0.021   0.367  1.00  0.00     0.237 C 
BRANCH  25  26
HETATM   26  C19 UNL     1       4.863   1.459   0.532  1.00  0.00     0.032 C 
BRANCH  26  27
HETATM   27  C20 UNL     1       5.864   1.727  -0.601  1.00  0.00    -0.010 C 
HETATM   28  C21 UNL     1       7.028   0.792  -0.492  1.00  0.00     0.009 C 
HETATM   29  C22 UNL     1       8.337   1.417  -0.895  1.00  0.00    -0.016 C 
HETATM   30  C23 UNL     1       8.344   1.660  -2.372  1.00  0.00     0.010 C 
HETATM   31  C24 UNL     1       8.655   2.639  -0.076  1.00  0.00     0.036 C 
HETATM   32  C25 UNL     1       7.450   3.471   0.245  1.00  0.00     0.118 C 
HETATM   33  C26 UNL     1       6.267   3.179  -0.644  1.00  0.00     0.036 C 
BRANCH  32  34
HETATM   34  O1  UNL     1       7.079   3.397   1.577  1.00  0.00    -0.396 OA
ATOM     35  H1  UNL     1       6.315   3.924   1.780  1.00  0.00     0.210 HD
ENDBRANCH  32  34
ENDBRANCH  26  27
ENDBRANCH  25  26
ENDBRANCH  22  25
ENDBRANCH  21  22
ENDBRANCH  20  21
ENDBRANCH  19  20
ENDBRANCH  16  19
BRANCH  17  36
HETATM   36  C27 UNL     1      -4.335  -4.967   1.224  1.00  0.00     0.036 C 
HETATM   37  C28 UNL     1      -5.616  -4.317   0.820  1.00  0.00     0.038 C 
HETATM   38  C29 UNL     1      -3.719  -4.192   2.370  1.00  0.00     0.038 C 
HETATM   39  C30 UNL     1      -4.670  -6.354   1.733  1.00  0.00     0.038 C 
ENDBRANCH  17  36
BRANCH  12  40
HETATM   40  C6  UNL     1      -5.854   2.669  -0.726  1.00  0.00     0.141 C 
BRANCH  40  41
HETATM   41  C7  UNL     1      -5.325   3.815  -1.557  1.00  0.00     0.135 C 
BRANCH  41  42
HETATM   42  N6  UNL     1      -6.087   5.014  -1.405  1.00  0.00    -0.419 N 
HETATM   43  C8  UNL     1      -7.410   4.969  -1.938  1.00  0.00     0.142 C 
HETATM   44  C9  UNL     1      -5.363   6.214  -1.690  1.00  0.00     0.142 C 
ENDBRANCH  41  42
ENDBRANCH  40  41
ENDBRANCH  12  40
TORSDOF 12
