REMARK  9 active torsions:
REMARK  status: ('A' for Active; 'I' for Inactive)
REMARK    1  A    between atoms: C2_2  and  C3_3 
REMARK    2  A    between atoms: C3_3  and  N1_4 
REMARK       I    between atoms: N1_4  and  C4_5 
REMARK    3  A    between atoms: C4_5  and  C5_7 
REMARK    4  A    between atoms: C5_7  and  N2_8 
REMARK    5  A    between atoms: C5_7  and  C19_35 
REMARK    6  A    between atoms: N2_8  and  C6_10 
REMARK    7  A    between atoms: C6_10  and  O2_11 
REMARK    8  A    between atoms: C6_10  and  C7_13 
REMARK    9  A    between atoms: C11_26  and  N7_28 
ROOT
HETATM    1  C7  UNL     1      -0.270   0.710  -1.338  1.00  0.00     0.165 C 
HETATM    2  N3  UNL     1       0.267   1.363  -2.342  1.00  0.00    -0.307 N 
ATOM      3  H3  UNL     1      -0.207   1.605  -3.212  1.00  0.00     0.170 HD
HETATM    4  C8  UNL     1       1.624   1.680  -2.020  1.00  0.00     0.251 C 
HETATM    5  O3  UNL     1       2.224   2.638  -2.524  1.00  0.00    -0.271 OA
HETATM    6  C9  UNL     1       1.998   0.630  -1.038  1.00  0.00     0.243 C 
HETATM    7  N4  UNL     1       0.703   0.641  -0.284  1.00  0.00    -0.283 N 
HETATM    8  C10 UNL     1       0.980   0.612   1.085  1.00  0.00     0.179 C 
HETATM    9  N5  UNL     1       0.151   0.799   2.025  1.00  0.00    -0.371 N 
ATOM     10  H51 UNL     1       0.353   0.778   3.025  1.00  0.00     0.159 HD
ATOM     11  H52 UNL     1      -0.853   0.966   1.957  1.00  0.00     0.159 HD
HETATM   12  N6  UNL     1       2.402   0.376   1.182  1.00  0.00    -0.327 N 
ATOM     13  H6  UNL     1       2.896  -0.133   1.915  1.00  0.00     0.165 HD
HETATM   14  C11 UNL     1       2.993   1.034  -0.016  1.00  0.00     0.229 C 
HETATM   15  C12 UNL     1       2.924   2.511   0.302  1.00  0.00     0.074 C 
ENDROOT
BRANCH   1  16
HETATM   16  C6  UNL     1      -1.615   0.228  -1.294  1.00  0.00     0.182 C 
BRANCH  16  17
HETATM   17  N2  UNL     1      -2.255  -0.496  -0.295  1.00  0.00    -0.353 N 
ATOM     18  H2  UNL     1      -1.725  -0.766   0.534  1.00  0.00     0.162 HD
BRANCH  17  19
HETATM   19  C5  UNL     1      -3.660  -0.883  -0.391  1.00  0.00     0.194 C 
BRANCH  19  20
HETATM   20  C4  UNL     1      -4.444   0.344   0.094  1.00  0.00     0.314 C 
HETATM   21  N1  UNL     1      -5.821   0.239   0.218  1.00  0.00    -0.382 NA
HETATM   22  O1  UNL     1      -3.757   1.359   0.336  1.00  0.00    -0.255 OA
BRANCH  21  23
HETATM   23  C3  UNL     1      -7.138   0.142   0.337  1.00  0.00     0.185 C 
BRANCH  23  24
HETATM   24  C2  UNL     1      -7.709   0.413   1.707  1.00  0.00     0.021 C 
HETATM   25  C1  UNL     1      -8.554   1.429   1.899  1.00  0.00     0.013 C 
ENDBRANCH  23  24
ENDBRANCH  21  23
ENDBRANCH  19  20
BRANCH  19  26
HETATM   26  C19 UNL     1      -4.019  -2.074   0.384  1.00  0.00     0.010 C 
HETATM   27  C20 UNL     1      -3.725  -1.954   1.862  1.00  0.00     0.012 C 
HETATM   28  C21 UNL     1      -3.319  -3.313  -0.152  1.00  0.00     0.012 C 
ENDBRANCH  19  26
ENDBRANCH  17  19
ENDBRANCH  16  17
BRANCH  16  29
HETATM   29  O2  UNL     1      -2.327   0.529  -2.341  1.00  0.00    -0.344 OA
ATOM     30  H2  UNL     1      -1.890   1.024  -3.024  1.00  0.00     0.219 HD
ENDBRANCH  16  29
ENDBRANCH   1  16
BRANCH  14  31
HETATM   31  N7  UNL     1       4.314   0.517  -0.162  1.00  0.00    -0.042 N 
HETATM   32  C13 UNL     1       5.177   1.049   0.879  1.00  0.00     0.275 C 
HETATM   33  C14 UNL     1       4.862   0.940  -1.429  1.00  0.00     0.240 C 
HETATM   34  C15 UNL     1       6.265   0.456  -1.687  1.00  0.00     0.028 C 
HETATM   35  C16 UNL     1       6.458  -0.985  -1.287  1.00  0.00     0.003 C 
HETATM   36  C17 UNL     1       5.148  -1.648  -1.005  1.00  0.00     0.028 C 
HETATM   37  C18 UNL     1       4.272  -0.915  -0.019  1.00  0.00     0.240 C 
ENDBRANCH  14  31
TORSDOF 9
