REMARK  6 active torsions:
REMARK  status: ('A' for Active; 'I' for Inactive)
REMARK    1  A    between atoms: C2_2  and  C3_3 
REMARK    2  A    between atoms: C10_11  and  N2_12 
REMARK    3  A    between atoms: N3_15  and  C13_16 
REMARK    4  A    between atoms: C13_16  and  C14_17 
REMARK    5  A    between atoms: C14_17  and  N4_18 
REMARK       I    between atoms: N4_18  and  C15_20 
REMARK       I    between atoms: C15_20  and  N6_24 
REMARK    6  A    between atoms: N6_24  and  C16_26 
ROOT
HETATM    1  N2  UNL     1      -0.815   0.034   1.205  1.00  0.00    -0.328 N 
HETATM    2  C11 UNL     1      -0.441   1.220   0.463  1.00  0.00     0.148 C 
HETATM    3  C12 UNL     1       1.037   0.992   0.145  1.00  0.00     0.147 C 
HETATM    4  N3  UNL     1       1.488   0.369   1.390  1.00  0.00    -0.331 N 
HETATM    5  C22 UNL     1       0.381  -0.414   1.824  1.00  0.00     0.321 C 
HETATM    6  O1  UNL     1       0.506  -1.354   2.639  1.00  0.00    -0.247 OA
ENDROOT
BRANCH   4   7
HETATM    7  C13 UNL     1       2.770   0.579   1.944  1.00  0.00     0.147 C 
BRANCH   7   8
HETATM    8  C14 UNL     1       3.851  -0.334   1.547  1.00  0.00     0.158 C 
BRANCH   8   9
HETATM    9  N4  UNL     1       4.114  -0.321   0.121  1.00  0.00    -0.225 N 
HETATM   10  C15 UNL     1       5.099  -1.112  -0.497  1.00  0.00     0.667 C 
HETATM   11  N5  UNL     1       4.790  -1.885  -1.458  1.00  0.00    -0.235 N 
HETATM   12  N6  UNL     1       6.428  -1.043  -0.047  1.00  0.00    -0.222 N 
ATOM     13  H52 UNL     1       3.825  -1.935  -1.785  1.00  0.00     0.174 HD
ATOM     14  H51 UNL     1       5.504  -2.459  -1.906  1.00  0.00     0.174 HD
ATOM     15  H6  UNL     1       6.854  -1.903   0.299  1.00  0.00     0.178 HD
ATOM     16  H4  UNL     1       3.553   0.296  -0.467  1.00  0.00     0.177 HD
BRANCH  12  17
HETATM   17  C16 UNL     1       7.232   0.148  -0.038  1.00  0.00     0.099 C 
HETATM   18  C17 UNL     1       7.421   0.741  -1.407  1.00  0.00     0.026 C 
HETATM   19  C18 UNL     1       8.624   0.173  -2.111  1.00  0.00     0.002 C 
HETATM   20  C19 UNL     1       9.901   0.333  -1.356  1.00  0.00     0.000 C 
HETATM   21  C20 UNL     1       9.602   0.845   0.028  1.00  0.00     0.002 C 
HETATM   22  C21 UNL     1       8.561  -0.097   0.637  1.00  0.00     0.026 C 
ENDBRANCH  12  17
ENDBRANCH   8   9
ENDBRANCH   7   8
ENDBRANCH   4   7
BRANCH   1  23
HETATM   23  C10 UNL     1      -2.136  -0.539   1.274  1.00  0.00     0.092 C 
HETATM   24  C9  UNL     1      -3.175   0.412   1.769  1.00  0.00     0.053 C 
HETATM   25  C8  UNL     1      -4.136   0.808   0.669  1.00  0.00     0.239 C 
HETATM   26  N1  UNL     1      -4.929  -0.327   0.278  1.00  0.00    -0.067 N 
HETATM   27  C5  UNL     1      -5.977  -0.587   1.237  1.00  0.00     0.238 C 
HETATM   28  C6  UNL     1      -5.577  -0.110  -1.017  1.00  0.00     0.238 C 
HETATM   29  C24 UNL     1      -4.054  -1.468   0.104  1.00  0.00     0.239 C 
HETATM   30  C4  UNL     1      -7.272   0.138   0.867  1.00  0.00     0.032 C 
HETATM   31  C3  UNL     1      -7.886  -0.657  -0.261  1.00  0.00    -0.012 C 
HETATM   32  C7  UNL     1      -6.773  -1.021  -1.204  1.00  0.00     0.032 C 
HETATM   33  C23 UNL     1      -2.606  -1.065  -0.078  1.00  0.00     0.053 C 
BRANCH  31  34
HETATM   34  C2  UNL     1      -9.009   0.076  -0.954  1.00  0.00     0.000 C 
HETATM   35  C1  UNL     1      -8.574   1.377  -1.563  1.00  0.00     0.005 C 
ENDBRANCH  31  34
ENDBRANCH   1  23
TORSDOF 6
