REMARK  8 active torsions:
REMARK  status: ('A' for Active; 'I' for Inactive)
REMARK    1  A    between atoms: N1_1  and  N2_4 
REMARK    2  A    between atoms: N2_4  and  C1_6 
REMARK    3  A    between atoms: C2_10  and  O1_11 
REMARK    4  A    between atoms: O1_11  and  N4_12 
REMARK    5  A    between atoms: C4_15  and  O2_16 
REMARK    6  A    between atoms: C7_21  and  S1_22 
REMARK    7  A    between atoms: S1_22  and  C8_23 
REMARK    8  A    between atoms: C8_23  and  C9_24 
ROOT
HETATM    1  N4  UNL     1       1.180   1.191  -0.874  1.00  0.00    -0.263 N 
ATOM      2  H4  UNL     1       0.987   2.098  -0.449  1.00  0.00     0.194 HD
HETATM    3  C3  UNL     1       0.269   0.305  -0.731  1.00  0.00     0.096 C 
HETATM    4  C4  UNL     1       0.133  -1.088  -1.163  1.00  0.00     0.309 C 
HETATM    5  O3  UNL     1      -0.758  -1.712  -0.303  1.00  0.00    -0.348 OA
HETATM    6  C5  UNL     1      -1.310  -0.792   0.546  1.00  0.00     0.163 C 
HETATM    7  C6  UNL     1      -2.835  -0.811   0.395  1.00  0.00     0.078 C 
HETATM    8  C7  UNL     1      -3.117   0.628   0.078  1.00  0.00     0.186 C 
HETATM    9  O4  UNL     1      -2.059   0.923  -0.818  1.00  0.00    -0.362 OA
HETATM   10  C10 UNL     1      -0.978   0.582   0.022  1.00  0.00     0.204 C 
ENDROOT
BRANCH   1  11
HETATM   11  O1  UNL     1       2.362   1.083  -1.513  1.00  0.00    -0.218 OA
BRANCH  11  12
HETATM   12  C2  UNL     1       3.531   0.692  -0.813  1.00  0.00     0.500 C 
HETATM   13  N3  UNL     1       4.409  -0.170  -1.549  1.00  0.00     0.023 N 
HETATM   14  C1  UNL     1       5.449   0.607  -0.851  1.00  0.00     0.452 C 
ATOM     15  H32 UNL     1       4.373  -0.272  -2.563  1.00  0.00     0.288 HD
ATOM     16  H31 UNL     1       4.353  -1.188  -1.514  1.00  0.00     0.288 HD
HETATM   17  O5  UNL     1       4.541   1.662  -0.822  1.00  0.00    -0.286 OA
BRANCH  14  18
HETATM   18  N2  UNL     1       5.754  -0.038   0.383  1.00  0.00    -0.291 N 
ATOM     19  H2  UNL     1       5.296  -0.904   0.666  1.00  0.00     0.184 HD
BRANCH  18  20
HETATM   20  N1  UNL     1       6.703   0.575   1.172  1.00  0.00    -0.346 N 
ATOM     21  H12 UNL     1       7.153   1.441   0.875  1.00  0.00     0.176 HD
ATOM     22  H11 UNL     1       6.921   0.113   2.055  1.00  0.00     0.176 HD
ENDBRANCH  18  20
ENDBRANCH  14  18
ENDBRANCH  11  12
ENDBRANCH   1  11
BRANCH   4  23
HETATM   23  O2  UNL     1       1.309  -1.817  -1.165  1.00  0.00    -0.366 OA
ATOM     24  H2  UNL     1       1.221  -2.720  -1.445  1.00  0.00     0.213 HD
ENDBRANCH   4  23
BRANCH   8  25
HETATM   25  S1  UNL     1      -4.653   0.954  -0.743  1.00  0.00    -0.135 SA
BRANCH  25  26
HETATM   26  C8  UNL     1      -6.135   0.745   0.197  1.00  0.00     0.108 C 
BRANCH  26  27
HETATM   27  C9  UNL     1      -6.016   0.009   1.494  1.00  0.00     0.232 C 
HETATM   28  F1  UNL     1      -5.166   0.646   2.383  1.00  0.00    -0.255 F 
ENDBRANCH  26  27
ENDBRANCH  25  26
ENDBRANCH   8  25
TORSDOF 8
