REMARK  6 active torsions:
REMARK  status: ('A' for Active; 'I' for Inactive)
REMARK    1  A    between atoms: C2_3  and  C3_4 
REMARK    2  A    between atoms: N2_5  and  N3_7 
REMARK    3  A    between atoms: N3_7  and  C4_9 
REMARK    4  A    between atoms: C6_19  and  C7_20 
REMARK    5  A    between atoms: C10_26  and  N9_27 
REMARK    6  A    between atoms: N9_27  and  N10_29 
ROOT
HETATM    1  N1  UNL     1       0.946  -1.158   1.705  1.00  0.00    -0.191 NA
HETATM    2  C1  UNL     1       0.711  -1.101   0.558  1.00  0.00     0.101 C 
HETATM    3  C2  UNL     1       0.434  -1.000  -0.834  1.00  0.00     0.062 C 
HETATM    4  C6  UNL     1      -0.788  -0.985  -1.293  1.00  0.00     0.037 C 
ENDROOT
BRANCH   3   5
HETATM    5  C3  UNL     1       1.560  -0.906  -1.789  1.00  0.00     0.130 C 
HETATM    6  N2  UNL     1       2.777  -0.916  -1.506  1.00  0.00    -0.296 N 
ATOM      7  H2  UNL     1       3.381  -0.841  -2.325  1.00  0.00     0.186 HD
BRANCH   6   8
HETATM    8  N3  UNL     1       3.466  -1.006  -0.340  1.00  0.00    -0.131 N 
ATOM      9  H3  UNL     1       3.450  -1.874   0.195  1.00  0.00     0.205 HD
BRANCH   8  10
HETATM   10  C4  UNL     1       4.210   0.108   0.137  1.00  0.00     0.713 A 
HETATM   11  N4  UNL     1       3.642   1.254   0.236  1.00  0.00    -0.116 N 
HETATM   12  N5  UNL     1       4.343   2.391   0.706  1.00  0.00    -0.228 N 
ATOM     13  H4  UNL     1       2.662   1.348  -0.030  1.00  0.00     0.207 HD
HETATM   14  N6  UNL     1       5.679   2.247   1.065  1.00  0.00    -0.281 N 
ATOM     15  H5  UNL     1       3.878   3.296   0.780  1.00  0.00     0.209 HD
HETATM   16  C5  UNL     1       6.299   0.975   0.951  1.00  0.00     0.216 A 
ATOM     17  H6  UNL     1       6.209   3.049   1.407  1.00  0.00     0.189 HD
HETATM   18  N7  UNL     1       5.582  -0.006   0.513  1.00  0.00    -0.184 N 
ATOM     19  H7  UNL     1       6.025  -0.921   0.431  1.00  0.00     0.185 HD
ENDBRANCH   8  10
ENDBRANCH   6   8
ENDBRANCH   3   5
BRANCH   4  20
HETATM   20  C7  UNL     1      -1.998  -1.069  -0.492  1.00  0.00    -0.017 A 
HETATM   21  C8  UNL     1      -2.117  -2.032   0.484  1.00  0.00     0.102 A 
HETATM   22  N8  UNL     1      -3.255  -2.050   1.213  1.00  0.00    -0.331 N 
HETATM   23  C9  UNL     1      -4.259  -1.172   1.018  1.00  0.00     0.273 A 
ATOM     24  H8  UNL     1      -3.358  -2.757   1.941  1.00  0.00     0.168 HD
HETATM   25  O1  UNL     1      -5.324  -1.209   1.721  1.00  0.00    -0.266 OA
HETATM   26  C10 UNL     1      -4.183  -0.197   0.057  1.00  0.00     0.118 A 
HETATM   27  C11 UNL     1      -3.040  -0.149  -0.702  1.00  0.00     0.049 A 
BRANCH  26  28
HETATM   28  N9  UNL     1      -5.266   0.733  -0.141  1.00  0.00    -0.281 N 
ATOM     29  H9  UNL     1      -6.107   0.673   0.434  1.00  0.00     0.188 HD
BRANCH  28  30
HETATM   30  N10 UNL     1      -5.157   1.705  -1.114  1.00  0.00    -0.249 N 
HETATM   31  N11 UNL     1      -5.912   2.711  -1.045  1.00  0.00    -0.331 N 
ATOM     32 2H11 UNL     1      -6.583   2.790  -0.281  1.00  0.00     0.178 HD
ATOM     33 1H11 UNL     1      -5.831   3.430  -1.764  1.00  0.00     0.178 HD
ATOM     34  H10 UNL     1      -4.481   1.611  -1.872  1.00  0.00     0.207 HD
ENDBRANCH  28  30
ENDBRANCH  26  28
ENDBRANCH   4  20
TORSDOF 6
