REMARK  7 active torsions:
REMARK  status: ('A' for Active; 'I' for Inactive)
REMARK    1  A    between atoms: N1_2  and  C1_4 
REMARK    2  A    between atoms: C4_7  and  N2_8 
REMARK    3  A    between atoms: N2_8  and  C5_10 
REMARK    4  A    between atoms: C6_12  and  C7_13 
REMARK    5  A    between atoms: C7_13  and  O4_14 
REMARK    6  A    between atoms: C8_19  and  O5_20 
REMARK    7  A    between atoms: C10_23  and  N4_24 
ROOT
HETATM    1  N2  UNL     1      -0.283   0.507  -1.334  1.00  0.00    -0.360 N 
ATOM      2  H2  UNL     1      -0.296   1.064  -2.188  1.00  0.00     0.162 HD
ENDROOT
BRANCH   1   3
HETATM    3  C4  UNL     1       0.992   0.207  -0.810  1.00  0.00     0.032 A 
HETATM    4  C3  UNL     1       1.566  -1.003  -1.105  1.00  0.00     0.032 A 
HETATM    5  C2  UNL     1       2.786  -1.365  -0.638  1.00  0.00     0.041 A 
HETATM    6  C1  UNL     1       3.540  -0.498   0.191  1.00  0.00     0.136 A 
HETATM    7  C10 UNL     1       2.994   0.707   0.498  1.00  0.00     0.138 A 
HETATM    8  C9  UNL     1       1.723   1.043  -0.009  1.00  0.00     0.067 A 
BRANCH   6   9
HETATM    9  N1  UNL     1       4.827  -0.973   0.583  1.00  0.00    -0.113 N 
HETATM   10  O1  UNL     1       5.439  -1.752  -0.238  1.00  0.00    -0.532 OA
HETATM   11  O2  UNL     1       5.452  -0.672   1.728  1.00  0.00    -0.532 OA
ENDBRANCH   6   9
BRANCH   7  12
HETATM   12  N4  UNL     1       3.623   1.694   1.267  1.00  0.00    -0.113 N 
HETATM   13  O6  UNL     1       3.346   2.916   0.948  1.00  0.00    -0.532 OA
HETATM   14  O7  UNL     1       4.487   1.611   2.287  1.00  0.00    -0.532 OA
ENDBRANCH   7  12
ENDBRANCH   1   3
BRANCH   1  15
HETATM   15  C5  UNL     1      -1.541   0.131  -0.821  1.00  0.00     0.280 C 
HETATM   16  O3  UNL     1      -1.848   0.612   0.452  1.00  0.00    -0.328 OA
HETATM   17  C6  UNL     1      -3.085   0.022   0.691  1.00  0.00     0.349 C 
HETATM   18  N3  UNL     1      -3.106  -1.267   0.022  1.00  0.00    -0.016 N 
HETATM   19  C8  UNL     1      -1.758  -1.347  -0.588  1.00  0.00     0.371 C 
ATOM     20  H32 UNL     1      -3.349  -2.055   0.623  1.00  0.00     0.283 HD
ATOM     21  H31 UNL     1      -3.878  -1.395  -0.632  1.00  0.00     0.283 HD
BRANCH  17  22
HETATM   22  C7  UNL     1      -4.217   0.898   0.184  1.00  0.00     0.225 C 
BRANCH  22  23
HETATM   23  O4  UNL     1      -4.211   2.132   0.814  1.00  0.00    -0.397 OA
ATOM     24  H4  UNL     1      -4.919   2.680   0.497  1.00  0.00     0.209 HD
ENDBRANCH  22  23
ENDBRANCH  17  22
BRANCH  19  25
HETATM   25  O5  UNL     1      -0.951  -1.882   0.396  1.00  0.00    -0.366 OA
ATOM     26  H5  UNL     1      -1.087  -2.811   0.542  1.00  0.00     0.212 HD
ENDBRANCH  19  25
ENDBRANCH   1  15
TORSDOF 7
