REMARK  9 active torsions:
REMARK  status: ('A' for Active; 'I' for Inactive)
REMARK       I    between atoms: C1_4  and  N3_6 
REMARK    1  A    between atoms: N4_8  and  C2_10 
REMARK    2  A    between atoms: C2_10  and  C3_11 
REMARK    3  A    between atoms: C3_11  and  C4_12 
REMARK    4  A    between atoms: C4_12  and  N5_13 
REMARK    5  A    between atoms: N5_13  and  N6_14 
REMARK    6  A    between atoms: N5_13  and  C5_17 
REMARK    7  A    between atoms: C7_19  and  N7_20 
REMARK    8  A    between atoms: C8_25  and  N9_26 
REMARK       I    between atoms: N10_28  and  C9_30 
REMARK       I    between atoms: C9_30  and  N12_34 
REMARK    9  A    between atoms: N12_34  and  N13_36 
ROOT
HETATM    1  C5  UNL     1      -0.120  -1.167  -0.596  1.00  0.00     0.140 A 
HETATM    2  C6  UNL     1       0.397  -0.340  -1.564  1.00  0.00     0.099 A 
HETATM    3  C7  UNL     1      -0.414   0.481  -2.305  1.00  0.00     0.118 A 
HETATM    4  N8  UNL     1      -1.729   0.465  -2.071  1.00  0.00    -0.176 N 
ATOM      5  H8  UNL     1      -2.339   1.072  -2.618  1.00  0.00     0.186 HD
HETATM    6  C8  UNL     1      -2.267  -0.332  -1.132  1.00  0.00     0.700 A 
HETATM    7  N14 UNL     1      -1.463  -1.133  -0.410  1.00  0.00    -0.174 N 
ATOM      8  H14 UNL     1      -1.877  -1.735   0.301  1.00  0.00     0.186 HD
ENDROOT
BRANCH   1   9
HETATM    9  N5  UNL     1       0.670  -2.023   0.187  1.00  0.00    -0.283 N 
BRANCH   9  10
HETATM   10  C4  UNL     1       2.094  -2.170   0.128  1.00  0.00     0.152 C 
BRANCH  10  11
HETATM   11  C3  UNL     1       2.754  -1.869   1.465  1.00  0.00     0.043 C 
BRANCH  11  12
HETATM   12  C2  UNL     1       2.507  -0.477   1.952  1.00  0.00     0.141 C 
BRANCH  12  13
HETATM   13  N4  UNL     1       3.007   0.526   1.040  1.00  0.00    -0.334 N 
HETATM   14  N3  UNL     1       4.171   0.412   0.543  1.00  0.00    -0.278 N 
HETATM   15  C1  UNL     1       4.702   1.374  -0.357  1.00  0.00     0.200 C 
ATOM     16  H3  UNL     1       4.741  -0.394   0.798  1.00  0.00     0.189 HD
HETATM   17  N1  UNL     1       3.931   2.322  -0.749  1.00  0.00    -0.372 N 
HETATM   18  N2  UNL     1       6.053   1.246  -0.781  1.00  0.00    -0.062 NA
ATOM     19  H12 UNL     1       4.312   3.013  -1.395  1.00  0.00     0.158 HD
ATOM     20  H11 UNL     1       2.962   2.414  -0.445  1.00  0.00     0.158 HD
ATOM     21  H4  UNL     1       2.425   1.327   0.795  1.00  0.00     0.180 HD
ENDBRANCH  12  13
ENDBRANCH  11  12
ENDBRANCH  10  11
ENDBRANCH   9  10
BRANCH   9  22
HETATM   22  N6  UNL     1       0.002  -2.841   1.140  1.00  0.00    -0.341 N 
ATOM     23  H62 UNL     1       0.576  -3.463   1.709  1.00  0.00     0.177 HD
ATOM     24  H61 UNL     1      -1.012  -2.736   1.182  1.00  0.00     0.177 HD
ENDBRANCH   9  22
ENDBRANCH   1   9
BRANCH   3  25
HETATM   25  N7  UNL     1       0.088   1.271  -3.231  1.00  0.00    -0.385 N 
ATOM     26  H72 UNL     1       1.092   1.283  -3.410  1.00  0.00     0.157 HD
ATOM     27  H71 UNL     1      -0.515   1.882  -3.782  1.00  0.00     0.157 HD
ENDBRANCH   3  25
BRANCH   6  28
HETATM   28  N9  UNL     1      -3.684  -0.318  -0.911  1.00  0.00    -0.117 N 
HETATM   29  N10 UNL     1      -4.200   0.694  -0.344  1.00  0.00    -0.117 N 
HETATM   30  C9  UNL     1      -5.580   0.820  -0.075  1.00  0.00     0.710 C 
ATOM     31  H10 UNL     1      -3.583   1.458  -0.068  1.00  0.00     0.206 HD
HETATM   32  N11 UNL     1      -6.279  -0.243   0.088  1.00  0.00    -0.232 N 
HETATM   33  N12 UNL     1      -6.218   2.076   0.022  1.00  0.00    -0.071 N 
ATOM     34 2H11 UNL     1      -5.818  -1.150   0.018  1.00  0.00     0.174 HD
ATOM     35 1H11 UNL     1      -7.276  -0.152   0.282  1.00  0.00     0.174 HD
ATOM     36  H12 UNL     1      -7.197   2.139  -0.259  1.00  0.00     0.212 HD
ATOM     37  H9  UNL     1      -4.265  -1.104  -1.203  1.00  0.00     0.206 HD
BRANCH  33  38
HETATM   38  N13 UNL     1      -5.593   3.232   0.477  1.00  0.00    -0.024 N 
HETATM   39  O1  UNL     1      -5.069   3.199   1.610  1.00  0.00    -0.516 OA
HETATM   40  O2  UNL     1      -5.525   4.399  -0.253  1.00  0.00    -0.516 OA
ENDBRANCH  33  38
ENDBRANCH   6  28
TORSDOF 9
