REMARK  5 active torsions:
REMARK  status: ('A' for Active; 'I' for Inactive)
REMARK    1  A    between atoms: C2_2  and  N1_3 
REMARK    2  A    between atoms: N1_3  and  C3_5 
REMARK    3  A    between atoms: C4_6  and  N2_7 
REMARK    4  A    between atoms: N3_9  and  N4_11 
REMARK    5  A    between atoms: C6_19  and  N7_20 
ROOT
HETATM    1  C3  UNL     1      -0.224  -0.356  -0.027  1.00  0.00     0.107 A 
HETATM    2  C4  UNL     1       1.020  -0.485   0.543  1.00  0.00     0.165 A 
HETATM    3  N5  UNL     1       1.579  -1.676   0.787  1.00  0.00    -0.283 N 
ATOM      4  H5  UNL     1       2.505  -1.735   1.211  1.00  0.00     0.188 HD
HETATM    5  N6  UNL     1       0.919  -2.772   0.473  1.00  0.00    -0.308 N 
ATOM      6  H6  UNL     1       1.334  -3.686   0.655  1.00  0.00     0.186 HD
HETATM    7  C5  UNL     1      -0.295  -2.690  -0.084  1.00  0.00     0.138 A 
HETATM    8  C6  UNL     1      -0.916  -1.482  -0.357  1.00  0.00     0.073 A 
ENDROOT
BRANCH   2   9
HETATM    9  N2  UNL     1       1.764   0.676   0.897  1.00  0.00    -0.268 N 
HETATM   10  N3  UNL     1       2.812   0.938   0.259  1.00  0.00    -0.248 N 
ATOM     11  H3  UNL     1       3.079   0.298  -0.489  1.00  0.00     0.207 HD
ATOM     12  H2  UNL     1       1.451   1.283   1.655  1.00  0.00     0.190 HD
BRANCH  10  13
HETATM   13  N4  UNL     1       3.634   2.026   0.490  1.00  0.00    -0.331 N 
ATOM     14  H42 UNL     1       3.351   2.655   1.242  1.00  0.00     0.178 HD
ATOM     15  H41 UNL     1       4.486   2.239  -0.029  1.00  0.00     0.178 HD
ENDBRANCH  10  13
ENDBRANCH   2   9
BRANCH   1  16
HETATM   16  N1  UNL     1      -0.758   0.947  -0.259  1.00  0.00    -0.362 N 
ATOM     17  H1  UNL     1      -0.199   1.758   0.006  1.00  0.00     0.165 HD
BRANCH  16  18
HETATM   18  C2  UNL     1      -2.030   1.162  -0.841  1.00  0.00     0.078 C 
HETATM   19  C1  UNL     1      -3.058   1.573  -0.148  1.00  0.00     0.029 C 
ENDBRANCH  16  18
ENDBRANCH   1  16
BRANCH   8  20
HETATM   20  N7  UNL     1      -2.081  -1.408  -0.891  1.00  0.00    -0.396 N 
ATOM     21  H72 UNL     1      -2.538  -0.519  -1.092  1.00  0.00     0.156 HD
ATOM     22  H71 UNL     1      -2.599  -2.251  -1.138  1.00  0.00     0.156 HD
ENDBRANCH   8  20
TORSDOF 5
