REMARK  2 active torsions:
REMARK  status: ('A' for Active; 'I' for Inactive)
REMARK    1  A    between atoms: C4_10  and  C5_11 
REMARK    2  A    between atoms: S1_22  and  N4_23 
ROOT
HETATM    1  N1  UNL     1       5.600   1.032   1.166  1.00  0.00    -0.379 N 
ATOM      2  H11 UNL     1       5.508   1.635   1.983  1.00  0.00     0.158 HD
ATOM      3  H12 UNL     1       6.605   0.891   1.060  1.00  0.00     0.158 HD
HETATM    4  C1  UNL     1       4.683   0.529   0.399  1.00  0.00     0.154 C 
HETATM    5  N2  UNL     1       4.810  -0.304  -0.730  1.00  0.00    -0.302 N 
ATOM      6  H2  UNL     1       5.699  -0.423  -1.216  1.00  0.00     0.171 HD
HETATM    7  C2  UNL     1       3.643  -0.961  -1.148  1.00  0.00     0.265 C 
HETATM    8  O1  UNL     1       3.564  -1.762  -2.159  1.00  0.00    -0.267 OA
HETATM    9  C3  UNL     1       2.460  -0.686  -0.353  1.00  0.00     0.084 C 
HETATM   10  C4  UNL     1       1.313  -1.291  -0.277  1.00  0.00     0.030 C 
HETATM   11  S1  UNL     1       2.932   0.775   0.584  1.00  0.00    -0.024 SA
ENDROOT
BRANCH  10  12
HETATM   12  C5  UNL     1       0.257  -0.802   0.628  1.00  0.00     0.149 C 
HETATM   13  C6  UNL     1      -0.612   0.209  -0.106  1.00  0.00     0.074 C 
HETATM   14  C7  UNL     1      -1.724  -0.680   0.357  1.00  0.00     0.067 C 
HETATM   15  C8  UNL     1      -2.673  -1.110  -0.744  1.00  0.00     0.066 C 
HETATM   16  C11 UNL     1      -2.531  -0.010   1.437  1.00  0.00     0.066 C 
HETATM   17  O2  UNL     1      -0.828  -1.639   0.780  1.00  0.00    -0.371 OA
HETATM   18  C9  UNL     1      -3.921  -0.281  -0.768  1.00  0.00     0.235 C 
HETATM   19  N3  UNL     1      -3.694   1.100  -0.424  1.00  0.00    -0.075 N 
HETATM   20  C10 UNL     1      -3.122   1.277   0.883  1.00  0.00     0.235 C 
ATOM     21  H32 UNL     1      -3.124   1.560  -1.134  1.00  0.00     0.277 HD
ATOM     22  H31 UNL     1      -4.553   1.642  -0.519  1.00  0.00     0.277 HD
ENDBRANCH  10  12
BRANCH  11  23
HETATM   23  N4  UNL     1       2.461   2.013  -0.285  1.00  0.00    -0.373 NA
ATOM     24  H42 UNL     1       2.729   2.842   0.246  1.00  0.00     0.164 HD
ATOM     25  H41 UNL     1       1.456   2.154  -0.179  1.00  0.00     0.164 HD
ENDBRANCH  11  23
TORSDOF 2
