REMARK  4 active torsions:
REMARK  status: ('A' for Active; 'I' for Inactive)
REMARK    1  A    between atoms: C3_4  and  O1_5 
REMARK    2  A    between atoms: O1_5  and  C4_6 
REMARK    3  A    between atoms: C10_14  and  C11_15 
REMARK    4  A    between atoms: N3_16  and  N4_18 
ROOT
HETATM    1  C1  UNL     1       2.453  -1.883  -0.854  1.00  0.00     0.156 C 
HETATM    2  N1  UNL     1       1.516  -0.876  -0.341  1.00  0.00    -0.357 N 
HETATM    3  C2  UNL     1       0.198  -1.009  -0.573  1.00  0.00     0.128 A 
HETATM    4  C3  UNL     1      -0.771  -0.097  -0.122  1.00  0.00     0.091 A 
HETATM    5  C8  UNL     1      -0.274   0.971   0.593  1.00  0.00     0.041 A 
HETATM    6  C9  UNL     1       1.083   1.101   0.828  1.00  0.00     0.034 A 
HETATM    7  C10 UNL     1       2.001   0.160   0.353  1.00  0.00     0.051 A 
ENDROOT
BRANCH   4   8
HETATM    8  O1  UNL     1      -2.041  -0.354  -0.425  1.00  0.00    -0.308 OA
BRANCH   8   9
HETATM    9  C4  UNL     1      -3.256   0.115  -0.275  1.00  0.00     0.092 A 
HETATM   10  C5  UNL     1      -3.751   1.222   0.351  1.00  0.00     0.055 A 
HETATM   11  C6  UNL     1      -5.148   1.262   0.216  1.00  0.00     0.090 A 
HETATM   12  N2  UNL     1      -5.470   0.183  -0.485  1.00  0.00    -0.373 N 
HETATM   13  C7  UNL     1      -4.390  -0.536  -0.805  1.00  0.00     0.124 A 
ATOM     14  H2  UNL     1      -6.424  -0.067  -0.747  1.00  0.00     0.164 HD
ENDBRANCH   8   9
ENDBRANCH   4   8
BRANCH   7  15
HETATM   15  C11 UNL     1       3.409   0.339   0.624  1.00  0.00     0.136 C 
HETATM   16  N3  UNL     1       4.361  -0.422   0.263  1.00  0.00    -0.316 N 
ATOM     17  H3  UNL     1       4.148  -1.260  -0.278  1.00  0.00     0.185 HD
BRANCH  16  18
HETATM   18  N4  UNL     1       5.683  -0.144   0.585  1.00  0.00    -0.345 N 
ATOM     19  H42 UNL     1       5.878   0.698   1.127  1.00  0.00     0.176 HD
ATOM     20  H41 UNL     1       6.447  -0.755   0.295  1.00  0.00     0.176 HD
ENDBRANCH  16  18
ENDBRANCH   7  15
TORSDOF 4
