REMARK  16 active torsions:
REMARK  status: ('A' for Active; 'I' for Inactive)
REMARK    1  A    between atoms: C2_5  and  N3_6 
REMARK    2  A    between atoms: C3_10  and  O1_11 
REMARK    3  A    between atoms: C4_13  and  N4_14 
REMARK    4  A    between atoms: N4_14  and  N5_15 
REMARK    5  A    between atoms: N4_14  and  C5_18 
REMARK    6  A    between atoms: C7_20  and  N6_21 
REMARK    7  A    between atoms: C7_20  and  O2_25 
REMARK    8  A    between atoms: N7_28  and  N8_29 
REMARK    9  A    between atoms: N8_29  and  C8_31 
REMARK   10  A    between atoms: C8_31  and  C9_32 
REMARK   11  A    between atoms: C10_33  and  O4_34 
REMARK   12  A    between atoms: C11_37  and  C12_38 
REMARK   13  A    between atoms: C12_38  and  O6_39 
REMARK   14  A    between atoms: C12_38  and  C13_41 
REMARK   15  A    between atoms: C13_41  and  O7_42 
REMARK   16  A    between atoms: C14_44  and  O8_45 
ROOT
HETATM    1  N1  UNL     1      -1.088   1.514   2.025  1.00  0.00    -0.062 NA
HETATM    2  C1  UNL     1       0.266   1.056   1.732  1.00  0.00     0.208 C 
HETATM    3  N2  UNL     1       1.175   1.513   2.482  1.00  0.00    -0.333 N 
ATOM      4  H2  UNL     1       0.968   2.151   3.250  1.00  0.00     0.164 HD
HETATM    5  C2  UNL     1       2.559   1.070   2.184  1.00  0.00     0.316 C 
HETATM    6  C3  UNL     1       2.432  -0.360   1.816  1.00  0.00     0.213 C 
HETATM    7  C4  UNL     1       1.726  -0.581   0.511  1.00  0.00     0.261 C 
HETATM    8  N7  UNL     1       0.470   0.146   0.594  1.00  0.00    -0.240 N 
ENDROOT
BRANCH   8   9
HETATM    9  N8  UNL     1      -0.615   0.170  -0.219  1.00  0.00    -0.325 N 
ATOM     10  H8  UNL     1      -0.888   1.069  -0.616  1.00  0.00     0.180 HD
BRANCH   9  11
HETATM   11  C8  UNL     1      -1.400  -0.967  -0.558  1.00  0.00     0.186 C 
BRANCH  11  12
HETATM   12  C9  UNL     1      -2.756  -0.382  -0.949  1.00  0.00     0.055 A 
HETATM   13  C10 UNL     1      -3.024   0.762  -1.659  1.00  0.00     0.194 A 
HETATM   14  O5  UNL     1      -4.368   0.947  -1.676  1.00  0.00    -0.286 OA
HETATM   15  C11 UNL     1      -4.913  -0.019  -1.024  1.00  0.00     0.120 A 
HETATM   16  C14 UNL     1      -3.959  -0.894  -0.536  1.00  0.00     0.111 A 
BRANCH  13  17
HETATM   17  O4  UNL     1      -2.169   1.628  -2.293  1.00  0.00    -0.340 OA
ATOM     18  H4  UNL     1      -2.354   2.420  -2.784  1.00  0.00     0.220 HD
ENDBRANCH  13  17
BRANCH  15  19
HETATM   19  C12 UNL     1      -6.371  -0.218  -0.805  1.00  0.00     0.201 C 
BRANCH  19  20
HETATM   20  O6  UNL     1      -6.746  -1.432  -0.416  1.00  0.00    -0.387 OA
ATOM     21  H6  UNL     1      -7.677  -1.559  -0.276  1.00  0.00     0.210 HD
ENDBRANCH  19  20
BRANCH  19  22
HETATM   22  C13 UNL     1      -6.950   0.929  -0.004  1.00  0.00     0.202 C 
BRANCH  22  23
HETATM   23  O7  UNL     1      -8.322   0.928  -0.103  1.00  0.00    -0.398 OA
ATOM     24  H7  UNL     1      -8.685   1.648   0.400  1.00  0.00     0.209 HD
ENDBRANCH  22  23
ENDBRANCH  19  22
ENDBRANCH  15  19
BRANCH  16  25
HETATM   25  O8  UNL     1      -4.178  -2.040   0.228  1.00  0.00    -0.357 OA
ATOM     26  H8  UNL     1      -5.012  -2.395   0.514  1.00  0.00     0.217 HD
ENDBRANCH  16  25
ENDBRANCH  11  12
ENDBRANCH   9  11
ENDBRANCH   8   9
BRANCH   7  27
HETATM   27  N4  UNL     1       2.459  -0.388  -0.630  1.00  0.00    -0.277 N 
BRANCH  27  28
HETATM   28  N5  UNL     1       2.118   0.657  -1.500  1.00  0.00    -0.343 N 
ATOM     29  H52 UNL     1       1.266   1.144  -1.222  1.00  0.00     0.176 HD
ATOM     30  H51 UNL     1       2.664   0.801  -2.350  1.00  0.00     0.176 HD
ENDBRANCH  27  28
BRANCH  27  31
HETATM   31  C5  UNL     1       3.625  -1.055  -1.010  1.00  0.00     0.253 C 
HETATM   32  C6  UNL     1       4.939  -0.832  -0.324  1.00  0.00     0.156 C 
HETATM   33  C7  UNL     1       5.544  -0.658  -1.735  1.00  0.00     0.339 C 
HETATM   34  O3  UNL     1       4.242  -0.586  -2.186  1.00  0.00    -0.306 OA
BRANCH  33  35
HETATM   35  N6  UNL     1       6.368  -1.756  -2.073  1.00  0.00    -0.021 N 
ATOM     36  H63 UNL     1       7.091  -1.914  -1.371  1.00  0.00     0.280 HD
ATOM     37  H62 UNL     1       5.870  -2.641  -1.984  1.00  0.00     0.280 HD
ATOM     38  H61 UNL     1       6.767  -1.641  -3.004  1.00  0.00     0.280 HD
ENDBRANCH  33  35
BRANCH  33  39
HETATM   39  O2  UNL     1       6.264   0.537  -1.831  1.00  0.00    -0.344 OA
ATOM     40  H2  UNL     1       6.636   0.644  -2.699  1.00  0.00     0.215 HD
ENDBRANCH  33  39
ENDBRANCH  27  31
ENDBRANCH   7  27
BRANCH   6  41
HETATM   41  O1  UNL     1       3.451  -1.200   2.152  1.00  0.00    -0.388 OA
ATOM     42  H1  UNL     1       3.370  -2.117   1.916  1.00  0.00     0.210 HD
ENDBRANCH   6  41
BRANCH   5  43
HETATM   43  N3  UNL     1       3.054   2.011   1.243  1.00  0.00    -0.056 N 
ATOM     44  H33 UNL     1       2.467   2.115   0.415  1.00  0.00     0.276 HD
ATOM     45  H32 UNL     1       2.989   2.980   1.555  1.00  0.00     0.276 HD
ATOM     46  H31 UNL     1       4.006   1.706   1.038  1.00  0.00     0.276 HD
ENDBRANCH   5  43
TORSDOF 16
