REMARK  13 active torsions:
REMARK  status: ('A' for Active; 'I' for Inactive)
REMARK    1  A    between atoms: N1_1  and  N2_4 
REMARK    2  A    between atoms: N3_6  and  C1_8 
REMARK    3  A    between atoms: C2_9  and  O1_10 
REMARK    4  A    between atoms: C3_13  and  N4_14 
REMARK    5  A    between atoms: C4_15  and  C5_16 
REMARK       I    between atoms: C5_16  and  N5_18 
REMARK    6  A    between atoms: N5_18  and  C6_20 
REMARK    7  A    between atoms: C6_20  and  C7_21 
REMARK    8  A    between atoms: C6_20  and  C8_24 
REMARK    9  A    between atoms: C8_24  and  N6_25 
REMARK   10  A    between atoms: C8_24  and  O6_29 
REMARK   11  A    between atoms: C10_34  and  N8_35 
REMARK   12  A    between atoms: C13_44  and  N11_45 
REMARK       I    between atoms: N11_45  and  C14_47 
REMARK   13  A    between atoms: C14_47  and  C15_49 
ROOT
HETATM    1  N4  UNL     1      -0.620   0.606   0.348  1.00  0.00    -0.279 N 
HETATM    2  C4  UNL     1       0.743   0.667   0.180  1.00  0.00     0.181 A 
HETATM    3  N7  UNL     1       1.060   2.001   0.067  1.00  0.00    -0.332 N 
ATOM      4  H7  UNL     1       1.999   2.375  -0.069  1.00  0.00     0.168 HD
HETATM    5  C9  UNL     1      -0.037   2.717   0.162  1.00  0.00     0.123 A 
HETATM    6  C10 UNL     1      -0.237   4.084   0.116  1.00  0.00     0.131 A 
HETATM    7  N9  UNL     1      -1.478   4.581   0.246  1.00  0.00    -0.337 N 
ATOM      8  H9  UNL     1      -1.646   5.587   0.215  1.00  0.00     0.168 HD
HETATM    9  C11 UNL     1      -2.495   3.713   0.418  1.00  0.00     0.183 A 
HETATM   10  N10 UNL     1      -2.325   2.387   0.465  1.00  0.00    -0.336 N 
ATOM     11  H10 UNL     1      -3.128   1.772   0.597  1.00  0.00     0.168 HD
HETATM   12  C12 UNL     1      -1.109   1.875   0.339  1.00  0.00     0.143 A 
ENDROOT
BRANCH   1  13
HETATM   13  C3  UNL     1      -1.238  -0.649   0.484  1.00  0.00     0.283 C 
HETATM   14  O2  UNL     1      -0.974  -1.334  -0.747  1.00  0.00    -0.329 OA
HETATM   15  C2  UNL     1      -1.936  -0.870  -1.624  1.00  0.00     0.289 C 
HETATM   16  C1  UNL     1      -3.198  -0.658  -0.790  1.00  0.00     0.205 C 
HETATM   17  C13 UNL     1      -2.661  -0.918   0.570  1.00  0.00     0.068 C 
BRANCH  15  18
HETATM   18  O1  UNL     1      -1.626   0.285  -2.289  1.00  0.00    -0.369 OA
ATOM     19  H1  UNL     1      -0.841   0.153  -2.808  1.00  0.00     0.212 HD
ENDBRANCH  15  18
BRANCH  16  20
HETATM   20  N3  UNL     1      -4.177  -1.707  -1.125  1.00  0.00    -0.307 N 
HETATM   21  N2  UNL     1      -4.291  -2.061  -2.309  1.00  0.00    -0.253 N 
ATOM     22  H2  UNL     1      -3.666  -2.866  -2.341  1.00  0.00     0.207 HD
ATOM     23  H3  UNL     1      -4.750  -2.134  -0.397  1.00  0.00     0.182 HD
BRANCH  21  24
HETATM   24  N1  UNL     1      -4.704  -2.026  -3.469  1.00  0.00    -0.331 N 
ATOM     25  H12 UNL     1      -5.317  -1.215  -3.389  1.00  0.00     0.178 HD
ATOM     26  H11 UNL     1      -4.798  -2.317  -4.442  1.00  0.00     0.178 HD
ENDBRANCH  21  24
ENDBRANCH  16  20
BRANCH  17  27
HETATM   27  N11 UNL     1      -3.432  -0.621   1.692  1.00  0.00    -0.319 N 
HETATM   28  C14 UNL     1      -3.964  -1.642   2.549  1.00  0.00     0.322 C 
HETATM   29  O7  UNL     1      -3.725  -2.852   2.277  1.00  0.00    -0.261 OA
ATOM     30  H11 UNL     1      -3.625   0.356   1.912  1.00  0.00     0.169 HD
BRANCH  28  31
HETATM   31  C15 UNL     1      -4.769  -1.364   3.722  1.00  0.00     0.270 C 
HETATM   32  O8  UNL     1      -5.033  -0.179   4.031  1.00  0.00    -0.640 OA
HETATM   33  O9  UNL     1      -5.258  -2.384   4.516  1.00  0.00    -0.640 OA
ENDBRANCH  28  31
ENDBRANCH  17  27
ENDBRANCH   1  13
BRANCH   2  34
HETATM   34  C5  UNL     1       1.757  -0.366   0.141  1.00  0.00     0.286 C 
HETATM   35  O3  UNL     1       1.517  -1.554   0.340  1.00  0.00    -0.264 OA
HETATM   36  N5  UNL     1       3.126  -0.007  -0.143  1.00  0.00    -0.336 N 
ATOM     37  H5  UNL     1       3.363   0.971  -0.313  1.00  0.00     0.164 HD
BRANCH  36  38
HETATM   38  C6  UNL     1       4.168  -1.009  -0.191  1.00  0.00     0.242 C 
BRANCH  38  39
HETATM   39  C7  UNL     1       5.228  -0.758   0.799  1.00  0.00     0.201 C 
HETATM   40  O4  UNL     1       5.169   0.233   1.567  1.00  0.00    -0.646 OA
HETATM   41  O5  UNL     1       6.323  -1.600   0.922  1.00  0.00    -0.646 OA
ENDBRANCH  38  39
BRANCH  38  42
HETATM   42  C8  UNL     1       4.791  -1.102  -1.569  1.00  0.00     0.349 C 
BRANCH  42  43
HETATM   43  N6  UNL     1       5.769  -2.171  -1.540  1.00  0.00    -0.051 N 
ATOM     44  H63 UNL     1       6.461  -2.055  -0.799  1.00  0.00     0.277 HD
ATOM     45  H62 UNL     1       5.378  -3.057  -1.221  1.00  0.00     0.277 HD
ATOM     46  H61 UNL     1       6.188  -2.234  -2.468  1.00  0.00     0.277 HD
ENDBRANCH  42  43
BRANCH  42  47
HETATM   47  O6  UNL     1       3.840  -1.441  -2.525  1.00  0.00    -0.368 OA
ATOM     48  H6  UNL     1       4.231  -1.499  -3.389  1.00  0.00     0.212 HD
ENDBRANCH  42  47
ENDBRANCH  38  42
ENDBRANCH  36  38
ENDBRANCH   2  34
BRANCH   6  49
HETATM   49  N8  UNL     1       0.767   4.870  -0.050  1.00  0.00    -0.383 N 
ATOM     50  H82 UNL     1       1.709   4.493  -0.149  1.00  0.00     0.157 HD
ATOM     51  H81 UNL     1       0.619   5.879  -0.084  1.00  0.00     0.157 HD
ENDBRANCH   6  49
TORSDOF 13
