REMARK  12 active torsions:
REMARK  status: ('A' for Active; 'I' for Inactive)
REMARK    1  A    between atoms: C2_2  and  C4_4 
REMARK    2  A    between atoms: C4_4  and  N1_5 
REMARK    3  A    between atoms: C4_4  and  C24_34 
REMARK       I    between atoms: N1_5  and  C5_7 
REMARK    4  A    between atoms: C5_7  and  C6_9 
REMARK    5  A    between atoms: C6_9  and  N2_10 
REMARK    6  A    between atoms: C6_9  and  C20_30 
REMARK       I    between atoms: N2_10  and  C7_12 
REMARK    7  A    between atoms: C7_12  and  C8_14 
REMARK    8  A    between atoms: C8_14  and  N3_15 
REMARK    9  A    between atoms: C8_14  and  C14_24 
REMARK       I    between atoms: N3_15  and  C9_17 
REMARK   10  A    between atoms: C9_17  and  O4_19 
REMARK   11  A    between atoms: O4_19  and  C10_20 
REMARK       I    between atoms: C24_34  and  N4_36 
REMARK   12  A    between atoms: N4_36  and  C25_38 
ROOT
HETATM    1  C6  UNL     1       0.226  -2.707   1.114  1.00  0.00     0.184 C 
ENDROOT
BRANCH   1   2
HETATM    2  C5  UNL     1      -0.969  -1.851   1.075  1.00  0.00     0.241 C 
HETATM    3  N1  UNL     1      -2.283  -2.201   0.731  1.00  0.00    -0.346 N 
ATOM      4  H1  UNL     1      -2.500  -3.157   0.449  1.00  0.00     0.163 HD
HETATM    5  O1  UNL     1      -0.779  -0.617   1.399  1.00  0.00    -0.271 OA
BRANCH   3   6
HETATM    6  C4  UNL     1      -3.358  -1.176   0.778  1.00  0.00     0.180 C 
BRANCH   6   7
HETATM    7  C2  UNL     1      -4.579  -1.761   1.381  1.00  0.00     0.009 C 
HETATM    8  C1  UNL     1      -5.136  -2.941   0.609  1.00  0.00     0.012 C 
HETATM    9  C3  UNL     1      -5.576  -0.739   1.768  1.00  0.00     0.012 C 
ENDBRANCH   6   7
BRANCH   6  10
HETATM   10  C24 UNL     1      -3.571  -0.617  -0.567  1.00  0.00     0.241 C 
HETATM   11  O5  UNL     1      -2.892  -1.153  -1.522  1.00  0.00    -0.271 OA
HETATM   12  N4  UNL     1      -4.418   0.430  -0.936  1.00  0.00    -0.353 N 
ATOM     13  H4  UNL     1      -4.975   0.876  -0.207  1.00  0.00     0.163 HD
BRANCH  12  14
HETATM   14  C25 UNL     1      -4.553   0.922  -2.297  1.00  0.00     0.117 C 
HETATM   15  C26 UNL     1      -5.947   0.893  -2.818  1.00  0.00     0.029 C 
HETATM   16  C27 UNL     1      -5.915   1.392  -4.266  1.00  0.00     0.032 C 
HETATM   17  C28 UNL     1      -5.345   2.790  -4.270  1.00  0.00     0.272 C 
HETATM   18  N5  UNL     1      -5.039   3.177  -2.926  1.00  0.00     0.090 N 
HETATM   19  C29 UNL     1      -4.760   4.595  -2.800  1.00  0.00     0.310 C 
HETATM   20  C30 UNL     1      -4.006   2.357  -2.381  1.00  0.00     0.241 C 
HETATM   21  C31 UNL     1      -3.678   2.839  -0.970  1.00  0.00     0.045 C 
ENDBRANCH  12  14
ENDBRANCH   6  10
ENDBRANCH   3   6
ENDBRANCH   1   2
BRANCH   1  22
HETATM   22  N2  UNL     1       1.385  -2.009   0.570  1.00  0.00    -0.345 N 
HETATM   23  C7  UNL     1       2.240  -1.165   1.322  1.00  0.00     0.241 C 
HETATM   24  O2  UNL     1       1.992  -0.994   2.534  1.00  0.00    -0.271 OA
ATOM     25  H2  UNL     1       1.595  -2.137  -0.420  1.00  0.00     0.163 HD
BRANCH  23  26
HETATM   26  C8  UNL     1       3.412  -0.487   0.678  1.00  0.00     0.183 C 
BRANCH  26  27
HETATM   27  N3  UNL     1       3.576   0.853   1.229  1.00  0.00    -0.323 N 
HETATM   28  C9  UNL     1       3.645   1.989   0.362  1.00  0.00     0.362 C 
HETATM   29  O3  UNL     1       3.567   1.856  -0.891  1.00  0.00    -0.238 OA
ATOM     30  H3  UNL     1       3.642   0.981   2.239  1.00  0.00     0.165 HD
BRANCH  28  31
HETATM   31  O4  UNL     1       3.802   3.269   0.860  1.00  0.00    -0.294 OA
BRANCH  31  32
HETATM   32  C10 UNL     1       3.878   4.373  -0.020  1.00  0.00     0.061 C 
HETATM   33  C11 UNL     1       2.655   4.539  -0.889  1.00  0.00     0.046 C 
HETATM   34  C12 UNL     1       3.966   5.621   0.841  1.00  0.00     0.046 C 
HETATM   35  C13 UNL     1       5.116   4.317  -0.884  1.00  0.00     0.046 C 
ENDBRANCH  31  32
ENDBRANCH  28  31
ENDBRANCH  26  27
BRANCH  26  36
HETATM   36  C14 UNL     1       4.634  -1.331   1.057  1.00  0.00     0.018 C 
HETATM   37  C15 UNL     1       5.828  -0.663   0.406  1.00  0.00     0.007 C 
HETATM   38  C16 UNL     1       7.102  -1.448   0.641  1.00  0.00     0.000 C 
HETATM   39  C17 UNL     1       6.946  -2.337   1.839  1.00  0.00     0.000 C 
HETATM   40  C18 UNL     1       6.275  -1.505   2.941  1.00  0.00     0.000 C 
HETATM   41  C19 UNL     1       4.799  -1.445   2.549  1.00  0.00     0.007 C 
ENDBRANCH  26  36
ENDBRANCH  23  26
ENDBRANCH   1  22
BRANCH   1  42
HETATM   42  C20 UNL     1       0.106  -4.084   0.602  1.00  0.00    -0.022 C 
HETATM   43  C21 UNL     1      -0.312  -4.176  -0.839  1.00  0.00     0.017 C 
HETATM   44  C22 UNL     1       1.508  -4.742   0.685  1.00  0.00     0.017 C 
HETATM   45  C23 UNL     1      -0.795  -4.981   1.418  1.00  0.00     0.017 C 
ENDBRANCH   1  42
TORSDOF 12
