REMARK  10 active torsions:
REMARK  status: ('A' for Active; 'I' for Inactive)
REMARK    1  A    between atoms: C2_2  and  O1_3 
REMARK    2  A    between atoms: O1_3  and  C3_4 
REMARK    3  A    between atoms: C3_4  and  C4_6 
REMARK    4  A    between atoms: C6_8  and  C7_9 
REMARK    5  A    between atoms: C7_9  and  N1_10 
REMARK       I    between atoms: N1_10  and  C8_11 
REMARK    6  A    between atoms: C8_11  and  C9_13 
REMARK    7  A    between atoms: C9_13  and  C10_14 
REMARK    8  A    between atoms: C23_28  and  O5_29 
REMARK    9  A    between atoms: O5_29  and  N2_30 
REMARK       I    between atoms: N2_30  and  C24_32 
REMARK   10  A    between atoms: C25_37  and  C26_38 
ROOT
HETATM    1  C4  UNL     1      -0.928  -2.581  -0.138  1.00  0.00     0.014 C 
HETATM    2  C5  UNL     1      -0.267  -1.648   0.495  1.00  0.00     0.000 C 
HETATM    3  C6  UNL     1      -0.533  -0.238   0.593  1.00  0.00     0.097 C 
HETATM    4  C20 UNL     1      -1.851   0.340   0.638  1.00  0.00     0.063 C 
HETATM    5  O4  UNL     1      -2.134   0.797   1.944  1.00  0.00    -0.354 OA
HETATM    6  C21 UNL     1      -2.322   2.150   2.028  1.00  0.00     0.178 C 
HETATM    7  C22 UNL     1      -3.322   2.737   1.106  1.00  0.00     0.066 C 
HETATM    8  C23 UNL     1      -3.957   1.957   0.073  1.00  0.00     0.184 C 
HETATM    9  C25 UNL     1      -4.310   0.513   0.262  1.00  0.00    -0.033 C 
HETATM   10  C30 UNL     1      -3.053  -0.272   0.017  1.00  0.00    -0.022 C 
HETATM   11  C31 UNL     1      -3.197  -1.752   0.011  1.00  0.00     0.046 C 
HETATM   12  C32 UNL     1      -2.159  -2.421  -0.924  1.00  0.00     0.049 C 
ENDROOT
BRANCH   3  13
HETATM   13  C7  UNL     1       0.411   0.443  -0.457  1.00  0.00     0.237 C 
BRANCH  13  14
HETATM   14  N1  UNL     1       1.730   0.194  -0.212  1.00  0.00    -0.414 NA
HETATM   15  C8  UNL     1       3.058  -0.056   0.034  1.00  0.00     0.287 C 
HETATM   16  O3  UNL     1       3.565  -1.199   0.041  1.00  0.00    -0.258 OA
BRANCH  15  17
HETATM   17  C9  UNL     1       4.022   1.058   0.316  1.00  0.00     0.128 C 
BRANCH  17  18
HETATM   18  C10 UNL     1       5.461   0.756   0.160  1.00  0.00    -0.030 C 
HETATM   19  C11 UNL     1       5.710   0.352  -1.269  1.00  0.00     0.014 C 
HETATM   20  C12 UNL     1       7.179   0.227  -1.579  1.00  0.00    -0.013 C 
HETATM   21  C13 UNL     1       7.720  -0.869  -0.680  1.00  0.00     0.009 C 
HETATM   22  C17 UNL     1       7.891   1.511  -1.313  1.00  0.00     0.009 C 
HETATM   23  C14 UNL     1       7.533  -0.421   0.748  1.00  0.00    -0.013 C 
HETATM   24  C15 UNL     1       8.286   0.848   1.012  1.00  0.00     0.009 C 
HETATM   25  C19 UNL     1       6.061  -0.233   1.092  1.00  0.00     0.014 C 
HETATM   26  C16 UNL     1       7.649   1.916   0.134  1.00  0.00    -0.013 C 
HETATM   27  C18 UNL     1       6.201   2.089   0.400  1.00  0.00     0.014 C 
ENDBRANCH  17  18
ENDBRANCH  15  17
ENDBRANCH  13  14
ENDBRANCH   3  13
BRANCH   1  28
HETATM   28  C3  UNL     1      -0.412  -3.916  -0.055  1.00  0.00     0.289 C 
HETATM   29  O2  UNL     1       0.626  -4.186   0.593  1.00  0.00    -0.260 OA
BRANCH  28  30
HETATM   30  O1  UNL     1      -1.044  -4.997  -0.703  1.00  0.00    -0.318 OA
BRANCH  30  31
HETATM   31  C2  UNL     1      -0.466  -6.303  -0.579  1.00  0.00     0.174 C 
HETATM   32  C1  UNL     1      -1.283  -7.284  -1.350  1.00  0.00     0.034 C 
ENDBRANCH  30  31
ENDBRANCH  28  30
ENDBRANCH   1  28
BRANCH   9  33
HETATM   33  C26 UNL     1      -5.344   0.154   1.197  1.00  0.00    -0.025 C 
HETATM   34  C27 UNL     1      -5.214   0.515   2.661  1.00  0.00     0.019 C 
HETATM   35  C28 UNL     1      -5.890  -1.250   1.215  1.00  0.00     0.019 C 
HETATM   36  C29 UNL     1      -6.670   0.918   0.850  1.00  0.00     0.019 C 
ENDBRANCH   9  33
BRANCH   8  37
HETATM   37  O5  UNL     1      -5.074   2.678  -0.389  1.00  0.00    -0.268 OA
BRANCH  37  38
HETATM   38  N2  UNL     1      -5.003   3.067  -1.654  1.00  0.00    -0.238 N 
HETATM   39  C24 UNL     1      -5.586   4.305  -2.045  1.00  0.00     0.205 C 
HETATM   40  N3  UNL     1      -5.326   4.765  -3.224  1.00  0.00    -0.372 N 
HETATM   41  N4  UNL     1      -6.442   5.067  -1.218  1.00  0.00    -0.062 NA
ATOM     42  H32 UNL     1      -4.708   4.215  -3.821  1.00  0.00     0.158 HD
ATOM     43  H31 UNL     1      -5.744   5.652  -3.504  1.00  0.00     0.158 HD
ATOM     44  H2  UNL     1      -4.533   2.482  -2.344  1.00  0.00     0.197 HD
ENDBRANCH  37  38
ENDBRANCH   8  37
TORSDOF 10
