REMARK  9 active torsions:
REMARK  status: ('A' for Active; 'I' for Inactive)
REMARK    1  A    between atoms: C6_8  and  C7_9 
REMARK    2  A    between atoms: C9_11  and  C10_12 
REMARK    3  A    between atoms: C12_19  and  C13_20 
REMARK    4  A    between atoms: C13_20  and  S1_21 
REMARK    5  A    between atoms: S1_21  and  N3_24 
REMARK    6  A    between atoms: N3_24  and  C14_26 
REMARK    7  A    between atoms: C17_29  and  N4_30 
REMARK    8  A    between atoms: N4_30  and  C18_33 
REMARK    9  A    between atoms: C18_33  and  C19_34 
ROOT
HETATM    1  C13 UNL     1      -2.143   1.032   0.263  1.00  0.00     0.179 C 
ENDROOT
BRANCH   1   2
HETATM    2  C12 UNL     1      -3.601   1.258   0.407  1.00  0.00     0.024 C 
HETATM    3  C2  UNL     1      -4.163   2.059   1.453  1.00  0.00    -0.011 C 
HETATM    4  C1  UNL     1      -3.532   2.523   2.723  1.00  0.00     0.064 C 
HETATM    5  N1  UNL     1      -5.432   2.389   1.328  1.00  0.00    -0.396 N 
HETATM    6  C3  UNL     1      -6.211   2.056   0.172  1.00  0.00     0.124 C 
ATOM      7  H1  UNL     1      -5.880   2.904   2.086  1.00  0.00     0.159 HD
HETATM    8  C4  UNL     1      -5.356   1.822  -1.063  1.00  0.00     0.013 C 
HETATM    9  C5  UNL     1      -5.233   0.271  -1.158  1.00  0.00     0.013 C 
HETATM   10  C28 UNL     1      -3.913   2.154  -0.839  1.00  0.00    -0.028 C 
HETATM   11  C6  UNL     1      -4.321   0.005  -0.041  1.00  0.00     0.015 C 
HETATM   12  C29 UNL     1      -3.087   1.837  -2.028  1.00  0.00     0.016 C 
HETATM   13  C30 UNL     1      -3.721   3.605  -0.539  1.00  0.00     0.016 C 
BRANCH  11  14
HETATM   14  C7  UNL     1      -4.519  -1.093   0.908  1.00  0.00     0.085 C 
HETATM   15  C8  UNL     1      -3.893  -2.432   0.488  1.00  0.00     0.050 C 
HETATM   16  C9  UNL     1      -4.889  -3.268  -0.284  1.00  0.00     0.186 C 
HETATM   17  N2  UNL     1      -6.080  -2.420  -0.162  1.00  0.00    -0.346 N 
HETATM   18  C11 UNL     1      -5.963  -1.554   0.926  1.00  0.00     0.223 C 
ATOM     19  H2  UNL     1      -6.885  -2.458  -0.788  1.00  0.00     0.163 HD
HETATM   20  O3  UNL     1      -6.916  -1.249   1.724  1.00  0.00    -0.273 OA
BRANCH  16  21
HETATM   21  C10 UNL     1      -5.223  -4.436   0.629  1.00  0.00     0.196 C 
HETATM   22  O1  UNL     1      -4.888  -4.490   1.824  1.00  0.00    -0.646 OA
HETATM   23  O2  UNL     1      -5.972  -5.502   0.027  1.00  0.00    -0.646 OA
ENDBRANCH  16  21
ENDBRANCH  11  14
ENDBRANCH   1   2
BRANCH   1  24
HETATM   24  S1  UNL     1      -1.119   0.465   1.488  1.00  0.00     0.228 S 
HETATM   25  O4  UNL     1      -0.503   1.614   2.310  1.00  0.00    -0.206 OA
HETATM   26  O5  UNL     1      -1.598  -0.492   2.509  1.00  0.00    -0.206 OA
BRANCH  24  27
HETATM   27  N3  UNL     1       0.300  -0.240   0.806  1.00  0.00    -0.315 N 
ATOM     28  H3  UNL     1       0.579  -1.201   1.001  1.00  0.00     0.172 HD
BRANCH  27  29
HETATM   29  C14 UNL     1       1.060   0.618  -0.054  1.00  0.00     0.093 C 
HETATM   30  C15 UNL     1       2.144   1.400   0.684  1.00  0.00     0.028 C 
HETATM   31  C16 UNL     1       3.406   1.237  -0.115  1.00  0.00     0.036 C 
HETATM   32  C17 UNL     1       3.777  -0.228  -0.066  1.00  0.00     0.193 C 
HETATM   33  C24 UNL     1       2.778  -1.047  -0.790  1.00  0.00    -0.018 C 
HETATM   34  C25 UNL     1       2.473  -2.262   0.066  1.00  0.00     0.017 C 
HETATM   35  C26 UNL     1       3.437  -1.538  -2.066  1.00  0.00     0.017 C 
HETATM   36  C27 UNL     1       1.547  -0.241  -1.172  1.00  0.00     0.036 C 
BRANCH  32  37
HETATM   37  N4  UNL     1       5.152  -0.468  -0.358  1.00  0.00    -0.070 N 
ATOM     38  H42 UNL     1       5.285  -1.268  -0.976  1.00  0.00     0.277 HD
ATOM     39  H41 UNL     1       5.552   0.247  -0.965  1.00  0.00     0.277 HD
BRANCH  37  40
HETATM   40  C18 UNL     1       5.877  -0.605   0.891  1.00  0.00     0.237 C 
BRANCH  40  41
HETATM   41  C19 UNL     1       7.352  -0.480   0.700  1.00  0.00     0.011 C 
HETATM   42  C20 UNL     1       7.893  -1.459  -0.283  1.00  0.00     0.006 C 
HETATM   43  C21 UNL     1       8.231  -0.626  -1.525  1.00  0.00     0.000 C 
HETATM   44  C22 UNL     1       8.596   0.709  -0.940  1.00  0.00     0.000 C 
HETATM   45  C23 UNL     1       7.765   0.914   0.287  1.00  0.00     0.006 C 
ENDBRANCH  40  41
ENDBRANCH  37  40
ENDBRANCH  32  37
ENDBRANCH  27  29
ENDBRANCH  24  27
ENDBRANCH   1  24
TORSDOF 9
