REMARK  4 active torsions:
REMARK  status: ('A' for Active; 'I' for Inactive)
REMARK       I    between atoms: C1_4  and  N3_6 
REMARK       I    between atoms: N4_10  and  C4_11 
REMARK    1  A    between atoms: C4_11  and  C5_13 
REMARK    2  A    between atoms: C11_19  and  C12_20 
REMARK       I    between atoms: C12_20  and  N5_22 
REMARK    3  A    between atoms: N5_22  and  N6_23 
REMARK    4  A    between atoms: N5_22  and  C13_26 
ROOT
HETATM    1  N1  UNL     1      -3.811   2.372  -1.544  1.00  0.00    -0.374 N 
ATOM      2  H11 UNL     1      -3.313   2.081  -2.385  1.00  0.00     0.158 HD
ATOM      3  H12 UNL     1      -4.689   2.890  -1.573  1.00  0.00     0.158 HD
HETATM    4  C1  UNL     1      -3.295   2.049  -0.399  1.00  0.00     0.184 C 
HETATM    5  N2  UNL     1      -3.989   2.455   0.773  1.00  0.00    -0.064 NA
HETATM    6  N3  UNL     1      -2.087   1.336  -0.359  1.00  0.00    -0.336 N 
HETATM    7  C2  UNL     1      -0.897   2.174  -0.588  1.00  0.00     0.185 C 
HETATM    8  C3  UNL     1       0.395   1.410  -0.486  1.00  0.00     0.292 C 
HETATM    9  F1  UNL     1       1.382   2.364  -0.298  1.00  0.00    -0.225 F 
HETATM   10  N4  UNL     1       0.405   0.366   0.489  1.00  0.00    -0.317 N 
HETATM   11  C4  UNL     1       1.613  -0.207   0.922  1.00  0.00     0.226 C 
HETATM   12  O1  UNL     1       1.564  -1.144   1.819  1.00  0.00    -0.273 OA
HETATM   13  C10 UNL     1      -0.872  -0.097   1.014  1.00  0.00     0.164 C 
HETATM   14  C11 UNL     1      -1.831  -0.043  -0.129  1.00  0.00     0.199 C 
ENDROOT
BRANCH  14  15
HETATM   15  C12 UNL     1      -2.991  -0.869  -0.101  1.00  0.00     0.269 C 
HETATM   16  O2  UNL     1      -4.090  -0.305  -0.307  1.00  0.00    -0.269 OA
HETATM   17  N5  UNL     1      -3.058  -2.268   0.132  1.00  0.00    -0.203 N 
BRANCH  17  18
HETATM   18  N6  UNL     1      -1.933  -3.064   0.379  1.00  0.00    -0.334 N 
ATOM     19  H62 UNL     1      -1.045  -2.562   0.380  1.00  0.00     0.177 HD
ATOM     20  H61 UNL     1      -1.981  -4.069   0.546  1.00  0.00     0.177 HD
ENDBRANCH  17  18
BRANCH  17  21
HETATM   21  C13 UNL     1      -4.290  -2.965   0.131  1.00  0.00     0.378 C 
HETATM   22  O3  UNL     1      -5.350  -2.288  -0.089  1.00  0.00    -0.281 OA
ENDBRANCH  17  21
ENDBRANCH  14  15
BRANCH  11  23
HETATM   23  C5  UNL     1       2.954   0.139   0.467  1.00  0.00     0.078 C 
HETATM   24  C6  UNL     1       4.021  -0.688   1.226  1.00  0.00     0.014 C 
HETATM   25  C7  UNL     1       5.240  -0.485   0.387  1.00  0.00     0.001 C 
HETATM   26  C8  UNL     1       4.798  -0.017  -0.964  1.00  0.00     0.001 C 
HETATM   27  C9  UNL     1       3.284  -0.282  -0.941  1.00  0.00     0.014 C 
ENDBRANCH  11  23
TORSDOF 4
