REMARK  4 active torsions:
REMARK  status: ('A' for Active; 'I' for Inactive)
REMARK    1  A    between atoms: C1_2  and  C2_4 
REMARK    2  A    between atoms: C4_6  and  C5_7 
REMARK       I    between atoms: N2_10  and  C6_11 
REMARK       I    between atoms: C6_11  and  N3_13 
REMARK    3  A    between atoms: N3_13  and  C7_15 
REMARK    4  A    between atoms: C11_20  and  C12_21 
ROOT
HETATM    1  C2  UNL     1      -2.813   0.800  -0.309  1.00  0.00     0.109 C 
HETATM    2  C3  UNL     1      -2.061   1.619   0.681  1.00  0.00     0.052 C 
HETATM    3  C4  UNL     1      -0.687   1.056   0.735  1.00  0.00     0.191 C 
HETATM    4  N2  UNL     1      -0.570   0.072  -0.315  1.00  0.00    -0.305 N 
HETATM    5  C6  UNL     1       0.671  -0.560  -0.618  1.00  0.00     0.320 C 
HETATM    6  O4  UNL     1       0.683  -1.437  -1.509  1.00  0.00    -0.247 OA
HETATM    7  N3  UNL     1       1.884  -0.244   0.036  1.00  0.00    -0.338 N 
ATOM      8  H3  UNL     1       1.893   0.471   0.763  1.00  0.00     0.164 HD
HETATM    9  C11 UNL     1      -1.843  -0.127  -0.962  1.00  0.00     0.192 C 
ENDROOT
BRANCH   3  10
HETATM   10  C5  UNL     1      -0.360   0.468   2.061  1.00  0.00     0.197 C 
HETATM   11  O2  UNL     1      -0.273  -0.765   2.208  1.00  0.00    -0.646 OA
HETATM   12  O3  UNL     1      -0.153   1.298   3.140  1.00  0.00    -0.646 OA
ENDBRANCH   3  10
BRANCH   9  13
HETATM   13  C12 UNL     1      -1.772   0.136  -2.422  1.00  0.00     0.255 C 
HETATM   14  N4  UNL     1      -2.888  -0.110  -3.255  1.00  0.00    -0.060 NA
HETATM   15  O5  UNL     1      -0.718   0.579  -2.914  1.00  0.00    -0.275 OA
ENDBRANCH   9  13
BRANCH   7  16
HETATM   16  C7  UNL     1       3.126  -0.930  -0.317  1.00  0.00     0.089 C 
HETATM   17  C8  UNL     1       3.822  -1.421   0.933  1.00  0.00     0.045 C 
HETATM   18  C9  UNL     1       4.459  -0.050   1.004  1.00  0.00     0.086 C 
HETATM   19 CL1  UNL     1       6.118  -0.034   1.605  1.00  0.00    -0.125 Cl
HETATM   20  C10 UNL     1       4.315  -0.013  -0.502  1.00  0.00     0.045 C 
ENDBRANCH   7  16
BRANCH   1  21
HETATM   21  C1  UNL     1      -3.931   0.113   0.380  1.00  0.00     0.237 C 
HETATM   22  N1  UNL     1      -3.707  -0.794   1.437  1.00  0.00    -0.062 NA
HETATM   23  O1  UNL     1      -5.107   0.341   0.018  1.00  0.00    -0.276 OA
ENDBRANCH   1  21
TORSDOF 4
