REMARK  4 active torsions:
REMARK  status: ('A' for Active; 'I' for Inactive)
REMARK    1  A    between atoms: C4_4  and  C5_5 
REMARK    2  A    between atoms: N1_10  and  C10_11 
REMARK    3  A    between atoms: C10_11  and  C11_12 
REMARK    4  A    between atoms: C11_12  and  O1_13 
ROOT
HETATM    1  C1  UNL     1       4.801   1.671   0.839  1.00  0.00     0.027 C 
HETATM    2  C2  UNL     1       3.773   1.089   0.573  1.00  0.00    -0.026 C 
HETATM    3  C3  UNL     1       2.574   0.402   0.238  1.00  0.00    -0.009 C 
HETATM    4  C4  UNL     1       1.561  -0.181  -0.065  1.00  0.00    -0.035 C 
ENDROOT
BRANCH   4   5
HETATM    5  C5  UNL     1       0.343  -0.873  -0.450  1.00  0.00     0.089 A 
HETATM    6  C6  UNL     1       0.412  -2.217  -0.767  1.00  0.00     0.039 A 
HETATM    7  C7  UNL     1      -0.723  -2.886  -1.132  1.00  0.00     0.004 A 
HETATM    8  C8  UNL     1      -1.915  -2.215  -1.178  1.00  0.00     0.017 A 
HETATM    9  C9  UNL     1      -1.919  -0.877  -0.850  1.00  0.00     0.092 A 
HETATM   10  N1  UNL     1      -0.818  -0.194  -0.488  1.00  0.00    -0.348 N 
BRANCH  10  11
HETATM   11  C10 UNL     1      -0.836   1.214  -0.146  1.00  0.00     0.155 C 
BRANCH  11  12
HETATM   12  C11 UNL     1      -1.082   1.422   1.333  1.00  0.00     0.184 C 
BRANCH  12  13
HETATM   13  O1  UNL     1      -1.103   2.752   1.677  1.00  0.00    -0.399 OA
ATOM     14  H1  UNL     1      -1.257   2.883   2.605  1.00  0.00     0.209 HD
ENDBRANCH  12  13
ENDBRANCH  11  12
ENDBRANCH  10  11
ENDBRANCH   4   5
TORSDOF 4
