REMARK  5 active torsions:
REMARK  status: ('A' for Active; 'I' for Inactive)
REMARK    1  A    between atoms: C2_2  and  O1_3 
REMARK    2  A    between atoms: C7_9  and  C8_10 
REMARK    3  A    between atoms: C9_11  and  C10_12 
REMARK    4  A    between atoms: C10_12  and  N1_13 
REMARK    5  A    between atoms: C10_12  and  C11_17 
ROOT
HETATM    1  C8  UNL     1       0.662   0.450   0.334  1.00  0.00    -0.017 C 
HETATM    2  C9  UNL     1       1.503   0.460  -0.690  1.00  0.00     0.013 C 
ENDROOT
BRANCH   1   3
HETATM    3  C7  UNL     1      -0.679   1.061   0.303  1.00  0.00     0.064 C 
HETATM    4  C2  UNL     1      -1.770   0.080   0.664  1.00  0.00     0.065 C 
HETATM    5  C1  UNL     1      -1.362  -0.866   1.747  1.00  0.00     0.047 C 
HETATM    6  C3  UNL     1      -2.165  -0.703  -0.597  1.00  0.00     0.042 C 
HETATM    7  C4  UNL     1      -2.841   0.296  -1.511  1.00  0.00     0.030 C 
HETATM    8  C5  UNL     1      -1.854   1.330  -1.866  1.00  0.00    -0.030 C 
HETATM    9  C6  UNL     1      -0.886   1.661  -1.035  1.00  0.00    -0.019 C 
BRANCH   4  10
HETATM   10  O1  UNL     1      -2.930   0.748   1.058  1.00  0.00    -0.389 OA
ATOM     11  H1  UNL     1      -3.189   1.349   0.370  1.00  0.00     0.210 HD
ENDBRANCH   4  10
ENDBRANCH   1   3
BRANCH   2  12
HETATM   12  C10 UNL     1       2.853  -0.163  -0.636  1.00  0.00     0.306 C 
BRANCH  12  13
HETATM   13  N1  UNL     1       2.702  -1.564  -1.056  1.00  0.00    -0.062 N 
ATOM     14  H13 UNL     1       2.005  -2.072  -0.511  1.00  0.00     0.275 HD
ATOM     15  H12 UNL     1       2.253  -1.662  -1.967  1.00  0.00     0.275 HD
ATOM     16  H11 UNL     1       3.628  -1.991  -1.019  1.00  0.00     0.275 HD
ENDBRANCH  12  13
BRANCH  12  17
HETATM   17  C11 UNL     1       3.443  -0.134   0.705  1.00  0.00     0.208 C 
HETATM   18  O2  UNL     1       3.658   0.975   1.255  1.00  0.00    -0.646 OA
HETATM   19  O3  UNL     1       3.779  -1.280   1.407  1.00  0.00    -0.646 OA
ENDBRANCH  12  17
ENDBRANCH   2  12
TORSDOF 5
