REMARK  6 active torsions:
REMARK  status: ('A' for Active; 'I' for Inactive)
REMARK    1  A    between atoms: C2_2  and  C3_3 
REMARK    2  A    between atoms: C3_3  and  C4_4 
REMARK    3  A    between atoms: C4_4  and  C5_5 
REMARK       I    between atoms: C5_5  and  N1_7 
REMARK    4  A    between atoms: N1_7  and  N2_9 
REMARK       I    between atoms: N2_9  and  C6_10 
REMARK    5  A    between atoms: C6_10  and  C7_12 
REMARK       I    between atoms: C7_12  and  N3_14 
REMARK    6  A    between atoms: N3_14  and  N4_16 
REMARK       I    between atoms: N4_16  and  C8_17 
REMARK       I    between atoms: C8_17  and  N5_19 
ROOT
HETATM    1  N2  UNL     1       0.152  -0.458   1.481  1.00  0.00    -0.274 NA
HETATM    2  C6  UNL     1       1.308   0.165   1.885  1.00  0.00     0.405 C 
HETATM    3  O2  UNL     1       2.192   0.761   2.432  1.00  0.00    -0.244 OA
ENDROOT
BRANCH   2   4
HETATM    4  C7  UNL     1       2.179  -0.103   0.425  1.00  0.00     0.354 C 
HETATM    5  O3  UNL     1       2.069  -1.100  -0.085  1.00  0.00    -0.258 OA
HETATM    6  N3  UNL     1       2.919   1.068   0.145  1.00  0.00    -0.188 N 
ATOM      7  H3  UNL     1       2.725   1.804   0.824  1.00  0.00     0.205 HD
BRANCH   6   8
HETATM    8  N4  UNL     1       3.752   1.445  -0.717  1.00  0.00    -0.249 NA
HETATM    9  C8  UNL     1       4.629   1.862  -1.840  1.00  0.00     0.490 C 
HETATM   10  O4  UNL     1       4.205   1.890  -2.999  1.00  0.00    -0.212 OA
HETATM   11  N5  UNL     1       5.942   2.123  -1.398  1.00  0.00    -0.363 NA
HETATM   12  C9  UNL     1       7.267   2.397  -1.285  1.00  0.00     0.236 C 
ENDBRANCH   6   8
ENDBRANCH   2   4
BRANCH   1  13
HETATM   13  N1  UNL     1      -0.883  -1.005   1.138  1.00  0.00    -0.199 N 
HETATM   14  C5  UNL     1      -2.222  -1.240   1.405  1.00  0.00     0.246 C 
HETATM   15  O1  UNL     1      -2.810  -0.856   2.485  1.00  0.00    -0.271 OA
ATOM     16  H1  UNL     1      -0.669  -1.511   0.278  1.00  0.00     0.205 HD
BRANCH  14  17
HETATM   17  C4  UNL     1      -3.053  -1.924   0.355  1.00  0.00     0.105 C 
BRANCH  17  18
HETATM   18  C3  UNL     1      -4.475  -1.394   0.488  1.00  0.00     0.009 C 
BRANCH  18  19
HETATM   19  C2  UNL     1      -5.277  -1.724  -0.769  1.00  0.00    -0.004 C 
HETATM   20  C1  UNL     1      -6.612  -0.937  -0.612  1.00  0.00     0.005 C 
ENDBRANCH  18  19
ENDBRANCH  17  18
ENDBRANCH  14  17
ENDBRANCH   1  13
TORSDOF 6
