REMARK  4 active torsions:
REMARK  status: ('A' for Active; 'I' for Inactive)
REMARK    1  A    between atoms: C6_8  and  N2_9 
REMARK    2  A    between atoms: N2_9  and  C7_11 
REMARK    3  A    between atoms: N3_15  and  C11_16 
REMARK    4  A    between atoms: N5_24  and  C17_25 
ROOT
HETATM    1  C1  UNL     1       3.003   0.705  -4.109  1.00  0.00     0.018 A 
HETATM    2  C2  UNL     1       4.085   0.331  -3.338  1.00  0.00     0.090 A 
HETATM    3  N1  UNL     1       3.969   0.175  -2.013  1.00  0.00    -0.350 N 
ATOM      4  H1  UNL     1       4.781  -0.101  -1.461  1.00  0.00     0.166 HD
HETATM    5  C3  UNL     1       2.788   0.381  -1.409  1.00  0.00     0.136 A 
HETATM    6  C4  UNL     1       1.690   0.755  -2.150  1.00  0.00     0.055 A 
HETATM    7  C5  UNL     1       1.779   0.924  -3.514  1.00  0.00     0.020 A 
HETATM    8  C6  UNL     1       0.639   0.889  -1.245  1.00  0.00     0.130 A 
HETATM    9  N4  UNL     1       1.148   0.594  -0.033  1.00  0.00    -0.281 N 
ATOM     10  H4  UNL     1       0.610   0.606   0.833  1.00  0.00     0.189 HD
HETATM   11  N5  UNL     1       2.424   0.289  -0.105  1.00  0.00    -0.269 N 
ENDROOT
BRANCH   8  12
HETATM   12  N2  UNL     1      -0.686   1.260  -1.610  1.00  0.00    -0.368 N 
ATOM     13  H2  UNL     1      -0.900   1.439  -2.591  1.00  0.00     0.161 HD
BRANCH  12  14
HETATM   14  C7  UNL     1      -1.736   1.390  -0.625  1.00  0.00     0.111 C 
HETATM   15  C8  UNL     1      -1.423   2.467   0.339  1.00  0.00     0.028 C 
HETATM   16  C9  UNL     1      -2.033   2.275   1.704  1.00  0.00     0.032 C 
HETATM   17  C10 UNL     1      -3.340   1.511   1.459  1.00  0.00     0.273 C 
HETATM   18  N3  UNL     1      -2.923   0.155   1.138  1.00  0.00     0.095 N 
HETATM   19  C16 UNL     1      -2.116   0.074  -0.023  1.00  0.00     0.297 C 
BRANCH  18  20
HETATM   20  C11 UNL     1      -4.123  -0.632   1.043  1.00  0.00     0.223 C 
HETATM   21  C12 UNL     1      -5.059  -0.226  -0.039  1.00  0.00     0.036 C 
HETATM   22  C13 UNL     1      -6.050  -1.392  -0.070  1.00  0.00     0.002 C 
HETATM   23  C14 UNL     1      -5.333  -2.571   0.541  1.00  0.00     0.002 C 
HETATM   24  C15 UNL     1      -3.896  -2.095   0.801  1.00  0.00     0.036 C 
ENDBRANCH  18  20
ENDBRANCH  12  14
ENDBRANCH   8  12
BRANCH  11  25
HETATM   25  C17 UNL     1       3.331  -0.088   0.980  1.00  0.00     0.113 C 
HETATM   26  C18 UNL     1       4.555   0.768   1.043  1.00  0.00     0.055 C 
HETATM   27  C19 UNL     1       5.840  -0.059   1.050  1.00  0.00     0.234 C 
HETATM   28  N6  UNL     1       5.756  -1.151   1.976  1.00  0.00    -0.075 N 
HETATM   29  C20 UNL     1       4.696  -2.076   1.713  1.00  0.00     0.234 C 
ATOM     30  H62 UNL     1       6.649  -1.641   2.028  1.00  0.00     0.277 HD
ATOM     31  H61 UNL     1       5.692  -0.801   2.932  1.00  0.00     0.277 HD
HETATM   32  C21 UNL     1       3.657  -1.546   0.772  1.00  0.00     0.055 C 
ENDBRANCH  11  25
TORSDOF 4
