REMARK  5 active torsions:
REMARK  status: ('A' for Active; 'I' for Inactive)
REMARK    1  A    between atoms: O1_2  and  C2_3 
REMARK    2  A    between atoms: C2_3  and  C3_5 
REMARK    3  A    between atoms: C3_5  and  O3_25 
REMARK    4  A    between atoms: C4_6  and  C5_7 
REMARK    5  A    between atoms: C6_8  and  C7_9 
ROOT
HETATM    1  C5  UNL     1      -0.746  -0.585  -0.445  1.00  0.00     0.064 C 
HETATM    2  C6  UNL     1      -1.664  -0.730   0.721  1.00  0.00     0.080 C 
HETATM    3  C8  UNL     1      -2.977  -0.149   0.321  1.00  0.00     0.010 C 
HETATM    4  N2  UNL     1      -4.121  -0.398   0.827  1.00  0.00    -0.404 N 
ATOM      5  H21 UNL     1      -5.020  -0.000   0.553  1.00  0.00     0.155 HD
ATOM      6  H22 UNL     1      -4.323  -1.040   1.594  1.00  0.00     0.155 HD
HETATM    7  C9  UNL     1      -2.683   0.784  -0.794  1.00  0.00     0.176 C 
HETATM    8  C10 UNL     1      -2.238   2.072  -0.299  1.00  0.00     0.072 C 
HETATM    9  N3  UNL     1      -1.881   3.117   0.083  1.00  0.00    -0.196 NA
HETATM   10  C11 UNL     1      -1.581   0.040  -1.530  1.00  0.00     0.166 C 
HETATM   11  C12 UNL     1      -0.842   0.959  -2.356  1.00  0.00     0.087 C 
HETATM   12  N4  UNL     1      -0.249   1.697  -3.018  1.00  0.00    -0.195 NA
HETATM   13  C13 UNL     1      -2.238  -0.970  -2.362  1.00  0.00     0.087 C 
HETATM   14  N5  UNL     1      -2.764  -1.758  -3.015  1.00  0.00    -0.195 NA
ENDROOT
BRANCH   2  15
HETATM   15  C7  UNL     1      -1.220  -0.042   1.939  1.00  0.00     0.064 C 
HETATM   16  N1  UNL     1      -1.861  -0.238   3.021  1.00  0.00    -0.410 N 
ATOM     17  H12 UNL     1      -2.666  -0.864   3.025  1.00  0.00     0.155 HD
ATOM     18  H11 UNL     1      -1.552   0.240   3.867  1.00  0.00     0.155 HD
ENDBRANCH   2  15
BRANCH   1  19
HETATM   19  C4  UNL     1       0.496   0.128  -0.173  1.00  0.00     0.025 C 
HETATM   20  C3  UNL     1       1.682  -0.431  -0.305  1.00  0.00     0.140 C 
BRANCH  20  21
HETATM   21  C2  UNL     1       2.917   0.284  -0.032  1.00  0.00     0.316 C 
HETATM   22  O2  UNL     1       4.040  -0.230  -0.152  1.00  0.00    -0.257 OA
BRANCH  21  23
HETATM   23  O1  UNL     1       2.820   1.599   0.380  1.00  0.00    -0.321 OA
HETATM   24  C1  UNL     1       3.957   2.397   0.676  1.00  0.00     0.213 C 
ENDBRANCH  21  23
ENDBRANCH  20  21
BRANCH  20  25
HETATM   25  O3  UNL     1       1.781  -1.752  -0.719  1.00  0.00    -0.350 OA
HETATM   26  C14 UNL     1       2.405  -2.769   0.009  1.00  0.00     0.210 C 
ENDBRANCH  20  25
ENDBRANCH   1  19
TORSDOF 5
