REMARK  7 active torsions:
REMARK  status: ('A' for Active; 'I' for Inactive)
REMARK    1  A    between atoms: O1_2  and  C2_3 
REMARK    2  A    between atoms: C2_3  and  C3_4 
REMARK    3  A    between atoms: C3_4  and  O2_5 
REMARK    4  A    between atoms: C3_4  and  C4_7 
REMARK    5  A    between atoms: C4_7  and  N1_8 
REMARK    6  A    between atoms: N1_8  and  C5_11 
REMARK    7  A    between atoms: C5_11  and  C6_12 
ROOT
HETATM    1  C5  UNL     1      -0.122  -0.057  -0.185  1.00  0.00     0.237 C 
ENDROOT
BRANCH   1   2
HETATM    2  N1  UNL     1       1.079  -0.822   0.096  1.00  0.00    -0.072 N 
ATOM      3  H12 UNL     1       1.068  -1.731  -0.367  1.00  0.00     0.277 HD
ATOM      4  H11 UNL     1       1.106  -1.146   1.063  1.00  0.00     0.277 HD
BRANCH   2   5
HETATM    5  C4  UNL     1       2.256  -0.054  -0.249  1.00  0.00     0.265 C 
BRANCH   5   6
HETATM    6  C3  UNL     1       3.499  -0.943  -0.213  1.00  0.00     0.167 C 
BRANCH   6   7
HETATM    7  C2  UNL     1       4.697  -0.074  -0.424  1.00  0.00     0.200 C 
BRANCH   7   8
HETATM    8  O1  UNL     1       4.834   0.875   0.603  1.00  0.00    -0.393 OA
HETATM    9  C1  UNL     1       5.956   1.665   0.380  1.00  0.00     0.201 C 
ENDBRANCH   7   8
ENDBRANCH   6   7
BRANCH   6  10
HETATM   10  O2  UNL     1       3.368  -1.942  -1.187  1.00  0.00    -0.392 OA
ATOM     11  H2  UNL     1       2.607  -2.494  -1.053  1.00  0.00     0.210 HD
ENDBRANCH   6  10
ENDBRANCH   5   6
ENDBRANCH   2   5
ENDBRANCH   1   2
BRANCH   1  12
HETATM   12  C6  UNL     1      -1.309  -0.761   0.362  1.00  0.00     0.020 C 
HETATM   13  C7  UNL     1      -1.377  -2.134  -0.268  1.00  0.00     0.007 C 
HETATM   14  C8  UNL     1      -2.514  -2.106  -1.216  1.00  0.00     0.001 C 
HETATM   15  C9  UNL     1      -3.475  -1.137  -0.616  1.00  0.00     0.010 C 
HETATM   16  C10 UNL     1      -2.633  -0.075   0.114  1.00  0.00    -0.031 C 
HETATM   17  C11 UNL     1      -3.353   0.200   1.399  1.00  0.00     0.036 C 
HETATM   18  C14 UNL     1      -2.586   1.094  -0.802  1.00  0.00     0.036 C 
HETATM   19  C12 UNL     1      -3.521   1.623   1.756  1.00  0.00     0.168 C 
HETATM   20  O3  UNL     1      -3.694   2.485   0.680  1.00  0.00    -0.391 OA
HETATM   21  C13 UNL     1      -2.482   2.400  -0.044  1.00  0.00     0.168 C 
ENDBRANCH   1  12
TORSDOF 7
