REMARK  6 active torsions:
REMARK  status: ('A' for Active; 'I' for Inactive)
REMARK    1  A    between atoms: C2_2  and  C3_3 
REMARK    2  A    between atoms: C3_3  and  N1_4 
REMARK    3  A    between atoms: C5_7  and  C6_8 
REMARK    4  A    between atoms: C6_8  and  N2_9 
REMARK    5  A    between atoms: N2_9  and  C7_12 
REMARK    6  A    between atoms: C12_20  and  C13_21 
ROOT
HETATM    1  N1  UNL     1      -2.336   0.536   0.402  1.00  0.00    -0.347 N 
HETATM    2  C4  UNL     1      -1.430   1.260  -0.367  1.00  0.00     0.229 C 
HETATM    3  O1  UNL     1      -0.155   1.430   0.137  1.00  0.00    -0.339 OA
HETATM    4  C5  UNL     1       0.313   0.419   0.926  1.00  0.00     0.157 C 
HETATM    5  C11 UNL     1      -0.430  -0.868   0.678  1.00  0.00     0.059 C 
HETATM    6  C12 UNL     1      -1.859  -0.549   1.171  1.00  0.00     0.092 C 
ENDROOT
BRANCH   4   7
HETATM    7  C6  UNL     1       1.784   0.273   0.973  1.00  0.00     0.265 C 
BRANCH   7   8
HETATM    8  N2  UNL     1       2.435   0.032  -0.293  1.00  0.00    -0.067 N 
ATOM      9  H22 UNL     1       2.102  -0.806  -0.769  1.00  0.00     0.277 HD
ATOM     10  H21 UNL     1       2.173   0.698  -1.019  1.00  0.00     0.277 HD
BRANCH   8  11
HETATM   11  C7  UNL     1       3.855   0.012  -0.011  1.00  0.00     0.213 C 
HETATM   12  C8  UNL     1       4.628  -1.022  -0.791  1.00  0.00     0.062 C 
HETATM   13  C9  UNL     1       6.051  -0.473  -0.604  1.00  0.00     0.234 C 
HETATM   14  N3  UNL     1       5.919   0.961  -0.603  1.00  0.00    -0.073 N 
HETATM   15  C10 UNL     1       4.534   1.289  -0.435  1.00  0.00     0.265 C 
ATOM     16  H32 UNL     1       6.515   1.409   0.093  1.00  0.00     0.277 HD
ATOM     17  H31 UNL     1       6.326   1.392  -1.433  1.00  0.00     0.277 HD
ENDBRANCH   8  11
ENDBRANCH   7   8
ENDBRANCH   4   7
BRANCH   6  18
HETATM   18  C13 UNL     1      -2.688  -1.764   1.282  1.00  0.00     0.021 C 
HETATM   19  C14 UNL     1      -3.013  -2.485   0.021  1.00  0.00     0.007 C 
ENDBRANCH   6  18
BRANCH   1  20
HETATM   20  C3  UNL     1      -3.661   0.962   0.578  1.00  0.00     0.065 C 
BRANCH  20  21
HETATM   21  C2  UNL     1      -4.655   0.863  -0.510  1.00  0.00     0.040 C 
HETATM   22  C1  UNL     1      -4.428   1.590  -1.789  1.00  0.00     0.010 C 
ENDBRANCH  20  21
ENDBRANCH   1  20
TORSDOF 6
