REMARK  4 active torsions:
REMARK  status: ('A' for Active; 'I' for Inactive)
REMARK    1  A    between atoms: C5_8  and  C6_9 
REMARK    2  A    between atoms: C6_9  and  C7_10 
REMARK    3  A    between atoms: C7_10  and  N3_11 
REMARK    4  A    between atoms: N3_11  and  C8_13 
ROOT
HETATM    1  C7  UNL     1      -0.017   0.961   0.060  1.00  0.00     0.068 C 
ENDROOT
BRANCH   1   2
HETATM    2  C6  UNL     1       0.640  -0.263  -0.502  1.00  0.00     0.120 C 
BRANCH   2   3
HETATM    3  C5  UNL     1       2.014  -0.459   0.062  1.00  0.00     0.079 C 
HETATM    4  N1  UNL     1       2.997   0.502  -0.236  1.00  0.00    -0.375 N 
HETATM    5  C1  UNL     1       2.986   1.221  -1.482  1.00  0.00     0.150 C 
HETATM    6  C2  UNL     1       4.041   0.742   0.764  1.00  0.00     0.125 C 
HETATM    7  C3  UNL     1       4.624  -0.612   1.068  1.00  0.00     0.039 C 
HETATM    8  C4  UNL     1       3.612  -1.664   1.340  1.00  0.00     0.122 C 
HETATM    9  N2  UNL     1       2.313  -1.463   0.798  1.00  0.00    -0.380 N 
ATOM     10  H2  UNL     1       1.587  -2.149   1.005  1.00  0.00     0.160 HD
ENDBRANCH   2   3
ENDBRANCH   1   2
BRANCH   1  11
HETATM   11  N3  UNL     1      -1.281   1.268  -0.428  1.00  0.00    -0.376 N 
ATOM     12  H3  UNL     1      -1.353   2.105  -1.007  1.00  0.00     0.164 HD
BRANCH  11  13
HETATM   13  C8  UNL     1      -2.441   0.572  -0.218  1.00  0.00    -0.011 C 
HETATM   14  C9  UNL     1      -2.829   0.502   1.250  1.00  0.00     0.080 C 
HETATM   15  C10 UNL     1      -4.278   0.025   1.359  1.00  0.00     0.238 C 
HETATM   16  N4  UNL     1      -4.330  -1.296   0.769  1.00  0.00    -0.074 N 
HETATM   17  C11 UNL     1      -4.172  -1.110  -0.675  1.00  0.00     0.238 C 
ATOM     18  H42 UNL     1      -3.653  -1.945   1.170  1.00  0.00     0.277 HD
ATOM     19  H41 UNL     1      -5.169  -1.818   1.020  1.00  0.00     0.277 HD
HETATM   20  C12 UNL     1      -2.712  -0.718  -0.930  1.00  0.00     0.080 C 
ENDBRANCH  11  13
ENDBRANCH   1  11
TORSDOF 4
