REMARK  4 active torsions:
REMARK  status: ('A' for Active; 'I' for Inactive)
REMARK    1  A    between atoms: C2_2  and  C3_3 
REMARK    2  A    between atoms: C3_3  and  N1_4 
REMARK       I    between atoms: N1_4  and  C4_6 
REMARK       I    between atoms: C4_6  and  N2_8 
REMARK    3  A    between atoms: N7_25  and  C14_26 
REMARK    4  A    between atoms: C14_26  and  C15_27 
ROOT
HETATM    1  N1  UNL     1       3.355   0.419  -0.548  1.00  0.00    -0.343 N 
ATOM      2  H1  UNL     1       2.911   1.063  -1.203  1.00  0.00     0.164 HD
HETATM    3  C4  UNL     1       2.531  -0.456   0.203  1.00  0.00     0.323 C 
HETATM    4  O1  UNL     1       3.134  -1.250   1.008  1.00  0.00    -0.247 OA
HETATM    5  N2  UNL     1       1.128  -0.493   0.110  1.00  0.00    -0.300 N 
HETATM    6  C5  UNL     1       0.298  -1.402   0.872  1.00  0.00     0.148 C 
HETATM    7  C6  UNL     1      -0.873  -1.703  -0.080  1.00  0.00     0.088 C 
HETATM    8  C7  UNL     1      -1.439  -2.963   0.335  1.00  0.00    -0.006 C 
HETATM    9  C8  UNL     1      -0.511  -4.129   0.078  1.00  0.00     0.064 C 
HETATM   10  N3  UNL     1      -2.540  -3.379   0.876  1.00  0.00    -0.346 N 
ATOM     11  H3  UNL     1      -2.640  -4.379   1.050  1.00  0.00     0.167 HD
HETATM   12  C9  UNL     1      -3.613  -2.531   1.240  1.00  0.00     0.162 A 
HETATM   13  C10 UNL     1      -4.791  -3.064   1.757  1.00  0.00     0.127 A 
HETATM   14 BR1  UNL     1      -5.211  -4.903   2.068  1.00  0.00    -0.027 Br
HETATM   15  N4  UNL     1      -5.581  -2.001   1.993  1.00  0.00    -0.342 N 
ATOM     16  H4  UNL     1      -6.525  -2.047   2.377  1.00  0.00     0.167 HD
HETATM   17  C11 UNL     1      -4.942  -0.865   1.647  1.00  0.00     0.209 A 
HETATM   18  N5  UNL     1      -3.714  -1.194   1.178  1.00  0.00    -0.234 N 
HETATM   19  N6  UNL     1      -2.749  -0.298   0.719  1.00  0.00    -0.303 N 
HETATM   20  C12 UNL     1      -2.834   1.029   1.352  1.00  0.00     0.173 C 
HETATM   21  C13 UNL     1      -1.735  -0.542  -0.264  1.00  0.00     0.192 C 
HETATM   22  N7  UNL     1      -0.931   0.658  -0.468  1.00  0.00    -0.255 NA
HETATM   23  C18 UNL     1       0.444   0.411  -0.782  1.00  0.00     0.160 C 
ENDROOT
BRANCH   1  24
HETATM   24  C3  UNL     1       4.786   0.441  -0.430  1.00  0.00     0.124 C 
BRANCH  24  25
HETATM   25  C2  UNL     1       5.304   0.787   0.929  1.00  0.00     0.015 C 
HETATM   26  C1  UNL     1       6.831   0.762   0.858  1.00  0.00     0.006 C 
ENDBRANCH  24  25
ENDBRANCH   1  24
BRANCH  22  27
HETATM   27  C14 UNL     1      -1.513   1.516  -1.450  1.00  0.00     0.103 C 
BRANCH  27  28
HETATM   28  C15 UNL     1      -0.810   2.798  -1.727  1.00  0.00    -0.001 A 
HETATM   29  C16 UNL     1      -1.515   3.641  -2.787  1.00  0.00     0.006 A 
HETATM   30  C17 UNL     1      -1.545   4.109  -1.383  1.00  0.00     0.006 A 
ENDBRANCH  27  28
ENDBRANCH  22  27
TORSDOF 4
