REMARK  6 active torsions:
REMARK  status: ('A' for Active; 'I' for Inactive)
REMARK    1  A    between atoms: O1_2  and  N1_3 
REMARK    2  A    between atoms: N1_3  and  C2_5 
REMARK    3  A    between atoms: C6_10  and  O3_11 
REMARK    4  A    between atoms: C8_14  and  N2_15 
REMARK       I    between atoms: N2_15  and  C9_17 
REMARK    5  A    between atoms: N4_19  and  O5_21 
REMARK    6  A    between atoms: C10_23  and  N5_24 
ROOT
HETATM    1  C2  UNL     1       2.285   0.089   0.530  1.00  0.00     0.116 C 
HETATM    2  C3  UNL     1       2.183   0.219  -0.985  1.00  0.00     0.054 C 
HETATM    3  C4  UNL     1       1.750  -1.152  -1.476  1.00  0.00     0.170 C 
HETATM    4  O2  UNL     1       1.647  -2.101  -0.501  1.00  0.00    -0.380 OA
HETATM    5  C5  UNL     1       0.848  -1.832   0.571  1.00  0.00     0.184 C 
HETATM    6  C6  UNL     1      -0.579  -2.241   0.452  1.00  0.00     0.291 C 
HETATM    7  O4  UNL     1      -1.245  -1.652   1.554  1.00  0.00    -0.332 OA
HETATM    8  C8  UNL     1      -1.472  -0.328   1.188  1.00  0.00     0.257 C 
HETATM    9  C10 UNL     1      -0.241   0.327   0.569  1.00  0.00     0.240 C 
HETATM   10  C11 UNL     1       0.977  -0.374   1.054  1.00  0.00     0.079 C 
ENDROOT
BRANCH   8  11
HETATM   11  N2  UNL     1      -2.633  -0.259   0.344  1.00  0.00    -0.335 N 
HETATM   12  C9  UNL     1      -3.226   0.944  -0.093  1.00  0.00     0.210 C 
HETATM   13  N3  UNL     1      -3.267   1.348  -1.470  1.00  0.00    -0.062 NA
HETATM   14  N4  UNL     1      -3.773   1.753   0.751  1.00  0.00    -0.241 N 
ATOM     15  H4  UNL     1      -3.762   1.493   1.737  1.00  0.00     0.197 HD
ATOM     16  H2  UNL     1      -3.056  -1.137   0.041  1.00  0.00     0.164 HD
BRANCH  14  17
HETATM   17  O5  UNL     1      -4.362   2.926   0.410  1.00  0.00    -0.287 OA
ATOM     18  H5  UNL     1      -4.765   3.521   1.031  1.00  0.00     0.244 HD
ENDBRANCH  14  17
ENDBRANCH   8  11
BRANCH   9  19
HETATM   19  N5  UNL     1      -0.336   1.725   0.908  1.00  0.00    -0.070 N 
ATOM     20  H53 UNL     1      -1.216   2.156   0.625  1.00  0.00     0.274 HD
ATOM     21  H52 UNL     1      -0.433   1.898   1.908  1.00  0.00     0.274 HD
ATOM     22  H51 UNL     1       0.487   2.163   0.494  1.00  0.00     0.274 HD
ENDBRANCH   9  19
BRANCH   6  23
HETATM   23  O3  UNL     1      -0.709  -3.616   0.629  1.00  0.00    -0.363 OA
HETATM   24  C7  UNL     1      -1.392  -4.205  -0.435  1.00  0.00     0.204 C 
ENDBRANCH   6  23
BRANCH   1  25
HETATM   25  N1  UNL     1       2.944   1.152   1.181  1.00  0.00    -0.298 N 
ATOM     26  H1  UNL     1       3.736   0.983   1.802  1.00  0.00     0.188 HD
BRANCH  25  27
HETATM   27  O1  UNL     1       2.496   2.379   0.956  1.00  0.00    -0.290 OA
HETATM   28  C1  UNL     1       3.371   3.184   0.232  1.00  0.00     0.237 C 
ENDBRANCH  25  27
ENDBRANCH   1  25
TORSDOF 6
