REMARK  7 active torsions:
REMARK  status: ('A' for Active; 'I' for Inactive)
REMARK    1  A    between atoms: C2_2  and  C3_4 
REMARK    2  A    between atoms: C3_4  and  N1_5 
REMARK    3  A    between atoms: C4_10  and  C5_11 
REMARK    4  A    between atoms: C5_11  and  C6_13 
REMARK    5  A    between atoms: C8_15  and  N4_16 
REMARK    6  A    between atoms: C10_22  and  N6_23 
REMARK    7  A    between atoms: N6_23  and  N7_25 
ROOT
HETATM    1  C6  UNL     1      -1.208   1.171  -0.242  1.00  0.00     0.052 A 
HETATM    2  C7  UNL     1      -1.996   2.071   0.456  1.00  0.00     0.066 A 
HETATM    3  C8  UNL     1      -3.282   1.736   0.831  1.00  0.00     0.100 A 
HETATM    4  N5  UNL     1      -3.830   0.541   0.543  1.00  0.00    -0.338 N 
ATOM      5  H5  UNL     1      -4.783   0.317   0.829  1.00  0.00     0.167 HD
HETATM    6  C9  UNL     1      -3.086  -0.346  -0.131  1.00  0.00     0.110 A 
HETATM    7  C10 UNL     1      -3.380  -1.623  -0.559  1.00  0.00     0.164 A 
HETATM    8  N8  UNL     1      -2.268  -2.054  -1.190  1.00  0.00    -0.282 N 
ATOM      9  H8  UNL     1      -2.174  -2.974  -1.621  1.00  0.00     0.188 HD
HETATM   10  N9  UNL     1      -1.322  -1.143  -1.181  1.00  0.00    -0.296 N 
ATOM     11  H9  UNL     1      -0.396  -1.244  -1.596  1.00  0.00     0.187 HD
HETATM   12  C11 UNL     1      -1.778  -0.053  -0.532  1.00  0.00     0.093 A 
ENDROOT
BRANCH   1  13
HETATM   13  C5  UNL     1       0.149   1.439  -0.670  1.00  0.00     0.231 C 
HETATM   14  O2  UNL     1       0.362   2.427  -1.443  1.00  0.00    -0.283 OA
BRANCH  13  15
HETATM   15  C4  UNL     1       1.306   0.641  -0.272  1.00  0.00     0.189 A 
HETATM   16  N3  UNL     1       1.449  -0.044   0.900  1.00  0.00    -0.265 N 
HETATM   17  N2  UNL     1       2.645  -0.633   0.866  1.00  0.00    -0.224 N 
ATOM     18  H3  UNL     1       0.769  -0.096   1.659  1.00  0.00     0.190 HD
HETATM   19  N1  UNL     1       3.267  -0.360  -0.258  1.00  0.00    -0.211 N 
ATOM     20  H2  UNL     1       3.025  -1.216   1.612  1.00  0.00     0.210 HD
HETATM   21  N10 UNL     1       2.443   0.416  -0.945  1.00  0.00    -0.263 N 
ATOM     22  H10 UNL     1       2.648   0.795  -1.870  1.00  0.00     0.190 HD
BRANCH  19  23
HETATM   23  C3  UNL     1       4.601  -0.808  -0.679  1.00  0.00     0.248 C 
BRANCH  23  24
HETATM   24  C2  UNL     1       5.610   0.196  -0.257  1.00  0.00     0.144 C 
HETATM   25  C1  UNL     1       6.401   0.150   0.987  1.00  0.00     0.093 C 
HETATM   26  O1  UNL     1       5.780   1.145  -1.037  1.00  0.00    -0.296 OA
ENDBRANCH  23  24
ENDBRANCH  19  23
ENDBRANCH  13  15
ENDBRANCH   1  13
BRANCH   3  27
HETATM   27  N4  UNL     1      -4.011   2.585   1.487  1.00  0.00    -0.385 N 
ATOM     28  H42 UNL     1      -3.596   3.491   1.705  1.00  0.00     0.157 HD
ATOM     29  H41 UNL     1      -4.961   2.338   1.764  1.00  0.00     0.157 HD
ENDBRANCH   3  27
BRANCH   7  30
HETATM   30  N6  UNL     1      -4.561  -2.364  -0.404  1.00  0.00    -0.289 N 
ATOM     31  H6  UNL     1      -4.566  -3.301  -0.807  1.00  0.00     0.188 HD
BRANCH  30  32
HETATM   32  N7  UNL     1      -5.712  -1.964   0.233  1.00  0.00    -0.344 N 
ATOM     33  H72 UNL     1      -5.688  -1.025   0.630  1.00  0.00     0.176 HD
ATOM     34  H71 UNL     1      -6.571  -2.503   0.346  1.00  0.00     0.176 HD
ENDBRANCH  30  32
ENDBRANCH   7  30
TORSDOF 7
