REMARK  12 active torsions:
REMARK  status: ('A' for Active; 'I' for Inactive)
REMARK    1  A    between atoms: C2_4  and  N2_5 
REMARK    2  A    between atoms: N2_5  and  S2_7 
REMARK    3  A    between atoms: S2_7  and  C3_9 
REMARK    4  A    between atoms: C3_9  and  C4_10 
REMARK    5  A    between atoms: N3_12  and  C6_13 
REMARK    6  A    between atoms: C6_13  and  C7_14 
REMARK    7  A    between atoms: C7_14  and  N4_15 
REMARK    8  A    between atoms: N4_15  and  C8_17 
REMARK    9  A    between atoms: C11_24  and  N7_25 
REMARK   10  A    between atoms: C12_30  and  N9_31 
REMARK   11  A    between atoms: C14_35  and  N10_36 
REMARK   12  A    between atoms: N10_36  and  O2_38 
ROOT
HETATM    1  C4  UNL     1      -0.214  -2.896   0.023  1.00  0.00     0.015 A 
HETATM    2  C5  UNL     1      -0.699  -1.909  -0.817  1.00  0.00     0.121 A 
HETATM    3  N3  UNL     1      -1.893  -2.011  -1.411  1.00  0.00    -0.192 N 
HETATM    4  C11 UNL     1      -2.639  -3.107  -1.181  1.00  0.00     0.679 A 
HETATM    5  N8  UNL     1      -2.211  -4.070  -0.386  1.00  0.00    -0.177 N 
ATOM      6  H8  UNL     1      -2.799  -4.889  -0.231  1.00  0.00     0.186 HD
HETATM    7  C12 UNL     1      -1.017  -3.993   0.222  1.00  0.00     0.123 A 
ENDROOT
BRANCH   1   8
HETATM    8  C3  UNL     1       1.080  -2.820   0.687  1.00  0.00     0.176 C 
BRANCH   8   9
HETATM    9  S2  UNL     1       1.986  -1.351   0.328  1.00  0.00     0.119 S 
HETATM   10  O1  UNL     1       1.319  -0.108   0.761  1.00  0.00    -0.235 OA
BRANCH   9  11
HETATM   11  N2  UNL     1       3.352  -1.443   1.134  1.00  0.00    -0.298 N 
ATOM     12  H2  UNL     1       3.647  -2.292   1.616  1.00  0.00     0.177 HD
BRANCH  11  13
HETATM   13  C2  UNL     1       4.136  -0.251   1.135  1.00  0.00     0.102 A 
HETATM   14  S1  UNL     1       4.717   0.611   2.479  1.00  0.00     0.008 SA
HETATM   15  N1  UNL     1       5.527   1.856   1.681  1.00  0.00    -0.305 N 
HETATM   16  C1  UNL     1       6.279   2.989   2.266  1.00  0.00     0.167 C 
HETATM   17  C14 UNL     1       5.335   1.585   0.392  1.00  0.00     0.135 A 
HETATM   18  C13 UNL     1       4.608   0.483   0.086  1.00  0.00     0.090 A 
BRANCH  17  19
HETATM   19  N10 UNL     1       5.828   2.350  -0.575  1.00  0.00    -0.252 N 
ATOM     20  H10 UNL     1       5.656   2.103  -1.549  1.00  0.00     0.196 HD
BRANCH  19  21
HETATM   21  O2  UNL     1       6.560   3.459  -0.283  1.00  0.00    -0.288 OA
ATOM     22  H2  UNL     1       6.913   4.006  -0.975  1.00  0.00     0.244 HD
ENDBRANCH  19  21
ENDBRANCH  17  19
ENDBRANCH  11  13
ENDBRANCH   9  11
ENDBRANCH   8   9
ENDBRANCH   1   8
BRANCH   7  23
HETATM   23  N9  UNL     1      -0.686  -4.985   0.982  1.00  0.00    -0.385 N 
ATOM     24  H92 UNL     1       0.221  -4.926   1.444  1.00  0.00     0.157 HD
ATOM     25  H91 UNL     1      -1.282  -5.799   1.130  1.00  0.00     0.157 HD
ENDBRANCH   7  23
BRANCH   3  26
HETATM   26  C6  UNL     1      -2.402  -0.994  -2.292  1.00  0.00     0.166 C 
BRANCH  26  27
HETATM   27  C7  UNL     1      -3.236   0.053  -1.643  1.00  0.00     0.143 C 
BRANCH  27  28
HETATM   28  N4  UNL     1      -2.609   0.823  -0.623  1.00  0.00    -0.361 N 
ATOM     29  H4  UNL     1      -1.637   0.657  -0.362  1.00  0.00     0.162 HD
BRANCH  28  30
HETATM   30  C8  UNL     1      -3.389   1.845   0.031  1.00  0.00     0.171 C 
HETATM   31  N5  UNL     1      -3.094   3.095  -0.051  1.00  0.00    -0.361 N 
HETATM   32  C9  UNL     1      -4.011   3.909   0.678  1.00  0.00     0.142 C 
ATOM     33  H5  UNL     1      -2.299   3.460  -0.575  1.00  0.00     0.162 HD
HETATM   34  C10 UNL     1      -5.152   2.951   1.020  1.00  0.00     0.142 C 
HETATM   35  N6  UNL     1      -4.546   1.668   0.831  1.00  0.00    -0.361 N 
ATOM     36  H6  UNL     1      -4.887   0.783   1.206  1.00  0.00     0.162 HD
ENDBRANCH  28  30
ENDBRANCH  27  28
ENDBRANCH  26  27
ENDBRANCH   3  26
BRANCH   4  37
HETATM   37  N7  UNL     1      -3.813  -3.215  -1.761  1.00  0.00    -0.234 N 
ATOM     38  H72 UNL     1      -4.144  -2.471  -2.375  1.00  0.00     0.174 HD
ATOM     39  H71 UNL     1      -4.378  -4.046  -1.587  1.00  0.00     0.174 HD
ENDBRANCH   4  37
TORSDOF 12
