REMARK  10 active torsions:
REMARK  status: ('A' for Active; 'I' for Inactive)
REMARK    1  A    between atoms: C2_7  and  C3_8 
REMARK    2  A    between atoms: C5_16  and  N6_17 
REMARK    3  A    between atoms: C11_27  and  C12_28 
REMARK    4  A    between atoms: C12_28  and  N9_29 
REMARK    5  A    between atoms: N9_29  and  C13_31 
REMARK    6  A    between atoms: C14_33  and  C15_34 
REMARK    7  A    between atoms: C15_34  and  O4_35 
REMARK    8  A    between atoms: C16_37  and  O5_38 
REMARK    9  A    between atoms: C17_40  and  O6_41 
REMARK   10  A    between atoms: C18_43  and  O7_44 
ROOT
HETATM    1  C3  UNL     1      -1.187   3.505  -0.958  1.00  0.00     0.106 A 
HETATM    2  N3  UNL     1      -2.554   3.375  -1.038  1.00  0.00    -0.284 N 
ATOM      3  H3  UNL     1      -3.185   4.127  -1.316  1.00  0.00     0.188 HD
HETATM    4  N4  UNL     1      -2.943   2.182  -0.717  1.00  0.00    -0.187 N 
HETATM    5  C4  UNL     1      -4.147   1.542  -0.635  1.00  0.00     0.361 A 
HETATM    6  O2  UNL     1      -5.161   2.224  -0.924  1.00  0.00    -0.244 OA
HETATM    7  N5  UNL     1      -4.194   0.251  -0.258  1.00  0.00    -0.139 N 
ATOM      8  H5  UNL     1      -5.102  -0.210  -0.201  1.00  0.00     0.189 HD
HETATM    9  C5  UNL     1      -3.093  -0.455   0.046  1.00  0.00     0.686 A 
HETATM   10  N8  UNL     1      -1.911   0.176  -0.036  1.00  0.00    -0.174 N 
ATOM     11  H8  UNL     1      -1.054  -0.330   0.188  1.00  0.00     0.186 HD
HETATM   12  C10 UNL     1      -1.840   1.471  -0.411  1.00  0.00     0.158 A 
HETATM   13  C11 UNL     1      -0.719   2.279  -0.554  1.00  0.00     0.038 A 
ENDROOT
BRANCH  13  14
HETATM   14  C12 UNL     1       0.718   1.918  -0.331  1.00  0.00     0.161 C 
BRANCH  14  15
HETATM   15  N9  UNL     1       0.875   0.572   0.102  1.00  0.00    -0.391 N 
ATOM     16  H9  UNL     1       0.076  -0.052   0.218  1.00  0.00     0.156 HD
BRANCH  15  17
HETATM   17  C13 UNL     1       2.227   0.136   0.369  1.00  0.00     0.249 C 
HETATM   18  O3  UNL     1       2.076  -1.206   0.810  1.00  0.00    -0.354 OA
HETATM   19  C14 UNL     1       3.223  -1.695   1.386  1.00  0.00     0.179 C 
HETATM   20  C16 UNL     1       4.367  -1.754   0.392  1.00  0.00     0.180 C 
HETATM   21  C17 UNL     1       4.471  -0.504  -0.399  1.00  0.00     0.182 C 
HETATM   22  C18 UNL     1       3.151   0.133  -0.791  1.00  0.00     0.197 C 
BRANCH  19  23
HETATM   23  C15 UNL     1       2.967  -3.097   1.861  1.00  0.00     0.198 C 
BRANCH  23  24
HETATM   24  O4  UNL     1       4.169  -3.551   2.443  1.00  0.00    -0.398 OA
ATOM     25  H4  UNL     1       4.007  -4.438   2.743  1.00  0.00     0.209 HD
ENDBRANCH  23  24
ENDBRANCH  19  23
BRANCH  20  26
HETATM   26  O5  UNL     1       5.548  -1.901   1.156  1.00  0.00    -0.390 OA
ATOM     27  H5  UNL     1       6.265  -1.938   0.533  1.00  0.00     0.210 HD
ENDBRANCH  20  26
BRANCH  21  28
HETATM   28  O6  UNL     1       5.265   0.447   0.240  1.00  0.00    -0.390 OA
ATOM     29  H6  UNL     1       5.332   1.248  -0.267  1.00  0.00     0.210 HD
ENDBRANCH  21  28
BRANCH  22  30
HETATM   30  O7  UNL     1       3.509   1.412  -1.251  1.00  0.00    -0.389 OA
ATOM     31  H7  UNL     1       4.101   1.410  -1.994  1.00  0.00     0.210 HD
ENDBRANCH  22  30
ENDBRANCH  15  17
ENDBRANCH  14  15
ENDBRANCH  13  14
BRANCH   1  32
HETATM   32  C2  UNL     1      -0.458   4.727  -1.257  1.00  0.00     0.153 A 
HETATM   33  N2  UNL     1      -1.054   5.887  -1.649  1.00  0.00    -0.280 N 
HETATM   34  N1  UNL     1      -0.116   6.786  -1.833  1.00  0.00    -0.250 N 
ATOM     35  H2  UNL     1      -2.055   6.032  -1.777  1.00  0.00     0.189 HD
HETATM   36  C1  UNL     1       1.092   6.258  -1.574  1.00  0.00     0.340 A 
ATOM     37  H1  UNL     1      -0.280   7.748  -2.130  1.00  0.00     0.192 HD
HETATM   38  O1  UNL     1       2.234   6.771  -1.627  1.00  0.00    -0.245 OA
HETATM   39  N10 UNL     1       0.853   4.970  -1.216  1.00  0.00    -0.290 N 
ATOM     40  H10 UNL     1       1.568   4.291  -0.955  1.00  0.00     0.172 HD
ENDBRANCH   1  32
BRANCH   9  41
HETATM   41  N6  UNL     1      -3.214  -1.817   0.437  1.00  0.00    -0.214 N 
HETATM   42  C6  UNL     1      -3.196  -2.901  -0.502  1.00  0.00     0.160 C 
HETATM   43  C7  UNL     1      -4.251  -3.911  -0.110  1.00  0.00     0.134 C 
HETATM   44  N7  UNL     1      -5.205  -3.434   0.829  1.00  0.00    -0.418 N 
HETATM   45  C8  UNL     1      -4.682  -2.837   2.007  1.00  0.00     0.134 C 
ATOM     46  H7  UNL     1      -6.209  -3.516   0.666  1.00  0.00     0.153 HD
HETATM   47  C9  UNL     1      -3.363  -2.162   1.852  1.00  0.00     0.160 C 
ENDBRANCH   9  41
TORSDOF 10
