REMARK  12 active torsions:
REMARK  status: ('A' for Active; 'I' for Inactive)
REMARK    1  A    between atoms: C3_3  and  C4_4 
REMARK    2  A    between atoms: N2_7  and  C5_8 
REMARK    3  A    between atoms: C5_8  and  O2_9 
REMARK    4  A    between atoms: O2_9  and  C6_10 
REMARK    5  A    between atoms: N3_15  and  N4_16 
REMARK    6  A    between atoms: N4_16  and  C9_18 
REMARK    7  A    between atoms: C9_18  and  C10_19 
REMARK    8  A    between atoms: C11_21  and  O5_22 
REMARK    9  A    between atoms: C11_21  and  O6_24 
REMARK   10  A    between atoms: C12_26  and  O7_27 
REMARK   11  A    between atoms: C15_37  and  N7_38 
REMARK   12  A    between atoms: C15_37  and  N8_42 
ROOT
HETATM    1  C10 UNL     1       2.107  -0.830  -0.557  1.00  0.00     0.173 C 
HETATM    2  O4  UNL     1       2.225  -0.695   0.824  1.00  0.00    -0.321 OA
HETATM    3  C11 UNL     1       3.581  -0.566   1.065  1.00  0.00     0.319 C 
HETATM    4  C12 UNL     1       4.214   0.054  -0.164  1.00  0.00     0.235 C 
HETATM    5  C13 UNL     1       3.044   0.286  -1.039  1.00  0.00     0.162 C 
HETATM    6  N5  UNL     1       2.389   1.556  -0.930  1.00  0.00    -0.360 N 
ATOM      7  H5  UNL     1       1.762   1.824  -1.689  1.00  0.00     0.162 HD
HETATM    8  C14 UNL     1       2.537   2.466   0.136  1.00  0.00     0.138 C 
HETATM    9  N6  UNL     1       1.616   3.277   0.468  1.00  0.00    -0.380 N 
ATOM     10  H61 UNL     1       1.723   3.936   1.239  1.00  0.00     0.158 HD
ATOM     11  H62 UNL     1       0.734   3.286  -0.044  1.00  0.00     0.158 HD
HETATM   12  S2  UNL     1       4.075   2.451   1.028  1.00  0.00    -0.023 SA
HETATM   13  C15 UNL     1       5.094   1.212   0.128  1.00  0.00     0.378 C 
ENDROOT
BRANCH   1  14
HETATM   14  C9  UNL     1       0.693  -0.578  -1.046  1.00  0.00     0.174 C 
BRANCH  14  15
HETATM   15  N4  UNL     1      -0.206  -1.500  -0.448  1.00  0.00    -0.329 N 
ATOM     16  H4  UNL     1       0.119  -2.206   0.212  1.00  0.00     0.180 HD
BRANCH  15  17
HETATM   17  N3  UNL     1      -1.542  -1.401  -0.798  1.00  0.00    -0.255 N 
HETATM   18  C2  UNL     1      -2.592  -1.860   0.103  1.00  0.00     0.064 C 
HETATM   19  C1  UNL     1      -2.488  -2.151   1.367  1.00  0.00     0.043 C 
HETATM   20  C3  UNL     1      -3.766  -1.897  -0.799  1.00  0.00     0.368 C 
HETATM   21  N2  UNL     1      -3.576  -0.616  -1.457  1.00  0.00     0.166 N 
HETATM   22  C8  UNL     1      -2.203  -0.903  -1.994  1.00  0.00     0.421 C 
HETATM   23  S1  UNL     1      -1.556   0.645  -2.614  1.00  0.00    -0.035 SA
BRANCH  20  24
HETATM   24  C4  UNL     1      -5.047  -2.167  -0.221  1.00  0.00     0.271 C 
HETATM   25  N1  UNL     1      -6.169  -1.339  -0.438  1.00  0.00    -0.060 NA
HETATM   26  O1  UNL     1      -5.197  -3.179   0.508  1.00  0.00    -0.274 OA
ENDBRANCH  20  24
BRANCH  21  27
HETATM   27  C5  UNL     1      -3.332   0.483  -0.562  1.00  0.00     0.456 C 
BRANCH  27  28
HETATM   28  O2  UNL     1      -4.313   0.766   0.368  1.00  0.00    -0.291 OA
BRANCH  28  29
HETATM   29  C6  UNL     1      -4.248   1.772   1.293  1.00  0.00     0.256 C 
HETATM   30  C7  UNL     1      -5.346   2.036   2.284  1.00  0.00     0.126 C 
HETATM   31  O3  UNL     1      -3.241   2.507   1.326  1.00  0.00    -0.266 OA
ENDBRANCH  28  29
ENDBRANCH  27  28
ENDBRANCH  21  27
ENDBRANCH  15  17
ENDBRANCH  14  15
ENDBRANCH   1  14
BRANCH   3  32
HETATM   32  O5  UNL     1       4.074  -1.862   1.301  1.00  0.00    -0.341 OA
ATOM     33  H5  UNL     1       5.005  -1.773   1.467  1.00  0.00     0.215 HD
ENDBRANCH   3  32
BRANCH   3  34
HETATM   34  O6  UNL     1       3.847   0.164   2.221  1.00  0.00    -0.341 OA
ATOM     35  H6  UNL     1       4.778   0.253   2.387  1.00  0.00     0.215 HD
ENDBRANCH   3  34
BRANCH   4  36
HETATM   36  O7  UNL     1       5.031  -0.943  -0.751  1.00  0.00    -0.376 OA
ATOM     37  H7  UNL     1       5.428  -0.554  -1.522  1.00  0.00     0.211 HD
ENDBRANCH   4  36
BRANCH  13  38
HETATM   38  N7  UNL     1       5.507   1.810  -1.115  1.00  0.00    -0.032 N 
ATOM     39  H73 UNL     1       5.946   1.137  -1.743  1.00  0.00     0.278 HD
ATOM     40  H72 UNL     1       4.716   2.063  -1.707  1.00  0.00     0.278 HD
ATOM     41  H71 UNL     1       6.112   2.606  -0.914  1.00  0.00     0.278 HD
ENDBRANCH  13  38
BRANCH  13  42
HETATM   42  N8  UNL     1       6.195   0.775   0.940  1.00  0.00    -0.032 N 
ATOM     43  H83 UNL     1       5.886   0.300   1.788  1.00  0.00     0.278 HD
ATOM     44  H82 UNL     1       6.704  -0.001   0.517  1.00  0.00     0.278 HD
ATOM     45  H81 UNL     1       6.800   1.571   1.141  1.00  0.00     0.278 HD
ENDBRANCH  13  42
TORSDOF 12
