REMARK  19 active torsions:
REMARK  status: ('A' for Active; 'I' for Inactive)
REMARK       I    between atoms: C1_2  and  N4_24 
REMARK    1  A    between atoms: N2_3  and  C2_5 
REMARK    2  A    between atoms: C2_5  and  C3_6 
REMARK    3  A    between atoms: C3_6  and  C4_7 
REMARK    4  A    between atoms: C4_7  and  C5_8 
REMARK    5  A    between atoms: C5_8  and  C6_9 
REMARK    6  A    between atoms: C6_9  and  N3_10 
REMARK    7  A    between atoms: N3_10  and  C7_11 
REMARK    8  A    between atoms: N3_10  and  C9_14 
REMARK    9  A    between atoms: C7_11  and  C8_12 
REMARK   10  A    between atoms: C12_17  and  O1_18 
REMARK   11  A    between atoms: C14_21  and  O2_22 
REMARK   12  A    between atoms: N4_24  and  C15_26 
REMARK   13  A    between atoms: C15_26  and  C16_27 
REMARK   14  A    between atoms: C16_27  and  N5_28 
REMARK   15  A    between atoms: C17_29  and  O3_30 
REMARK   16  A    between atoms: C18_32  and  O4_33 
REMARK   17  A    between atoms: C19_35  and  O5_36 
REMARK   18  A    between atoms: C20_38  and  O6_39 
REMARK   19  A    between atoms: C21_41  and  C22_42 
ROOT
HETATM    1  N1  UNL     1       2.902  -1.943   1.769  1.00  0.00    -0.064 NA
HETATM    2  C1  UNL     1       1.776  -1.437   1.011  1.00  0.00     0.187 C 
HETATM    3  N2  UNL     1       0.756  -2.156   0.904  1.00  0.00    -0.344 N 
ATOM      4  H2  UNL     1       0.891  -3.038   1.398  1.00  0.00     0.167 HD
HETATM    5  N4  UNL     1       1.865  -0.176   0.430  1.00  0.00    -0.363 N 
ATOM      6  H4  UNL     1       1.091   0.453   0.645  1.00  0.00     0.162 HD
ENDROOT
BRANCH   3   7
HETATM    7  C2  UNL     1      -0.500  -2.118   0.319  1.00  0.00     0.063 C 
BRANCH   7   8
HETATM    8  C3  UNL     1      -1.200  -0.811   0.180  1.00  0.00     0.045 C 
BRANCH   8   9
HETATM    9  C4  UNL     1      -2.603  -1.143  -0.443  1.00  0.00     0.010 C 
BRANCH   9  10
HETATM   10  C5  UNL     1      -3.345   0.135  -0.572  1.00  0.00     0.045 C 
BRANCH  10  11
HETATM   11  C6  UNL     1      -4.692   0.100  -1.117  1.00  0.00     0.069 C 
BRANCH  11  12
HETATM   12  N3  UNL     1      -5.848  -0.435  -0.554  1.00  0.00    -0.337 N 
BRANCH  12  13
HETATM   13  C7  UNL     1      -6.262  -1.744  -0.263  1.00  0.00     0.084 C 
BRANCH  13  14
HETATM   14  C8  UNL     1      -5.806  -2.484   0.922  1.00  0.00     0.159 C 
HETATM   15 CL1  UNL     1      -6.570  -4.137   0.863  1.00  0.00    -0.125 Cl
ENDBRANCH  13  14
ENDBRANCH  12  13
BRANCH  12  16
HETATM   16  C9  UNL     1      -6.849   0.592  -0.179  1.00  0.00     0.071 A 
HETATM   17  C10 UNL     1      -7.044   0.832   1.134  1.00  0.00     0.035 A 
HETATM   18  C11 UNL     1      -7.963   1.803   1.530  1.00  0.00     0.039 A 
HETATM   19  C12 UNL     1      -8.670   2.517   0.608  1.00  0.00     0.068 A 
HETATM   20  C13 UNL     1      -8.474   2.276  -0.721  1.00  0.00     0.075 A 
HETATM   21  C14 UNL     1      -7.551   1.300  -1.115  1.00  0.00     0.095 A 
BRANCH  19  22
HETATM   22  O1  UNL     1      -9.582   3.480   1.058  1.00  0.00    -0.361 OA
ATOM     23  H1  UNL     1     -10.075   3.977   0.416  1.00  0.00     0.217 HD
ENDBRANCH  19  22
BRANCH  21  24
HETATM   24  O2  UNL     1      -7.363   1.066  -2.469  1.00  0.00    -0.358 OA
ATOM     25  H2  UNL     1      -7.851   1.558  -3.119  1.00  0.00     0.217 HD
ENDBRANCH  21  24
ENDBRANCH  12  16
ENDBRANCH  11  12
ENDBRANCH  10  11
ENDBRANCH   9  10
ENDBRANCH   8   9
ENDBRANCH   7   8
ENDBRANCH   3   7
BRANCH   5  26
HETATM   26  C15 UNL     1       2.877   0.378  -0.426  1.00  0.00     0.152 C 
BRANCH  26  27
HETATM   27  C16 UNL     1       4.108   0.667   0.370  1.00  0.00     0.296 C 
BRANCH  27  28
HETATM   28  N5  UNL     1       5.200   1.260  -0.379  1.00  0.00     0.134 N 
HETATM   29  C17 UNL     1       6.166   1.752   0.583  1.00  0.00     0.389 C 
HETATM   30  C18 UNL     1       6.958   0.721   1.288  1.00  0.00     0.208 C 
HETATM   31  C19 UNL     1       7.666  -0.160   0.319  1.00  0.00     0.182 C 
HETATM   32  C20 UNL     1       6.752  -0.650  -0.740  1.00  0.00     0.188 C 
HETATM   33  C21 UNL     1       5.761   0.320  -1.294  1.00  0.00     0.321 C 
BRANCH  29  34
HETATM   34  O3  UNL     1       5.420   2.452   1.542  1.00  0.00    -0.366 OA
ATOM     35  H3  UNL     1       6.053   2.774   2.173  1.00  0.00     0.212 HD
ENDBRANCH  29  34
BRANCH  30  36
HETATM   36  O4  UNL     1       6.282   0.033   2.295  1.00  0.00    -0.388 OA
ATOM     37  H4  UNL     1       6.791  -0.629   2.748  1.00  0.00     0.210 HD
ENDBRANCH  30  36
BRANCH  31  38
HETATM   38  O5  UNL     1       8.731   0.539  -0.233  1.00  0.00    -0.390 OA
ATOM     39  H5  UNL     1       9.183  -0.023  -0.851  1.00  0.00     0.210 HD
ENDBRANCH  31  38
BRANCH  32  40
HETATM   40  O6  UNL     1       7.474  -1.138  -1.862  1.00  0.00    -0.391 OA
ATOM     41  H6  UNL     1       6.888  -1.452  -2.541  1.00  0.00     0.210 HD
ENDBRANCH  32  40
BRANCH  33  42
HETATM   42  C22 UNL     1       6.295   1.009  -2.556  1.00  0.00     0.389 C 
HETATM   43  F1  UNL     1       5.243   1.672  -3.195  1.00  0.00    -0.212 F 
HETATM   44  F2  UNL     1       7.246   1.946  -2.294  1.00  0.00    -0.212 F 
ENDBRANCH  33  42
ENDBRANCH  27  28
ENDBRANCH  26  27
ENDBRANCH   5  26
TORSDOF 19
