REMARK  3 active torsions:
REMARK  status: ('A' for Active; 'I' for Inactive)
REMARK    1  A    between atoms: C2_2  and  C3_4 
REMARK    2  A    between atoms: C3_4  and  C4_5 
REMARK    3  A    between atoms: C19_31  and  O5_32 
ROOT
HETATM    1  C3  UNL     1       0.796  -2.956  -0.213  1.00  0.00     0.109 C 
HETATM    2  C5  UNL     1      -0.331  -2.072  -0.561  1.00  0.00     0.115 C 
HETATM    3  S1  UNL     1      -0.933  -1.128   0.818  1.00  0.00    -0.147 SA
HETATM    4  C6  UNL     1      -2.503  -0.266   0.489  1.00  0.00     0.082 C 
HETATM    5  C7  UNL     1      -3.524  -1.225   1.131  1.00  0.00     0.037 C 
HETATM    6  C8  UNL     1      -2.808  -0.190  -0.942  1.00  0.00     0.037 C 
HETATM    7  C9  UNL     1      -2.461   0.948   1.267  1.00  0.00     0.236 C 
HETATM    8  O2  UNL     1      -2.134   0.719   2.492  1.00  0.00    -0.272 OA
HETATM    9  N1  UNL     1      -2.708   2.293   0.957  1.00  0.00    -0.347 N 
ATOM     10  H1  UNL     1      -2.997   2.865   1.750  1.00  0.00     0.163 HD
HETATM   11  C10 UNL     1      -2.623   2.997  -0.284  1.00  0.00     0.172 C 
HETATM   12  C11 UNL     1      -3.477   4.286  -0.154  1.00  0.00     0.042 C 
HETATM   13  C12 UNL     1      -1.316   3.359  -0.813  1.00  0.00     0.240 C 
HETATM   14  O3  UNL     1      -1.294   4.504  -1.404  1.00  0.00    -0.271 OA
HETATM   15  N2  UNL     1      -0.083   2.740  -0.831  1.00  0.00    -0.346 N 
ATOM     16  H2  UNL     1       0.260   2.540  -1.771  1.00  0.00     0.163 HD
HETATM   17  C13 UNL     1       0.832   2.312   0.232  1.00  0.00     0.172 C 
HETATM   18  C14 UNL     1       0.774   3.181   1.473  1.00  0.00     0.042 C 
HETATM   19  C15 UNL     1       2.252   2.245  -0.170  1.00  0.00     0.241 C 
HETATM   20  O4  UNL     1       2.650   3.325  -0.747  1.00  0.00    -0.271 OA
HETATM   21  N3  UNL     1       3.150   1.179   0.007  1.00  0.00    -0.343 N 
ATOM     22  H3  UNL     1       3.976   1.410   0.559  1.00  0.00     0.163 HD
HETATM   23  C16 UNL     1       3.105  -0.194  -0.460  1.00  0.00     0.090 C 
HETATM   24  C17 UNL     1       4.610  -0.605  -0.647  1.00  0.00     0.047 C 
HETATM   25  C18 UNL     1       2.589  -0.244  -1.870  1.00  0.00     0.047 C 
HETATM   26  C19 UNL     1       2.488  -1.139   0.479  1.00  0.00     0.140 C 
HETATM   27  N4  UNL     1       2.001  -2.430   0.347  1.00  0.00    -0.355 N 
ATOM     28  H4  UNL     1       2.625  -3.144   0.723  1.00  0.00     0.162 HD
ENDROOT
BRANCH   1  29
HETATM   29  C2  UNL     1       0.208  -4.083   0.614  1.00  0.00     0.152 C 
HETATM   30  C1  UNL     1       0.030  -3.764   2.072  1.00  0.00     0.093 C 
HETATM   31  O1  UNL     1      -0.068  -5.133   0.135  1.00  0.00    -0.296 OA
ENDBRANCH   1  29
BRANCH   1  32
HETATM   32  C4  UNL     1       1.163  -3.716  -1.532  1.00  0.00     0.125 C 
HETATM   33 BR1  UNL     1      -0.407  -4.367  -2.415  1.00  0.00    -0.093 Br
ENDBRANCH   1  32
BRANCH  26  34
HETATM   34  O5  UNL     1       2.391  -0.637   1.678  1.00  0.00    -0.348 OA
ATOM     35  H5  UNL     1       1.992  -1.248   2.286  1.00  0.00     0.219 HD
ENDBRANCH  26  34
TORSDOF 3
