REMARK  4 active torsions:
REMARK  status: ('A' for Active; 'I' for Inactive)
REMARK    1  A    between atoms: C2_2  and  C3_3 
REMARK    2  A    between atoms: C3_3  and  C4_4 
REMARK    3  A    between atoms: C4_4  and  C5_5 
REMARK    4  A    between atoms: C13_14  and  O2_15 
ROOT
HETATM    1  C3  UNL     1       1.082  -0.230  -0.143  1.00  0.00    -0.017 C 
HETATM    2  C8  UNL     1       1.338  -0.949  -1.438  1.00  0.00     0.021 C 
HETATM    3  C9  UNL     1       0.737  -2.287  -1.601  1.00  0.00     0.080 C 
HETATM    4  C10 UNL     1      -0.158  -2.704  -0.515  1.00  0.00     0.138 C 
HETATM    5  O1  UNL     1      -0.413  -3.890  -0.403  1.00  0.00    -0.297 OA
HETATM    6  C11 UNL     1      -0.781  -1.790   0.463  1.00  0.00     0.050 C 
HETATM    7  C12 UNL     1      -0.667  -2.448   1.822  1.00  0.00     0.027 C 
HETATM    8  C13 UNL     1      -2.266  -1.716   0.057  1.00  0.00     0.157 C 
HETATM    9  C14 UNL     1      -2.585  -0.370   0.569  1.00  0.00     0.122 C 
HETATM   10  N1  UNL     1      -3.844   0.176   0.214  1.00  0.00    -0.353 N 
ATOM     11  H1  UNL     1      -4.558  -0.367  -0.272  1.00  0.00     0.163 HD
HETATM   12  C15 UNL     1      -4.041   1.538   0.585  1.00  0.00     0.218 C 
HETATM   13  O3  UNL     1      -5.185   2.052   0.735  1.00  0.00    -0.274 OA
HETATM   14  C16 UNL     1      -2.882   2.381   0.803  1.00  0.00     0.103 C 
HETATM   15  C17 UNL     1      -1.541   1.766   0.804  1.00  0.00     0.021 C 
HETATM   16  C18 UNL     1      -1.398   0.473   0.026  1.00  0.00    -0.015 C 
HETATM   17  C19 UNL     1      -1.665   0.752  -1.392  1.00  0.00     0.018 C 
HETATM   18  C20 UNL     1      -0.291  -0.383   0.433  1.00  0.00     0.026 C 
ENDROOT
BRANCH   1  19
HETATM   19  C2  UNL     1       1.984  -0.826   0.880  1.00  0.00    -0.027 C 
HETATM   20  C1  UNL     1       2.766  -1.854   0.762  1.00  0.00     0.008 C 
ENDBRANCH   1  19
BRANCH   1  21
HETATM   21  C4  UNL     1       1.450   1.190  -0.321  1.00  0.00     0.017 C 
BRANCH  21  22
HETATM   22  C5  UNL     1       2.829   1.534  -0.787  1.00  0.00    -0.022 C 
HETATM   23  C6  UNL     1       2.912   3.094  -0.930  1.00  0.00     0.009 C 
HETATM   24  C7  UNL     1       3.967   1.212   0.130  1.00  0.00     0.009 C 
ENDBRANCH  21  22
ENDBRANCH   1  21
BRANCH   8  25
HETATM   25  O2  UNL     1      -2.988  -2.733   0.691  1.00  0.00    -0.392 OA
ATOM     26  H2  UNL     1      -3.903  -2.687   0.441  1.00  0.00     0.210 HD
ENDBRANCH   8  25
TORSDOF 4
