REMARK  20 active torsions:
REMARK  status: ('A' for Active; 'I' for Inactive)
REMARK    1  A    between atoms: C2_2  and  C3_3 
REMARK    2  A    between atoms: C3_3  and  C5_5 
REMARK    3  A    between atoms: C5_5  and  N1_6 
REMARK    4  A    between atoms: C5_5  and  C13_19 
REMARK    5  A    between atoms: N1_6  and  C6_8 
REMARK    6  A    between atoms: C6_8  and  C8_10 
REMARK    7  A    between atoms: C8_10  and  N2_11 
REMARK    8  A    between atoms: C8_10  and  C10_16 
REMARK       I    between atoms: N2_11  and  C9_13 
REMARK       I    between atoms: C13_19  and  N4_21 
REMARK    9  A    between atoms: N4_21  and  C14_23 
REMARK   10  A    between atoms: C14_23  and  C16_25 
REMARK       I    between atoms: C16_25  and  N5_27 
REMARK   11  A    between atoms: N5_27  and  C17_29 
REMARK   12  A    between atoms: C17_29  and  C18_30 
REMARK   13  A    between atoms: C17_29  and  C29_49 
REMARK   14  A    between atoms: C18_30  and  O4_31 
REMARK   15  A    between atoms: C18_30  and  N6_33 
REMARK   16  A    between atoms: N6_33  and  C19_35 
REMARK   17  A    between atoms: C19_35  and  C20_36 
REMARK   18  A    between atoms: C19_35  and  C24_40 
REMARK   19  A    between atoms: C20_36  and  C21_37 
REMARK   20  A    between atoms: C24_40  and  C25_42 
ROOT
HETATM    1  C16 UNL     1       0.475  -0.217   1.312  1.00  0.00     0.240 C 
HETATM    2  O3  UNL     1       0.376  -1.199   0.546  1.00  0.00    -0.271 OA
HETATM    3  N5  UNL     1       1.579  -0.069   2.158  1.00  0.00    -0.347 N 
ATOM      4  H5  UNL     1       1.586   0.768   2.741  1.00  0.00     0.163 HD
ENDROOT
BRANCH   3   5
HETATM    5  C17 UNL     1       2.726  -0.967   2.310  1.00  0.00     0.163 C 
BRANCH   5   6
HETATM    6  C18 UNL     1       3.827  -0.276   1.612  1.00  0.00     0.135 C 
BRANCH   6   7
HETATM    7  O4  UNL     1       4.001   0.994   1.915  1.00  0.00    -0.348 OA
ATOM      8  H4  UNL     1       4.710   1.439   1.466  1.00  0.00     0.219 HD
ENDBRANCH   6   7
BRANCH   6   9
HETATM    9  N6  UNL     1       4.731  -0.735   0.662  1.00  0.00    -0.361 N 
ATOM     10  H6  UNL     1       4.672  -1.703   0.344  1.00  0.00     0.162 HD
BRANCH   9  11
HETATM   11  C19 UNL     1       5.795   0.164   0.091  1.00  0.00     0.160 C 
BRANCH  11  12
HETATM   12  C20 UNL     1       7.076  -0.591   0.319  1.00  0.00     0.037 C 
BRANCH  12  13
HETATM   13  C21 UNL     1       8.325   0.069  -0.122  1.00  0.00    -0.020 C 
HETATM   14  C22 UNL     1       8.626   1.383   0.561  1.00  0.00     0.009 C 
HETATM   15  C23 UNL     1       9.496  -0.861   0.174  1.00  0.00     0.009 C 
ENDBRANCH  12  13
ENDBRANCH  11  12
BRANCH  11  16
HETATM   16  C24 UNL     1       5.543   0.288  -1.360  1.00  0.00     0.205 C 
HETATM   17  O5  UNL     1       5.121  -0.740  -1.972  1.00  0.00    -0.288 OA
BRANCH  16  18
HETATM   18  C25 UNL     1       5.733   1.491  -2.161  1.00  0.00     0.122 A 
HETATM   19  N7  UNL     1       6.134   2.703  -1.823  1.00  0.00    -0.351 N 
HETATM   20  C26 UNL     1       6.235   3.639  -2.703  1.00  0.00     0.012 A 
ATOM     21  H7  UNL     1       6.367   2.901  -0.850  1.00  0.00     0.166 HD
HETATM   22  C27 UNL     1       6.694   5.042  -2.345  1.00  0.00     0.068 C 
HETATM   23  C28 UNL     1       5.911   3.333  -4.001  1.00  0.00     0.076 A 
HETATM   24  S1  UNL     1       5.475   1.685  -3.862  1.00  0.00    -0.079 SA
ENDBRANCH  16  18
ENDBRANCH  11  16
ENDBRANCH   9  11
ENDBRANCH   6   9
ENDBRANCH   5   6
BRANCH   5  25
HETATM   25  C29 UNL     1       2.551  -2.361   1.921  1.00  0.00     0.016 C 
HETATM   26  C30 UNL     1       3.835  -3.159   2.226  1.00  0.00     0.007 C 
HETATM   27  C31 UNL     1       3.757  -4.381   1.347  1.00  0.00     0.000 C 
HETATM   28  C32 UNL     1       2.352  -4.693   0.921  1.00  0.00     0.000 C 
HETATM   29  C33 UNL     1       1.298  -4.440   1.941  1.00  0.00     0.000 C 
HETATM   30  C34 UNL     1       1.484  -3.136   2.677  1.00  0.00     0.007 C 
ENDBRANCH   5  25
ENDBRANCH   3   5
BRANCH   1  31
HETATM   31  C14 UNL     1      -0.643   0.766   1.260  1.00  0.00     0.172 C 
HETATM   32  C15 UNL     1      -0.029   2.006   0.550  1.00  0.00     0.042 C 
BRANCH  31  33
HETATM   33  N4  UNL     1      -1.674   0.290   0.365  1.00  0.00    -0.346 N 
HETATM   34  C13 UNL     1      -3.056   0.464   0.618  1.00  0.00     0.241 C 
HETATM   35  O2  UNL     1      -3.343   1.071   1.676  1.00  0.00    -0.271 OA
ATOM     36  H4  UNL     1      -1.393  -0.193  -0.488  1.00  0.00     0.163 HD
BRANCH  34  37
HETATM   37  C5  UNL     1      -4.049  -0.057  -0.344  1.00  0.00     0.173 C 
BRANCH  37  38
HETATM   38  C3  UNL     1      -4.290  -1.508   0.023  1.00  0.00     0.013 C 
HETATM   39  C4  UNL     1      -3.013  -2.314   0.107  1.00  0.00     0.012 C 
BRANCH  38  40
HETATM   40  C2  UNL     1      -5.089  -2.188  -1.110  1.00  0.00     0.002 C 
HETATM   41  C1  UNL     1      -5.364  -3.623  -0.766  1.00  0.00     0.005 C 
ENDBRANCH  38  40
ENDBRANCH  37  38
BRANCH  37  42
HETATM   42  N1  UNL     1      -5.189   0.713  -0.536  1.00  0.00    -0.403 N 
ATOM     43  H1  UNL     1      -5.327   1.060  -1.485  1.00  0.00     0.154 HD
BRANCH  42  44
HETATM   44  C6  UNL     1      -6.152   1.073   0.363  1.00  0.00     0.096 C 
HETATM   45  C7  UNL     1      -6.996   0.084   1.081  1.00  0.00     0.034 C 
BRANCH  44  46
HETATM   46  C8  UNL     1      -7.111   2.127  -0.196  1.00  0.00     0.111 C 
BRANCH  46  47
HETATM   47  N2  UNL     1      -6.420   3.358  -0.544  1.00  0.00    -0.338 N 
HETATM   48  C9  UNL     1      -6.740   4.536   0.168  1.00  0.00     0.329 C 
HETATM   49  N3  UNL     1      -6.079   5.754  -0.150  1.00  0.00    -0.040 NA
HETATM   50  O1  UNL     1      -7.603   4.523   1.080  1.00  0.00    -0.251 OA
ATOM     51  H2  UNL     1      -5.720   3.371  -1.286  1.00  0.00     0.164 HD
ENDBRANCH  46  47
BRANCH  46  52
HETATM   52  C10 UNL     1      -7.903   1.732  -1.378  1.00  0.00     0.002 C 
HETATM   53  C11 UNL     1      -8.829   0.557  -1.237  1.00  0.00     0.011 C 
HETATM   54  C12 UNL     1      -7.131   1.522  -2.649  1.00  0.00     0.011 C 
ENDBRANCH  46  52
ENDBRANCH  44  46
ENDBRANCH  42  44
ENDBRANCH  37  42
ENDBRANCH  34  37
ENDBRANCH  31  33
ENDBRANCH   1  31
TORSDOF 20
