REMARK  12 active torsions:
REMARK  status: ('A' for Active; 'I' for Inactive)
REMARK    1  A    between atoms: C2_2  and  C3_3 
REMARK    2  A    between atoms: C3_3  and  C4_4 
REMARK    3  A    between atoms: C4_4  and  N1_5 
REMARK    4  A    between atoms: N1_5  and  C5_7 
REMARK    5  A    between atoms: C7_9  and  N2_10 
REMARK    6  A    between atoms: N2_10  and  C8_12 
REMARK    7  A    between atoms: N4_16  and  C10_18 
REMARK    8  A    between atoms: C10_18  and  C11_19 
REMARK    9  A    between atoms: C14_26  and  N7_27 
REMARK   10  A    between atoms: N7_27  and  C16_29 
REMARK   11  A    between atoms: C16_29  and  C17_30 
REMARK   12  A    between atoms: C17_30  and  C18_32 
ROOT
HETATM    1  C8  UNL     1       0.626   2.016   0.280  1.00  0.00     0.152 A 
HETATM    2  N3  UNL     1       0.543   3.332  -0.043  1.00  0.00    -0.174 N 
ATOM      3  H3  UNL     1       1.312   3.955   0.204  1.00  0.00     0.186 HD
HETATM    4  C9  UNL     1      -0.528   3.833  -0.680  1.00  0.00     0.681 A 
HETATM    5  N4  UNL     1      -0.540   5.091  -0.956  1.00  0.00    -0.226 N 
ATOM      6  H4  UNL     1      -1.340   5.499  -1.439  1.00  0.00     0.177 HD
HETATM    7  N5  UNL     1      -1.560   3.028  -1.017  1.00  0.00    -0.174 N 
ATOM      8  H5  UNL     1      -2.365   3.427  -1.499  1.00  0.00     0.186 HD
HETATM    9  C13 UNL     1      -1.551   1.716  -0.733  1.00  0.00     0.167 A 
HETATM   10  N6  UNL     1      -2.408   0.696  -0.941  1.00  0.00    -0.173 N 
ATOM     11  H6  UNL     1      -3.316   0.755  -1.403  1.00  0.00     0.186 HD
HETATM   12  C14 UNL     1      -1.856  -0.395  -0.437  1.00  0.00     0.686 A 
HETATM   13  N9  UNL     1      -0.654  -0.085   0.092  1.00  0.00    -0.184 N 
ATOM     14  H9  UNL     1      -0.020  -0.743   0.545  1.00  0.00     0.184 HD
HETATM   15  C21 UNL     1      -0.427   1.223  -0.072  1.00  0.00     0.138 A 
ENDROOT
BRANCH   1  16
HETATM   16  N2  UNL     1       1.682   1.640   0.887  1.00  0.00    -0.340 N 
ATOM     17  H2  UNL     1       2.364   2.376   1.069  1.00  0.00     0.167 HD
BRANCH  16  18
HETATM   18  C7  UNL     1       2.040   0.374   1.337  1.00  0.00     0.038 A 
HETATM   19  C6  UNL     1       2.991  -0.353   0.618  1.00  0.00     0.077 A 
HETATM   20  C5  UNL     1       3.349  -1.604   1.068  1.00  0.00     0.102 A 
HETATM   21  N10 UNL     1       2.780  -2.118   2.196  1.00  0.00    -0.352 N 
HETATM   22  C23 UNL     1       1.867  -1.451   2.909  1.00  0.00     0.092 A 
ATOM     23  H10 UNL     1       3.062  -3.047   2.508  1.00  0.00     0.166 HD
HETATM   24  C22 UNL     1       1.498  -0.194   2.469  1.00  0.00     0.046 A 
BRANCH  20  25
HETATM   25  N1  UNL     1       4.207  -2.316   0.464  1.00  0.00    -0.376 N 
ATOM     26  H1  UNL     1       4.436  -3.236   0.840  1.00  0.00     0.161 HD
BRANCH  25  27
HETATM   27  C4  UNL     1       4.867  -1.871  -0.731  1.00  0.00     0.121 C 
BRANCH  27  28
HETATM   28  C3  UNL     1       6.060  -0.992  -0.369  1.00  0.00     0.019 C 
BRANCH  28  29
HETATM   29  C2  UNL     1       7.055  -1.781   0.475  1.00  0.00    -0.003 C 
HETATM   30  C1  UNL     1       7.558  -2.987  -0.277  1.00  0.00     0.005 C 
ENDBRANCH  28  29
ENDBRANCH  27  28
ENDBRANCH  25  27
ENDBRANCH  20  25
ENDBRANCH  16  18
ENDBRANCH   1  16
BRANCH   5  31
HETATM   31  C10 UNL     1       0.566   5.914  -0.586  1.00  0.00     0.137 C 
BRANCH  31  32
HETATM   32  C11 UNL     1       0.340   7.360  -0.973  1.00  0.00     0.016 C 
HETATM   33  C12 UNL     1      -0.889   7.929  -0.299  1.00  0.00     0.006 C 
ENDBRANCH  31  32
ENDBRANCH   5  31
BRANCH  12  34
HETATM   34  N7  UNL     1      -2.357  -1.764  -0.394  1.00  0.00    -0.196 N 
HETATM   35  C15 UNL     1      -2.077  -2.525  -1.582  1.00  0.00     0.175 C 
BRANCH  34  36
HETATM   36  C16 UNL     1      -3.052  -2.241   0.742  1.00  0.00     0.131 C 
BRANCH  36  37
HETATM   37  C17 UNL     1      -4.499  -2.471   0.741  1.00  0.00     0.043 C 
HETATM   38  N8  UNL     1      -5.261  -1.256   0.413  1.00  0.00    -0.105 NA
BRANCH  37  39
HETATM   39  C18 UNL     1      -5.140  -3.663   0.188  1.00  0.00     0.026 C 
HETATM   40  C19 UNL     1      -6.672  -3.452   0.480  1.00  0.00     0.016 C 
HETATM   41  C20 UNL     1      -5.103  -3.914  -1.273  1.00  0.00     0.016 C 
ENDBRANCH  37  39
ENDBRANCH  36  37
ENDBRANCH  34  36
ENDBRANCH  12  34
TORSDOF 12
