REMARK  12 active torsions:
REMARK  status: ('A' for Active; 'I' for Inactive)
REMARK    1  A    between atoms: N1_2  and  O1_3 
REMARK    2  A    between atoms: N1_2  and  N2_5 
REMARK    3  A    between atoms: N3_7  and  N4_9 
REMARK    4  A    between atoms: N4_9  and  O2_10 
REMARK       I    between atoms: N4_9  and  C2_12 
REMARK    5  A    between atoms: N6_14  and  N7_16 
REMARK       I    between atoms: N7_16  and  C3_18 
REMARK    6  A    between atoms: C3_18  and  C4_20 
REMARK    7  A    between atoms: N8_22  and  C6_23 
REMARK    8  A    between atoms: C7_26  and  C8_27 
REMARK    9  A    between atoms: C8_27  and  N10_28 
REMARK   10  A    between atoms: C8_27  and  N11_32 
REMARK   11  A    between atoms: C9_36  and  O4_37 
REMARK   12  A    between atoms: C10_39  and  N12_40 
ROOT
HETATM    1  C4  UNL     1       0.270   1.255  -0.085  1.00  0.00     0.133 A 
HETATM    2  C5  UNL     1      -0.691   0.264  -0.082  1.00  0.00     0.152 A 
HETATM    3  N8  UNL     1      -1.859   0.803   0.294  1.00  0.00    -0.230 N 
HETATM    4  N13 UNL     1      -1.669   2.091   0.526  1.00  0.00    -0.013 NA
HETATM    5  N14 UNL     1      -0.380   2.368   0.298  1.00  0.00    -0.277 N 
ATOM      6  H14 UNL     1       0.047   3.289   0.400  1.00  0.00     0.184 HD
ENDROOT
BRANCH   3   7
HETATM    7  C6  UNL     1      -3.149   0.191   0.450  1.00  0.00     0.162 A 
HETATM    8  N9  UNL     1      -3.634  -0.466   1.504  1.00  0.00    -0.337 N 
HETATM    9  C7  UNL     1      -4.885  -0.908   1.309  1.00  0.00     0.104 A 
ATOM     10  H9  UNL     1      -3.110  -0.616   2.366  1.00  0.00     0.167 HD
HETATM   11  C9  UNL     1      -5.226  -0.504   0.035  1.00  0.00     0.129 A 
HETATM   12  C10 UNL     1      -4.156   0.178  -0.506  1.00  0.00     0.183 A 
BRANCH   9  13
HETATM   13  C8  UNL     1      -5.753  -1.681   2.260  1.00  0.00     0.430 C 
BRANCH  13  14
HETATM   14  N10 UNL     1      -7.092  -1.091   2.249  1.00  0.00    -0.045 N 
ATOM     15 3H10 UNL     1      -7.081  -0.092   2.452  1.00  0.00     0.277 HD
ATOM     16 2H10 UNL     1      -7.489  -1.038   1.311  1.00  0.00     0.277 HD
ATOM     17 1H10 UNL     1      -7.682  -1.616   2.895  1.00  0.00     0.277 HD
ENDBRANCH  13  14
BRANCH  13  18
HETATM   18  N11 UNL     1      -5.221  -1.541   3.591  1.00  0.00    -0.045 N 
ATOM     19 3H11 UNL     1      -4.240  -1.814   3.649  1.00  0.00     0.277 HD
ATOM     20 2H11 UNL     1      -5.113  -0.565   3.867  1.00  0.00     0.277 HD
ATOM     21 1H11 UNL     1      -5.811  -2.066   4.237  1.00  0.00     0.277 HD
ENDBRANCH  13  18
ENDBRANCH   9  13
BRANCH  11  22
HETATM   22  O4  UNL     1      -6.452  -0.764  -0.561  1.00  0.00    -0.356 OA
ATOM     23  H4  UNL     1      -6.687  -0.486  -1.438  1.00  0.00     0.218 HD
ENDBRANCH  11  22
BRANCH  12  24
HETATM   24  N12 UNL     1      -4.050   0.767  -1.775  1.00  0.00    -0.109 N 
HETATM   25  O5  UNL     1      -4.092   2.007  -1.866  1.00  0.00    -0.532 OA
HETATM   26  O6  UNL     1      -3.903   0.035  -2.907  1.00  0.00    -0.532 OA
ENDBRANCH  12  24
ENDBRANCH   3   7
BRANCH   1  27
HETATM   27  C3  UNL     1       1.674   1.109  -0.429  1.00  0.00     0.289 C 
HETATM   28  N7  UNL     1       2.211  -0.144  -0.825  1.00  0.00    -0.262 N 
ATOM     29  H7  UNL     1       1.603  -0.962  -0.870  1.00  0.00     0.190 HD
HETATM   30  O3  UNL     1       2.436   2.131  -0.373  1.00  0.00    -0.264 OA
BRANCH  28  31
HETATM   31  N6  UNL     1       3.541  -0.268  -1.148  1.00  0.00    -0.267 N 
HETATM   32  C2  UNL     1       3.959  -0.570  -2.309  1.00  0.00     0.253 C 
HETATM   33  N4  UNL     1       5.362  -0.666  -2.510  1.00  0.00    -0.114 N 
HETATM   34  N5  UNL     1       3.055  -0.803  -3.375  1.00  0.00    -0.058 NA
ATOM     35  H6  UNL     1       4.231  -0.109  -0.414  1.00  0.00     0.190 HD
BRANCH  33  36
HETATM   36  N3  UNL     1       6.266  -0.581  -1.441  1.00  0.00    -0.197 N 
HETATM   37  N2  UNL     1       6.196   0.401  -0.640  1.00  0.00    -0.205 N 
ATOM     38  H2  UNL     1       5.479   1.110  -0.794  1.00  0.00     0.212 HD
ATOM     39  H3  UNL     1       6.974  -1.303  -1.308  1.00  0.00     0.212 HD
BRANCH  37  40
HETATM   40  N1  UNL     1       7.063   0.547   0.444  1.00  0.00    -0.191 N 
HETATM   41  C1  UNL     1       8.452   0.809   0.187  1.00  0.00     0.209 C 
BRANCH  40  42
HETATM   42  O1  UNL     1       6.559   0.436   1.679  1.00  0.00    -0.271 OA
ATOM     43  H1  UNL     1       5.641   0.263   1.849  1.00  0.00     0.246 HD
ENDBRANCH  40  42
ENDBRANCH  37  40
ENDBRANCH  33  36
BRANCH  33  44
HETATM   44  O2  UNL     1       5.811  -0.842  -3.777  1.00  0.00    -0.264 OA
ATOM     45  H2  UNL     1       5.199  -0.900  -4.501  1.00  0.00     0.247 HD
ENDBRANCH  33  44
ENDBRANCH  28  31
ENDBRANCH   1  27
TORSDOF 12
