REMARK  6 active torsions:
REMARK  status: ('A' for Active; 'I' for Inactive)
REMARK    1  A    between atoms: C2_2  and  N1_3 
REMARK    2  A    between atoms: N1_3  and  C4_5 
REMARK    3  A    between atoms: C4_5  and  C5_6 
REMARK    4  A    between atoms: C7_10  and  N3_11 
REMARK    5  A    between atoms: N3_11  and  C8_13 
REMARK    6  A    between atoms: C10_20  and  N6_21 
ROOT
HETATM    1  C8  UNL     1      -2.060  -0.083   0.321  1.00  0.00     0.683 C 
HETATM    2  N4  UNL     1      -2.934  -0.863   0.846  1.00  0.00    -0.182 N 
ATOM      3  H4  UNL     1      -2.757  -1.203   1.791  1.00  0.00     0.181 HD
HETATM    4  C9  UNL     1      -4.150  -1.294   0.197  1.00  0.00     0.402 C 
HETATM    5  N5  UNL     1      -4.160  -1.020  -1.237  1.00  0.00     0.023 N 
ATOM      6  H51 UNL     1      -5.061  -1.215  -1.674  1.00  0.00     0.287 HD
ATOM      7  H52 UNL     1      -3.605  -1.687  -1.774  1.00  0.00     0.287 HD
HETATM    8  C10 UNL     1      -3.728   0.352  -1.418  1.00  0.00     0.459 C 
HETATM    9  N7  UNL     1      -2.321   0.388  -0.999  1.00  0.00    -0.159 N 
ATOM     10  H7  UNL     1      -1.580   0.727  -1.612  1.00  0.00     0.182 HD
HETATM   11  C11 UNL     1      -4.574   1.190  -0.539  1.00  0.00     0.319 C 
HETATM   12  O1  UNL     1      -4.443   2.433  -0.546  1.00  0.00    -0.265 OA
HETATM   13  N8  UNL     1      -5.541   0.609   0.320  1.00  0.00    -0.281 N 
ATOM     14  H8  UNL     1      -6.369   1.132   0.607  1.00  0.00     0.184 HD
HETATM   15  N9  UNL     1      -5.328  -0.708   0.766  1.00  0.00    -0.185 NA
HETATM   16  C12 UNL     1      -5.260  -0.785   2.215  1.00  0.00     0.140 C 
ENDROOT
BRANCH   1  17
HETATM   17  N3  UNL     1      -0.894   0.302   1.003  1.00  0.00    -0.162 N 
ATOM     18  H3  UNL     1      -0.894   0.357   2.022  1.00  0.00     0.187 HD
BRANCH  17  19
HETATM   19  C7  UNL     1       0.297   0.618   0.268  1.00  0.00     0.190 C 
HETATM   20  N2  UNL     1       0.980   1.696   0.406  1.00  0.00    -0.360 N 
HETATM   21  C6  UNL     1       2.138   1.701  -0.497  1.00  0.00     0.149 C 
ATOM     22  H2  UNL     1       0.749   2.448   1.055  1.00  0.00     0.162 HD
HETATM   23  C5  UNL     1       2.291   0.205  -0.762  1.00  0.00     0.130 C 
HETATM   24  N10 UNL     1       0.898  -0.213  -0.723  1.00  0.00    -0.354 N 
ATOM     25  H10 UNL     1       0.450  -0.940  -1.281  1.00  0.00     0.163 HD
BRANCH  23  26
HETATM   26  C4  UNL     1       2.993  -0.465   0.364  1.00  0.00     0.298 C 
BRANCH  26  27
HETATM   27  N1  UNL     1       4.336   0.031   0.627  1.00  0.00     0.085 N 
HETATM   28  C3  UNL     1       4.751  -0.704   1.836  1.00  0.00     0.310 C 
BRANCH  27  29
HETATM   29  C2  UNL     1       5.165  -0.364  -0.501  1.00  0.00     0.267 C 
HETATM   30  C1  UNL     1       6.591   0.064  -0.386  1.00  0.00     0.037 C 
ENDBRANCH  27  29
ENDBRANCH  26  27
ENDBRANCH  23  26
ENDBRANCH  17  19
ENDBRANCH   1  17
BRANCH   8  31
HETATM   31  N6  UNL     1      -3.888   0.742  -2.804  1.00  0.00    -0.017 N 
ATOM     32  H63 UNL     1      -3.409   0.103  -3.439  1.00  0.00     0.280 HD
ATOM     33  H62 UNL     1      -4.841   0.594  -3.135  1.00  0.00     0.280 HD
ATOM     34  H61 UNL     1      -3.584   1.707  -2.931  1.00  0.00     0.280 HD
ENDBRANCH   8  31
TORSDOF 6
