REMARK  6 active torsions:
REMARK  status: ('A' for Active; 'I' for Inactive)
REMARK    1  A    between atoms: O1_2  and  C2_3 
REMARK    2  A    between atoms: C5_8  and  C6_9 
REMARK    3  A    between atoms: C6_9  and  N2_10 
REMARK    4  A    between atoms: C8_18  and  N6_19 
REMARK    5  A    between atoms: N8_25  and  N9_27 
REMARK    6  A    between atoms: N10_32  and  N11_34 
ROOT
HETATM    1  N2  UNL     1      -0.045   0.010   1.124  1.00  0.00    -0.254 N 
HETATM    2  N3  UNL     1      -0.050   1.366   1.157  1.00  0.00    -0.237 N 
ATOM      3  H3  UNL     1      -0.882   1.833   1.518  1.00  0.00     0.208 HD
HETATM    4  N4  UNL     1       0.946   2.111   0.754  1.00  0.00    -0.269 N 
ATOM      5  H4  UNL     1       0.866   3.126   0.810  1.00  0.00     0.190 HD
HETATM    6  C7  UNL     1       2.065   1.568   0.271  1.00  0.00     0.154 A 
HETATM    7  N5  UNL     1       3.110   2.346  -0.153  1.00  0.00    -0.174 N 
ATOM      8  H5  UNL     1       3.045   3.363  -0.103  1.00  0.00     0.186 HD
HETATM    9  C8  UNL     1       4.219   1.764  -0.634  1.00  0.00     0.679 A 
HETATM   10  N7  UNL     1       4.345   0.422  -0.716  1.00  0.00    -0.174 N 
ATOM     11  H7  UNL     1       5.195  -0.005  -1.084  1.00  0.00     0.186 HD
HETATM   12  C9  UNL     1       3.298  -0.347  -0.291  1.00  0.00     0.153 A 
HETATM   13  N8  UNL     1       3.354  -1.634  -0.342  1.00  0.00    -0.291 N 
ATOM     14  H8  UNL     1       2.575  -2.210  -0.024  1.00  0.00     0.188 HD
HETATM   15  C10 UNL     1       2.150   0.224   0.206  1.00  0.00     0.102 A 
HETATM   16  C11 UNL     1       1.051  -0.568   0.652  1.00  0.00     0.156 A 
HETATM   17  N10 UNL     1       1.280  -1.781   0.595  1.00  0.00    -0.290 N 
ATOM     18  H10 UNL     1       2.195  -1.973   0.188  1.00  0.00     0.188 HD
ENDROOT
BRANCH   1  19
HETATM   19  C6  UNL     1      -1.241  -0.684   1.536  1.00  0.00     0.209 C 
BRANCH  19  20
HETATM   20  C5  UNL     1      -2.292  -0.756   0.519  1.00  0.00     0.031 A 
HETATM   21  N1  UNL     1      -2.446  -1.791  -0.286  1.00  0.00    -0.368 N 
HETATM   22  C4  UNL     1      -3.361  -1.947  -1.234  1.00  0.00     0.091 A 
ATOM     23  H1  UNL     1      -1.786  -2.559  -0.165  1.00  0.00     0.165 HD
HETATM   24  C3  UNL     1      -4.262  -0.896  -1.398  1.00  0.00     0.053 A 
HETATM   25  C2  UNL     1      -4.190   0.237  -0.608  1.00  0.00     0.071 A 
HETATM   26  C12 UNL     1      -3.204   0.294   0.343  1.00  0.00     0.063 A 
BRANCH  25  27
HETATM   27  O1  UNL     1      -5.108   1.289  -0.788  1.00  0.00    -0.356 OA
HETATM   28  C1  UNL     1      -4.973   2.410   0.054  1.00  0.00     0.210 C 
ENDBRANCH  25  27
ENDBRANCH  19  20
ENDBRANCH   1  19
BRANCH  17  29
HETATM   29  N11 UNL     1       0.648  -2.897   0.924  1.00  0.00    -0.344 N 
ATOM     30 2H11 UNL     1      -0.263  -2.680   1.328  1.00  0.00     0.176 HD
ATOM     31 1H11 UNL     1       0.837  -3.898   0.877  1.00  0.00     0.176 HD
ENDBRANCH  17  29
BRANCH  13  32
HETATM   32  N9  UNL     1       4.521  -2.210  -0.848  1.00  0.00    -0.344 N 
ATOM     33  H92 UNL     1       5.292  -1.620  -1.162  1.00  0.00     0.176 HD
ATOM     34  H91 UNL     1       4.565  -3.228  -0.888  1.00  0.00     0.176 HD
ENDBRANCH  13  32
BRANCH   9  35
HETATM   35  N6  UNL     1       5.212   2.515  -1.036  1.00  0.00    -0.234 N 
ATOM     36  H62 UNL     1       5.117   3.529  -0.974  1.00  0.00     0.174 HD
ATOM     37  H61 UNL     1       6.055   2.073  -1.402  1.00  0.00     0.174 HD
ENDBRANCH   9  35
TORSDOF 6
