REMARK  14 active torsions:
REMARK  status: ('A' for Active; 'I' for Inactive)
REMARK    1  A    between atoms: O1_2  and  C2_3 
REMARK    2  A    between atoms: C3_7  and  C4_8 
REMARK       I    between atoms: C4_8  and  N2_10 
REMARK    3  A    between atoms: N2_10  and  C5_12 
REMARK    4  A    between atoms: C8_18  and  S1_19 
REMARK    5  A    between atoms: C9_23  and  C10_24 
REMARK    6  A    between atoms: C15_29  and  N4_30 
REMARK    7  A    between atoms: N4_30  and  C16_32 
REMARK    8  A    between atoms: C16_32  and  C17_33 
REMARK    9  A    between atoms: C16_32  and  C21_41 
REMARK   10  A    between atoms: C17_33  and  C18_34 
REMARK   11  A    between atoms: C18_34  and  C19_35 
REMARK   12  A    between atoms: C19_35  and  C20_36 
REMARK   13  A    between atoms: C20_36  and  N5_37 
REMARK   14  A    between atoms: C21_41  and  C22_42 
ROOT
HETATM    1  C2  UNL     1       1.120  -2.175   1.900  1.00  0.00     0.192 A 
HETATM    2  N1  UNL     1      -0.028  -1.911   2.611  1.00  0.00    -0.236 N 
ATOM      3  H1  UNL     1      -0.283  -2.346   3.497  1.00  0.00     0.197 HD
HETATM    4  O2  UNL     1      -0.728  -1.035   1.990  1.00  0.00    -0.228 OA
HETATM    5  C3  UNL     1      -0.132  -0.653   0.857  1.00  0.00     0.197 A 
HETATM    6  C15 UNL     1       1.029  -1.368   0.794  1.00  0.00     0.123 A 
ENDROOT
BRANCH   5   7
HETATM    7  C4  UNL     1      -0.749   0.351  -0.012  1.00  0.00     0.284 C 
HETATM    8  O3  UNL     1      -0.057   0.783  -0.960  1.00  0.00    -0.265 OA
HETATM    9  N2  UNL     1      -2.109   0.787   0.239  1.00  0.00    -0.319 N 
ATOM     10  H2  UNL     1      -2.612   0.390   1.033  1.00  0.00     0.169 HD
BRANCH   9  11
HETATM   11  C5  UNL     1      -2.762   1.735  -0.568  1.00  0.00     0.059 A 
HETATM   12  C6  UNL     1      -2.127   2.793  -1.135  1.00  0.00     0.121 A 
HETATM   13  N3  UNL     1      -2.718   3.708  -1.898  1.00  0.00    -0.330 N 
HETATM   14  C7  UNL     1      -4.026   3.561  -2.109  1.00  0.00     0.270 A 
ATOM     15  H3  UNL     1      -2.195   4.485  -2.302  1.00  0.00     0.168 HD
HETATM   16  O4  UNL     1      -4.593   4.430  -2.834  1.00  0.00    -0.266 OA
HETATM   17  C8  UNL     1      -4.815   2.508  -1.581  1.00  0.00     0.157 A 
HETATM   18  C9  UNL     1      -4.192   1.579  -0.801  1.00  0.00     0.004 A 
BRANCH  17  19
HETATM   19  S1  UNL     1      -6.487   2.547  -1.913  1.00  0.00     0.143 S 
HETATM   20  O5  UNL     1      -7.091   1.428  -2.693  1.00  0.00    -0.591 OA
HETATM   21  O6  UNL     1      -6.678   3.706  -2.973  1.00  0.00    -0.591 OA
HETATM   22  O7  UNL     1      -7.465   3.163  -0.682  1.00  0.00    -0.591 OA
ENDBRANCH  17  19
BRANCH  18  23
HETATM   23  C10 UNL     1      -4.760   0.503  -0.095  1.00  0.00     0.023 C 
HETATM   24  C11 UNL     1      -5.183  -0.784  -0.857  1.00  0.00     0.009 C 
HETATM   25  C12 UNL     1      -5.513  -1.619   0.423  1.00  0.00     0.001 C 
HETATM   26  C13 UNL     1      -6.384  -0.707   1.194  1.00  0.00     0.001 C 
HETATM   27  C14 UNL     1      -6.146   0.696   0.557  1.00  0.00     0.009 C 
ENDBRANCH  18  23
ENDBRANCH   9  11
ENDBRANCH   5   7
BRANCH   6  28
HETATM   28  N4  UNL     1       1.891  -1.321  -0.327  1.00  0.00    -0.379 N 
ATOM     29  H4  UNL     1       1.476  -1.651  -1.198  1.00  0.00     0.160 HD
BRANCH  28  30
HETATM   30  C16 UNL     1       3.234  -0.891  -0.437  1.00  0.00     0.082 C 
BRANCH  30  31
HETATM   31  C17 UNL     1       3.388   0.429   0.261  1.00  0.00     0.025 C 
BRANCH  31  32
HETATM   32  C18 UNL     1       4.761   1.021   0.216  1.00  0.00     0.004 C 
BRANCH  32  33
HETATM   33  C19 UNL     1       4.703   2.364   0.936  1.00  0.00     0.027 C 
BRANCH  33  34
HETATM   34  C20 UNL     1       6.044   3.071   0.921  1.00  0.00     0.229 C 
BRANCH  34  35
HETATM   35  N5  UNL     1       5.978   4.368   1.590  1.00  0.00    -0.079 N 
ATOM     36  H53 UNL     1       5.244   4.954   1.193  1.00  0.00     0.274 HD
ATOM     37  H52 UNL     1       5.615   4.279   2.539  1.00  0.00     0.274 HD
ATOM     38  H51 UNL     1       6.880   4.844   1.580  1.00  0.00     0.274 HD
ENDBRANCH  34  35
ENDBRANCH  33  34
ENDBRANCH  32  33
ENDBRANCH  31  32
ENDBRANCH  30  31
BRANCH  30  39
HETATM   39  C21 UNL     1       4.303  -1.880  -0.206  1.00  0.00     0.029 C 
BRANCH  39  40
HETATM   40  C22 UNL     1       4.407  -3.056  -1.093  1.00  0.00    -0.021 C 
HETATM   41  C23 UNL     1       3.212  -3.962  -1.139  1.00  0.00     0.009 C 
HETATM   42  C24 UNL     1       4.763  -2.758  -2.540  1.00  0.00     0.009 C 
ENDBRANCH  39  40
ENDBRANCH  30  39
ENDBRANCH  28  30
ENDBRANCH   6  28
BRANCH   1  43
HETATM   43  O1  UNL     1       2.078  -3.080   2.316  1.00  0.00    -0.338 OA
HETATM   44  C1  UNL     1       1.915  -3.798   3.522  1.00  0.00     0.211 C 
ENDBRANCH   1  43
TORSDOF 14
