REMARK  7 active torsions:
REMARK  status: ('A' for Active; 'I' for Inactive)
REMARK    1  A    between atoms: C2_2  and  C3_3 
REMARK    2  A    between atoms: C3_3  and  C4_4 
REMARK    3  A    between atoms: C5_5  and  N1_6 
REMARK       I    between atoms: N1_6  and  C6_7 
REMARK       I    between atoms: C6_7  and  N2_9 
REMARK    4  A    between atoms: N2_9  and  C7_11 
REMARK    5  A    between atoms: C13_19  and  N4_20 
REMARK    6  A    between atoms: N4_20  and  C14_22 
REMARK    7  A    between atoms: C14_22  and  C15_23 
ROOT
HETATM    1  C4  UNL     1       0.176   0.864  -0.005  1.00  0.00     0.033 A 
HETATM    2  C5  UNL     1       0.835  -0.292   0.350  1.00  0.00     0.193 A 
HETATM    3  N3  UNL     1       0.032  -1.400   0.612  1.00  0.00    -0.340 N 
ATOM      4  H3  UNL     1       0.485  -2.275   0.876  1.00  0.00     0.167 HD
HETATM    5  C11 UNL     1      -1.294  -1.374   0.535  1.00  0.00     0.108 A 
HETATM    6  C12 UNL     1      -1.966  -0.241   0.188  1.00  0.00     0.053 A 
HETATM    7  C13 UNL     1      -3.307   0.053   0.038  1.00  0.00     0.130 A 
HETATM    8  N5  UNL     1      -3.338   1.349  -0.321  1.00  0.00    -0.284 N 
ATOM      9  H5  UNL     1      -4.189   1.878  -0.511  1.00  0.00     0.188 HD
HETATM   10  N6  UNL     1      -2.106   1.845  -0.394  1.00  0.00    -0.298 N 
ATOM     11  H6  UNL     1      -1.870   2.805  -0.647  1.00  0.00     0.187 HD
HETATM   12  C18 UNL     1      -1.216   0.878  -0.081  1.00  0.00     0.074 A 
ENDROOT
BRANCH   2  13
HETATM   13  N1  UNL     1       2.028  -0.439   0.498  1.00  0.00    -0.333 NA
HETATM   14  C6  UNL     1       3.315  -0.171   0.549  1.00  0.00     0.396 C 
HETATM   15  O1  UNL     1       3.782   0.684   1.386  1.00  0.00    -0.230 OA
HETATM   16  N2  UNL     1       4.332  -0.759  -0.271  1.00  0.00    -0.323 N 
ATOM     17  H2  UNL     1       4.034  -1.446  -0.964  1.00  0.00     0.166 HD
BRANCH  16  18
HETATM   18  C7  UNL     1       5.729  -0.464  -0.200  1.00  0.00     0.024 C 
HETATM   19  C8  UNL     1       6.093   0.972  -0.471  1.00  0.00     0.037 C 
HETATM   20  C9  UNL     1       6.489  -1.372  -1.137  1.00  0.00     0.037 C 
HETATM   21  C10 UNL     1       6.243  -0.793   1.214  1.00  0.00     0.037 C 
ENDBRANCH  16  18
ENDBRANCH   2  13
BRANCH   1  22
HETATM   22  C3  UNL     1       0.863   2.121  -0.370  1.00  0.00     0.072 C 
BRANCH  22  23
HETATM   23  C2  UNL     1       1.302   2.161  -1.782  1.00  0.00    -0.032 C 
HETATM   24  C1  UNL     1       2.554   2.405  -2.084  1.00  0.00     0.007 C 
ENDBRANCH  22  23
ENDBRANCH   1  22
BRANCH   7  25
HETATM   25  N4  UNL     1      -4.294  -0.768   0.213  1.00  0.00    -0.374 N 
ATOM     26  H4  UNL     1      -4.120  -1.735   0.488  1.00  0.00     0.161 HD
BRANCH  25  27
HETATM   27  C14 UNL     1      -5.639  -0.296   0.014  1.00  0.00     0.125 C 
BRANCH  27  28
HETATM   28  C15 UNL     1      -6.595  -0.841   1.056  1.00  0.00    -0.005 C 
HETATM   29  C16 UNL     1      -7.984  -0.320   0.804  1.00  0.00     0.011 C 
HETATM   30  C17 UNL     1      -6.529  -2.348   0.989  1.00  0.00     0.011 C 
ENDBRANCH  27  28
ENDBRANCH  25  27
ENDBRANCH   7  25
TORSDOF 7
