REMARK  7 active torsions:
REMARK  status: ('A' for Active; 'I' for Inactive)
REMARK    1  A    between atoms: C2_2  and  C5_5 
REMARK    2  A    between atoms: C5_5  and  N1_6 
REMARK       I    between atoms: N1_6  and  C6_8 
REMARK       I    between atoms: C6_8  and  N2_10 
REMARK    3  A    between atoms: N2_10  and  N3_12 
REMARK       I    between atoms: N3_12  and  C7_14 
REMARK    4  A    between atoms: C7_14  and  C8_16 
REMARK    5  A    between atoms: C8_16  and  N4_17 
REMARK       I    between atoms: N4_17  and  C9_19 
REMARK    6  A    between atoms: C9_19  and  C10_21 
REMARK    7  A    between atoms: C10_21  and  C11_22 
ROOT
HETATM    1  N3  UNL     1       0.488  -0.323   2.225  1.00  0.00    -0.265 N 
ATOM      2  H3  UNL     1      -0.239   0.370   2.048  1.00  0.00     0.190 HD
HETATM    3  C7  UNL     1       0.137  -1.675   2.428  1.00  0.00     0.253 C 
HETATM    4  O2  UNL     1       1.080  -2.503   2.662  1.00  0.00    -0.270 OA
ENDROOT
BRANCH   3   5
HETATM    5  C8  UNL     1      -1.253  -2.137   2.384  1.00  0.00     0.227 C 
BRANCH   5   6
HETATM    6  N4  UNL     1      -2.169  -1.100   2.017  1.00  0.00    -0.352 N 
HETATM    7  C9  UNL     1      -2.146  -0.495   0.727  1.00  0.00     0.218 C 
HETATM    8  O3  UNL     1      -1.292  -0.908  -0.097  1.00  0.00    -0.274 OA
ATOM      9  H4  UNL     1      -2.859  -0.785   2.699  1.00  0.00     0.162 HD
BRANCH   7  10
HETATM   10  C10 UNL     1      -3.131   0.574   0.460  1.00  0.00     0.107 C 
BRANCH  10  11
HETATM   11  C11 UNL     1      -3.193   1.062  -0.956  1.00  0.00    -0.006 C 
HETATM   12  C12 UNL     1      -4.222   2.172  -1.059  1.00  0.00     0.005 C 
HETATM   13  C13 UNL     1      -5.630   1.706  -1.021  1.00  0.00     0.000 C 
HETATM   14  C14 UNL     1      -5.917   0.325  -1.465  1.00  0.00     0.000 C 
HETATM   15  C15 UNL     1      -4.829  -0.674  -1.386  1.00  0.00     0.000 C 
HETATM   16  C16 UNL     1      -3.556  -0.080  -1.867  1.00  0.00     0.005 C 
ENDBRANCH  10  11
ENDBRANCH   7  10
ENDBRANCH   5   6
ENDBRANCH   3   5
BRANCH   1  17
HETATM   17  N2  UNL     1       1.845   0.073   2.267  1.00  0.00    -0.249 N 
HETATM   18  C6  UNL     1       2.723  -0.415   1.232  1.00  0.00     0.338 C 
HETATM   19  N1  UNL     1       4.073  -0.044   1.245  1.00  0.00    -0.321 N 
HETATM   20  O1  UNL     1       2.171  -1.160   0.376  1.00  0.00    -0.245 OA
ATOM     21  H1  UNL     1       4.366   0.561   2.012  1.00  0.00     0.169 HD
ATOM     22  H2  UNL     1       2.192   0.684   3.006  1.00  0.00     0.192 HD
BRANCH  19  23
HETATM   23  C5  UNL     1       5.067  -0.405   0.331  1.00  0.00     0.074 C 
BRANCH  23  24
HETATM   24  C2  UNL     1       4.996   0.007  -1.084  1.00  0.00    -0.019 C 
HETATM   25  C1  UNL     1       4.949   1.527  -1.223  1.00  0.00     0.020 C 
HETATM   26  C3  UNL     1       3.999  -0.622  -1.977  1.00  0.00     0.020 C 
HETATM   27  C4  UNL     1       6.397  -0.366  -1.679  1.00  0.00     0.020 C 
ENDBRANCH  23  24
ENDBRANCH  19  23
ENDBRANCH   1  17
TORSDOF 7
