REMARK  4 active torsions:
REMARK  status: ('A' for Active; 'I' for Inactive)
REMARK       I    between atoms: N1_5  and  C4_6 
REMARK       I    between atoms: C4_6  and  N2_8 
REMARK    1  A    between atoms: N2_8  and  C5_10 
REMARK    2  A    between atoms: C5_10  and  C6_11 
REMARK    3  A    between atoms: C5_10  and  C12_17 
REMARK    4  A    between atoms: C18_27  and  N5_28 
ROOT
HETATM    1  C1  UNL     1       4.999   1.916  -1.599  1.00  0.00     0.041 C 
HETATM    2  C2  UNL     1       3.998   1.028  -0.934  1.00  0.00     0.094 C 
HETATM    3 CL1  UNL     1       3.730  -0.390  -1.987  1.00  0.00    -0.111 Cl
HETATM    4  C3  UNL     1       2.696   1.739  -0.624  1.00  0.00     0.159 C 
HETATM    5  N1  UNL     1       1.755   0.707  -0.227  1.00  0.00    -0.328 N 
HETATM    6  C4  UNL     1       0.480   0.563  -0.828  1.00  0.00     0.319 C 
HETATM    7  O1  UNL     1       0.176   1.369  -1.732  1.00  0.00    -0.247 OA
HETATM    8  N2  UNL     1      -0.450  -0.420  -0.473  1.00  0.00    -0.338 N 
ATOM      9  H2  UNL     1      -0.180  -1.070   0.266  1.00  0.00     0.164 HD
HETATM   10  C15 UNL     1       2.163  -0.194   0.828  1.00  0.00     0.172 C 
HETATM   11  C16 UNL     1       3.576  -0.083   1.196  1.00  0.00     0.031 A 
HETATM   12  C17 UNL     1       4.503   0.505   0.364  1.00  0.00     0.062 A 
HETATM   13  N3  UNL     1       5.682   0.456   0.963  1.00  0.00    -0.301 N 
ATOM     14  H3  UNL     1       6.557   0.817   0.584  1.00  0.00     0.186 HD
HETATM   15  N4  UNL     1       5.538  -0.132   2.123  1.00  0.00    -0.285 N 
ATOM     16  H4  UNL     1       6.296  -0.297   2.785  1.00  0.00     0.188 HD
HETATM   17  C18 UNL     1       4.261  -0.488   2.325  1.00  0.00     0.123 A 
ENDROOT
BRANCH   8  18
HETATM   18  C5  UNL     1      -1.785  -0.601  -1.071  1.00  0.00     0.094 C 
BRANCH  18  19
HETATM   19  C6  UNL     1      -2.761  -0.368  -0.011  1.00  0.00     0.009 C 
HETATM   20  C7  UNL     1      -2.454   1.078   0.456  1.00  0.00     0.007 C 
HETATM   21  C8  UNL     1      -3.491   1.643   1.336  1.00  0.00     0.000 C 
HETATM   22  C9  UNL     1      -4.319   0.544   1.930  1.00  0.00     0.000 C 
HETATM   23  C10 UNL     1      -5.121   0.003   0.759  1.00  0.00     0.000 C 
HETATM   24  C11 UNL     1      -4.214  -0.503  -0.339  1.00  0.00     0.007 C 
ENDBRANCH  18  19
BRANCH  18  25
HETATM   25  C12 UNL     1      -1.698  -1.765  -1.909  1.00  0.00     0.009 A 
HETATM   26  C13 UNL     1      -2.716  -2.434  -2.707  1.00  0.00     0.007 A 
HETATM   27  C14 UNL     1      -2.280  -3.094  -1.447  1.00  0.00     0.007 A 
ENDBRANCH  18  25
ENDBRANCH   8  18
BRANCH  17  28
HETATM   28  N5  UNL     1       3.821  -1.083   3.376  1.00  0.00    -0.384 N 
ATOM     29  H52 UNL     1       2.850  -1.354   3.530  1.00  0.00     0.157 HD
ATOM     30  H51 UNL     1       4.327  -1.382   4.210  1.00  0.00     0.157 HD
ENDBRANCH  17  28
TORSDOF 4
