REMARK  9 active torsions:
REMARK  status: ('A' for Active; 'I' for Inactive)
REMARK    1  A    between atoms: C2_2  and  C3_3 
REMARK    2  A    between atoms: C3_3  and  C4_4 
REMARK    3  A    between atoms: C4_4  and  N1_5 
REMARK       I    between atoms: N1_5  and  C5_7 
REMARK    4  A    between atoms: C5_7  and  C6_9 
REMARK    5  A    between atoms: C16_22  and  C17_23 
REMARK    6  A    between atoms: C19_27  and  O5_28 
REMARK    7  A    between atoms: C20_32  and  C21_33 
REMARK    8  A    between atoms: C21_33  and  C22_34 
REMARK    9  A    between atoms: C22_34  and  C23_35 
ROOT
HETATM    1  C6  UNL     1       1.309  -0.463  -0.972  1.00  0.00     0.194 C 
HETATM    2  C7  UNL     1       0.590  -1.065  -2.120  1.00  0.00     0.003 C 
HETATM    3  C8  UNL     1       0.481  -2.450  -2.473  1.00  0.00    -0.028 C 
HETATM    4  C9  UNL     1      -0.382  -3.440  -1.797  1.00  0.00     0.027 C 
HETATM    5  C10 UNL     1      -1.564  -2.997  -1.035  1.00  0.00     0.004 C 
HETATM    6  C11 UNL     1      -2.841  -2.963  -1.841  1.00  0.00     0.002 C 
HETATM    7  C12 UNL     1      -3.888  -2.085  -1.263  1.00  0.00     0.020 C 
HETATM    8  C13 UNL     1      -3.964  -2.061   0.235  1.00  0.00     0.122 C 
HETATM    9  N2  UNL     1      -4.973  -1.086   0.622  1.00  0.00    -0.361 N 
ATOM     10  H2  UNL     1      -5.772  -1.438   1.150  1.00  0.00     0.162 HD
HETATM   11  C14 UNL     1      -4.958   0.278   0.344  1.00  0.00     0.218 C 
HETATM   12  O2  UNL     1      -6.085   0.798   0.007  1.00  0.00    -0.274 OA
HETATM   13  C15 UNL     1      -3.814   1.200   0.386  1.00  0.00     0.118 C 
HETATM   14  C16 UNL     1      -2.972   1.126   1.636  1.00  0.00     0.103 C 
HETATM   15  C18 UNL     1      -2.447   2.468   1.986  1.00  0.00     0.099 C 
HETATM   16  C19 UNL     1      -1.039   2.792   1.704  1.00  0.00     0.113 C 
HETATM   17  N3  UNL     1      -0.016   2.109   1.066  1.00  0.00    -0.354 N 
ATOM     18  H3  UNL     1       0.838   1.989   1.610  1.00  0.00     0.163 HD
HETATM   19  C20 UNL     1       0.008   1.538  -0.275  1.00  0.00     0.179 C 
HETATM   20  N4  UNL     1       0.251   0.196  -0.178  1.00  0.00    -0.386 N 
ATOM     21  H4  UNL     1      -0.313  -0.366   0.460  1.00  0.00     0.156 HD
ENDROOT
BRANCH   1  22
HETATM   22  C5  UNL     1       1.974  -1.357  -0.006  1.00  0.00     0.247 C 
HETATM   23  N1  UNL     1       2.648  -0.728   1.095  1.00  0.00    -0.339 N 
ATOM     24  H1  UNL     1       2.632   0.292   1.111  1.00  0.00     0.167 HD
HETATM   25  O1  UNL     1       1.981  -2.560  -0.061  1.00  0.00    -0.271 OA
BRANCH  23  26
HETATM   26  C4  UNL     1       3.314  -1.345   2.132  1.00  0.00     0.064 C 
BRANCH  26  27
HETATM   27  C3  UNL     1       4.490  -2.179   1.976  1.00  0.00     0.044 C 
BRANCH  27  28
HETATM   28  C2  UNL     1       5.754  -1.608   1.439  1.00  0.00     0.001 C 
HETATM   29  C1  UNL     1       6.791  -2.750   1.542  1.00  0.00     0.005 C 
ENDBRANCH  27  28
ENDBRANCH  26  27
ENDBRANCH  23  26
ENDBRANCH   1  22
BRANCH  19  30
HETATM   30  C21 UNL     1       1.060   2.260  -1.130  1.00  0.00     0.046 C 
BRANCH  30  31
HETATM   31  C22 UNL     1       0.704   3.734  -1.245  1.00  0.00     0.003 C 
BRANCH  31  32
HETATM   32  C23 UNL     1       1.751   4.413  -2.091  1.00  0.00    -0.004 C 
HETATM   33  C24 UNL     1       1.452   5.902  -2.231  1.00  0.00     0.005 C 
ENDBRANCH  31  32
ENDBRANCH  30  31
ENDBRANCH  19  30
BRANCH  16  34
HETATM   34  O5  UNL     1      -0.735   3.978   2.170  1.00  0.00    -0.349 OA
ATOM     35  H5  UNL     1       0.174   4.187   1.988  1.00  0.00     0.219 HD
ENDBRANCH  16  34
BRANCH  14  36
HETATM   36  C17 UNL     1      -3.852   0.715   2.752  1.00  0.00     0.177 C 
HETATM   37  O3  UNL     1      -5.072   0.944   2.718  1.00  0.00    -0.648 OA
HETATM   38  O4  UNL     1      -3.306   0.069   3.836  1.00  0.00    -0.648 OA
ENDBRANCH  14  36
TORSDOF 9
