REMARK  9 active torsions:
REMARK  status: ('A' for Active; 'I' for Inactive)
REMARK       I    between atoms: C1_4  and  N3_6 
REMARK    1  A    between atoms: N3_6  and  C2_8 
REMARK    2  A    between atoms: C2_8  and  C3_9 
REMARK    3  A    between atoms: C3_9  and  C4_10 
REMARK    4  A    between atoms: C4_10  and  C5_11 
REMARK    5  A    between atoms: C7_14  and  C8_15 
REMARK    6  A    between atoms: C8_15  and  N4_16 
REMARK       I    between atoms: N4_16  and  C9_18 
REMARK    7  A    between atoms: C9_18  and  C10_20 
REMARK    8  A    between atoms: C17_30  and  C18_31 
REMARK    9  A    between atoms: C18_31  and  C19_32 
ROOT
HETATM    1  C5  UNL     1      -1.767   0.703  -1.178  1.00  0.00     0.108 C 
HETATM    2  C6  UNL     1      -0.612   0.972  -0.201  1.00  0.00     0.195 C 
HETATM    3  O1  UNL     1       0.129  -0.173  -0.144  1.00  0.00    -0.356 OA
HETATM    4  C7  UNL     1       0.439  -0.662   1.105  1.00  0.00     0.339 C 
HETATM    5  N5  UNL     1      -0.642  -1.441   1.688  1.00  0.00    -0.034 N 
ATOM      6  H51 UNL     1      -1.258  -0.867   2.264  1.00  0.00     0.281 HD
ATOM      7  H52 UNL     1      -0.307  -2.076   2.413  1.00  0.00     0.281 HD
HETATM    8  C17 UNL     1      -1.381  -2.153   0.630  1.00  0.00     0.280 C 
HETATM    9  C25 UNL     1      -2.546  -1.277   0.384  1.00  0.00     0.249 C 
HETATM   10  O3  UNL     1      -3.576  -1.435   1.066  1.00  0.00    -0.271 OA
HETATM   11  N6  UNL     1      -2.740  -0.196  -0.551  1.00  0.00    -0.353 N 
ATOM     12  H6  UNL     1      -3.710  -0.031  -0.819  1.00  0.00     0.163 HD
ENDROOT
BRANCH   4  13
HETATM   13  C8  UNL     1       1.692  -1.482   0.939  1.00  0.00     0.184 C 
BRANCH  13  14
HETATM   14  N4  UNL     1       2.735  -0.658   0.423  1.00  0.00    -0.357 N 
HETATM   15  C9  UNL     1       3.263   0.458   1.086  1.00  0.00     0.221 C 
HETATM   16  O2  UNL     1       2.887   0.865   2.213  1.00  0.00    -0.273 OA
ATOM     17  H4  UNL     1       3.123  -0.897  -0.490  1.00  0.00     0.162 HD
BRANCH  15  18
HETATM   18  C10 UNL     1       4.367   1.259   0.430  1.00  0.00     0.078 C 
HETATM   19  C11 UNL     1       5.456   0.258   0.107  1.00  0.00     0.014 C 
HETATM   20  C12 UNL     1       6.823   0.853   0.014  1.00  0.00     0.001 C 
HETATM   21  C13 UNL     1       6.811   2.092  -0.851  1.00  0.00     0.000 C 
HETATM   22  C14 UNL     1       6.797   3.295   0.099  1.00  0.00     0.000 C 
HETATM   23  C15 UNL     1       5.334   3.523   0.487  1.00  0.00     0.001 C 
HETATM   24  C16 UNL     1       4.853   2.368   1.310  1.00  0.00     0.014 C 
ENDBRANCH  15  18
ENDBRANCH  13  14
ENDBRANCH   4  13
BRANCH   8  25
HETATM   25  C18 UNL     1      -1.707  -3.503   1.123  1.00  0.00     0.047 C 
BRANCH  25  26
HETATM   26  C19 UNL     1      -2.399  -4.455   0.238  1.00  0.00    -0.012 C 
HETATM   27  C20 UNL     1      -1.635  -4.757  -1.043  1.00  0.00     0.005 C 
HETATM   28  C21 UNL     1      -2.590  -5.400  -2.034  1.00  0.00     0.000 C 
HETATM   29  C22 UNL     1      -3.396  -6.425  -1.265  1.00  0.00     0.000 C 
HETATM   30  C23 UNL     1      -4.410  -5.680  -0.428  1.00  0.00     0.000 C 
HETATM   31  C24 UNL     1      -3.870  -4.305   0.017  1.00  0.00     0.005 C 
ENDBRANCH  25  26
ENDBRANCH   8  25
BRANCH   1  32
HETATM   32  C4  UNL     1      -2.440   1.940  -1.651  1.00  0.00     0.029 C 
BRANCH  32  33
HETATM   33  C3  UNL     1      -3.059   2.785  -0.566  1.00  0.00     0.022 C 
BRANCH  33  34
HETATM   34  C2  UNL     1      -3.690   3.985  -1.280  1.00  0.00     0.122 C 
BRANCH  34  35
HETATM   35  N3  UNL     1      -4.322   4.889  -0.345  1.00  0.00    -0.365 N 
HETATM   36  C1  UNL     1      -3.586   5.664   0.580  1.00  0.00     0.181 C 
HETATM   37  N1  UNL     1      -2.310   5.786   0.480  1.00  0.00    -0.374 N 
HETATM   38  N2  UNL     1      -4.253   6.321   1.634  1.00  0.00    -0.064 NA
ATOM     39  H12 UNL     1      -1.779   6.345   1.147  1.00  0.00     0.158 HD
ATOM     40  H11 UNL     1      -1.827   5.311  -0.283  1.00  0.00     0.158 HD
ATOM     41  H3  UNL     1      -5.339   4.971  -0.353  1.00  0.00     0.162 HD
ENDBRANCH  34  35
ENDBRANCH  33  34
ENDBRANCH  32  33
ENDBRANCH   1  32
TORSDOF 9
