REMARK  8 active torsions:
REMARK  status: ('A' for Active; 'I' for Inactive)
REMARK    1  A    between atoms: C2_2  and  N1_4 
REMARK    2  A    between atoms: N1_4  and  C4_6 
REMARK    3  A    between atoms: C4_6  and  C5_7 
REMARK    4  A    between atoms: C4_6  and  N6_17 
REMARK    5  A    between atoms: C5_7  and  N2_8 
REMARK    6  A    between atoms: N2_8  and  C6_10 
REMARK    7  A    between atoms: C6_10  and  N3_12 
REMARK       I    between atoms: N6_17  and  C8_19 
REMARK    8  A    between atoms: C8_19  and  C9_21 
ROOT
HETATM    1  C4  UNL     1       1.094   1.244   0.368  1.00  0.00     0.197 C 
ENDROOT
BRANCH   1   2
HETATM    2  N1  UNL     1       1.223   2.272  -0.551  1.00  0.00    -0.397 N 
ATOM      3  H1  UNL     1       0.542   2.289  -1.310  1.00  0.00     0.155 HD
BRANCH   2   4
HETATM    4  C2  UNL     1       2.171   3.276  -0.553  1.00  0.00     0.070 C 
HETATM    5  C1  UNL     1       3.589   2.851  -0.756  1.00  0.00     0.031 C 
HETATM    6  C3  UNL     1       2.139   4.058   0.763  1.00  0.00     0.031 C 
ENDBRANCH   2   4
ENDBRANCH   1   2
BRANCH   1   7
HETATM    7  C5  UNL     1       2.184   0.221   0.345  1.00  0.00     0.168 C 
BRANCH   7   8
HETATM    8  N2  UNL     1       2.260  -0.442  -0.954  1.00  0.00    -0.363 N 
ATOM      9  H2  UNL     1       1.621  -0.182  -1.705  1.00  0.00     0.162 HD
BRANCH   8  10
HETATM   10  C6  UNL     1       3.232  -1.449  -1.155  1.00  0.00     0.173 C 
HETATM   11  S1  UNL     1       3.336  -2.206  -2.620  1.00  0.00    -0.041 SA
BRANCH  10  12
HETATM   12  N3  UNL     1       4.133  -1.820  -0.102  1.00  0.00    -0.310 N 
HETATM   13  C7  UNL     1       5.394  -1.958  -0.403  1.00  0.00     0.203 C 
HETATM   14  N4  UNL     1       6.357  -2.324   0.574  1.00  0.00    -0.066 NA
HETATM   15  N5  UNL     1       5.890  -1.752  -1.727  1.00  0.00    -0.066 NA
ATOM     16  H3  UNL     1       3.798  -1.971   0.850  1.00  0.00     0.170 HD
ENDBRANCH  10  12
ENDBRANCH   8  10
ENDBRANCH   7   8
ENDBRANCH   1   7
BRANCH   1  17
HETATM   17  N6  UNL     1      -0.199   0.521   0.209  1.00  0.00    -0.338 N 
HETATM   18  C8  UNL     1      -1.184   0.473   1.194  1.00  0.00     0.224 C 
HETATM   19  O1  UNL     1      -0.875   1.117   2.276  1.00  0.00    -0.273 OA
ATOM     20  H6  UNL     1      -0.373   0.034  -0.670  1.00  0.00     0.164 HD
BRANCH  18  21
HETATM   21  C9  UNL     1      -2.478  -0.177   1.185  1.00  0.00     0.086 C 
HETATM   22  C10 UNL     1      -2.511  -1.644   0.884  1.00  0.00    -0.001 C 
HETATM   23  C11 UNL     1      -2.486  -2.011  -0.562  1.00  0.00     0.010 C 
HETATM   24  C15 UNL     1      -3.904  -2.113   1.375  1.00  0.00     0.010 C 
HETATM   25  C12 UNL     1      -3.561  -1.278  -1.315  1.00  0.00    -0.013 C 
HETATM   26  C13 UNL     1      -4.945  -1.657  -0.822  1.00  0.00     0.009 C 
HETATM   27  C18 UNL     1      -3.396   0.197  -1.095  1.00  0.00     0.010 C 
HETATM   28  C14 UNL     1      -5.001  -1.368   0.645  1.00  0.00    -0.013 C 
HETATM   29  C16 UNL     1      -4.864   0.105   0.868  1.00  0.00     0.010 C 
HETATM   30  C17 UNL     1      -3.490   0.544   0.357  1.00  0.00    -0.001 C 
ENDBRANCH  18  21
ENDBRANCH   1  17
TORSDOF 8
