REMARK  5 active torsions:
REMARK  status: ('A' for Active; 'I' for Inactive)
REMARK       I    between atoms: N1_2  and  C2_4 
REMARK       I    between atoms: C2_4  and  N7_24 
REMARK       I    between atoms: N2_5  and  C3_7 
REMARK    1  A    between atoms: C3_7  and  C4_9 
REMARK    2  A    between atoms: C4_9  and  C5_10 
REMARK    3  A    between atoms: C4_9  and  N4_17 
REMARK    4  A    between atoms: C5_10  and  N3_11 
REMARK       I    between atoms: N4_17  and  C11_19 
REMARK    5  A    between atoms: N7_24  and  C12_26 
ROOT
HETATM    1  C1  UNL     1       1.712  -3.596  -0.763  1.00  0.00     0.165 C 
HETATM    2  N1  UNL     1       1.227  -2.575   0.167  1.00  0.00    -0.231 N 
ATOM      3  H1  UNL     1       1.246  -2.740   1.173  1.00  0.00     0.177 HD
HETATM    4  C2  UNL     1       0.730  -1.350  -0.354  1.00  0.00     0.676 C 
HETATM    5  N2  UNL     1      -0.504  -0.993  -0.078  1.00  0.00    -0.158 N 
ATOM      6  H2  UNL     1      -1.118  -1.566   0.501  1.00  0.00     0.187 HD
HETATM    7  C3  UNL     1      -0.928   0.239  -0.635  1.00  0.00     0.260 C 
HETATM    8  O1  UNL     1      -0.124   1.199  -0.623  1.00  0.00    -0.270 OA
HETATM    9  N7  UNL     1       1.604  -0.581  -1.145  1.00  0.00    -0.222 N 
ATOM     10  H7  UNL     1       1.272  -0.172  -2.019  1.00  0.00     0.178 HD
ENDROOT
BRANCH   7  11
HETATM   11  C4  UNL     1      -2.264   0.394  -1.215  1.00  0.00     0.203 C 
BRANCH  11  12
HETATM   12  C5  UNL     1      -3.282   0.935  -0.255  1.00  0.00     0.271 C 
BRANCH  12  13
HETATM   13  N3  UNL     1      -3.579   0.244   0.923  1.00  0.00    -0.069 N 
HETATM   14  C6  UNL     1      -2.796   0.661   2.101  1.00  0.00     0.272 C 
HETATM   15  C7  UNL     1      -3.656  -1.170   0.856  1.00  0.00     0.237 C 
HETATM   16  C8  UNL     1      -5.074  -1.594   1.260  1.00  0.00     0.029 C 
HETATM   17  C9  UNL     1      -5.446  -0.435   2.161  1.00  0.00     0.029 C 
HETATM   18  C10 UNL     1      -4.940   0.708   1.304  1.00  0.00     0.237 C 
ENDBRANCH  12  13
ENDBRANCH  11  12
BRANCH  11  19
HETATM   19  N4  UNL     1      -2.123   1.509  -2.193  1.00  0.00    -0.350 N 
HETATM   20  C11 UNL     1      -3.286   1.847  -2.928  1.00  0.00     0.182 C 
HETATM   21  N5  UNL     1      -3.993   0.915  -3.456  1.00  0.00    -0.374 N 
HETATM   22  N6  UNL     1      -3.643   3.217  -3.077  1.00  0.00    -0.064 NA
ATOM     23  H52 UNL     1      -3.737  -0.067  -3.349  1.00  0.00     0.158 HD
ATOM     24  H51 UNL     1      -4.830   1.158  -3.985  1.00  0.00     0.158 HD
ATOM     25  H4  UNL     1      -1.239   2.001  -2.326  1.00  0.00     0.163 HD
ENDBRANCH  11  19
ENDBRANCH   7  11
BRANCH   9  26
HETATM   26  C12 UNL     1       2.961  -0.370  -0.726  1.00  0.00     0.099 C 
HETATM   27  C13 UNL     1       3.677   0.590  -1.647  1.00  0.00     0.026 C 
HETATM   28  C14 UNL     1       4.728   1.407  -0.970  1.00  0.00     0.002 C 
HETATM   29  C15 UNL     1       5.678   0.576  -0.146  1.00  0.00     0.000 C 
HETATM   30  C16 UNL     1       5.610   0.909   1.324  1.00  0.00     0.000 C 
HETATM   31  C17 UNL     1       5.033  -0.196   2.158  1.00  0.00     0.000 C 
HETATM   32  C18 UNL     1       3.902  -0.934   1.523  1.00  0.00     0.002 C 
HETATM   33  C19 UNL     1       3.006  -0.012   0.719  1.00  0.00     0.026 C 
ENDBRANCH   9  26
TORSDOF 5
