REMARK  7 active torsions:
REMARK  status: ('A' for Active; 'I' for Inactive)
REMARK    1  A    between atoms: N2_4  and  N3_6 
REMARK    2  A    between atoms: N3_6  and  C1_8 
REMARK    3  A    between atoms: C4_11  and  C5_12 
REMARK    4  A    between atoms: C6_15  and  C7_16 
REMARK    5  A    between atoms: C7_16  and  C8_17 
REMARK    6  A    between atoms: C7_16  and  C21_30 
REMARK    7  A    between atoms: C21_30  and  O3_31 
ROOT
HETATM    1  C7  UNL     1      -1.216   1.090   0.862  1.00  0.00     0.039 C 
ENDROOT
BRANCH   1   2
HETATM    2  C6  UNL     1      -2.432   0.329   0.521  1.00  0.00     0.034 C 
HETATM    3  C1  UNL     1      -3.270   0.692  -0.617  1.00  0.00     0.106 C 
HETATM    4  C2  UNL     1      -4.181  -0.528  -0.817  1.00  0.00     0.028 C 
HETATM    5  C3  UNL     1      -3.798  -1.499   0.321  1.00  0.00     0.018 C 
HETATM    6  C4  UNL     1      -2.263  -1.169   0.417  1.00  0.00     0.093 C 
BRANCH   3   7
HETATM    7  N3  UNL     1      -4.202   1.795  -0.426  1.00  0.00    -0.317 N 
ATOM      8  H3  UNL     1      -4.119   2.635  -0.999  1.00  0.00     0.182 HD
BRANCH   7   9
HETATM    9  N2  UNL     1      -5.206   1.709   0.535  1.00  0.00    -0.253 N 
HETATM   10  N1  UNL     1      -5.690   2.741   1.107  1.00  0.00    -0.331 N 
ATOM     11  H12 UNL     1      -5.318   3.652   0.840  1.00  0.00     0.178 HD
ATOM     12  H11 UNL     1      -6.425   2.678   1.811  1.00  0.00     0.178 HD
ATOM     13  H2  UNL     1      -5.567   0.790   0.790  1.00  0.00     0.207 HD
ENDBRANCH   7   9
ENDBRANCH   3   7
BRANCH   6  14
HETATM   14  C5  UNL     1      -1.749  -1.685  -0.854  1.00  0.00     0.177 C 
HETATM   15  O1  UNL     1      -1.337  -1.057  -1.846  1.00  0.00    -0.648 OA
HETATM   16  O2  UNL     1      -1.703  -3.097  -1.013  1.00  0.00    -0.648 OA
ENDBRANCH   6  14
ENDBRANCH   1   2
BRANCH   1  17
HETATM   17  C8  UNL     1      -0.139   1.188  -0.104  1.00  0.00    -0.016 C 
HETATM   18  C9  UNL     1       1.097   0.740   0.007  1.00  0.00    -0.078 C 
HETATM   19  C10 UNL     1       1.669   0.024   1.171  1.00  0.00     0.039 C 
HETATM   20  C17 UNL     1       2.058   0.978  -1.103  1.00  0.00     0.019 C 
HETATM   21  C11 UNL     1       3.140   0.191   1.306  1.00  0.00    -0.002 C 
HETATM   22  C12 UNL     1       4.045  -0.873   0.781  1.00  0.00    -0.005 C 
HETATM   23  C19 UNL     1       3.816   1.152   0.417  1.00  0.00    -0.004 C 
HETATM   24  C13 UNL     1       3.543  -2.239   0.577  1.00  0.00     0.005 C 
HETATM   25  C20 UNL     1       4.177  -0.049  -0.470  1.00  0.00    -0.001 C 
HETATM   26  C14 UNL     1       3.247  -2.574  -0.873  1.00  0.00     0.001 C 
HETATM   27  C15 UNL     1       2.422  -1.493  -1.535  1.00  0.00     0.005 C 
HETATM   28  C16 UNL     1       3.001  -0.137  -1.394  1.00  0.00    -0.002 C 
HETATM   29  C18 UNL     1       3.032   2.006  -0.480  1.00  0.00     0.014 C 
ENDBRANCH   1  17
BRANCH   1  30
HETATM   30  C21 UNL     1      -1.656   2.479   1.367  1.00  0.00     0.173 C 
BRANCH  30  31
HETATM   31  O3  UNL     1      -2.452   2.382   2.502  1.00  0.00    -0.400 OA
ATOM     32  H3  UNL     1      -2.723   3.238   2.813  1.00  0.00     0.209 HD
ENDBRANCH  30  31
ENDBRANCH   1  30
TORSDOF 7
