REMARK  4 active torsions:
REMARK  status: ('A' for Active; 'I' for Inactive)
REMARK    1  A    between atoms: C5_5  and  N1_6 
REMARK       I    between atoms: N1_6  and  C6_8 
REMARK    2  A    between atoms: N3_10  and  C7_12 
REMARK    3  A    between atoms: C7_12  and  C8_13 
REMARK    4  A    between atoms: C17_22  and  N4_23 
ROOT
HETATM    1  C1  UNL     1      -2.978  -2.597  -0.812  1.00  0.00     0.015 C 
HETATM    2  C2  UNL     1      -2.101  -1.630  -0.989  1.00  0.00    -0.084 C 
HETATM    3  C3  UNL     1      -0.848  -2.100  -1.649  1.00  0.00     0.039 C 
HETATM    4  C4  UNL     1       0.343  -1.208  -1.414  1.00  0.00     0.058 C 
HETATM    5  C5  UNL     1       0.249  -0.497  -0.077  1.00  0.00     0.003 C 
HETATM    6  C10 UNL     1      -0.512   0.777  -0.126  1.00  0.00     0.028 C 
HETATM    7  C11 UNL     1      -1.359   0.891   1.130  1.00  0.00     0.030 C 
HETATM    8  C12 UNL     1      -2.579  -0.026   0.920  1.00  0.00    -0.038 C 
HETATM    9  C13 UNL     1      -2.645  -1.148   1.883  1.00  0.00     0.015 C 
HETATM   10  C14 UNL     1      -3.842   0.832   1.249  1.00  0.00     0.015 C 
HETATM   11  C15 UNL     1      -2.561  -0.300  -0.522  1.00  0.00     0.029 C 
HETATM   12  C16 UNL     1      -1.636   0.689  -1.178  1.00  0.00     0.047 C 
HETATM   13  C17 UNL     1      -2.069   2.099  -1.209  1.00  0.00     0.212 C 
HETATM   14  C18 UNL     1      -0.726   2.787  -1.165  1.00  0.00     0.009 C 
HETATM   15  C19 UNL     1       0.162   1.989  -0.528  1.00  0.00    -0.071 C 
HETATM   16  C20 UNL     1       1.583   2.463  -0.369  1.00  0.00     0.044 C 
ENDROOT
BRANCH   5  17
HETATM   17  N1  UNL     1       1.455  -0.500   0.683  1.00  0.00    -0.337 N 
HETATM   18  C6  UNL     1       2.081  -1.724   0.986  1.00  0.00     0.188 C 
HETATM   19  N2  UNL     1       1.392  -2.693   1.736  1.00  0.00    -0.064 NA
HETATM   20  N3  UNL     1       3.267  -1.946   0.579  1.00  0.00    -0.364 N 
ATOM     21  H3  UNL     1       3.700  -2.840   0.811  1.00  0.00     0.162 HD
ATOM     22  H1  UNL     1       1.861   0.378   1.005  1.00  0.00     0.168 HD
BRANCH  20  23
HETATM   23  C7  UNL     1       4.028  -0.997  -0.193  1.00  0.00     0.122 C 
BRANCH  23  24
HETATM   24  C8  UNL     1       4.859  -0.137   0.757  1.00  0.00     0.015 C 
HETATM   25  C9  UNL     1       5.635   0.838  -0.107  1.00  0.00     0.006 C 
ENDBRANCH  23  24
ENDBRANCH  20  23
ENDBRANCH   5  17
BRANCH  13  26
HETATM   26  N4  UNL     1      -2.769   2.431  -2.443  1.00  0.00    -0.071 N 
ATOM     27  H43 UNL     1      -2.205   2.200  -3.261  1.00  0.00     0.275 HD
ATOM     28  H42 UNL     1      -3.554   1.800  -2.604  1.00  0.00     0.275 HD
ATOM     29  H41 UNL     1      -3.068   3.406  -2.464  1.00  0.00     0.275 HD
ENDBRANCH  13  26
TORSDOF 4
