REMARK  2 active torsions:
REMARK  status: ('A' for Active; 'I' for Inactive)
REMARK    1  A    between atoms: C5_5  and  N1_6 
REMARK       I    between atoms: N1_6  and  C6_8 
REMARK       I    between atoms: N3_10  and  C7_12 
REMARK       I    between atoms: C7_12  and  N4_14 
REMARK    2  A    between atoms: N4_14  and  C8_16 
ROOT
HETATM    1  N1  UNL     1      -0.554  -0.664   1.113  1.00  0.00    -0.360 N 
ATOM      2  H1  UNL     1      -0.606  -1.047   2.057  1.00  0.00     0.162 HD
HETATM    3  C6  UNL     1       0.647  -0.083   0.662  1.00  0.00     0.192 C 
HETATM    4  N2  UNL     1       0.859   1.300   0.888  1.00  0.00    -0.063 NA
HETATM    5  N3  UNL     1       1.548  -0.764   0.057  1.00  0.00    -0.283 N 
ATOM      6  H3  UNL     1       1.410  -1.760  -0.114  1.00  0.00     0.173 HD
HETATM    7  C7  UNL     1       2.734  -0.126  -0.372  1.00  0.00     0.323 C 
HETATM    8  O1  UNL     1       2.743   0.425  -1.500  1.00  0.00    -0.247 OA
HETATM    9  N4  UNL     1       3.917  -0.078   0.411  1.00  0.00    -0.335 N 
ATOM     10  H4  UNL     1       3.922  -0.522   1.329  1.00  0.00     0.164 HD
ENDROOT
BRANCH   1  11
HETATM   11  C5  UNL     1      -1.715  -0.724   0.251  1.00  0.00     0.088 C 
HETATM   12  C4  UNL     1      -2.180   0.651  -0.184  1.00  0.00     0.055 C 
HETATM   13  C2  UNL     1      -3.257   0.478  -1.197  1.00  0.00     0.021 C 
HETATM   14  C1  UNL     1      -2.649   0.824  -2.565  1.00  0.00     0.037 C 
HETATM   15  C3  UNL     1      -4.339   1.540  -0.968  1.00  0.00     0.037 C 
HETATM   16  N5  UNL     1      -3.832  -0.801  -1.290  1.00  0.00    -0.405 N 
HETATM   17  C14 UNL     1      -3.993  -1.548  -0.099  1.00  0.00     0.021 C 
ATOM     18  H5  UNL     1      -4.125  -1.180  -2.190  1.00  0.00     0.154 HD
HETATM   19  C13 UNL     1      -2.888  -1.387   0.908  1.00  0.00     0.055 C 
HETATM   20  C15 UNL     1      -4.030  -3.029  -0.476  1.00  0.00     0.037 C 
HETATM   21  C16 UNL     1      -5.344  -1.226   0.507  1.00  0.00     0.037 C 
ENDBRANCH   1  11
BRANCH   9  22
HETATM   22  C8  UNL     1       5.106   0.578  -0.054  1.00  0.00     0.128 C 
HETATM   23  C9  UNL     1       5.562   1.647   0.932  1.00  0.00     0.036 C 
HETATM   24  C10 UNL     1       6.971   1.924   0.491  1.00  0.00     0.083 C 
HETATM   25  C11 UNL     1       7.470   0.568   0.123  1.00  0.00     0.162 C 
HETATM   26  O2  UNL     1       8.654   0.316   0.010  1.00  0.00    -0.295 OA
HETATM   27  C12 UNL     1       6.311  -0.347  -0.065  1.00  0.00     0.262 C 
HETATM   28  F1  UNL     1       6.195  -1.175   1.019  1.00  0.00    -0.239 F 
ENDBRANCH   9  22
TORSDOF 2
