REMARK  4 active torsions:
REMARK  status: ('A' for Active; 'I' for Inactive)
REMARK    1  A    between atoms: N1_2  and  N2_5 
REMARK       I    between atoms: N2_5  and  C3_7 
REMARK       I    between atoms: C3_7  and  N5_17 
REMARK       I    between atoms: N3_8  and  C4_10 
REMARK       I    between atoms: C4_10  and  N4_12 
REMARK    2  A    between atoms: N4_12  and  C5_14 
REMARK    3  A    between atoms: C5_14  and  C6_15 
REMARK       I    between atoms: N5_17  and  C7_19 
REMARK       I    between atoms: C7_19  and  N7_23 
REMARK    4  A    between atoms: N7_23  and  C8_25 
ROOT
HETATM    1  N2  UNL     1      -1.521  -1.677   0.748  1.00  0.00     0.004 N 
ATOM      2  H2  UNL     1      -0.568  -1.632   1.107  1.00  0.00     0.222 HD
HETATM    3  C3  UNL     1      -2.094  -0.558   0.098  1.00  0.00     0.727 C 
HETATM    4  N3  UNL     1      -3.362  -0.439  -0.061  1.00  0.00    -0.139 N 
ATOM      5  H3  UNL     1      -3.971  -1.176   0.294  1.00  0.00     0.189 HD
HETATM    6  C4  UNL     1      -3.947   0.672  -0.708  1.00  0.00     0.334 C 
HETATM    7  O2  UNL     1      -3.780   0.802  -1.942  1.00  0.00    -0.247 OA
HETATM    8  N4  UNL     1      -4.699   1.608   0.025  1.00  0.00    -0.341 N 
ATOM      9  H4  UNL     1      -4.796   1.439   1.026  1.00  0.00     0.164 HD
HETATM   10  N5  UNL     1      -1.258   0.472  -0.399  1.00  0.00    -0.021 N 
ATOM     11  H5  UNL     1      -1.370   1.442  -0.104  1.00  0.00     0.203 HD
HETATM   12  C7  UNL     1      -0.255   0.086  -1.329  1.00  0.00     0.686 C 
HETATM   13  N6  UNL     1      -0.279   0.595  -2.504  1.00  0.00    -0.234 N 
ATOM     14  H61 UNL     1       0.441   0.318  -3.171  1.00  0.00     0.174 HD
ATOM     15  H62 UNL     1      -1.007   1.265  -2.753  1.00  0.00     0.174 HD
HETATM   16  N7  UNL     1       0.752  -0.840  -0.985  1.00  0.00    -0.217 N 
ATOM     17  H7  UNL     1       0.582  -1.842  -1.069  1.00  0.00     0.178 HD
ENDROOT
BRANCH   1  18
HETATM   18  N1  UNL     1      -2.270  -2.836   0.891  1.00  0.00     0.115 N 
HETATM   19  C1  UNL     1      -1.484  -3.867   1.502  1.00  0.00     0.389 C 
HETATM   20  C2  UNL     1      -3.396  -2.529   1.745  1.00  0.00     0.389 C 
HETATM   21  O1  UNL     1      -2.685  -3.255  -0.333  1.00  0.00    -0.043 OA
ENDBRANCH   1  18
BRANCH  16  22
HETATM   22  C8  UNL     1       2.025  -0.353  -0.513  1.00  0.00     0.048 C 
HETATM   23  C9  UNL     1       1.776   0.450   0.741  1.00  0.00     0.036 C 
HETATM   24  C10 UNL     1       3.098   1.038   1.192  1.00  0.00    -0.012 C 
HETATM   25  C11 UNL     1       3.701   1.917   0.126  1.00  0.00     0.009 C 
HETATM   26  C15 UNL     1       4.035  -0.096   1.517  1.00  0.00     0.009 C 
HETATM   27  C12 UNL     1       3.951   1.078  -1.107  1.00  0.00    -0.012 C 
HETATM   28  C13 UNL     1       4.899  -0.031  -0.764  1.00  0.00     0.009 C 
HETATM   29  C17 UNL     1       2.592   0.573  -1.568  1.00  0.00     0.036 C 
HETATM   30  C14 UNL     1       4.262  -0.936   0.287  1.00  0.00    -0.012 C 
HETATM   31  C16 UNL     1       3.002  -1.491  -0.285  1.00  0.00     0.036 C 
ENDBRANCH  16  22
BRANCH   8  32
HETATM   32  C5  UNL     1      -5.341   2.774  -0.500  1.00  0.00     0.139 C 
BRANCH  32  33
HETATM   33  C6  UNL     1      -4.290   3.680  -1.104  1.00  0.00     0.134 C 
HETATM   34 CL1  UNL     1      -3.134   4.126   0.165  1.00  0.00    -0.129 Cl
ENDBRANCH  32  33
ENDBRANCH   8  32
TORSDOF 4
