REMARK  4 active torsions:
REMARK  status: ('A' for Active; 'I' for Inactive)
REMARK    1  A    between atoms: C2_2  and  N1_4 
REMARK       I    between atoms: N1_4  and  C4_6 
REMARK       I    between atoms: C4_6  and  N3_13 
REMARK    2  A    between atoms: N2_7  and  C5_9 
REMARK    3  A    between atoms: C5_9  and  C6_10 
REMARK    4  A    between atoms: N3_13  and  C9_15 
ROOT
HETATM    1  C9  UNL     1      -0.199  -0.398  -0.081  1.00  0.00     0.143 A 
HETATM    2  N4  UNL     1      -0.492  -1.503  -0.768  1.00  0.00    -0.284 N 
ATOM      3  H4  UNL     1       0.184  -2.075  -1.274  1.00  0.00     0.188 HD
HETATM    4  N5  UNL     1      -1.773  -1.742  -0.695  1.00  0.00    -0.302 N 
ATOM      5  H5  UNL     1      -2.239  -2.533  -1.140  1.00  0.00     0.186 HD
HETATM    6  C10 UNL     1      -2.407  -0.794   0.055  1.00  0.00     0.044 A 
HETATM    7  C11 UNL     1      -1.397   0.055   0.440  1.00  0.00     0.013 A 
HETATM    8  C12 UNL     1      -1.741   1.247   1.297  1.00  0.00     0.053 C 
HETATM    9  C13 UNL     1      -3.060   1.759   0.699  1.00  0.00    -0.043 C 
HETATM   10  C14 UNL     1      -2.863   2.139  -0.733  1.00  0.00     0.015 C 
HETATM   11  C15 UNL     1      -3.492   3.023   1.442  1.00  0.00     0.015 C 
HETATM   12  C16 UNL     1      -4.129   0.730   0.922  1.00  0.00     0.024 C 
HETATM   13  C17 UNL     1      -3.831  -0.634   0.425  1.00  0.00    -0.002 C 
HETATM   14  C18 UNL     1      -4.720  -1.075  -0.711  1.00  0.00     0.021 C 
HETATM   15  C19 UNL     1      -4.076  -1.653   1.548  1.00  0.00     0.021 C 
ENDROOT
BRANCH   1  16
HETATM   16  N3  UNL     1       0.920   0.208   0.121  1.00  0.00    -0.175 N 
HETATM   17  C4  UNL     1       2.162  -0.212  -0.387  1.00  0.00     0.675 C 
HETATM   18  N1  UNL     1       2.617  -1.550  -0.396  1.00  0.00    -0.222 N 
HETATM   19  N2  UNL     1       2.939   0.720  -0.883  1.00  0.00    -0.226 N 
ATOM     20  H1  UNL     1       2.914  -1.947  -1.287  1.00  0.00     0.178 HD
ATOM     21  H2  UNL     1       2.627   1.691  -0.885  1.00  0.00     0.177 HD
ATOM     22  H3  UNL     1       0.904   1.054   0.691  1.00  0.00     0.186 HD
BRANCH  18  23
HETATM   23  C2  UNL     1       2.688  -2.387   0.771  1.00  0.00     0.091 C 
HETATM   24  C1  UNL     1       3.627  -1.720   1.770  1.00  0.00     0.032 C 
HETATM   25  C3  UNL     1       3.307  -3.715   0.415  1.00  0.00     0.032 C 
ENDBRANCH  18  23
BRANCH  19  26
HETATM   26  C5  UNL     1       4.245   0.378  -1.432  1.00  0.00     0.142 C 
BRANCH  26  27
HETATM   27  C6  UNL     1       4.795   1.606  -2.115  1.00  0.00     0.004 A 
HETATM   28  C7  UNL     1       5.012   2.838  -1.325  1.00  0.00     0.007 A 
HETATM   29  C8  UNL     1       3.944   2.790  -2.361  1.00  0.00     0.007 A 
ENDBRANCH  26  27
ENDBRANCH  19  26
ENDBRANCH   1  16
TORSDOF 4
