REMARK  7 active torsions:
REMARK  status: ('A' for Active; 'I' for Inactive)
REMARK    1  A    between atoms: C2_2  and  C3_3 
REMARK    2  A    between atoms: C2_2  and  C9_12 
REMARK    3  A    between atoms: C3_3  and  C4_4 
REMARK    4  A    between atoms: C4_4  and  N1_6 
REMARK    5  A    between atoms: N1_6  and  C5_8 
REMARK    6  A    between atoms: C11_14  and  N2_15 
REMARK       I    between atoms: N2_15  and  C12_17 
REMARK       I    between atoms: C12_17  and  N3_19 
REMARK    7  A    between atoms: N3_19  and  C13_21 
ROOT
HETATM    1  C9  UNL     1      -0.118   0.092  -0.183  1.00  0.00     0.033 A 
HETATM    2  C10 UNL     1       0.755   0.329  -1.244  1.00  0.00     0.076 A 
HETATM    3  C11 UNL     1       2.015  -0.063  -0.844  1.00  0.00     0.125 A 
HETATM    4  N4  UNL     1       1.909  -0.519   0.408  1.00  0.00    -0.285 N 
ATOM      5  H4  UNL     1       2.676  -0.881   0.974  1.00  0.00     0.188 HD
HETATM    6  N5  UNL     1       0.648  -0.425   0.793  1.00  0.00    -0.303 N 
ATOM      7  H5  UNL     1       0.302  -0.708   1.710  1.00  0.00     0.186 HD
ENDROOT
BRANCH   1   8
HETATM    8  C2  UNL     1      -1.573   0.348  -0.124  1.00  0.00     0.039 C 
HETATM    9  C1  UNL     1      -1.796   1.353   1.000  1.00  0.00     0.017 C 
BRANCH   8  10
HETATM   10  C3  UNL     1      -2.346  -0.910   0.225  1.00  0.00     0.079 C 
BRANCH  10  11
HETATM   11  C4  UNL     1      -3.793  -0.642   0.362  1.00  0.00     0.074 C 
HETATM   12  S1  UNL     1      -4.530  -0.945   1.783  1.00  0.00    -0.066 SA
BRANCH  11  13
HETATM   13  N1  UNL     1      -4.585  -0.125  -0.697  1.00  0.00    -0.376 N 
ATOM     14  H1  UNL     1      -4.125   0.066  -1.587  1.00  0.00     0.161 HD
BRANCH  13  15
HETATM   15  C5  UNL     1      -5.982   0.145  -0.596  1.00  0.00     0.020 C 
HETATM   16  C6  UNL     1      -6.799  -1.080  -0.253  1.00  0.00     0.037 C 
HETATM   17  C7  UNL     1      -6.300   1.192   0.445  1.00  0.00     0.037 C 
HETATM   18  C8  UNL     1      -6.487   0.644  -1.932  1.00  0.00     0.037 C 
ENDBRANCH  13  15
ENDBRANCH  11  13
ENDBRANCH  10  11
ENDBRANCH   8  10
ENDBRANCH   1   8
BRANCH   3  19
HETATM   19  N2  UNL     1       3.092   0.010  -1.578  1.00  0.00    -0.294 N 
HETATM   20  C12 UNL     1       4.347  -0.413  -1.094  1.00  0.00     0.322 C 
HETATM   21  O1  UNL     1       4.810  -1.502  -1.509  1.00  0.00    -0.247 OA
HETATM   22  N3  UNL     1       5.090   0.353  -0.162  1.00  0.00    -0.335 N 
ATOM     23  H3  UNL     1       4.709   1.238   0.172  1.00  0.00     0.165 HD
ATOM     24  H2  UNL     1       3.024   0.382  -2.525  1.00  0.00     0.172 HD
BRANCH  22  25
HETATM   25  C13 UNL     1       6.367  -0.090   0.322  1.00  0.00     0.023 C 
HETATM   26  C14 UNL     1       6.915   0.917   1.291  1.00  0.00     0.037 C 
HETATM   27  C15 UNL     1       7.294  -0.211  -0.890  1.00  0.00     0.037 C 
HETATM   28  C16 UNL     1       6.256  -1.471   0.971  1.00  0.00     0.037 C 
ENDBRANCH  22  25
ENDBRANCH   3  19
TORSDOF 7
