REMARK  12 active torsions:
REMARK  status: ('A' for Active; 'I' for Inactive)
REMARK    1  A    between atoms: C2_2  and  C3_3 
REMARK    2  A    between atoms: C3_3  and  O1_4 
REMARK    3  A    between atoms: C3_3  and  C4_6 
REMARK    4  A    between atoms: C4_6  and  C5_7 
REMARK    5  A    between atoms: C5_7  and  C6_8 
REMARK    6  A    between atoms: C6_8  and  C8_10 
REMARK    7  A    between atoms: C12_14  and  O2_15 
REMARK    8  A    between atoms: C15_19  and  O3_20 
REMARK    9  A    between atoms: C16_22  and  C17_23 
REMARK   10  A    between atoms: C18_25  and  O5_26 
REMARK   11  A    between atoms: O5_26  and  C19_27 
REMARK   12  A    between atoms: C19_27  and  C20_28 
ROOT
HETATM    1  C8  UNL     1       1.111   1.652   0.053  1.00  0.00    -0.002 C 
HETATM    2  C9  UNL     1       1.050   2.818   0.990  1.00  0.00    -0.012 C 
HETATM    3  C10 UNL     1       1.635   4.105   0.372  1.00  0.00     0.010 C 
HETATM    4  C11 UNL     1      -0.326   3.209   1.452  1.00  0.00     0.037 C 
HETATM    5  C12 UNL     1      -1.366   3.159   0.387  1.00  0.00     0.123 C 
HETATM    6  C13 UNL     1      -1.010   2.270  -0.775  1.00  0.00     0.022 C 
HETATM    7  C14 UNL     1      -2.186   1.785  -1.542  1.00  0.00     0.040 C 
HETATM    8  C15 UNL     1      -2.995   0.746  -0.807  1.00  0.00     0.136 C 
HETATM    9  C16 UNL     1      -2.113  -0.372  -0.273  1.00  0.00     0.069 C 
HETATM   10  C18 UNL     1      -2.995  -1.254   0.550  1.00  0.00     0.140 C 
HETATM   11  C21 UNL     1      -3.035  -0.771   1.981  1.00  0.00     0.033 C 
HETATM   12  C22 UNL     1      -1.681  -1.013   2.556  1.00  0.00     0.003 C 
HETATM   13  C23 UNL     1      -0.560  -0.697   1.548  1.00  0.00     0.006 C 
HETATM   14  C24 UNL     1      -1.048   0.324   0.605  1.00  0.00     0.011 C 
HETATM   15  C25 UNL     1      -0.182   1.046  -0.290  1.00  0.00     0.002 C 
ENDROOT
BRANCH   1  16
HETATM   16  C6  UNL     1       2.281   0.726   0.320  1.00  0.00    -0.014 C 
HETATM   17  C7  UNL     1       3.575   1.504   0.112  1.00  0.00     0.010 C 
BRANCH  16  18
HETATM   18  C5  UNL     1       2.352  -0.416  -0.619  1.00  0.00     0.007 C 
BRANCH  18  19
HETATM   19  C4  UNL     1       3.552  -1.286  -0.326  1.00  0.00     0.032 C 
BRANCH  19  20
HETATM   20  C3  UNL     1       3.578  -2.469  -1.311  1.00  0.00     0.117 C 
BRANCH  20  21
HETATM   21  C2  UNL     1       4.769  -3.315  -1.005  1.00  0.00     0.027 C 
HETATM   22  C1  UNL     1       6.068  -2.568  -1.060  1.00  0.00     0.007 C 
ENDBRANCH  20  21
BRANCH  20  23
HETATM   23  O1  UNL     1       3.722  -1.957  -2.593  1.00  0.00    -0.396 OA
ATOM     24  H1  UNL     1       2.964  -1.419  -2.788  1.00  0.00     0.210 HD
ENDBRANCH  20  23
ENDBRANCH  19  20
ENDBRANCH  18  19
ENDBRANCH  16  18
ENDBRANCH   1  16
BRANCH   5  25
HETATM   25  O2  UNL     1      -1.593   4.443  -0.168  1.00  0.00    -0.395 OA
ATOM     26  H2  UNL     1      -2.256   4.411  -0.847  1.00  0.00     0.210 HD
ENDBRANCH   5  25
BRANCH   9  27
HETATM   27  C17 UNL     1      -1.546  -1.165  -1.357  1.00  0.00     0.246 C 
HETATM   28  O4  UNL     1      -2.034  -1.082  -2.488  1.00  0.00    -0.306 OA
ENDBRANCH   9  27
BRANCH   8  29
HETATM   29  O3  UNL     1      -3.972   0.274  -1.660  1.00  0.00    -0.394 OA
ATOM     30  H3  UNL     1      -4.482  -0.381  -1.197  1.00  0.00     0.210 HD
ENDBRANCH   8  29
BRANCH  10  31
HETATM   31  O5  UNL     1      -4.272  -1.381   0.025  1.00  0.00    -0.374 OA
BRANCH  31  32
HETATM   32  C19 UNL     1      -4.551  -2.709  -0.289  1.00  0.00     0.281 C 
BRANCH  32  33
HETATM   33  C20 UNL     1      -5.908  -2.829  -0.844  1.00  0.00     0.197 C 
HETATM   34  O6  UNL     1      -6.621  -1.818  -0.971  1.00  0.00    -0.646 OA
HETATM   35  O7  UNL     1      -6.388  -4.068  -1.224  1.00  0.00    -0.646 OA
ENDBRANCH  32  33
ENDBRANCH  31  32
ENDBRANCH  10  31
TORSDOF 12
