REMARK  8 active torsions:
REMARK  status: ('A' for Active; 'I' for Inactive)
REMARK    1  A    between atoms: C2_8  and  N4_9 
REMARK    2  A    between atoms: N5_13  and  C3_14 
REMARK    3  A    between atoms: N10_28  and  C8_29 
REMARK    4  A    between atoms: C8_29  and  C9_30 
REMARK    5  A    between atoms: C8_29  and  C10_33 
REMARK    6  A    between atoms: C9_30  and  O1_31 
REMARK    7  A    between atoms: C10_33  and  N11_34 
REMARK    8  A    between atoms: C12_36  and  C13_37 
ROOT
HETATM    1  C3  UNL     1      -2.897  -0.621  -0.926  1.00  0.00     0.159 A 
HETATM    2  N6  UNL     1      -2.805  -1.773  -1.628  1.00  0.00    -0.174 N 
ATOM      3  H6  UNL     1      -3.639  -2.157  -2.073  1.00  0.00     0.186 HD
HETATM    4  C4  UNL     1      -1.615  -2.432  -1.752  1.00  0.00     0.679 A 
HETATM    5  N7  UNL     1      -1.652  -3.516  -2.439  1.00  0.00    -0.234 N 
ATOM      6  H71 UNL     1      -0.763  -4.008  -2.532  1.00  0.00     0.174 HD
ATOM      7  H72 UNL     1      -2.512  -3.861  -2.865  1.00  0.00     0.174 HD
HETATM    8  N8  UNL     1      -0.481  -1.977  -1.190  1.00  0.00    -0.174 N 
ATOM      9  H8  UNL     1       0.393  -2.491  -1.301  1.00  0.00     0.186 HD
HETATM   10  C5  UNL     1      -0.515  -0.840  -0.483  1.00  0.00     0.155 A 
HETATM   11  C6  UNL     1      -1.714  -0.172  -0.356  1.00  0.00     0.124 A 
HETATM   12  N9  UNL     1      -1.471   0.911   0.388  1.00  0.00    -0.346 N 
ATOM     13  H9  UNL     1      -2.151   1.618   0.668  1.00  0.00     0.167 HD
HETATM   14  C7  UNL     1      -0.155   0.895   0.701  1.00  0.00     0.185 A 
HETATM   15  N10 UNL     1       0.433  -0.171   0.172  1.00  0.00    -0.318 N 
ENDROOT
BRANCH  15  16
HETATM   16  C8  UNL     1       1.867  -0.490   0.325  1.00  0.00     0.136 C 
BRANCH  16  17
HETATM   17  C9  UNL     1       2.119  -1.035   1.694  1.00  0.00     0.191 C 
BRANCH  17  18
HETATM   18  O1  UNL     1       3.444  -1.382   1.831  1.00  0.00    -0.399 OA
ATOM     19  H1  UNL     1       3.604  -1.728   2.701  1.00  0.00     0.209 HD
ENDBRANCH  17  18
ENDBRANCH  16  17
BRANCH  16  20
HETATM   20  C10 UNL     1       2.595   0.780   0.081  1.00  0.00     0.177 C 
BRANCH  20  21
HETATM   21  N11 UNL     1       4.024   0.771   0.159  1.00  0.00    -0.285 N 
HETATM   22  C11 UNL     1       4.817   1.059   1.210  1.00  0.00     0.149 A 
HETATM   23  C12 UNL     1       6.146   0.937   0.878  1.00  0.00     0.143 A 
HETATM   24  N12 UNL     1       6.128   0.560  -0.428  1.00  0.00    -0.279 N 
HETATM   25  N13 UNL     1       4.882   0.466  -0.839  1.00  0.00    -0.240 N 
ATOM     26  H12 UNL     1       6.953   0.378  -1.000  1.00  0.00     0.189 HD
ATOM     27  H13 UNL     1       4.602   0.199  -1.783  1.00  0.00     0.208 HD
BRANCH  23  28
HETATM   28  C13 UNL     1       7.313   1.153   1.711  1.00  0.00     0.229 C 
HETATM   29  O2  UNL     1       7.177   1.498   2.897  1.00  0.00    -0.643 OA
HETATM   30  O3  UNL     1       8.566   0.975   1.177  1.00  0.00    -0.643 OA
ENDBRANCH  23  28
ENDBRANCH  20  21
ENDBRANCH  16  20
ENDBRANCH  15  16
BRANCH   1  31
HETATM   31  N5  UNL     1      -4.113   0.092  -0.759  1.00  0.00    -0.257 N 
HETATM   32  C1  UNL     1      -5.415  -0.293  -1.168  1.00  0.00     0.196 C 
HETATM   33  N1  UNL     1      -5.884  -1.485  -1.280  1.00  0.00    -0.370 N 
HETATM   34  N2  UNL     1      -6.169   0.910  -1.436  1.00  0.00    -0.271 N 
ATOM     35  H12 UNL     1      -6.821  -1.762  -1.574  1.00  0.00     0.159 HD
ATOM     36  H11 UNL     1      -5.352  -2.334  -1.091  1.00  0.00     0.159 HD
HETATM   37  N3  UNL     1      -5.580   1.900  -0.659  1.00  0.00    -0.083 NA
ATOM     38  H2  UNL     1      -6.966   1.011  -2.064  1.00  0.00     0.185 HD
HETATM   39  C2  UNL     1      -4.340   1.409  -0.144  1.00  0.00     0.407 C 
BRANCH  39  40
HETATM   40  N4  UNL     1      -4.428   1.334   1.282  1.00  0.00    -0.042 N 
ATOM     41  H43 UNL     1      -4.699   2.223   1.702  1.00  0.00     0.278 HD
ATOM     42  H42 UNL     1      -5.226   0.780   1.594  1.00  0.00     0.278 HD
ATOM     43  H41 UNL     1      -3.543   0.984   1.649  1.00  0.00     0.278 HD
ENDBRANCH  39  40
ENDBRANCH   1  31
TORSDOF 8
