REMARK  12 active torsions:
REMARK  status: ('A' for Active; 'I' for Inactive)
REMARK    1  A    between atoms: C2_3  and  N2_4 
REMARK    2  A    between atoms: N5_12  and  C4_13 
REMARK    3  A    between atoms: C4_13  and  C5_14 
REMARK    4  A    between atoms: C5_14  and  C6_15 
REMARK    5  A    between atoms: N8_20  and  C7_21 
REMARK    6  A    between atoms: C7_21  and  C8_22 
REMARK    7  A    between atoms: C9_25  and  N10_26 
REMARK    8  A    between atoms: C10_31  and  N12_32 
REMARK    9  A    between atoms: N12_32  and  N13_34 
REMARK   10  A    between atoms: C11_41  and  C12_42 
REMARK   11  A    between atoms: C12_42  and  N16_43 
REMARK   12  A    between atoms: C12_42  and  O1_47 
ROOT
HETATM    1  C6  UNL     1       0.788   0.887   0.467  1.00  0.00     0.114 A 
HETATM    2  N6  UNL     1       1.053   1.062   1.774  1.00  0.00    -0.272 N 
ATOM      3  H6  UNL     1       0.447   0.792   2.548  1.00  0.00     0.190 HD
HETATM    4  N7  UNL     1       2.226   1.640   1.881  1.00  0.00    -0.224 N 
ATOM      5  H7  UNL     1       2.682   1.894   2.757  1.00  0.00     0.210 HD
HETATM    6  N8  UNL     1       2.720   1.840   0.677  1.00  0.00    -0.211 N 
HETATM    7  N15 UNL     1       1.850   1.383  -0.194  1.00  0.00    -0.270 N 
ATOM      8  H15 UNL     1       1.961   1.401  -1.208  1.00  0.00     0.190 HD
ENDROOT
BRANCH   1   9
HETATM    9  C5  UNL     1      -0.442   0.265  -0.047  1.00  0.00     0.101 C 
BRANCH   9  10
HETATM   10  C4  UNL     1      -1.545   1.246  -0.298  1.00  0.00     0.157 C 
BRANCH  10  11
HETATM   11  N5  UNL     1      -2.692   0.493  -0.801  1.00  0.00    -0.288 N 
HETATM   12  N4  UNL     1      -2.994   0.200  -2.042  1.00  0.00    -0.281 N 
HETATM   13  C3  UNL     1      -4.119  -0.504  -2.133  1.00  0.00     0.165 A 
ATOM     14  H4  UNL     1      -2.431   0.480  -2.846  1.00  0.00     0.189 HD
HETATM   15  N3  UNL     1      -4.993  -1.117  -2.940  1.00  0.00    -0.173 N 
HETATM   16  C13 UNL     1      -4.566  -0.669  -0.816  1.00  0.00     0.125 A 
HETATM   17  C2  UNL     1      -5.938  -1.640  -2.178  1.00  0.00     0.680 A 
ATOM     18  H3  UNL     1      -4.940  -1.171  -3.957  1.00  0.00     0.186 HD
HETATM   19  N1  UNL     1      -5.705  -1.382  -0.859  1.00  0.00    -0.182 N 
HETATM   20  C1  UNL     1      -6.530  -1.807   0.262  1.00  0.00     0.176 C 
HETATM   21  C11 UNL     1      -3.658  -0.037   0.005  1.00  0.00     0.115 A 
BRANCH  17  22
HETATM   22  N2  UNL     1      -6.958  -2.310  -2.588  1.00  0.00    -0.234 N 
ATOM     23  H22 UNL     1      -7.687  -2.714  -2.000  1.00  0.00     0.174 HD
ATOM     24  H21 UNL     1      -7.132  -2.503  -3.574  1.00  0.00     0.174 HD
ENDBRANCH  17  22
BRANCH  21  25
HETATM   25  C12 UNL     1      -3.723   0.066   1.466  1.00  0.00     0.371 C 
BRANCH  25  26
HETATM   26  N16 UNL     1      -5.026   0.448   1.979  1.00  0.00    -0.047 N 
ATOM     27 3H16 UNL     1      -5.339   1.317   1.546  1.00  0.00     0.277 HD
ATOM     28 2H16 UNL     1      -5.745  -0.187   1.634  1.00  0.00     0.277 HD
ATOM     29 1H16 UNL     1      -5.071   0.520   2.995  1.00  0.00     0.277 HD
ENDBRANCH  25  26
BRANCH  25  30
HETATM   30  O1  UNL     1      -3.239  -1.074   2.109  1.00  0.00    -0.365 OA
ATOM     31  H1  UNL     1      -3.281  -1.007   3.056  1.00  0.00     0.212 HD
ENDBRANCH  25  30
ENDBRANCH  21  25
ENDBRANCH  10  11
ENDBRANCH   9  10
ENDBRANCH   1   9
BRANCH   6  32
HETATM   32  C7  UNL     1       4.005   2.459   0.416  1.00  0.00     0.248 C 
BRANCH  32  33
HETATM   33  C8  UNL     1       5.092   1.437   0.363  1.00  0.00     0.134 A 
HETATM   34  N9  UNL     1       5.781   1.061   1.445  1.00  0.00    -0.178 N 
HETATM   35  C9  UNL     1       6.752   0.141   1.373  1.00  0.00     0.691 A 
ATOM     36  H9  UNL     1       5.562   1.485   2.347  1.00  0.00     0.185 HD
HETATM   37  N11 UNL     1       7.038  -0.419   0.168  1.00  0.00    -0.021 N 
HETATM   38  C10 UNL     1       6.359  -0.059  -0.942  1.00  0.00     0.712 A 
ATOM     39  H11 UNL     1       7.775  -1.121   0.101  1.00  0.00     0.203 HD
HETATM   40  N14 UNL     1       5.409   0.856  -0.810  1.00  0.00    -0.176 N 
ATOM     41  H14 UNL     1       4.890   1.135  -1.642  1.00  0.00     0.185 HD
BRANCH  35  42
HETATM   42  N10 UNL     1       7.410  -0.212   2.426  1.00  0.00    -0.234 N 
ATOM     43 2H10 UNL     1       7.195   0.208   3.330  1.00  0.00     0.174 HD
ATOM     44 1H10 UNL     1       8.149  -0.913   2.371  1.00  0.00     0.174 HD
ENDBRANCH  35  42
BRANCH  38  45
HETATM   45  N12 UNL     1       6.663  -0.617  -2.055  1.00  0.00    -0.138 N 
ATOM     46  H12 UNL     1       6.147  -0.343  -2.891  1.00  0.00     0.205 HD
BRANCH  45  47
HETATM   47  N13 UNL     1       7.663  -1.579  -2.180  1.00  0.00    -0.331 N 
ATOM     48 2H13 UNL     1       8.169  -1.841  -1.334  1.00  0.00     0.177 HD
ATOM     49 1H13 UNL     1       7.905  -2.023  -3.066  1.00  0.00     0.177 HD
ENDBRANCH  45  47
ENDBRANCH  38  45
ENDBRANCH  32  33
ENDBRANCH   6  32
TORSDOF 12
