REMARK  5 active torsions:
REMARK  status: ('A' for Active; 'I' for Inactive)
REMARK    1  A    between atoms: N1_1  and  C1_4 
REMARK    2  A    between atoms: C3_10  and  N4_11 
REMARK    3  A    between atoms: N5_14  and  C4_15 
REMARK    4  A    between atoms: C4_15  and  O1_16 
REMARK    5  A    between atoms: O1_16  and  S1_17 
ROOT
HETATM    1  C1  UNL     1      -2.815   0.659  -0.803  1.00  0.00     0.679 A 
HETATM    2  N2  UNL     1      -3.032  -0.325   0.066  1.00  0.00    -0.172 N 
ATOM      3  H2  UNL     1      -3.936  -0.744   0.284  1.00  0.00     0.186 HD
HETATM    4  C2  UNL     1      -1.848  -0.670   0.608  1.00  0.00     0.181 A 
HETATM    5  N3  UNL     1      -1.219  -1.482   1.477  1.00  0.00    -0.172 N 
ATOM      6  H3  UNL     1      -1.671  -2.194   2.050  1.00  0.00     0.186 HD
HETATM    7  C3  UNL     1       0.095  -1.211   1.473  1.00  0.00     0.683 A 
HETATM    8  N5  UNL     1       0.274  -0.210   0.581  1.00  0.00    -0.141 N 
HETATM    9  C5  UNL     1      -0.907   0.152   0.024  1.00  0.00     0.186 A 
HETATM   10  N6  UNL     1      -1.510   0.982  -0.856  1.00  0.00    -0.172 N 
ATOM     11  H6  UNL     1      -1.071   1.698  -1.435  1.00  0.00     0.186 HD
ENDROOT
BRANCH   8  12
HETATM   12  C4  UNL     1       1.536   0.421   0.233  1.00  0.00     0.344 C 
BRANCH  12  13
HETATM   13  O1  UNL     1       2.140  -0.233  -0.827  1.00  0.00    -0.236 OA
BRANCH  13  14
HETATM   14  S1  UNL     1       3.587   0.433  -1.279  1.00  0.00     0.253 S 
HETATM   15  O2  UNL     1       3.450   1.449  -2.370  1.00  0.00    -0.572 OA
HETATM   16  O3  UNL     1       4.497  -0.663  -1.760  1.00  0.00    -0.572 OA
HETATM   17  O4  UNL     1       4.316   1.112   0.088  1.00  0.00    -0.572 OA
ENDBRANCH  13  14
ENDBRANCH  12  13
ENDBRANCH   8  12
BRANCH   7  18
HETATM   18  N4  UNL     1       1.043  -1.762   2.160  1.00  0.00    -0.234 N 
ATOM     19  H42 UNL     1       0.908  -2.517   2.833  1.00  0.00     0.174 HD
ATOM     20  H41 UNL     1       2.042  -1.556   2.157  1.00  0.00     0.174 HD
ENDBRANCH   7  18
BRANCH   1  21
HETATM   21  N1  UNL     1      -3.738   1.221  -1.496  1.00  0.00    -0.234 N 
ATOM     22  H12 UNL     1      -4.727   0.976  -1.456  1.00  0.00     0.174 HD
ATOM     23  H11 UNL     1      -3.572   1.975  -2.162  1.00  0.00     0.174 HD
ENDBRANCH   1  21
TORSDOF 5
