REMARK  4 active torsions:
REMARK  status: ('A' for Active; 'I' for Inactive)
REMARK    1  A    between atoms: N3_6  and  C3_8 
REMARK    2  A    between atoms: C3_8  and  C4_9 
REMARK       I    between atoms: C4_9  and  N4_11 
REMARK    3  A    between atoms: N4_11  and  N5_13 
REMARK       I    between atoms: N5_13  and  C5_15 
REMARK    4  A    between atoms: C6_22  and  C7_23 
REMARK       I    between atoms: C7_23  and  N9_25 
REMARK       I    between atoms: N9_25  and  C8_27 
ROOT
HETATM    1  C1  UNL     1      -2.139   3.890   0.685  1.00  0.00     0.182 C 
HETATM    2  N1  UNL     1      -1.828   2.485   0.448  1.00  0.00    -0.246 N 
HETATM    3  N2  UNL     1      -0.587   2.096   0.221  1.00  0.00    -0.128 N 
ATOM      4  H2  UNL     1       0.147   2.804   0.216  1.00  0.00     0.206 HD
HETATM    5  C2  UNL     1      -0.234   0.802  -0.006  1.00  0.00     0.694 A 
HETATM    6  N3  UNL     1       1.010   0.467  -0.233  1.00  0.00    -0.216 N 
ATOM      7  H3  UNL     1       1.275  -0.503  -0.403  1.00  0.00     0.178 HD
HETATM    8  N8  UNL     1      -1.230  -0.105   0.010  1.00  0.00    -0.179 N 
ATOM      9  H8  UNL     1      -0.994  -1.083  -0.157  1.00  0.00     0.184 HD
HETATM   10  C6  UNL     1      -2.518   0.210   0.234  1.00  0.00     0.186 A 
HETATM   11  C9  UNL     1      -2.788   1.550   0.455  1.00  0.00     0.295 A 
HETATM   12  O3  UNL     1      -3.959   1.890   0.667  1.00  0.00    -0.264 OA
ENDROOT
BRANCH   6  13
HETATM   13  C3  UNL     1       1.991   1.520  -0.233  1.00  0.00     0.242 C 
BRANCH  13  14
HETATM   14  C4  UNL     1       3.310   0.957  -0.566  1.00  0.00     0.254 C 
HETATM   15  O1  UNL     1       4.294   1.746  -0.616  1.00  0.00    -0.270 OA
HETATM   16  N4  UNL     1       3.432  -0.432  -0.818  1.00  0.00    -0.266 N 
ATOM     17  H4  UNL     1       2.601  -1.022  -0.764  1.00  0.00     0.190 HD
BRANCH  16  18
HETATM   18  N5  UNL     1       4.666  -1.017  -1.140  1.00  0.00    -0.271 N 
HETATM   19  C5  UNL     1       5.765  -0.751  -0.296  1.00  0.00     0.200 C 
HETATM   20  N6  UNL     1       6.761  -0.023  -0.646  1.00  0.00    -0.372 N 
HETATM   21  N7  UNL     1       5.764  -1.308   0.994  1.00  0.00    -0.062 NA
ATOM     22  H62 UNL     1       6.762   0.381  -1.582  1.00  0.00     0.158 HD
ATOM     23  H61 UNL     1       7.555   0.169  -0.036  1.00  0.00     0.158 HD
ATOM     24  H5  UNL     1       4.766  -1.616  -1.959  1.00  0.00     0.189 HD
ENDBRANCH  16  18
ENDBRANCH  13  14
ENDBRANCH   6  13
BRANCH  10  25
HETATM   25  C7  UNL     1      -3.586  -0.794   0.241  1.00  0.00     0.280 C 
HETATM   26  O2  UNL     1      -4.760  -0.378   0.445  1.00  0.00    -0.265 OA
HETATM   27  N9  UNL     1      -3.353  -2.162   0.032  1.00  0.00    -0.296 N 
HETATM   28  C8  UNL     1      -4.426  -3.078   0.045  1.00  0.00     0.188 C 
ATOM     29  H9  UNL     1      -2.403  -2.496  -0.130  1.00  0.00     0.171 HD
HETATM   30  N10 UNL     1      -4.311  -4.347  -0.132  1.00  0.00    -0.373 N 
HETATM   31  N11 UNL     1      -5.776  -2.621   0.261  1.00  0.00    -0.064 NA
ATOM     32 2H10 UNL     1      -3.356  -4.670  -0.285  1.00  0.00     0.158 HD
ATOM     33 1H10 UNL     1      -5.087  -5.009  -0.123  1.00  0.00     0.158 HD
ENDBRANCH  10  25
TORSDOF 4
