REMARK  4 active torsions:
REMARK  status: ('A' for Active; 'I' for Inactive)
REMARK    1  A    between atoms: C5_11  and  N4_12 
REMARK    2  A    between atoms: N6_18  and  C7_20 
REMARK    3  A    between atoms: C7_20  and  C8_21 
REMARK       I    between atoms: C8_21  and  N7_23 
REMARK    4  A    between atoms: N7_23  and  N8_25 
ROOT
HETATM    1  C1  UNL     1      -1.175  -1.917  -1.557  1.00  0.00     0.160 C 
HETATM    2  N1  UNL     1      -2.009  -1.152  -0.695  1.00  0.00    -0.311 N 
HETATM    3  C2  UNL     1      -3.328  -1.475  -0.495  1.00  0.00     0.263 A 
HETATM    4  O1  UNL     1      -3.778  -2.476  -1.103  1.00  0.00    -0.267 OA
HETATM    5  C3  UNL     1      -4.165  -0.766   0.325  1.00  0.00     0.164 A 
HETATM    6  N2  UNL     1      -3.701   0.304   0.981  1.00  0.00    -0.345 N 
ATOM      7  H2  UNL     1      -4.313   0.841   1.596  1.00  0.00     0.167 HD
HETATM    8  C4  UNL     1      -2.406   0.663   0.816  1.00  0.00     0.152 A 
HETATM    9  N3  UNL     1      -1.948   1.745   1.483  1.00  0.00    -0.174 N 
ATOM     10  H3  UNL     1      -2.576   2.269   2.092  1.00  0.00     0.186 HD
HETATM   11  C5  UNL     1      -0.676   2.133   1.349  1.00  0.00     0.679 A 
HETATM   12  N5  UNL     1       0.152   1.448   0.549  1.00  0.00    -0.175 N 
ATOM     13  H5  UNL     1       1.120   1.756   0.456  1.00  0.00     0.186 HD
HETATM   14  C6  UNL     1      -0.264   0.349  -0.145  1.00  0.00     0.148 A 
HETATM   15  N6  UNL     1       0.523  -0.290  -0.895  1.00  0.00    -0.365 N 
ATOM     16  H6  UNL     1       0.173  -1.106  -1.396  1.00  0.00     0.161 HD
HETATM   17  C9  UNL     1      -1.568  -0.069  -0.022  1.00  0.00     0.127 A 
ENDROOT
BRANCH  15  18
HETATM   18  C7  UNL     1       1.887   0.091  -1.066  1.00  0.00     0.225 C 
BRANCH  18  19
HETATM   19  C8  UNL     1       2.711  -0.390   0.087  1.00  0.00     0.253 C 
HETATM   20  O2  UNL     1       2.177  -1.032   1.025  1.00  0.00    -0.270 OA
HETATM   21  N7  UNL     1       4.105  -0.143   0.164  1.00  0.00    -0.275 N 
ATOM     22  H7  UNL     1       4.553   0.377  -0.590  1.00  0.00     0.189 HD
BRANCH  21  23
HETATM   23  N8  UNL     1       4.878  -0.578   1.217  1.00  0.00    -0.343 N 
ATOM     24  H82 UNL     1       4.414  -1.097   1.963  1.00  0.00     0.176 HD
ATOM     25  H81 UNL     1       5.881  -0.400   1.272  1.00  0.00     0.176 HD
ENDBRANCH  21  23
ENDBRANCH  18  19
ENDBRANCH  15  18
BRANCH  11  26
HETATM   26  N4  UNL     1      -0.274   3.168   1.999  1.00  0.00    -0.234 N 
ATOM     27  H42 UNL     1      -0.904   3.690   2.608  1.00  0.00     0.174 HD
ATOM     28  H41 UNL     1       0.697   3.464   1.897  1.00  0.00     0.174 HD
ENDBRANCH  11  26
TORSDOF 4
