REMARK  4 active torsions:
REMARK  status: ('A' for Active; 'I' for Inactive)
REMARK    1  A    between atoms: N1_1  and  C1_4 
REMARK    2  A    between atoms: N5_19  and  C7_20 
REMARK    3  A    between atoms: C7_20  and  C8_21 
REMARK       I    between atoms: C8_21  and  N6_23 
REMARK    4  A    between atoms: N6_23  and  N7_25 
ROOT
HETATM    1  C1  UNL     1       3.094   0.604   1.279  1.00  0.00     0.679 A 
HETATM    2  N2  UNL     1       2.098   1.471   1.119  1.00  0.00    -0.154 N 
ATOM      3  H2  UNL     1       2.156   2.392   1.553  1.00  0.00     0.187 HD
HETATM    4  C2  UNL     1       1.015   1.145   0.391  1.00  0.00     0.289 A 
HETATM    5  O1  UNL     1       0.110   2.001   0.278  1.00  0.00    -0.265 OA
HETATM    6  C3  UNL     1       0.884  -0.065  -0.209  1.00  0.00     0.141 A 
HETATM    7  C4  UNL     1       1.929  -0.965  -0.037  1.00  0.00     0.149 A 
HETATM    8  N3  UNL     1       3.000  -0.609   0.698  1.00  0.00    -0.184 N 
ATOM      9  H3  UNL     1       3.762  -1.276   0.819  1.00  0.00     0.184 HD
HETATM   10  C5  UNL     1       1.870  -2.210  -0.608  1.00  0.00     0.279 A 
HETATM   11  O2  UNL     1       2.824  -3.002  -0.437  1.00  0.00    -0.265 OA
HETATM   12  N4  UNL     1       0.772  -2.492  -1.320  1.00  0.00    -0.273 N 
ATOM     13  H4  UNL     1       0.695  -3.410  -1.758  1.00  0.00     0.173 HD
HETATM   14  C6  UNL     1      -0.221  -1.624  -1.479  1.00  0.00     0.330 A 
HETATM   15  O3  UNL     1      -1.233  -1.945  -2.162  1.00  0.00    -0.246 OA
HETATM   16  N5  UNL     1      -0.212  -0.357  -0.926  1.00  0.00    -0.284 N 
ENDROOT
BRANCH  16  17
HETATM   17  C7  UNL     1      -1.334   0.487  -1.184  1.00  0.00     0.238 C 
BRANCH  17  18
HETATM   18  C8  UNL     1      -2.334   0.312  -0.099  1.00  0.00     0.254 C 
HETATM   19  O4  UNL     1      -2.124  -0.487   0.849  1.00  0.00    -0.270 OA
HETATM   20  N6  UNL     1      -3.569   1.029  -0.070  1.00  0.00    -0.275 N 
ATOM     21  H6  UNL     1      -3.762   1.684  -0.828  1.00  0.00     0.189 HD
BRANCH  20  22
HETATM   22  N7  UNL     1      -4.512   0.888   0.920  1.00  0.00    -0.343 N 
ATOM     23  H72 UNL     1      -4.302   0.229   1.670  1.00  0.00     0.176 HD
ATOM     24  H71 UNL     1      -5.394   1.400   0.941  1.00  0.00     0.176 HD
ENDBRANCH  20  22
ENDBRANCH  17  18
ENDBRANCH  16  17
BRANCH   1  25
HETATM   25  N1  UNL     1       4.132   0.937   1.985  1.00  0.00    -0.234 N 
ATOM     26  H12 UNL     1       4.203   1.855   2.425  1.00  0.00     0.174 HD
ATOM     27  H11 UNL     1       4.896   0.272   2.108  1.00  0.00     0.174 HD
ENDBRANCH   1  25
TORSDOF 4
