REMARK  10 active torsions:
REMARK  status: ('A' for Active; 'I' for Inactive)
REMARK    1  A    between atoms: N1_1  and  C1_5 
REMARK    2  A    between atoms: C1_5  and  C2_6 
REMARK    3  A    between atoms: N2_7  and  N3_9 
REMARK       I    between atoms: N3_9  and  C3_11 
REMARK    4  A    between atoms: N5_13  and  C4_15 
REMARK    5  A    between atoms: C4_15  and  C5_16 
REMARK    6  A    between atoms: C5_16  and  C6_17 
REMARK    7  A    between atoms: C6_17  and  C7_18 
REMARK    8  A    between atoms: C7_18  and  N6_19 
REMARK    9  A    between atoms: C10_22  and  C11_23 
REMARK   10  A    between atoms: N8_25  and  N9_27 
ROOT
HETATM    1  C5  UNL     1       1.308  -2.864  -0.172  1.00  0.00     0.021 C 
ENDROOT
BRANCH   1   2
HETATM    2  C4  UNL     1       2.282  -1.925  -0.802  1.00  0.00     0.122 C 
BRANCH   2   3
HETATM    3  N5  UNL     1       2.574  -0.864   0.161  1.00  0.00    -0.363 N 
HETATM    4  C3  UNL     1       2.988   0.261  -0.295  1.00  0.00     0.203 C 
HETATM    5  N3  UNL     1       3.291   1.335   0.582  1.00  0.00    -0.274 N 
HETATM    6  N4  UNL     1       3.167   0.495  -1.693  1.00  0.00    -0.062 NA
ATOM      7  H3  UNL     1       3.133   2.300   0.292  1.00  0.00     0.189 HD
ATOM      8  H5  UNL     1       2.452  -1.014   1.163  1.00  0.00     0.162 HD
BRANCH   5   9
HETATM    9  N2  UNL     1       3.806   1.052   1.841  1.00  0.00    -0.312 N 
HETATM   10  C2  UNL     1       5.089   0.841   1.946  1.00  0.00     0.107 C 
ATOM     11  H2  UNL     1       3.199   1.010   2.659  1.00  0.00     0.185 HD
BRANCH  10  12
HETATM   12  C1  UNL     1       5.990   0.895   0.781  1.00  0.00     0.275 C 
BRANCH  12  13
HETATM   13  N1  UNL     1       5.862   2.218   0.167  1.00  0.00    -0.075 N 
ATOM     14  H13 UNL     1       4.898   2.450  -0.070  1.00  0.00     0.274 HD
ATOM     15  H12 UNL     1       6.028   2.977   0.828  1.00  0.00     0.274 HD
ATOM     16  H11 UNL     1       6.486   2.255  -0.639  1.00  0.00     0.274 HD
ENDBRANCH  12  13
ENDBRANCH  10  12
ENDBRANCH   5   9
ENDBRANCH   2   3
ENDBRANCH   1   2
BRANCH   1  17
HETATM   17  C6  UNL     1       0.041  -2.145   0.189  1.00  0.00     0.022 C 
BRANCH  17  18
HETATM   18  C7  UNL     1      -0.636  -1.533  -1.021  1.00  0.00     0.128 C 
BRANCH  18  19
HETATM   19  N6  UNL     1      -1.851  -0.853  -0.615  1.00  0.00    -0.366 N 
HETATM   20  C8  UNL     1      -1.827   0.447  -0.263  1.00  0.00     0.091 A 
HETATM   21  C9  UNL     1      -3.023   1.037   0.115  1.00  0.00     0.032 A 
HETATM   22  C10 UNL     1      -4.212   0.369   0.147  1.00  0.00     0.009 A 
HETATM   23  C12 UNL     1      -4.213  -0.962  -0.218  1.00  0.00     0.032 A 
HETATM   24  C13 UNL     1      -3.028  -1.543  -0.591  1.00  0.00     0.091 A 
BRANCH  22  25
HETATM   25  C11 UNL     1      -5.470   1.024   0.554  1.00  0.00     0.140 C 
HETATM   26  N7  UNL     1      -5.468   2.382   0.926  1.00  0.00    -0.080 NA
HETATM   27  N8  UNL     1      -6.577   0.366   0.574  1.00  0.00    -0.294 N 
ATOM     28  H8  UNL     1      -6.583  -0.618   0.305  1.00  0.00     0.187 HD
BRANCH  27  29
HETATM   29  N9  UNL     1      -7.765   0.981   0.958  1.00  0.00    -0.344 N 
ATOM     30  H92 UNL     1      -7.741   1.965   1.224  1.00  0.00     0.176 HD
ATOM     31  H91 UNL     1      -8.642   0.460   0.974  1.00  0.00     0.176 HD
ENDBRANCH  27  29
ENDBRANCH  22  25
ENDBRANCH  18  19
ENDBRANCH  17  18
ENDBRANCH   1  17
TORSDOF 10
