REMARK  10 active torsions:
REMARK  status: ('A' for Active; 'I' for Inactive)
REMARK    1  A    between atoms: N2_3  and  C2_5 
REMARK    2  A    between atoms: C2_5  and  C3_6 
REMARK    3  A    between atoms: C3_6  and  C4_7 
REMARK    4  A    between atoms: C4_7  and  C5_8 
REMARK    5  A    between atoms: C5_8  and  C6_9 
REMARK    6  A    between atoms: C7_13  and  C8_14 
REMARK    7  A    between atoms: C8_14  and  C9_15 
REMARK    8  A    between atoms: C9_15  and  C10_16 
REMARK    9  A    between atoms: C10_16  and  N4_17 
REMARK   10  A    between atoms: C13_26  and  O2_27 
ROOT
HETATM    1  C6  UNL     1       1.375   0.754  -0.186  1.00  0.00     0.235 C 
HETATM    2  N3  UNL     1       0.222   0.008  -0.614  1.00  0.00    -0.054 N 
ATOM      3  H31 UNL     1       0.437  -0.986  -0.691  1.00  0.00     0.278 HD
ATOM      4  H32 UNL     1       0.000   0.205  -1.590  1.00  0.00     0.278 HD
HETATM    5  C7  UNL     1      -0.933   0.226   0.237  1.00  0.00     0.277 C 
HETATM    6  C12 UNL     1      -1.305   1.634   0.067  1.00  0.00     0.250 C 
HETATM    7  O1  UNL     1      -2.418   2.107  -0.181  1.00  0.00    -0.271 OA
HETATM    8  N7  UNL     1      -0.227   2.584   0.210  1.00  0.00    -0.331 N 
ATOM      9  H7  UNL     1      -0.445   3.545   0.472  1.00  0.00     0.165 HD
HETATM   10  C13 UNL     1       1.148   2.211  -0.007  1.00  0.00     0.251 C 
ENDROOT
BRANCH   1  11
HETATM   11  C5  UNL     1       2.467   0.533  -1.212  1.00  0.00     0.037 C 
BRANCH  11  12
HETATM   12  C4  UNL     1       2.851  -0.926  -1.354  1.00  0.00     0.004 C 
BRANCH  12  13
HETATM   13  C3  UNL     1       3.364  -1.509  -0.055  1.00  0.00     0.020 C 
BRANCH  13  14
HETATM   14  C2  UNL     1       4.576  -0.799   0.454  1.00  0.00     0.120 C 
BRANCH  14  15
HETATM   15  N2  UNL     1       5.688  -0.830  -0.438  1.00  0.00    -0.388 N 
HETATM   16  C1  UNL     1       6.569   0.092  -0.390  1.00  0.00     0.185 C 
HETATM   17  N1  UNL     1       6.446   1.146   0.545  1.00  0.00    -0.097 NA
ATOM     18  H2  UNL     1       5.779  -1.588  -1.114  1.00  0.00     0.159 HD
ENDBRANCH  14  15
ENDBRANCH  13  14
ENDBRANCH  12  13
ENDBRANCH  11  12
ENDBRANCH   1  11
BRANCH  10  19
HETATM   19  O2  UNL     1       1.618   2.989  -1.070  1.00  0.00    -0.375 OA
ATOM     20  H2  UNL     1       1.473   3.921  -0.956  1.00  0.00     0.212 HD
ENDBRANCH  10  19
BRANCH   5  21
HETATM   21  C8  UNL     1      -1.964  -0.773  -0.138  1.00  0.00     0.044 C 
BRANCH  21  22
HETATM   22  C9  UNL     1      -3.245  -0.715   0.638  1.00  0.00     0.022 C 
BRANCH  22  23
HETATM   23  C10 UNL     1      -4.137  -1.831   0.073  1.00  0.00     0.122 C 
BRANCH  23  24
HETATM   24  N4  UNL     1      -5.403  -1.872   0.746  1.00  0.00    -0.367 N 
HETATM   25  C11 UNL     1      -6.397  -1.185   0.349  1.00  0.00     0.196 C 
HETATM   26  N5  UNL     1      -7.634  -1.252   1.041  1.00  0.00    -0.067 NA
HETATM   27  N6  UNL     1      -6.262  -0.350  -0.790  1.00  0.00    -0.067 NA
ATOM     28  H4  UNL     1      -5.509  -2.469   1.566  1.00  0.00     0.161 HD
ENDBRANCH  23  24
ENDBRANCH  22  23
ENDBRANCH  21  22
ENDBRANCH   5  21
TORSDOF 10
