REMARK  3 active torsions:
REMARK  status: ('A' for Active; 'I' for Inactive)
REMARK    1  A    between atoms: N1_2  and  N2_3 
REMARK    2  A    between atoms: N1_2  and  C2_6 
REMARK    3  A    between atoms: C3_9  and  N4_10 
ROOT
HETATM    1  C2  UNL     1      -0.136  -0.028  -0.133  1.00  0.00     0.716 A 
HETATM    2  N3  UNL     1       0.780  -0.989   0.083  1.00  0.00    -0.021 N 
ATOM      3  H3  UNL     1       0.460  -1.951   0.197  1.00  0.00     0.203 HD
HETATM    4  C3  UNL     1       2.095  -0.738   0.155  1.00  0.00     0.694 A 
HETATM    5  N5  UNL     1       2.553   0.515   0.009  1.00  0.00    -0.141 N 
ATOM      6  H5  UNL     1       3.551   0.718   0.062  1.00  0.00     0.189 HD
HETATM    7  C4  UNL     1       1.657   1.497  -0.210  1.00  0.00     0.352 A 
HETATM    8  O1  UNL     1       2.106   2.667  -0.347  1.00  0.00    -0.246 OA
HETATM    9  N6  UNL     1       0.356   1.213  -0.275  1.00  0.00    -0.139 N 
ATOM     10  H6  UNL     1      -0.299   1.977  -0.441  1.00  0.00     0.189 HD
ENDROOT
BRANCH   1  11
HETATM   11  N1  UNL     1      -1.526  -0.264  -0.203  1.00  0.00    -0.134 N 
HETATM   12  C1  UNL     1      -2.230  -0.411   1.081  1.00  0.00     0.197 C 
BRANCH  11  13
HETATM   13  N2  UNL     1      -2.308  -0.366  -1.333  1.00  0.00    -0.329 N 
ATOM     14  H22 UNL     1      -3.312  -0.537  -1.384  1.00  0.00     0.177 HD
ATOM     15  H21 UNL     1      -1.820  -0.264  -2.223  1.00  0.00     0.177 HD
ENDBRANCH  11  13
ENDBRANCH   1  11
BRANCH   4  16
HETATM   16  N4  UNL     1       2.954  -1.693   0.378  1.00  0.00    -0.234 N 
ATOM     17  H42 UNL     1       2.606  -2.645   0.489  1.00  0.00     0.174 HD
ATOM     18  H41 UNL     1       3.954  -1.502   0.433  1.00  0.00     0.174 HD
ENDBRANCH   4  16
TORSDOF 3
