REMARK  13 active torsions:
REMARK  status: ('A' for Active; 'I' for Inactive)
REMARK    1  A    between atoms: C2_2  and  C3_3 
REMARK    2  A    between atoms: C2_2  and  N2_7 
REMARK    3  A    between atoms: C3_3  and  C4_4 
REMARK       I    between atoms: N2_7  and  C5_9 
REMARK    4  A    between atoms: C5_9  and  C6_11 
REMARK    5  A    between atoms: C6_11  and  N3_12 
REMARK    6  A    between atoms: C6_11  and  C21_52 
REMARK       I    between atoms: N3_12  and  C7_14 
REMARK    7  A    between atoms: C7_14  and  C8_16 
REMARK    8  A    between atoms: C10_20  and  C11_21 
REMARK    9  A    between atoms: C17_34  and  N6_35 
REMARK   10  A    between atoms: N8_44  and  C20_45 
REMARK   11  A    between atoms: C20_45  and  O10_46 
REMARK   12  A    between atoms: N9_48  and  O11_50 
REMARK       I    between atoms: C21_52  and  N10_54 
REMARK   13  A    between atoms: N10_54  and  N11_56 
ROOT
HETATM    1  C8  UNL     1      -0.743  -0.635  -0.968  1.00  0.00     0.281 C 
HETATM    2  C9  UNL     1      -1.568  -1.554  -0.128  1.00  0.00     0.292 C 
HETATM    3  O4  UNL     1      -1.325  -1.608   1.104  1.00  0.00    -0.262 OA
HETATM    4  O5  UNL     1      -2.581  -2.352  -0.620  1.00  0.00    -0.303 OA
HETATM    5  C10 UNL     1      -3.603  -1.996  -1.493  1.00  0.00     0.245 C 
HETATM    6  C12 UNL     1      -4.933  -2.620  -1.053  1.00  0.00     0.220 C 
HETATM    7  O7  UNL     1      -6.047  -1.964  -1.587  1.00  0.00    -0.317 OA
HETATM    8  C13 UNL     1      -6.683  -0.942  -0.915  1.00  0.00     0.276 C 
HETATM    9  O8  UNL     1      -7.920  -0.817  -1.017  1.00  0.00    -0.263 OA
HETATM   10  C14 UNL     1      -5.901  -0.031  -0.101  1.00  0.00     0.233 C 
HETATM   11  N5  UNL     1      -6.609   0.676   0.903  1.00  0.00    -0.352 N 
ATOM     12  H5  UNL     1      -7.628   0.703   0.865  1.00  0.00     0.162 HD
HETATM   13  C15 UNL     1      -5.944   1.343   1.952  1.00  0.00     0.220 C 
HETATM   14  O9  UNL     1      -6.359   2.475   2.352  1.00  0.00    -0.274 OA
HETATM   15  C16 UNL     1      -4.768   0.777   2.619  1.00  0.00     0.137 C 
HETATM   16  C17 UNL     1      -3.764   1.788   3.108  1.00  0.00     0.217 C 
HETATM   17  C18 UNL     1      -2.779   2.221   2.053  1.00  0.00     0.267 C 
HETATM   18  N7  UNL     1      -2.516   1.172   1.089  1.00  0.00    -0.057 N 
ATOM     19  H71 UNL     1      -3.146   1.211   0.288  1.00  0.00     0.279 HD
ATOM     20  H72 UNL     1      -2.783   0.250   1.433  1.00  0.00     0.279 HD
HETATM   21  C19 UNL     1      -1.145   1.235   0.707  1.00  0.00     0.361 C 
HETATM   22  N8  UNL     1      -0.886   0.731  -0.630  1.00  0.00    -0.299 N 
ENDROOT
BRANCH   1  23
HETATM   23  C7  UNL     1       0.662  -1.085  -1.030  1.00  0.00     0.251 C 
HETATM   24  N3  UNL     1       1.782  -0.263  -0.769  1.00  0.00    -0.338 N 
ATOM     25  H3  UNL     1       1.648   0.715  -0.512  1.00  0.00     0.163 HD
HETATM   26  O3  UNL     1       0.848  -2.305  -1.344  1.00  0.00    -0.271 OA
BRANCH  24  27
HETATM   27  C6  UNL     1       3.154  -0.824  -0.869  1.00  0.00     0.271 C 
BRANCH  27  28
HETATM   28  C5  UNL     1       3.889  -0.458   0.367  1.00  0.00     0.250 C 
HETATM   29  N2  UNL     1       5.173  -0.914   0.678  1.00  0.00    -0.354 N 
ATOM     30  H2  UNL     1       5.651  -1.543   0.033  1.00  0.00     0.162 HD
HETATM   31  O2  UNL     1       3.350   0.318   1.227  1.00  0.00    -0.271 OA
BRANCH  29  32
HETATM   32  C2  UNL     1       5.841  -0.508   1.905  1.00  0.00     0.088 C 
HETATM   33  C1  UNL     1       6.207  -1.669   2.785  1.00  0.00     0.032 C 
BRANCH  32  34
HETATM   34  C3  UNL     1       7.032   0.399   1.625  1.00  0.00     0.124 C 
BRANCH  34  35
HETATM   35  C4  UNL     1       8.123  -0.321   0.954  1.00  0.00     0.233 C 
HETATM   36  N1  UNL     1       9.302   0.379   0.597  1.00  0.00    -0.062 NA
HETATM   37  O1  UNL     1       8.013  -1.533   0.702  1.00  0.00    -0.277 OA
ENDBRANCH  34  35
ENDBRANCH  32  34
ENDBRANCH  29  32
ENDBRANCH  27  28
BRANCH  27  38
HETATM   38  C21 UNL     1       3.819  -0.179  -2.034  1.00  0.00     0.267 C 
HETATM   39  O12 UNL     1       3.252   0.806  -2.628  1.00  0.00    -0.269 OA
HETATM   40  N10 UNL     1       5.057  -0.608  -2.524  1.00  0.00    -0.274 N 
ATOM     41  H10 UNL     1       5.543  -1.393  -2.090  1.00  0.00     0.189 HD
BRANCH  40  42
HETATM   42  N11 UNL     1       5.627   0.069  -3.639  1.00  0.00    -0.343 N 
ATOM     43 2H11 UNL     1       5.128   0.852  -4.062  1.00  0.00     0.176 HD
ATOM     44 1H11 UNL     1       6.530  -0.244  -3.996  1.00  0.00     0.176 HD
ENDBRANCH  40  42
ENDBRANCH  27  38
ENDBRANCH  24  27
ENDBRANCH   1  23
BRANCH  22  45
HETATM   45  C20 UNL     1      -0.792   1.710  -1.640  1.00  0.00     0.241 C 
HETATM   46  N9  UNL     1      -1.363   1.732  -2.760  1.00  0.00    -0.233 N 
ATOM     47  H9  UNL     1      -1.142   2.548  -3.331  1.00  0.00     0.198 HD
BRANCH  45  48
HETATM   48  O10 UNL     1       0.050   2.818  -1.367  1.00  0.00    -0.331 OA
ATOM     49  H10 UNL     1       0.113   3.478  -2.048  1.00  0.00     0.221 HD
ENDBRANCH  45  48
BRANCH  46  50
HETATM   50  O11 UNL     1      -2.207   0.873  -3.328  1.00  0.00    -0.287 OA
ATOM     51  H11 UNL     1      -2.638   0.890  -4.174  1.00  0.00     0.244 HD
ENDBRANCH  46  50
ENDBRANCH  22  45
BRANCH   5  52
HETATM   52  C11 UNL     1      -3.377  -2.545  -2.877  1.00  0.00     0.262 C 
HETATM   53  N4  UNL     1      -4.305  -2.284  -3.918  1.00  0.00    -0.060 NA
HETATM   54  O6  UNL     1      -2.371  -3.243  -3.148  1.00  0.00    -0.274 OA
ENDBRANCH   5  52
BRANCH  16  55
HETATM   55  N6  UNL     1      -3.010   1.144   4.188  1.00  0.00    -0.073 N 
ATOM     56  H63 UNL     1      -3.605   0.776   4.930  1.00  0.00     0.274 HD
ATOM     57  H62 UNL     1      -2.587   0.258   3.911  1.00  0.00     0.274 HD
ATOM     58  H61 UNL     1      -2.330   1.829   4.519  1.00  0.00     0.274 HD
ENDBRANCH  16  55
TORSDOF 13
