REMARK  1 active torsions:
REMARK  status: ('A' for Active; 'I' for Inactive)
REMARK    1  A    between atoms: O1_1  and  C1_3 
ROOT
HETATM    1  C1  UNL     1      -2.042   1.499   0.808  1.00  0.00     0.124 C 
HETATM    2  C2  UNL     1      -0.683   0.968   0.980  1.00  0.00     0.040 C 
HETATM    3  C3  UNL     1      -0.098   0.365  -0.258  1.00  0.00     0.031 C 
HETATM    4  C4  UNL     1       1.332  -0.009  -0.177  1.00  0.00    -0.034 C 
HETATM    5  C5  UNL     1       1.966   0.041   1.168  1.00  0.00     0.010 C 
HETATM    6  C6  UNL     1       3.298   0.762   1.196  1.00  0.00     0.001 C 
HETATM    7  C7  UNL     1       4.146   0.152   0.095  1.00  0.00     0.000 C 
HETATM    8  C8  UNL     1       3.559   0.667  -1.181  1.00  0.00     0.001 C 
HETATM    9  C9  UNL     1       2.101   0.688  -1.264  1.00  0.00     0.010 C 
HETATM   10  C10 UNL     1       1.328  -1.496  -0.586  1.00  0.00     0.013 C 
HETATM   11  C11 UNL     1       0.163  -1.600  -1.502  1.00  0.00     0.039 C 
HETATM   12  C12 UNL     1      -0.906  -0.820  -0.709  1.00  0.00     0.065 C 
HETATM   13  C13 UNL     1      -1.320  -1.702   0.419  1.00  0.00     0.038 C 
HETATM   14  C14 UNL     1      -2.616  -1.432   1.051  1.00  0.00     0.004 C 
HETATM   15  C15 UNL     1      -3.529  -0.491   0.384  1.00  0.00     0.009 C 
HETATM   16  C16 UNL     1      -2.990   0.804  -0.076  1.00  0.00     0.038 C 
HETATM   17  C17 UNL     1      -2.532   0.644  -1.506  1.00  0.00     0.176 C 
HETATM   18  O2  UNL     1      -1.875  -0.538  -1.624  1.00  0.00    -0.379 OA
ENDROOT
BRANCH   1  19
HETATM   19  O1  UNL     1      -2.644   1.575   2.087  1.00  0.00    -0.395 OA
ATOM     20  H1  UNL     1      -3.523   1.918   1.976  1.00  0.00     0.210 HD
ENDBRANCH   1  19
TORSDOF 1
