REMARK  2 active torsions:
REMARK  status: ('A' for Active; 'I' for Inactive)
REMARK    1  A    between atoms: N5_10  and  C2_12 
REMARK    2  A    between atoms: N6_13  and  O1_15 
ROOT
HETATM    1  N1  UNL     1      -3.866  -0.411  -0.549  1.00  0.00    -0.377 N 
ATOM      2  H11 UNL     1      -4.615  -0.698   0.081  1.00  0.00     0.158 HD
ATOM      3  H12 UNL     1      -4.341  -0.238  -1.435  1.00  0.00     0.158 HD
HETATM    4  C1  UNL     1      -2.613  -0.261  -0.409  1.00  0.00     0.178 A 
HETATM    5  N2  UNL     1      -1.585   0.133  -1.273  1.00  0.00    -0.262 N 
ATOM      6  H2  UNL     1      -1.770   0.363  -2.249  1.00  0.00     0.190 HD
HETATM    7  N3  UNL     1      -0.322   0.197  -0.754  1.00  0.00    -0.213 N 
ATOM      8  H3  UNL     1       0.476   0.475  -1.325  1.00  0.00     0.211 HD
HETATM    9  N4  UNL     1      -0.179  -0.128   0.560  1.00  0.00    -0.144 N 
HETATM   10  N5  UNL     1       0.862  -0.131   1.256  1.00  0.00    -0.266 N 
ATOM     11  H5  UNL     1       0.766  -0.408   2.233  1.00  0.00     0.190 HD
HETATM   12  S1  UNL     1      -1.770  -0.568   1.164  1.00  0.00     0.069 SA
ENDROOT
BRANCH  10  13
HETATM   13  C2  UNL     1       2.149   0.213   0.813  1.00  0.00     0.223 C 
HETATM   14  N6  UNL     1       3.213  -0.330   1.299  1.00  0.00    -0.263 N 
ATOM     15  H6  UNL     1       3.122  -1.034   2.031  1.00  0.00     0.195 HD
BRANCH  14  16
HETATM   16  O1  UNL     1       4.466   0.017   0.855  1.00  0.00    -0.289 OA
ATOM     17  H1  UNL     1       5.250  -0.383   1.213  1.00  0.00     0.244 HD
ENDBRANCH  14  16
ENDBRANCH  10  13
TORSDOF 2
