REMARK  4 active torsions:
REMARK  status: ('A' for Active; 'I' for Inactive)
REMARK    1  A    between atoms: O1_1  and  C1_3 
REMARK    2  A    between atoms: C1_3  and  C2_4 
REMARK    3  A    between atoms: C3_5  and  N1_6 
REMARK    4  A    between atoms: N1_6  and  C4_8 
ROOT
HETATM    1  C2  UNL     1      -2.369   0.590  -0.655  1.00  0.00     0.038 C 
HETATM    2  C3  UNL     1      -1.105  -0.208  -0.490  1.00  0.00     0.084 C 
HETATM    3  C14 UNL     1      -1.600  -1.511   0.148  1.00  0.00     0.032 C 
HETATM    4  C15 UNL     1      -3.093  -1.551  -0.063  1.00  0.00     0.019 C 
HETATM    5  C16 UNL     1      -3.865  -1.070   1.142  1.00  0.00     0.237 C 
HETATM    6  N2  UNL     1      -4.956  -0.263   0.675  1.00  0.00    -0.074 N 
ATOM      7  H21 UNL     1      -5.049   0.612   1.190  1.00  0.00     0.277 HD
ATOM      8  H22 UNL     1      -5.867  -0.656   0.910  1.00  0.00     0.277 HD
HETATM    9  C17 UNL     1      -4.782  -0.062  -0.743  1.00  0.00     0.237 C 
HETATM   10  C18 UNL     1      -3.387  -0.475  -1.084  1.00  0.00     0.025 C 
ENDROOT
BRANCH   2  11
HETATM   11  N1  UNL     1      -0.194   0.390   0.402  1.00  0.00    -0.408 N 
ATOM     12  H1  UNL     1      -0.529   0.944   1.190  1.00  0.00     0.154 HD
BRANCH  11  13
HETATM   13  C4  UNL     1       1.195   0.211   0.188  1.00  0.00     0.027 C 
HETATM   14  C5  UNL     1       1.741   0.759  -1.086  1.00  0.00     0.035 C 
HETATM   15  C6  UNL     1       3.245   0.667  -1.118  1.00  0.00    -0.012 C 
HETATM   16  C7  UNL     1       3.721  -0.762  -1.031  1.00  0.00     0.009 C 
HETATM   17  C11 UNL     1       3.826   1.465   0.025  1.00  0.00     0.009 C 
HETATM   18  C8  UNL     1       3.119  -1.360   0.217  1.00  0.00    -0.012 C 
HETATM   19  C9  UNL     1       3.775  -0.644   1.396  1.00  0.00     0.009 C 
HETATM   20  C13 UNL     1       1.620  -1.254   0.260  1.00  0.00     0.035 C 
HETATM   21  C10 UNL     1       3.373   0.798   1.303  1.00  0.00    -0.012 C 
HETATM   22  C12 UNL     1       1.890   0.891   1.378  1.00  0.00     0.035 C 
ENDBRANCH  11  13
ENDBRANCH   2  11
BRANCH   1  23
HETATM   23  C1  UNL     1      -2.342   1.619  -1.728  1.00  0.00     0.171 C 
BRANCH  23  24
HETATM   24  O1  UNL     1      -1.358   2.588  -1.547  1.00  0.00    -0.400 OA
ATOM     25  H1  UNL     1      -1.341   3.245  -2.233  1.00  0.00     0.209 HD
ENDBRANCH  23  24
ENDBRANCH   1  23
TORSDOF 4
