REMARK  15 active torsions:
REMARK  status: ('A' for Active; 'I' for Inactive)
REMARK    1  A    between atoms: C2_2  and  C3_4 
REMARK    2  A    between atoms: C3_4  and  N1_5 
REMARK    3  A    between atoms: C3_4  and  C27_43 
REMARK       I    between atoms: N1_5  and  C4_7 
REMARK    4  A    between atoms: C4_7  and  C5_9 
REMARK    5  A    between atoms: C5_9  and  N2_10 
REMARK    6  A    between atoms: C5_9  and  C24_40 
REMARK       I    between atoms: N2_10  and  C6_12 
REMARK    7  A    between atoms: C6_12  and  C7_14 
REMARK    8  A    between atoms: C7_14  and  N3_15 
REMARK    9  A    between atoms: C7_14  and  C21_37 
REMARK       I    between atoms: N3_15  and  C8_17 
REMARK   10  A    between atoms: C8_17  and  C9_19 
REMARK   11  A    between atoms: C9_19  and  N4_20 
REMARK   12  A    between atoms: C9_19  and  C18_34 
REMARK       I    between atoms: N4_20  and  C10_22 
REMARK   13  A    between atoms: C10_22  and  C11_24 
REMARK   14  A    between atoms: N5_27  and  C14_28 
REMARK   15  A    between atoms: C14_28  and  C15_29 
ROOT
HETATM    1  C7  UNL     1      -0.440   2.065  -1.438  1.00  0.00     0.180 C 
ENDROOT
BRANCH   1   2
HETATM    2  C6  UNL     1      -1.680   1.254  -1.788  1.00  0.00     0.241 C 
HETATM    3  N2  UNL     1      -2.605   0.938  -0.757  1.00  0.00    -0.346 N 
ATOM      4  H2  UNL     1      -2.390   1.254   0.189  1.00  0.00     0.163 HD
HETATM    5  O3  UNL     1      -1.883   0.872  -2.950  1.00  0.00    -0.271 OA
BRANCH   3   6
HETATM    6  C5  UNL     1      -3.841   0.192  -0.960  1.00  0.00     0.180 C 
BRANCH   6   7
HETATM    7  C4  UNL     1      -4.655   0.240   0.261  1.00  0.00     0.241 C 
HETATM    8  N1  UNL     1      -6.007  -0.159   0.377  1.00  0.00    -0.348 N 
ATOM      9  H1  UNL     1      -6.477  -0.498  -0.462  1.00  0.00     0.163 HD
HETATM   10  O2  UNL     1      -4.114   0.683   1.341  1.00  0.00    -0.271 OA
BRANCH   8  11
HETATM   11  C3  UNL     1      -6.764  -0.118   1.601  1.00  0.00     0.157 C 
BRANCH  11  12
HETATM   12  C2  UNL     1      -7.568  -1.354   1.732  1.00  0.00     0.145 C 
HETATM   13  C1  UNL     1      -8.428  -1.601   2.933  1.00  0.00     0.093 C 
HETATM   14  O1  UNL     1      -7.527  -2.183   0.843  1.00  0.00    -0.296 OA
ENDBRANCH  11  12
BRANCH  11  15
HETATM   15  C27 UNL     1      -7.688   1.085   1.708  1.00  0.00     0.007 C 
HETATM   16  C28 UNL     1      -8.743   1.156   0.665  1.00  0.00     0.012 C 
HETATM   17  C29 UNL     1      -6.870   2.331   1.888  1.00  0.00     0.012 C 
ENDBRANCH  11  15
ENDBRANCH   8  11
ENDBRANCH   6   7
BRANCH   6  18
HETATM   18  C24 UNL     1      -3.436  -1.284  -1.246  1.00  0.00     0.009 C 
HETATM   19  C25 UNL     1      -2.644  -1.864  -0.119  1.00  0.00     0.012 C 
HETATM   20  C26 UNL     1      -4.633  -2.100  -1.654  1.00  0.00     0.012 C 
ENDBRANCH   6  18
ENDBRANCH   3   6
ENDBRANCH   1   2
BRANCH   1  21
HETATM   21  N3  UNL     1       0.716   1.473  -2.087  1.00  0.00    -0.346 N 
HETATM   22  C8  UNL     1       1.799   0.951  -1.333  1.00  0.00     0.241 C 
HETATM   23  O4  UNL     1       1.721   1.025  -0.054  1.00  0.00    -0.271 OA
ATOM     24  H3  UNL     1       0.750   1.431  -3.106  1.00  0.00     0.163 HD
BRANCH  22  25
HETATM   25  C9  UNL     1       3.002   0.332  -1.910  1.00  0.00     0.180 C 
BRANCH  25  26
HETATM   26  N4  UNL     1       3.889  -0.094  -0.867  1.00  0.00    -0.347 N 
HETATM   27  C10 UNL     1       4.980   0.581  -0.313  1.00  0.00     0.222 C 
HETATM   28  O5  UNL     1       5.251   1.733  -0.759  1.00  0.00    -0.273 OA
ATOM     29  H4  UNL     1       3.697  -1.016  -0.476  1.00  0.00     0.163 HD
BRANCH  27  30
HETATM   30  C11 UNL     1       5.845   0.052   0.751  1.00  0.00     0.084 C 
HETATM   31  C12 UNL     1       5.111  -0.866   1.706  1.00  0.00     0.034 C 
HETATM   32  C13 UNL     1       5.973  -1.077   2.884  1.00  0.00     0.128 C 
HETATM   33  N5  UNL     1       7.381  -1.192   2.689  1.00  0.00    -0.364 N 
HETATM   34  C16 UNL     1       7.938  -1.046   1.431  1.00  0.00     0.064 C 
HETATM   35  C17 UNL     1       7.041  -0.725   0.270  1.00  0.00     0.059 C 
BRANCH  33  36
HETATM   36  C14 UNL     1       8.044  -1.908   3.710  1.00  0.00     0.174 C 
BRANCH  36  37
HETATM   37  C15 UNL     1       9.485  -1.983   3.622  1.00  0.00     0.214 C 
HETATM   38  O6  UNL     1      10.224  -1.511   2.756  1.00  0.00    -0.643 OA
HETATM   39  O7  UNL     1      10.137  -2.694   4.670  1.00  0.00    -0.643 OA
ENDBRANCH  36  37
ENDBRANCH  33  36
ENDBRANCH  27  30
ENDBRANCH  25  26
BRANCH  25  40
HETATM   40  C18 UNL     1       2.616  -0.739  -2.888  1.00  0.00     0.009 C 
HETATM   41  C19 UNL     1       1.790  -1.826  -2.243  1.00  0.00     0.012 C 
HETATM   42  C20 UNL     1       3.859  -1.318  -3.548  1.00  0.00     0.012 C 
ENDBRANCH  25  40
ENDBRANCH  22  25
ENDBRANCH   1  21
BRANCH   1  43
HETATM   43  C21 UNL     1      -0.664   3.492  -1.859  1.00  0.00     0.009 C 
HETATM   44  C22 UNL     1       0.544   4.320  -1.521  1.00  0.00     0.012 C 
HETATM   45  C23 UNL     1      -0.860   3.606  -3.365  1.00  0.00     0.012 C 
ENDBRANCH   1  43
TORSDOF 15
