REMARK  6 active torsions:
REMARK  status: ('A' for Active; 'I' for Inactive)
REMARK    1  A    between atoms: C2_2  and  O1_5 
REMARK    2  A    between atoms: O1_5  and  C5_6 
REMARK    3  A    between atoms: C5_6  and  C6_8 
REMARK    4  A    between atoms: C6_8  and  N1_9 
REMARK    5  A    between atoms: C9_12  and  N2_13 
REMARK       I    between atoms: N2_13  and  C10_15 
REMARK       I    between atoms: C10_15  and  N4_19 
REMARK    6  A    between atoms: N4_19  and  C11_21 
ROOT
HETATM    1  N1  UNL     1       2.418   1.324  -0.203  1.00  0.00     0.095 N 
HETATM    2  C7  UNL     1       1.969   1.860   1.073  1.00  0.00     0.275 C 
HETATM    3  C8  UNL     1       0.782   1.047   1.528  1.00  0.00     0.056 C 
HETATM    4  C9  UNL     1      -0.409   1.479   0.700  1.00  0.00     0.102 C 
HETATM    5  C17 UNL     1       0.020   1.677  -0.706  1.00  0.00     0.056 C 
HETATM    6  C18 UNL     1       1.332   1.046  -1.088  1.00  0.00     0.275 C 
ENDROOT
BRANCH   4   7
HETATM    7  N2  UNL     1      -1.524   0.566   0.862  1.00  0.00    -0.222 N 
HETATM    8  C10 UNL     1      -2.734   0.845   0.136  1.00  0.00     0.668 C 
HETATM    9  N3  UNL     1      -2.986   2.024  -0.301  1.00  0.00    -0.235 N 
HETATM   10  N4  UNL     1      -3.689  -0.173  -0.121  1.00  0.00    -0.222 N 
ATOM     11  H32 UNL     1      -2.300   2.756  -0.116  1.00  0.00     0.174 HD
ATOM     12  H31 UNL     1      -3.844   2.222  -0.816  1.00  0.00     0.174 HD
ATOM     13  H4  UNL     1      -3.549  -0.771  -0.935  1.00  0.00     0.178 HD
ATOM     14  H2  UNL     1      -1.452  -0.249   1.472  1.00  0.00     0.178 HD
BRANCH  10  15
HETATM   15  C11 UNL     1      -4.847  -0.407   0.708  1.00  0.00     0.099 C 
HETATM   16  C12 UNL     1      -5.793   0.745   0.799  1.00  0.00     0.026 C 
HETATM   17  C13 UNL     1      -6.628   0.929  -0.444  1.00  0.00     0.002 C 
HETATM   18  C14 UNL     1      -7.168  -0.377  -0.969  1.00  0.00     0.000 C 
HETATM   19  C15 UNL     1      -6.121  -1.450  -1.082  1.00  0.00     0.002 C 
HETATM   20  C16 UNL     1      -5.557  -1.693   0.305  1.00  0.00     0.026 C 
ENDBRANCH  10  15
ENDBRANCH   4   7
BRANCH   1  21
HETATM   21  C6  UNL     1       3.280   0.234   0.077  1.00  0.00     0.348 C 
BRANCH  21  22
HETATM   22  C5  UNL     1       3.920  -0.428  -1.060  1.00  0.00     0.141 C 
HETATM   23  S1  UNL     1       3.751   0.093  -2.582  1.00  0.00    -0.056 SA
BRANCH  22  24
HETATM   24  O1  UNL     1       4.724  -1.564  -0.873  1.00  0.00    -0.332 OA
BRANCH  24  25
HETATM   25  C2  UNL     1       6.094  -1.494  -0.579  1.00  0.00     0.058 C 
HETATM   26  C1  UNL     1       6.400  -0.761   0.703  1.00  0.00     0.045 C 
HETATM   27  C3  UNL     1       6.862  -0.778  -1.680  1.00  0.00     0.045 C 
HETATM   28  C4  UNL     1       6.607  -2.922  -0.499  1.00  0.00     0.045 C 
ENDBRANCH  24  25
ENDBRANCH  22  24
ENDBRANCH  21  22
ENDBRANCH   1  21
TORSDOF 6
