REMARK  11 active torsions:
REMARK  status: ('A' for Active; 'I' for Inactive)
REMARK    1  A    between atoms: C5_5  and  N1_6 
REMARK    2  A    between atoms: C6_10  and  O1_11 
REMARK    3  A    between atoms: O1_11  and  C7_12 
REMARK    4  A    between atoms: C8_13  and  N2_14 
REMARK    5  A    between atoms: C10_19  and  N3_20 
REMARK    6  A    between atoms: C11_24  and  O2_25 
REMARK    7  A    between atoms: O2_25  and  C12_26 
REMARK    8  A    between atoms: C14_28  and  C15_29 
REMARK    9  A    between atoms: C15_29  and  C16_30 
REMARK   10  A    between atoms: C22_40  and  N6_41 
REMARK   11  A    between atoms: C23_45  and  O3_46 
ROOT
HETATM    1  C1  UNL     1      -5.258  -0.676  -2.657  1.00  0.00     0.015 C 
HETATM    2  C2  UNL     1      -5.406   0.393  -2.126  1.00  0.00    -0.085 C 
HETATM    3  C3  UNL     1      -5.600   1.678  -1.508  1.00  0.00     0.204 C 
HETATM    4  C4  UNL     1      -6.757   1.613  -0.507  1.00  0.00     0.082 C 
HETATM    5  C5  UNL     1      -6.008   1.376   0.788  1.00  0.00     0.241 C 
HETATM    6  C6  UNL     1      -4.596   1.271   0.345  1.00  0.00     0.292 C 
HETATM    7  O4  UNL     1      -4.508   2.100  -0.742  1.00  0.00    -0.342 OA
ENDROOT
BRANCH   5   8
HETATM    8  N1  UNL     1      -6.162   2.487   1.704  1.00  0.00    -0.070 N 
ATOM      9  H13 UNL     1      -5.887   3.368   1.270  1.00  0.00     0.274 HD
ATOM     10  H12 UNL     1      -7.146   2.695   1.875  1.00  0.00     0.274 HD
ATOM     11  H11 UNL     1      -5.658   2.327   2.576  1.00  0.00     0.274 HD
ENDBRANCH   5   8
BRANCH   6  12
HETATM   12  O1  UNL     1      -4.128  -0.003   0.152  1.00  0.00    -0.349 OA
BRANCH  12  13
HETATM   13  C7  UNL     1      -3.072  -0.365   0.943  1.00  0.00     0.186 C 
HETATM   14  C8  UNL     1      -3.323  -1.681   1.649  1.00  0.00     0.217 C 
HETATM   15  C9  UNL     1      -2.136  -2.608   1.544  1.00  0.00     0.071 C 
HETATM   16  C10 UNL     1      -0.871  -1.830   1.868  1.00  0.00     0.217 C 
HETATM   17  C11 UNL     1      -0.601  -0.741   0.849  1.00  0.00     0.183 C 
HETATM   18  C23 UNL     1      -1.870  -0.613   0.018  1.00  0.00     0.180 C 
BRANCH  14  19
HETATM   19  N2  UNL     1      -4.476  -2.374   1.137  1.00  0.00    -0.072 N 
ATOM     20  H23 UNL     1      -5.304  -1.779   1.167  1.00  0.00     0.274 HD
ATOM     21  H22 UNL     1      -4.405  -2.507   0.128  1.00  0.00     0.274 HD
ATOM     22  H21 UNL     1      -4.645  -3.260   1.613  1.00  0.00     0.274 HD
ENDBRANCH  14  19
BRANCH  16  23
HETATM   23  N3  UNL     1      -1.048  -1.291   3.204  1.00  0.00    -0.072 N 
ATOM     24  H33 UNL     1      -1.899  -0.738   3.307  1.00  0.00     0.274 HD
ATOM     25  H32 UNL     1      -1.274  -2.002   3.899  1.00  0.00     0.274 HD
ATOM     26  H31 UNL     1      -0.199  -0.769   3.421  1.00  0.00     0.274 HD
ENDBRANCH  16  23
BRANCH  17  27
HETATM   27  O2  UNL     1       0.474  -1.128   0.094  1.00  0.00    -0.374 OA
BRANCH  27  28
HETATM   28  C12 UNL     1       1.547  -0.228   0.097  1.00  0.00     0.153 C 
HETATM   29  C13 UNL     1       1.725   0.214  -1.322  1.00  0.00     0.042 C 
HETATM   30  C14 UNL     1       3.083   0.894  -1.593  1.00  0.00     0.011 C 
HETATM   31  C20 UNL     1       3.632   1.327  -0.286  1.00  0.00     0.011 C 
HETATM   32  C21 UNL     1       3.931   0.135   0.571  1.00  0.00     0.036 C 
HETATM   33  C22 UNL     1       2.805  -0.865   0.587  1.00  0.00     0.212 C 
BRANCH  30  34
HETATM   34  C15 UNL     1       3.896   0.072  -2.489  1.00  0.00    -0.020 C 
BRANCH  34  35
HETATM   35  C16 UNL     1       5.209   0.430  -3.000  1.00  0.00     0.027 C 
HETATM   36  C17 UNL     1       6.366   0.657  -2.160  1.00  0.00     0.048 A 
HETATM   37  C18 UNL     1       7.241  -0.326  -1.667  1.00  0.00     0.118 A 
HETATM   38  N5  UNL     1       6.872   1.816  -1.746  1.00  0.00    -0.351 N 
HETATM   39  N4  UNL     1       8.214   0.279  -0.993  1.00  0.00    -0.360 N 
HETATM   40  C19 UNL     1       7.985   1.598  -1.043  1.00  0.00     0.180 A 
ATOM     41  H4  UNL     1       8.995  -0.179  -0.522  1.00  0.00     0.166 HD
ATOM     42  H5  UNL     1       6.469   2.733  -1.937  1.00  0.00     0.166 HD
ENDBRANCH  34  35
ENDBRANCH  30  34
BRANCH  33  43
HETATM   43  N6  UNL     1       2.702  -1.339   1.956  1.00  0.00    -0.073 N 
ATOM     44  H63 UNL     1       2.406  -0.589   2.580  1.00  0.00     0.274 HD
ATOM     45  H62 UNL     1       1.908  -1.969   2.065  1.00  0.00     0.274 HD
ATOM     46  H61 UNL     1       3.562  -1.774   2.291  1.00  0.00     0.274 HD
ENDBRANCH  33  43
ENDBRANCH  27  28
ENDBRANCH  17  27
BRANCH  18  47
HETATM   47  O3  UNL     1      -1.848   0.480  -0.840  1.00  0.00    -0.390 OA
ATOM     48  H3  UNL     1      -1.105   0.327  -1.412  1.00  0.00     0.210 HD
ENDBRANCH  18  47
ENDBRANCH  12  13
ENDBRANCH   6  12
TORSDOF 11
