REMARK  16 active torsions:
REMARK  status: ('A' for Active; 'I' for Inactive)
REMARK    1  A    between atoms: O1_2  and  C2_3 
REMARK    2  A    between atoms: C2_3  and  C3_5 
REMARK    3  A    between atoms: C3_5  and  C4_6 
REMARK    4  A    between atoms: C3_5  and  N1_9 
REMARK       I    between atoms: N1_9  and  C8_11 
REMARK    5  A    between atoms: C8_11  and  C9_13 
REMARK    6  A    between atoms: N2_18  and  C14_19 
REMARK    7  A    between atoms: C14_19  and  O4_20 
REMARK    8  A    between atoms: C14_19  and  C15_22 
REMARK    9  A    between atoms: C15_22  and  O5_23 
REMARK   10  A    between atoms: C15_22  and  N3_25 
REMARK   11  A    between atoms: N3_25  and  C16_27 
REMARK   12  A    between atoms: C16_27  and  O6_28 
REMARK   13  A    between atoms: C16_27  and  C17_30 
REMARK   14  A    between atoms: C17_30  and  C18_31 
REMARK   15  A    between atoms: C17_30  and  C21_34 
REMARK   16  A    between atoms: C21_34  and  C24_37 
ROOT
HETATM    1  C15 UNL     1       1.166   1.003   1.081  1.00  0.00     0.167 C 
ENDROOT
BRANCH   1   2
HETATM    2  C14 UNL     1       0.481   0.275   0.043  1.00  0.00     0.296 C 
BRANCH   2   3
HETATM    3  N2  UNL     1      -0.752   0.863  -0.473  1.00  0.00    -0.348 N 
HETATM    4  C9  UNL     1      -1.884   0.851   0.340  1.00  0.00     0.178 C 
HETATM    5  C10 UNL     1      -2.430   2.183   0.812  1.00  0.00     0.035 C 
HETATM    6  C11 UNL     1      -2.128   3.309  -0.122  1.00  0.00     0.007 C 
HETATM    7  C12 UNL     1      -0.811   3.255  -0.812  1.00  0.00     0.044 C 
HETATM    8  C13 UNL     1      -0.552   1.917  -1.386  1.00  0.00     0.062 C 
BRANCH   4   9
HETATM    9  C8  UNL     1      -3.034   0.279  -0.496  1.00  0.00     0.243 C 
HETATM   10  N1  UNL     1      -4.185  -0.302   0.131  1.00  0.00    -0.340 N 
HETATM   11  C7  UNL     1      -4.096  -0.629   1.556  1.00  0.00     0.153 C 
HETATM   12  O3  UNL     1      -3.011   0.310  -1.745  1.00  0.00    -0.271 OA
BRANCH  10  13
HETATM   13  C3  UNL     1      -5.361  -0.597  -0.650  1.00  0.00     0.190 C 
BRANCH  13  14
HETATM   14  C2  UNL     1      -5.761  -1.980  -0.796  1.00  0.00     0.281 C 
HETATM   15  O2  UNL     1      -6.825  -2.170  -1.505  1.00  0.00    -0.263 OA
BRANCH  14  16
HETATM   16  O1  UNL     1      -5.178  -3.111  -0.292  1.00  0.00    -0.325 OA
HETATM   17  C1  UNL     1      -5.807  -4.371  -0.607  1.00  0.00     0.213 C 
ENDBRANCH  14  16
ENDBRANCH  13  14
BRANCH  13  18
HETATM   18  C4  UNL     1      -6.494   0.358  -0.291  1.00  0.00     0.010 C 
HETATM   19  C5  UNL     1      -7.553   0.388  -1.372  1.00  0.00     0.012 C 
HETATM   20  C6  UNL     1      -7.158   0.044   1.014  1.00  0.00     0.012 C 
ENDBRANCH  13  18
ENDBRANCH  10  13
ENDBRANCH   4   9
ENDBRANCH   2   3
BRANCH   2  21
HETATM   21  O4  UNL     1      -0.021  -0.953   0.623  1.00  0.00    -0.369 OA
ATOM     22  H4  UNL     1       0.781  -1.336   0.959  1.00  0.00     0.212 HD
ENDBRANCH   2  21
ENDBRANCH   1   2
BRANCH   1  23
HETATM   23  O5  UNL     1       0.350   1.615   1.906  1.00  0.00    -0.346 OA
ATOM     24  H5  UNL     1       0.802   2.095   2.590  1.00  0.00     0.219 HD
ENDBRANCH   1  23
BRANCH   1  25
HETATM   25  N3  UNL     1       2.502   1.215   1.404  1.00  0.00    -0.317 N 
ATOM     26  H3  UNL     1       2.577   1.940   2.117  1.00  0.00     0.169 HD
BRANCH  25  27
HETATM   27  C16 UNL     1       3.755   0.756   1.066  1.00  0.00     0.145 C 
BRANCH  27  28
HETATM   28  O6  UNL     1       4.721   1.473   1.616  1.00  0.00    -0.346 OA
ATOM     29  H6  UNL     1       5.586   1.156   1.383  1.00  0.00     0.219 HD
ENDBRANCH  27  28
BRANCH  27  30
HETATM   30  C17 UNL     1       4.124  -0.375   0.235  1.00  0.00    -0.012 C 
BRANCH  30  31
HETATM   31  C18 UNL     1       4.427  -1.606   1.096  1.00  0.00     0.012 C 
HETATM   32  C19 UNL     1       5.539  -1.399   2.085  1.00  0.00     0.014 C 
HETATM   33  C20 UNL     1       3.186  -2.006   1.910  1.00  0.00     0.014 C 
ENDBRANCH  30  31
BRANCH  30  34
HETATM   34  C21 UNL     1       5.038  -0.236  -0.891  1.00  0.00     0.024 C 
HETATM   35  C22 UNL     1       5.124  -1.659  -1.528  1.00  0.00     0.027 C 
HETATM   36  C23 UNL     1       4.415   0.582  -2.042  1.00  0.00     0.027 C 
BRANCH  34  37
HETATM   37  C24 UNL     1       6.444   0.152  -0.719  1.00  0.00     0.038 A 
HETATM   38  C25 UNL     1       6.959   1.417  -1.033  1.00  0.00     0.115 A 
HETATM   39  N4  UNL     1       8.302   1.428  -0.828  1.00  0.00    -0.360 N 
HETATM   40  C26 UNL     1       8.654   0.193  -0.391  1.00  0.00     0.180 A 
ATOM     41  H4  UNL     1       8.929   2.219  -0.975  1.00  0.00     0.166 HD
HETATM   42  N5  UNL     1       7.539  -0.522  -0.341  1.00  0.00    -0.354 N 
ATOM     43  H5  UNL     1       7.516  -1.497  -0.042  1.00  0.00     0.166 HD
ENDBRANCH  34  37
ENDBRANCH  30  34
ENDBRANCH  27  30
ENDBRANCH  25  27
ENDBRANCH   1  25
TORSDOF 16
