REMARK  11 active torsions:
REMARK  status: ('A' for Active; 'I' for Inactive)
REMARK    1  A    between atoms: C2_2  and  C3_3 
REMARK    2  A    between atoms: C3_3  and  N3_8 
REMARK    3  A    between atoms: N3_8  and  N4_10 
REMARK    4  A    between atoms: C6_12  and  C7_13 
REMARK    5  A    between atoms: C6_12  and  C14_30 
REMARK    6  A    between atoms: C7_13  and  O1_14 
REMARK    7  A    between atoms: C7_13  and  C8_16 
REMARK    8  A    between atoms: C8_16  and  N5_18 
REMARK    9  A    between atoms: N5_18  and  N6_20 
REMARK   10  A    between atoms: N6_20  and  C10_22 
REMARK   11  A    between atoms: C15_36  and  N11_37 
ROOT
HETATM    1  C3  UNL     1       3.850   1.319  -0.867  1.00  0.00     0.222 C 
HETATM    2  C4  UNL     1       3.846   0.330  -1.972  1.00  0.00     0.108 C 
HETATM    3  N1  UNL     1       3.834  -0.443  -2.833  1.00  0.00    -0.193 NA
HETATM    4  C5  UNL     1       3.775   2.625  -1.515  1.00  0.00     0.108 C 
HETATM    5  N2  UNL     1       3.716   3.671  -2.027  1.00  0.00    -0.193 NA
ENDROOT
BRANCH   1   6
HETATM    6  C2  UNL     1       5.181   1.159  -0.142  1.00  0.00     0.059 C 
HETATM    7  C1  UNL     1       5.317   2.105   1.005  1.00  0.00     0.010 C 
ENDBRANCH   1   6
BRANCH   1   8
HETATM    8  N3  UNL     1       2.718   1.140   0.021  1.00  0.00    -0.299 N 
ATOM      9  H3  UNL     1       2.092   1.928   0.187  1.00  0.00     0.183 HD
BRANCH   8  10
HETATM   10  N4  UNL     1       2.468  -0.027   0.630  1.00  0.00    -0.298 N 
HETATM   11  C6  UNL     1       1.442  -0.835   0.611  1.00  0.00     0.115 C 
ATOM     12  H4  UNL     1       3.230  -0.348   1.227  1.00  0.00     0.187 HD
BRANCH  11  13
HETATM   13  C7  UNL     1       0.313  -0.506  -0.179  1.00  0.00     0.120 C 
BRANCH  13  14
HETATM   14  O1  UNL     1       0.466   0.661  -0.842  1.00  0.00    -0.357 OA
ATOM     15  H1  UNL     1      -0.291   0.882  -1.372  1.00  0.00     0.218 HD
ENDBRANCH  13  14
BRANCH  13  16
HETATM   16  C8  UNL     1      -0.959  -1.085  -0.466  1.00  0.00     0.058 C 
HETATM   17  C9  UNL     1      -1.608  -2.312  -0.009  1.00  0.00     0.072 C 
BRANCH  16  18
HETATM   18  N5  UNL     1      -1.721  -0.376  -1.316  1.00  0.00    -0.288 N 
ATOM     19  H5  UNL     1      -1.350   0.499  -1.686  1.00  0.00     0.187 HD
BRANCH  18  20
HETATM   20  N6  UNL     1      -2.957  -0.768  -1.705  1.00  0.00    -0.132 N 
ATOM     21  H6  UNL     1      -3.041  -1.617  -2.264  1.00  0.00     0.205 HD
BRANCH  20  22
HETATM   22  C10 UNL     1      -4.144  -0.059  -1.375  1.00  0.00     0.688 C 
HETATM   23  N7  UNL     1      -5.186  -0.749  -1.061  1.00  0.00    -0.225 N 
HETATM   24  C11 UNL     1      -6.394  -0.001  -0.725  1.00  0.00     0.139 C 
ATOM     25  H7  UNL     1      -5.168  -1.769  -1.048  1.00  0.00     0.177 HD
HETATM   26  C12 UNL     1      -5.969   1.147   0.167  1.00  0.00     0.040 C 
HETATM   27  C13 UNL     1      -5.129   2.109  -0.636  1.00  0.00     0.139 C 
HETATM   28  N8  UNL     1      -4.148   1.361  -1.400  1.00  0.00    -0.225 N 
ATOM     29  H8  UNL     1      -3.456   1.859  -1.960  1.00  0.00     0.177 HD
ENDBRANCH  20  22
ENDBRANCH  18  20
ENDBRANCH  16  18
ENDBRANCH  13  16
ENDBRANCH  11  13
BRANCH  11  30
HETATM   30  C14 UNL     1       1.628  -2.006   1.453  1.00  0.00     0.132 A 
HETATM   31  N9  UNL     1       0.869  -3.076   1.703  1.00  0.00    -0.236 N 
HETATM   32  O2  UNL     1       1.424  -3.899   2.515  1.00  0.00    -0.155 OA
ATOM     33  H9  UNL     1      -0.053  -3.223   1.292  1.00  0.00     0.197 HD
HETATM   34  N10 UNL     1       2.574  -3.479   2.880  1.00  0.00    -0.224 N 
HETATM   35  C15 UNL     1       2.772  -2.276   2.243  1.00  0.00     0.152 A 
ATOM     36  H10 UNL     1       3.219  -3.944   3.519  1.00  0.00     0.198 HD
BRANCH  35  37
HETATM   37  N11 UNL     1       3.819  -1.626   2.419  1.00  0.00    -0.382 N 
ATOM     38 2H11 UNL     1       3.966  -0.734   1.947  1.00  0.00     0.157 HD
ATOM     39 1H11 UNL     1       4.643  -1.820   2.988  1.00  0.00     0.157 HD
ENDBRANCH  35  37
ENDBRANCH  11  30
ENDBRANCH   8  10
ENDBRANCH   1   8
TORSDOF 11
