REMARK  1 active torsions:
REMARK  status: ('A' for Active; 'I' for Inactive)
REMARK    1  A    between atoms: C2_5  and  N2_6 
ROOT
HETATM    1  C1  UNL     1      -1.404   0.706   0.386  1.00  0.00     0.284 A 
HETATM    2  N1  UNL     1      -1.910  -0.362  -0.465  1.00  0.00    -0.052 N 
ATOM      3  H11 UNL     1      -2.262  -0.389  -1.422  1.00  0.00     0.279 HD
ATOM      4  H12 UNL     1      -2.764  -0.919  -0.458  1.00  0.00     0.279 HD
HETATM    5  C2  UNL     1      -0.615  -0.542   0.110  1.00  0.00     0.302 A 
ENDROOT
BRANCH   5   6
HETATM    6  N2  UNL     1       0.599  -0.382  -0.637  1.00  0.00    -0.186 NA
HETATM    7  C3  UNL     1       1.642   0.385  -0.087  1.00  0.00     0.240 A 
HETATM    8  N3  UNL     1       1.772  -1.003  -0.108  1.00  0.00    -0.146 NA
ENDBRANCH   5   6
TORSDOF 1
