REMARK  12 active torsions:
REMARK  status: ('A' for Active; 'I' for Inactive)
REMARK    1  A    between atoms: O1_2  and  C2_3 
REMARK    2  A    between atoms: C3_6  and  N2_7 
REMARK    3  A    between atoms: N2_7  and  C4_9 
REMARK    4  A    between atoms: C4_9  and  C5_10 
REMARK    5  A    between atoms: C5_10  and  N3_11 
REMARK    6  A    between atoms: N3_11  and  C6_13 
REMARK    7  A    between atoms: N8_27  and  C11_28 
REMARK    8  A    between atoms: C11_28  and  C12_29 
REMARK    9  A    between atoms: C14_40  and  N14_41 
REMARK   10  A    between atoms: N14_41  and  C15_43 
REMARK   11  A    between atoms: C15_43  and  C16_44 
REMARK   12  A    between atoms: C16_44  and  C17_45 
ROOT
HETATM    1  C6  UNL     1       2.062   0.527  -0.046  1.00  0.00     0.147 A 
HETATM    2  N4  UNL     1       2.046  -0.793  -0.285  1.00  0.00    -0.175 N 
ATOM      3  H4  UNL     1       1.195  -1.255  -0.605  1.00  0.00     0.186 HD
HETATM    4  C7  UNL     1       3.179  -1.492  -0.093  1.00  0.00     0.679 A 
HETATM    5  N5  UNL     1       3.187  -2.783  -0.321  1.00  0.00    -0.234 N 
ATOM      6  H51 UNL     1       4.046  -3.313  -0.175  1.00  0.00     0.174 HD
ATOM      7  H52 UNL     1       2.336  -3.245  -0.640  1.00  0.00     0.174 HD
HETATM    8  N6  UNL     1       4.304  -0.881   0.328  1.00  0.00    -0.174 N 
ATOM      9  H6  UNL     1       5.143  -1.445   0.462  1.00  0.00     0.186 HD
HETATM   10  C8  UNL     1       4.371   0.438   0.580  1.00  0.00     0.155 A 
HETATM   11  C9  UNL     1       3.197   1.176   0.384  1.00  0.00     0.123 A 
HETATM   12  N7  UNL     1       3.508   2.442   0.702  1.00  0.00    -0.346 N 
ATOM     13  H7  UNL     1       2.851   3.221   0.661  1.00  0.00     0.167 HD
HETATM   14  C10 UNL     1       4.786   2.556   1.080  1.00  0.00     0.185 A 
HETATM   15  N8  UNL     1       5.302   1.290   0.994  1.00  0.00    -0.320 N 
ENDROOT
BRANCH   1  16
HETATM   16  N3  UNL     1       0.993   1.201  -0.223  1.00  0.00    -0.372 N 
ATOM     17  H3  UNL     1       0.986   2.206  -0.047  1.00  0.00     0.161 HD
BRANCH  16  18
HETATM   18  C5  UNL     1      -0.201   0.539  -0.671  1.00  0.00     0.141 C 
BRANCH  18  19
HETATM   19  C4  UNL     1      -1.293   1.591  -0.796  1.00  0.00     0.157 C 
BRANCH  19  20
HETATM   20  N2  UNL     1      -2.506   0.981  -1.239  1.00  0.00    -0.224 N 
ATOM     21  H2  UNL     1      -2.727   1.000  -2.235  1.00  0.00     0.177 HD
BRANCH  20  22
HETATM   22  C3  UNL     1      -3.346   0.399  -0.422  1.00  0.00     0.695 A 
HETATM   23  N1  UNL     1      -3.123   0.333   0.907  1.00  0.00    -0.154 N 
HETATM   24  C2  UNL     1      -3.988  -0.267   1.744  1.00  0.00     0.252 A 
ATOM     25  H1  UNL     1      -2.274   0.750   1.288  1.00  0.00     0.188 HD
HETATM   26  N15 UNL     1      -5.110  -0.817   1.237  1.00  0.00    -0.154 N 
HETATM   27  C14 UNL     1      -5.373  -0.772  -0.098  1.00  0.00     0.695 A 
ATOM     28  H15 UNL     1      -5.772  -1.274   1.864  1.00  0.00     0.188 HD
HETATM   29  N13 UNL     1      -4.479  -0.165  -0.877  1.00  0.00    -0.022 N 
ATOM     30  H13 UNL     1      -4.665  -0.126  -1.879  1.00  0.00     0.203 HD
BRANCH  24  31
HETATM   31  O1  UNL     1      -3.802  -0.359   3.115  1.00  0.00    -0.326 OA
HETATM   32  C1  UNL     1      -2.630   0.215   3.657  1.00  0.00     0.213 C 
ENDBRANCH  24  31
BRANCH  27  33
HETATM   33  N14 UNL     1      -6.465  -1.320  -0.512  1.00  0.00    -0.225 N 
ATOM     34  H14 UNL     1      -7.104  -1.769   0.144  1.00  0.00     0.177 HD
BRANCH  33  35
HETATM   35  C15 UNL     1      -6.760  -1.284  -1.912  1.00  0.00     0.148 C 
BRANCH  35  36
HETATM   36  C16 UNL     1      -8.190  -1.685  -2.216  1.00  0.00     0.133 C 
BRANCH  36  37
HETATM   37  C17 UNL     1      -9.101  -0.744  -1.521  1.00  0.00     0.174 C 
HETATM   38  O2  UNL     1      -9.288  -0.896  -0.283  1.00  0.00    -0.648 OA
HETATM   39  O3  UNL     1      -9.732   0.283  -2.224  1.00  0.00    -0.648 OA
ENDBRANCH  36  37
ENDBRANCH  35  36
ENDBRANCH  33  35
ENDBRANCH  27  33
ENDBRANCH  20  22
ENDBRANCH  19  20
ENDBRANCH  18  19
ENDBRANCH  16  18
ENDBRANCH   1  16
BRANCH  15  40
HETATM   40  C11 UNL     1       6.696   0.985   1.305  1.00  0.00     0.211 C 
BRANCH  40  41
HETATM   41  C12 UNL     1       7.573   1.195   0.147  1.00  0.00     0.133 A 
HETATM   42  N9  UNL     1       7.998   2.428  -0.227  1.00  0.00    -0.271 N 
HETATM   43  N10 UNL     1       8.770   2.292  -1.276  1.00  0.00    -0.227 N 
ATOM     44  H9  UNL     1       7.758   3.308   0.230  1.00  0.00     0.190 HD
HETATM   45  N11 UNL     1       8.824   1.002  -1.546  1.00  0.00    -0.225 N 
ATOM     46  H10 UNL     1       9.239   3.040  -1.786  1.00  0.00     0.210 HD
HETATM   47  N12 UNL     1       8.092   0.307  -0.679  1.00  0.00    -0.266 N 
ATOM     48  H11 UNL     1       9.355   0.593  -2.315  1.00  0.00     0.210 HD
HETATM   49  C13 UNL     1       7.973  -1.134  -0.725  1.00  0.00     0.181 C 
ENDBRANCH  40  41
ENDBRANCH  15  40
TORSDOF 12
