REMARK  13 active torsions:
REMARK  status: ('A' for Active; 'I' for Inactive)
REMARK    1  A    between atoms: N1_1  and  C1_5 
REMARK    2  A    between atoms: C1_5  and  C2_6 
REMARK    3  A    between atoms: C2_6  and  C3_7 
REMARK    4  A    between atoms: C3_7  and  C4_8 
REMARK    5  A    between atoms: C4_8  and  N2_9 
REMARK    6  A    between atoms: N2_9  and  C5_11 
REMARK    7  A    between atoms: C5_11  and  C6_12 
REMARK    8  A    between atoms: C6_12  and  N3_13 
REMARK    9  A    between atoms: C7_18  and  N4_19 
REMARK   10  A    between atoms: C8_23  and  O2_24 
REMARK   11  A    between atoms: C9_26  and  O3_27 
REMARK   12  A    between atoms: C10_29  and  O4_30 
REMARK   13  A    between atoms: C11_32  and  N5_33 
ROOT
HETATM    1  C4  UNL     1       0.161   0.048   0.111  1.00  0.00     0.164 C 
HETATM    2  O1  UNL     1       0.150  -0.915   1.055  1.00  0.00    -0.324 OA
HETATM    3  C7  UNL     1      -0.953  -1.555   1.470  1.00  0.00     0.352 C 
HETATM    4  C8  UNL     1      -1.518  -2.615   0.587  1.00  0.00     0.205 C 
HETATM    5  C9  UNL     1      -1.293  -2.604  -0.839  1.00  0.00     0.182 C 
HETATM    6  C10 UNL     1      -1.037  -1.360  -1.600  1.00  0.00     0.184 C 
HETATM    7  C11 UNL     1       0.201  -0.594  -1.212  1.00  0.00     0.269 C 
ENDROOT
BRANCH   1   8
HETATM    8  C3  UNL     1      -0.871   1.142   0.251  1.00  0.00     0.065 C 
BRANCH   8   9
HETATM    9  C2  UNL     1      -0.560   2.195  -0.793  1.00  0.00     0.032 C 
BRANCH   9  10
HETATM   10  C1  UNL     1      -1.624   3.287  -0.661  1.00  0.00     0.230 C 
BRANCH  10  11
HETATM   11  N1  UNL     1      -1.376   4.345  -1.628  1.00  0.00    -0.079 N 
ATOM     12  H13 UNL     1      -0.431   4.721  -1.549  1.00  0.00     0.274 HD
ATOM     13  H12 UNL     1      -1.314   3.985  -2.580  1.00  0.00     0.274 HD
ATOM     14  H11 UNL     1      -2.085   5.073  -1.540  1.00  0.00     0.274 HD
ENDBRANCH  10  11
ENDBRANCH   9  10
ENDBRANCH   8   9
ENDBRANCH   1   8
BRANCH   1  15
HETATM   15  N2  UNL     1       1.383   0.800   0.334  1.00  0.00    -0.388 N 
ATOM     16  H2  UNL     1       1.429   1.798   0.126  1.00  0.00     0.156 HD
BRANCH  15  17
HETATM   17  C5  UNL     1       2.506   0.113   0.846  1.00  0.00     0.144 C 
BRANCH  17  18
HETATM   18  C6  UNL     1       3.526   1.197   1.265  1.00  0.00     0.248 C 
BRANCH  18  19
HETATM   19  N3  UNL     1       4.742   0.595   1.762  1.00  0.00    -0.078 N 
ATOM     20  H33 UNL     1       4.555  -0.060   2.521  1.00  0.00     0.274 HD
ATOM     21  H32 UNL     1       5.142  -0.059   1.089  1.00  0.00     0.274 HD
ATOM     22  H31 UNL     1       5.415   1.310   2.038  1.00  0.00     0.274 HD
ENDBRANCH  18  19
ENDBRANCH  17  18
ENDBRANCH  15  17
ENDBRANCH   1  15
BRANCH   7  23
HETATM   23  N5  UNL     1       1.241  -1.610  -1.202  1.00  0.00    -0.068 N 
ATOM     24  H53 UNL     1       2.148  -1.238  -0.920  1.00  0.00     0.275 HD
ATOM     25  H52 UNL     1       1.123  -2.283  -0.444  1.00  0.00     0.275 HD
ATOM     26  H51 UNL     1       1.269  -2.055  -2.119  1.00  0.00     0.275 HD
ENDBRANCH   7  23
BRANCH   3  27
HETATM   27  N4  UNL     1      -1.990  -0.720   2.063  1.00  0.00    -0.050 N 
ATOM     28  H43 UNL     1      -1.598  -0.173   2.829  1.00  0.00     0.277 HD
ATOM     29  H42 UNL     1      -2.245   0.027   1.417  1.00  0.00     0.277 HD
ATOM     30  H41 UNL     1      -2.829  -1.207   2.379  1.00  0.00     0.277 HD
ENDBRANCH   3  27
BRANCH   6  31
HETATM   31  O4  UNL     1      -2.164  -0.588  -1.826  1.00  0.00    -0.391 OA
ATOM     32  H4  UNL     1      -2.000   0.210  -2.314  1.00  0.00     0.210 HD
ENDBRANCH   6  31
BRANCH   4  33
HETATM   33  O2  UNL     1      -2.913  -2.644   0.862  1.00  0.00    -0.389 OA
ATOM     34  H2  UNL     1      -3.273  -3.319   0.299  1.00  0.00     0.210 HD
ENDBRANCH   4  33
BRANCH   5  35
HETATM   35  O3  UNL     1      -0.304  -3.551  -1.226  1.00  0.00    -0.390 OA
ATOM     36  H3  UNL     1      -0.156  -3.544  -2.164  1.00  0.00     0.210 HD
ENDBRANCH   5  35
TORSDOF 13
