REMARK  11 active torsions:
REMARK  status: ('A' for Active; 'I' for Inactive)
REMARK    1  A    between atoms: N1_1  and  C1_5 
REMARK    2  A    between atoms: C3_7  and  N2_8 
REMARK    3  A    between atoms: C4_12  and  N3_13 
REMARK    4  A    between atoms: N3_13  and  C5_15 
REMARK    5  A    between atoms: C5_15  and  C6_16 
REMARK    6  A    between atoms: C6_16  and  C7_17 
REMARK    7  A    between atoms: C7_17  and  O1_18 
REMARK    8  A    between atoms: O1_18  and  C8_19 
REMARK    9  A    between atoms: C8_19  and  C9_20 
REMARK   10  A    between atoms: C10_26  and  O2_27 
REMARK   11  A    between atoms: C11_29  and  O3_30 
ROOT
HETATM    1  C6  UNL     1      -0.288  -0.807  -0.987  1.00  0.00     0.045 C 
ENDROOT
BRANCH   1   2
HETATM    2  C5  UNL     1      -1.460  -0.790   0.020  1.00  0.00     0.116 C 
BRANCH   2   3
HETATM    3  N3  UNL     1      -2.407   0.162  -0.428  1.00  0.00    -0.413 N 
ATOM      4  H3  UNL     1      -2.250   0.665  -1.301  1.00  0.00     0.153 HD
BRANCH   3   5
HETATM    5  C4  UNL     1      -3.563   0.414   0.330  1.00  0.00     0.137 C 
HETATM    6  C1  UNL     1      -4.590  -0.632   0.571  1.00  0.00     0.209 C 
HETATM    7  C2  UNL     1      -5.119  -0.347  -0.843  1.00  0.00     0.069 C 
HETATM    8  C3  UNL     1      -4.606   1.079  -0.598  1.00  0.00     0.209 C 
BRANCH   6   9
HETATM    9  N1  UNL     1      -4.212  -1.969   0.835  1.00  0.00    -0.073 N 
ATOM     10  H13 UNL     1      -4.988  -2.596   0.623  1.00  0.00     0.274 HD
ATOM     11  H12 UNL     1      -3.531  -2.279   0.142  1.00  0.00     0.274 HD
ATOM     12  H11 UNL     1      -3.861  -2.158   1.774  1.00  0.00     0.274 HD
ENDBRANCH   6   9
BRANCH   8  13
HETATM   13  N2  UNL     1      -5.565   1.879   0.124  1.00  0.00    -0.073 N 
ATOM     14  H23 UNL     1      -6.470   1.886  -0.346  1.00  0.00     0.274 HD
ATOM     15  H22 UNL     1      -5.841   1.429   0.997  1.00  0.00     0.274 HD
ATOM     16  H21 UNL     1      -5.224   2.826   0.287  1.00  0.00     0.274 HD
ENDBRANCH   8  13
ENDBRANCH   3   5
ENDBRANCH   2   3
ENDBRANCH   1   2
BRANCH   1  17
HETATM   17  C7  UNL     1       0.324   0.531  -1.055  1.00  0.00     0.169 C 
BRANCH  17  18
HETATM   18  O1  UNL     1       0.854   1.072   0.053  1.00  0.00    -0.389 OA
BRANCH  18  19
HETATM   19  C8  UNL     1       1.868   0.438   0.686  1.00  0.00     0.197 C 
BRANCH  19  20
HETATM   20  C9  UNL     1       3.103   0.251  -0.205  1.00  0.00     0.156 C 
HETATM   21  N4  UNL     1       3.556   1.536  -0.612  1.00  0.00    -0.315 N 
HETATM   22  N5  UNL     1       4.632   2.063   0.050  1.00  0.00    -0.248 N 
ATOM     23  H4  UNL     1       3.097   2.045  -1.368  1.00  0.00     0.181 HD
HETATM   24  N6  UNL     1       5.712   1.220   0.212  1.00  0.00    -0.091 NA
ATOM     25  H5  UNL     1       4.635   3.020   0.402  1.00  0.00     0.203 HD
HETATM   26  C10 UNL     1       5.280   0.119   1.050  1.00  0.00     0.263 C 
HETATM   27  C11 UNL     1       4.128  -0.619   0.458  1.00  0.00     0.190 C 
BRANCH  26  28
HETATM   28  O2  UNL     1       6.361  -0.750   1.180  1.00  0.00    -0.375 OA
ATOM     29  H2  UNL     1       6.078  -1.472   1.729  1.00  0.00     0.211 HD
ENDBRANCH  26  28
BRANCH  27  30
HETATM   30  O3  UNL     1       4.626  -1.602  -0.389  1.00  0.00    -0.389 OA
ATOM     31  H3  UNL     1       5.276  -2.153   0.031  1.00  0.00     0.210 HD
ENDBRANCH  27  30
ENDBRANCH  19  20
ENDBRANCH  18  19
ENDBRANCH  17  18
ENDBRANCH   1  17
TORSDOF 11
