REMARK  11 active torsions:
REMARK  status: ('A' for Active; 'I' for Inactive)
REMARK    1  A    between atoms: C1_4  and  C2_5 
REMARK    2  A    between atoms: C2_5  and  C3_6 
REMARK    3  A    between atoms: C3_6  and  N2_7 
REMARK    4  A    between atoms: N2_7  and  N3_9 
REMARK    5  A    between atoms: N3_9  and  C4_11 
REMARK    6  A    between atoms: N7_20  and  C6_21 
REMARK    7  A    between atoms: C6_21  and  O1_22 
REMARK    8  A    between atoms: C6_21  and  N8_24 
REMARK    9  A    between atoms: N8_24  and  C7_26 
REMARK   10  A    between atoms: C7_26  and  C8_27 
REMARK   11  A    between atoms: C8_27  and  N9_28 
ROOT
HETATM    1  C4  UNL     1       1.268   0.191  -0.241  1.00  0.00     0.180 A 
HETATM    2  N4  UNL     1       1.463  -1.156  -0.190  1.00  0.00    -0.171 N 
ATOM      3  H4  UNL     1       2.398  -1.515  -0.382  1.00  0.00     0.186 HD
HETATM    4  C5  UNL     1       0.502  -2.030   0.096  1.00  0.00     0.692 A 
HETATM    5  N5  UNL     1       0.756  -3.303   0.129  1.00  0.00    -0.233 N 
ATOM      6  H51 UNL     1       0.019  -3.973   0.348  1.00  0.00     0.174 HD
ATOM      7  H52 UNL     1       1.689  -3.669  -0.062  1.00  0.00     0.174 HD
HETATM    8  N6  UNL     1      -0.728  -1.548   0.348  1.00  0.00    -0.125 N 
ATOM      9  H6  UNL     1      -1.475  -2.206   0.569  1.00  0.00     0.206 HD
HETATM   10  N7  UNL     1      -1.009  -0.259   0.321  1.00  0.00    -0.212 N 
HETATM   11  C9  UNL     1      -0.019   0.611   0.028  1.00  0.00     0.167 A 
HETATM   12  N10 UNL     1      -0.289   1.852   0.002  1.00  0.00    -0.381 N 
ATOM     13 1H10 UNL     1      -1.240   2.162   0.201  1.00  0.00     0.157 HD
ATOM     14 2H10 UNL     1       0.459   2.509  -0.219  1.00  0.00     0.157 HD
ENDROOT
BRANCH  10  15
HETATM   15  C6  UNL     1      -2.375   0.207   0.603  1.00  0.00     0.347 C 
BRANCH  15  16
HETATM   16  O1  UNL     1      -2.467   1.465   0.014  1.00  0.00    -0.358 OA
ATOM     17  H1  UNL     1      -3.349   1.766   0.196  1.00  0.00     0.214 HD
ENDBRANCH  15  16
BRANCH  15  18
HETATM   18  N8  UNL     1      -3.294  -0.763   0.122  1.00  0.00    -0.378 N 
ATOM     19  H8  UNL     1      -2.969  -1.596  -0.368  1.00  0.00     0.157 HD
BRANCH  18  20
HETATM   20  C7  UNL     1      -4.675  -0.540   0.343  1.00  0.00     0.145 C 
BRANCH  20  21
HETATM   21  C8  UNL     1      -5.305   0.593  -0.405  1.00  0.00     0.248 C 
BRANCH  21  22
HETATM   22  N9  UNL     1      -6.716   0.626  -0.039  1.00  0.00    -0.078 N 
ATOM     23  H93 UNL     1      -7.188  -0.265  -0.193  1.00  0.00     0.274 HD
ATOM     24  H92 UNL     1      -6.865   0.682   0.969  1.00  0.00     0.274 HD
ATOM     25  H91 UNL     1      -7.145   1.398  -0.549  1.00  0.00     0.274 HD
ENDBRANCH  21  22
ENDBRANCH  20  21
ENDBRANCH  18  20
ENDBRANCH  15  18
ENDBRANCH  10  15
BRANCH   1  26
HETATM   26  N3  UNL     1       2.221   1.017  -0.524  1.00  0.00    -0.286 N 
ATOM     27  H3  UNL     1       2.033   2.019  -0.552  1.00  0.00     0.188 HD
BRANCH  26  28
HETATM   28  N2  UNL     1       3.506   0.544  -0.791  1.00  0.00    -0.334 N 
ATOM     29  H2  UNL     1       3.694   0.032  -1.653  1.00  0.00     0.180 HD
BRANCH  28  30
HETATM   30  C3  UNL     1       4.568   0.781   0.155  1.00  0.00     0.144 C 
BRANCH  30  31
HETATM   31  C2  UNL     1       5.880   0.213  -0.296  1.00  0.00     0.065 C 
BRANCH  31  32
HETATM   32  C1  UNL     1       6.885   0.532   0.779  1.00  0.00     0.054 C 
HETATM   33  N1  UNL     1       7.043   1.762   1.146  1.00  0.00    -0.411 N 
ATOM     34  H12 UNL     1       6.487   2.494   0.704  1.00  0.00     0.155 HD
ATOM     35  H11 UNL     1       7.724   1.978   1.874  1.00  0.00     0.155 HD
ENDBRANCH  31  32
ENDBRANCH  30  31
ENDBRANCH  28  30
ENDBRANCH  26  28
ENDBRANCH   1  26
TORSDOF 11
