REMARK  2 active torsions:
REMARK  status: ('A' for Active; 'I' for Inactive)
REMARK       I    between atoms: C2_2  and  N1_4 
REMARK    1  A    between atoms: N1_4  and  N2_6 
REMARK    2  A    between atoms: N2_6  and  C3_8 
ROOT
HETATM    1  C3  UNL     1      -0.584  -0.631   0.071  1.00  0.00     0.204 A 
HETATM    2  N3  UNL     1      -1.392  -0.815  -1.005  1.00  0.00    -0.278 N 
ATOM      3  H3  UNL     1      -1.064  -1.422  -1.756  1.00  0.00     0.189 HD
HETATM    4  N4  UNL     1      -2.577  -0.251  -1.131  1.00  0.00    -0.272 N 
ATOM      5  H4  UNL     1      -3.127  -0.436  -1.969  1.00  0.00     0.189 HD
HETATM    6  C4  UNL     1      -3.080   0.561  -0.186  1.00  0.00     0.210 A 
HETATM    7  N5  UNL     1      -4.348   1.182  -0.293  1.00  0.00    -0.062 NA
HETATM    8  N6  UNL     1      -2.292   0.765   0.905  1.00  0.00    -0.293 N 
ATOM      9  H6  UNL     1      -2.636   1.376   1.646  1.00  0.00     0.172 HD
HETATM   10  C5  UNL     1      -1.083   0.199   1.050  1.00  0.00     0.294 A 
HETATM   11  O2  UNL     1      -0.361   0.404   2.078  1.00  0.00    -0.264 OA
ENDROOT
BRANCH   1  12
HETATM   12  N2  UNL     1       0.684  -1.269   0.150  1.00  0.00    -0.277 N 
ATOM     13  H2  UNL     1       0.748  -2.281   0.044  1.00  0.00     0.189 HD
BRANCH  12  14
HETATM   14  N1  UNL     1       1.849  -0.516   0.373  1.00  0.00    -0.269 N 
HETATM   15  C2  UNL     1       2.957  -0.534  -0.511  1.00  0.00     0.232 C 
HETATM   16  C1  UNL     1       4.137   0.306  -0.174  1.00  0.00     0.119 C 
HETATM   17  O1  UNL     1       2.955  -1.243  -1.564  1.00  0.00    -0.272 OA
ATOM     18  H1  UNL     1       1.900   0.069   1.207  1.00  0.00     0.190 HD
ENDBRANCH  12  14
ENDBRANCH   1  12
TORSDOF 2
