REMARK  6 active torsions:
REMARK  status: ('A' for Active; 'I' for Inactive)
REMARK    1  A    between atoms: C6_6  and  C7_7 
REMARK    2  A    between atoms: C7_7  and  C8_8 
REMARK    3  A    between atoms: C8_8  and  O1_9 
REMARK    4  A    between atoms: C12_15  and  C14_17 
REMARK    5  A    between atoms: C14_17  and  O3_19 
REMARK    6  A    between atoms: O3_19  and  C15_20 
ROOT
HETATM    1  C1  UNL     1      -2.138  -2.717   0.982  1.00  0.00     0.015 C 
HETATM    2  C2  UNL     1      -2.366  -1.658   0.315  1.00  0.00    -0.084 C 
HETATM    3  C3  UNL     1      -3.855  -1.331   0.206  1.00  0.00     0.034 C 
HETATM    4  C4  UNL     1      -3.866  -0.412   1.451  1.00  0.00     0.005 C 
HETATM    5  C5  UNL     1      -3.063   0.772   1.167  1.00  0.00     0.013 C 
HETATM    6  C6  UNL     1      -1.812   0.739   0.325  1.00  0.00     0.001 C 
HETATM    7  C9  UNL     1      -0.686   1.153   1.212  1.00  0.00     0.179 C 
HETATM    8  F1  UNL     1       0.099   2.118   0.604  1.00  0.00    -0.249 F 
HETATM    9  C10 UNL     1       0.258  -0.002   1.580  1.00  0.00     0.044 C 
HETATM   10  C11 UNL     1       0.849  -0.479   0.305  1.00  0.00     0.015 C 
HETATM   11  C12 UNL     1       2.158  -1.150   0.308  1.00  0.00     0.049 C 
HETATM   12  C13 UNL     1       2.317  -2.344   1.204  1.00  0.00     0.026 C 
HETATM   13  C17 UNL     1       2.566  -1.448  -1.120  1.00  0.00     0.020 C 
HETATM   14  C18 UNL     1       1.792  -0.878  -2.213  1.00  0.00     0.002 C 
HETATM   15  C19 UNL     1       0.395  -0.370  -1.991  1.00  0.00     0.010 C 
HETATM   16  C20 UNL     1      -0.175  -0.980  -0.680  1.00  0.00    -0.031 C 
HETATM   17  C21 UNL     1      -0.109  -2.439  -1.042  1.00  0.00     0.016 C 
HETATM   18  C22 UNL     1      -1.554  -0.610  -0.351  1.00  0.00     0.033 C 
ENDROOT
BRANCH  11  19
HETATM   19  C14 UNL     1       3.170  -0.147   0.838  1.00  0.00     0.267 C 
HETATM   20  O2  UNL     1       3.851  -0.334   1.859  1.00  0.00    -0.264 OA
BRANCH  19  21
HETATM   21  O3  UNL     1       3.366   1.061   0.160  1.00  0.00    -0.321 OA
BRANCH  21  22
HETATM   22  C15 UNL     1       4.293   2.037   0.600  1.00  0.00     0.174 C 
HETATM   23  C16 UNL     1       4.009   2.554   1.968  1.00  0.00     0.034 C 
ENDBRANCH  21  22
ENDBRANCH  19  21
ENDBRANCH  11  19
BRANCH   6  24
HETATM   24  C7  UNL     1      -2.111   1.771  -0.738  1.00  0.00     0.039 C 
BRANCH  24  25
HETATM   25  C8  UNL     1      -2.391   3.165  -0.296  1.00  0.00     0.165 C 
BRANCH  25  26
HETATM   26  O1  UNL     1      -2.661   3.957  -1.461  1.00  0.00    -0.401 OA
ATOM     27  H1  UNL     1      -2.840   4.846  -1.179  1.00  0.00     0.209 HD
ENDBRANCH  25  26
ENDBRANCH  24  25
ENDBRANCH   6  24
TORSDOF 6
