REMARK  16 active torsions:
REMARK  status: ('A' for Active; 'I' for Inactive)
REMARK       I    between atoms: C1_2  and  N1_3 
REMARK       I    between atoms: C1_2  and  N6_34 
REMARK    1  A    between atoms: N1_3  and  C2_5 
REMARK    2  A    between atoms: C2_5  and  C3_6 
REMARK    3  A    between atoms: C3_6  and  C4_7 
REMARK    4  A    between atoms: C4_7  and  C5_8 
REMARK    5  A    between atoms: C5_8  and  N2_9 
REMARK    6  A    between atoms: N2_9  and  C6_10 
REMARK    7  A    between atoms: C11_17  and  C12_18 
REMARK    8  A    between atoms: C12_18  and  N4_19 
REMARK    9  A    between atoms: N4_19  and  C13_22 
REMARK   10  A    between atoms: C13_22  and  C14_23 
REMARK   11  A    between atoms: C14_23  and  C15_24 
REMARK   12  A    between atoms: C15_24  and  N5_25 
REMARK   13  A    between atoms: N6_34  and  C22_36 
REMARK   14  A    between atoms: C22_36  and  C23_37 
REMARK   15  A    between atoms: C23_37  and  C24_38 
REMARK   16  A    between atoms: C24_38  and  C25_39 
ROOT
HETATM    1  C6  UNL     1      -0.176   1.805  -1.410  1.00  0.00     0.308 A 
HETATM    2  N3  UNL     1       0.041   0.508  -1.782  1.00  0.00    -0.309 N 
ATOM      3  H3  UNL     1      -0.745  -0.073  -2.074  1.00  0.00     0.170 HD
HETATM    4  C7  UNL     1       1.269  -0.002  -1.766  1.00  0.00     0.053 A 
HETATM    5  C8  UNL     1       1.441  -1.309  -2.140  1.00  0.00     0.030 A 
HETATM    6  C9  UNL     1       2.700  -1.849  -2.122  1.00  0.00     0.003 A 
HETATM    7  C10 UNL     1       3.769  -1.085  -1.733  1.00  0.00     0.010 A 
HETATM    8  C11 UNL     1       3.633   0.263  -1.342  1.00  0.00    -0.014 A 
HETATM    9  C20 UNL     1       2.357   0.762  -1.374  1.00  0.00     0.074 A 
HETATM   10  C21 UNL     1       2.073   2.049  -1.013  1.00  0.00     0.304 A 
HETATM   11  O2  UNL     1       3.019   2.792  -0.645  1.00  0.00    -0.259 OA
HETATM   12  O3  UNL     1       0.878   2.547  -1.028  1.00  0.00    -0.230 OA
ENDROOT
BRANCH   1  13
HETATM   13  N2  UNL     1      -1.295   2.274  -1.424  1.00  0.00    -0.382 NA
BRANCH  13  14
HETATM   14  C5  UNL     1      -2.584   2.591  -1.510  1.00  0.00     0.159 C 
BRANCH  14  15
HETATM   15  C4  UNL     1      -3.431   2.012  -0.378  1.00  0.00     0.061 C 
BRANCH  15  16
HETATM   16  C3  UNL     1      -3.417   0.519  -0.330  1.00  0.00     0.026 C 
BRANCH  16  17
HETATM   17  C2  UNL     1      -3.938  -0.107  -1.590  1.00  0.00     0.125 C 
BRANCH  17  18
HETATM   18  N1  UNL     1      -5.284   0.280  -1.869  1.00  0.00    -0.343 N 
HETATM   19  C1  UNL     1      -6.375   0.005  -1.026  1.00  0.00     0.316 C 
HETATM   20  O1  UNL     1      -6.266  -0.629   0.057  1.00  0.00    -0.247 OA
HETATM   21  N6  UNL     1      -7.671   0.454  -1.388  1.00  0.00    -0.343 N 
ATOM     22  H6  UNL     1      -7.769   0.978  -2.258  1.00  0.00     0.164 HD
ATOM     23  H1  UNL     1      -5.465   0.788  -2.735  1.00  0.00     0.164 HD
BRANCH  21  24
HETATM   24  C22 UNL     1      -8.851   0.218  -0.609  1.00  0.00     0.125 C 
BRANCH  24  25
HETATM   25  C23 UNL     1      -9.170  -1.238  -0.455  1.00  0.00     0.026 C 
BRANCH  25  26
HETATM   26  C24 UNL     1     -10.429  -1.410   0.360  1.00  0.00     0.060 C 
BRANCH  26  27
HETATM   27  C25 UNL     1     -10.296  -0.847   1.702  1.00  0.00     0.025 A 
HETATM   28  C26 UNL     1     -10.571   0.402   2.195  1.00  0.00     0.113 A 
HETATM   29  N7  UNL     1     -10.284   0.442   3.513  1.00  0.00    -0.360 N 
HETATM   30  C27 UNL     1      -9.824  -0.776   3.869  1.00  0.00     0.180 A 
ATOM     31  H7  UNL     1     -10.395   1.247   4.129  1.00  0.00     0.166 HD
HETATM   32  N8  UNL     1      -9.835  -1.542   2.779  1.00  0.00    -0.355 N 
ATOM     33  H8  UNL     1      -9.538  -2.518   2.754  1.00  0.00     0.166 HD
ENDBRANCH  26  27
ENDBRANCH  25  26
ENDBRANCH  24  25
ENDBRANCH  21  24
ENDBRANCH  17  18
ENDBRANCH  16  17
ENDBRANCH  15  16
ENDBRANCH  14  15
ENDBRANCH  13  14
ENDBRANCH   1  13
BRANCH   8  34
HETATM   34  C12 UNL     1       4.803   1.048  -0.963  1.00  0.00     0.271 C 
BRANCH  34  35
HETATM   35  N4  UNL     1       6.034   0.248  -0.994  1.00  0.00    -0.071 N 
ATOM     36  H42 UNL     1       5.950  -0.588  -0.416  1.00  0.00     0.277 HD
ATOM     37  H41 UNL     1       6.165  -0.199  -1.901  1.00  0.00     0.277 HD
BRANCH  35  38
HETATM   38  C13 UNL     1       7.183   1.032  -0.622  1.00  0.00     0.234 C 
BRANCH  38  39
HETATM   39  C14 UNL     1       8.389   0.124  -0.701  1.00  0.00     0.057 C 
BRANCH  39  40
HETATM   40  C15 UNL     1       8.313  -1.055   0.207  1.00  0.00     0.274 C 
BRANCH  40  41
HETATM   41  N5  UNL     1       8.201  -0.678   1.580  1.00  0.00     0.088 N 
HETATM   42  C16 UNL     1       8.106  -1.842   2.449  1.00  0.00     0.272 C 
HETATM   43  C17 UNL     1       9.558  -2.203   2.718  1.00  0.00     0.032 C 
HETATM   44  C18 UNL     1      10.367  -0.963   2.396  1.00  0.00     0.032 C 
HETATM   45  C19 UNL     1       9.321   0.088   2.080  1.00  0.00     0.272 C 
ENDBRANCH  40  41
ENDBRANCH  39  40
ENDBRANCH  38  39
ENDBRANCH  35  38
ENDBRANCH  34  35
ENDBRANCH   8  34
TORSDOF 16
