REMARK  6 active torsions:
REMARK  status: ('A' for Active; 'I' for Inactive)
REMARK    1  A    between atoms: C1_4  and  O1_5 
REMARK    2  A    between atoms: C1_4  and  C2_7 
REMARK       I    between atoms: C2_7  and  N2_9 
REMARK    3  A    between atoms: N2_9  and  N3_10 
REMARK    4  A    between atoms: N3_10  and  C3_12 
REMARK    5  A    between atoms: C3_12  and  N4_14 
REMARK    6  A    between atoms: N4_14  and  C4_16 
ROOT
HETATM    1  C3  UNL     1       0.292  -0.060  -1.153  1.00  0.00     0.204 C 
HETATM    2  S1  UNL     1      -0.401   0.850  -2.231  1.00  0.00    -0.038 SA
ENDROOT
BRANCH   1   3
HETATM    3  N3  UNL     1      -0.101  -0.491   0.128  1.00  0.00    -0.205 N 
ATOM      4  H3  UNL     1       0.511  -1.108   0.662  1.00  0.00     0.204 HD
BRANCH   3   5
HETATM    5  N2  UNL     1      -1.270  -0.099   0.654  1.00  0.00    -0.275 NA
HETATM    6  C2  UNL     1      -2.441   0.301   1.199  1.00  0.00     0.385 C 
HETATM    7  O2  UNL     1      -2.692   0.772   2.310  1.00  0.00    -0.245 OA
BRANCH   6   8
HETATM    8  C1  UNL     1      -3.590   0.151   0.278  1.00  0.00     0.220 C 
HETATM    9  N1  UNL     1      -4.775   0.730   0.533  1.00  0.00    -0.374 N 
ATOM     10  H12 UNL     1      -5.567   0.627  -0.102  1.00  0.00     0.158 HD
ATOM     11  H11 UNL     1      -4.901   1.301   1.369  1.00  0.00     0.158 HD
BRANCH   8  12
HETATM   12  O1  UNL     1      -3.427  -0.589  -0.806  1.00  0.00    -0.341 OA
ATOM     13  H1  UNL     1      -2.589  -0.998  -0.986  1.00  0.00     0.219 HD
ENDBRANCH   8  12
ENDBRANCH   6   8
ENDBRANCH   3   5
ENDBRANCH   1   3
BRANCH   1  14
HETATM   14  N4  UNL     1       1.633  -0.666  -1.524  1.00  0.00    -0.301 N 
ATOM     15  H4  UNL     1       1.738  -1.517  -2.076  1.00  0.00     0.171 HD
BRANCH  14  16
HETATM   16  C4  UNL     1       2.628   0.020  -1.060  1.00  0.00     0.218 A 
HETATM   17  N5  UNL     1       2.708   1.153  -0.334  1.00  0.00    -0.254 N 
HETATM   18  N6  UNL     1       3.861   1.321   0.245  1.00  0.00    -0.225 N 
ATOM     19  H5  UNL     1       1.938   1.816  -0.247  1.00  0.00     0.191 HD
HETATM   20  N7  UNL     1       4.574   0.293  -0.078  1.00  0.00    -0.225 N 
ATOM     21  H6  UNL     1       4.144   2.104   0.834  1.00  0.00     0.210 HD
HETATM   22  N8  UNL     1       3.902  -0.549  -0.888  1.00  0.00    -0.254 N 
ATOM     23  H7  UNL     1       5.530   0.137   0.241  1.00  0.00     0.210 HD
ATOM     24  H8  UNL     1       4.247  -1.420  -1.293  1.00  0.00     0.191 HD
ENDBRANCH  14  16
ENDBRANCH   1  14
TORSDOF 6
