REMARK  7 active torsions:
REMARK  status: ('A' for Active; 'I' for Inactive)
REMARK    1  A    between atoms: O1_2  and  C2_3 
REMARK    2  A    between atoms: C2_3  and  O3_5 
REMARK    3  A    between atoms: O3_5  and  C3_6 
REMARK    4  A    between atoms: C5_8  and  C6_9 
REMARK    5  A    between atoms: C7_10  and  C8_11 
REMARK    6  A    between atoms: C10_13  and  C11_14 
REMARK    7  A    between atoms: C18_24  and  O5_25 
ROOT
HETATM    1  C3  UNL     1       4.369   0.793  -0.662  1.00  0.00     0.115 A 
HETATM    2  C4  UNL     1       3.029   0.518  -0.634  1.00  0.00     0.051 A 
HETATM    3  C5  UNL     1       2.125   1.351   0.040  1.00  0.00    -0.033 A 
HETATM    4  C16 UNL     1       2.629   2.467   0.681  1.00  0.00     0.014 A 
HETATM    5  C17 UNL     1       3.991   2.763   0.663  1.00  0.00     0.040 A 
HETATM    6  C18 UNL     1       4.838   1.906  -0.018  1.00  0.00     0.099 A 
ENDROOT
BRANCH   3   7
HETATM    7  C6  UNL     1       0.711   1.008   0.035  1.00  0.00     0.014 C 
HETATM    8  C7  UNL     1      -0.203   1.731   0.640  1.00  0.00     0.040 C 
BRANCH   8   9
HETATM    9  C8  UNL     1      -1.609   1.322   0.592  1.00  0.00     0.100 A 
HETATM   10  C9  UNL     1      -2.108   0.203  -0.052  1.00  0.00     0.066 A 
HETATM   11  C10 UNL     1      -3.463   0.183   0.143  1.00  0.00     0.039 A 
HETATM   12  N1  UNL     1      -3.732   1.274   0.885  1.00  0.00    -0.265 N 
HETATM   13  O4  UNL     1      -2.629   1.916   1.130  1.00  0.00    -0.238 OA
ATOM     14  H1  UNL     1      -4.659   1.554   1.206  1.00  0.00     0.194 HD
BRANCH  11  15
HETATM   15  C11 UNL     1      -4.396  -0.845  -0.376  1.00  0.00     0.037 C 
HETATM   16  C12 UNL     1      -5.422  -0.200  -1.269  1.00  0.00     0.011 C 
HETATM   17  C13 UNL     1      -6.741  -0.843  -0.998  1.00  0.00     0.001 C 
HETATM   18  C14 UNL     1      -6.630  -1.317   0.423  1.00  0.00     0.001 C 
HETATM   19  C15 UNL     1      -5.182  -1.501   0.739  1.00  0.00     0.011 C 
ENDBRANCH  11  15
ENDBRANCH   8   9
ENDBRANCH   3   7
BRANCH   1  20
HETATM   20  O3  UNL     1       5.234  -0.032  -1.325  1.00  0.00    -0.253 OA
BRANCH  20  21
HETATM   21  C2  UNL     1       5.840  -1.103  -0.683  1.00  0.00     0.411 C 
HETATM   22  O2  UNL     1       5.537  -1.259   0.548  1.00  0.00    -0.229 OA
BRANCH  21  23
HETATM   23  O1  UNL     1       6.722  -1.962  -1.323  1.00  0.00    -0.303 OA
HETATM   24  C1  UNL     1       7.290  -3.025  -0.590  1.00  0.00     0.215 C 
ENDBRANCH  21  23
ENDBRANCH  20  21
ENDBRANCH   1  20
BRANCH   6  25
HETATM   25  O5  UNL     1       6.189   2.172  -0.053  1.00  0.00    -0.358 OA
ATOM     26  H5  UNL     1       6.515   2.944   0.394  1.00  0.00     0.217 HD
ENDBRANCH   6  25
TORSDOF 7
