REMARK  2 active torsions:
REMARK  status: ('A' for Active; 'I' for Inactive)
REMARK    1  A    between atoms: C9_9  and  O1_10 
REMARK    2  A    between atoms: C11_13  and  O2_14 
ROOT
HETATM    1  C1  UNL     1      -3.573  -0.302  -1.252  1.00  0.00     0.011 C 
HETATM    2  C2  UNL     1      -2.094  -0.263  -1.027  1.00  0.00    -0.002 C 
HETATM    3  C3  UNL     1      -1.543  -1.683  -1.252  1.00  0.00     0.006 C 
HETATM    4  C4  UNL     1      -0.133  -1.870  -0.836  1.00  0.00     0.007 C 
HETATM    5  C5  UNL     1       0.549  -0.560  -0.592  1.00  0.00     0.008 C 
HETATM    6  C6  UNL     1       1.986  -0.627  -0.206  1.00  0.00    -0.017 C 
HETATM    7  C7  UNL     1       2.264  -1.284   1.100  1.00  0.00     0.018 C 
HETATM    8  C8  UNL     1       2.653  -1.536  -1.257  1.00  0.00     0.018 C 
HETATM    9  C9  UNL     1       2.576   0.739  -0.361  1.00  0.00     0.128 C 
HETATM   10  C10 UNL     1       1.707   1.902  -0.363  1.00  0.00     0.065 C 
HETATM   11  C11 UNL     1       0.210   1.741  -0.491  1.00  0.00     0.130 C 
HETATM   12  C12 UNL     1      -0.165   0.469   0.169  1.00  0.00     0.005 C 
HETATM   13  C13 UNL     1       0.077   0.667   1.622  1.00  0.00     0.021 C 
HETATM   14  C14 UNL     1      -1.106   1.586   2.000  1.00  0.00     0.080 C 
HETATM   15  C15 UNL     1      -2.106   1.413   0.883  1.00  0.00     0.136 C 
HETATM   16  O3  UNL     1      -2.994   2.171   0.657  1.00  0.00    -0.297 OA
HETATM   17  C16 UNL     1      -1.636   0.147   0.280  1.00  0.00     0.030 C 
HETATM   18  C17 UNL     1      -1.987  -0.857   1.313  1.00  0.00     0.025 C 
ENDROOT
BRANCH   9  19
HETATM   19  O1  UNL     1       3.559   0.840   0.663  1.00  0.00    -0.395 OA
ATOM     20  H1  UNL     1       3.934   1.707   0.565  1.00  0.00     0.210 HD
ENDBRANCH   9  19
BRANCH  11  21
HETATM   21  O2  UNL     1      -0.370   2.909  -0.205  1.00  0.00    -0.395 OA
ATOM     22  H2  UNL     1      -1.311   2.808  -0.285  1.00  0.00     0.210 HD
ENDBRANCH  11  21
TORSDOF 2
