REMARK  3 active torsions:
REMARK  status: ('A' for Active; 'I' for Inactive)
REMARK    1  A    between atoms: C2_2  and  C3_3 
REMARK    2  A    between atoms: C7_10  and  C8_11 
REMARK    3  A    between atoms: C13_17  and  N3_18 
ROOT
HETATM    1  C3  UNL     1      -2.133   0.571   0.004  1.00  0.00     0.009 A 
HETATM    2  C4  UNL     1      -1.160   1.575   0.011  1.00  0.00     0.047 A 
HETATM    3  C5  UNL     1       0.146   1.215   0.186  1.00  0.00     0.063 A 
HETATM    4  N1  UNL     1       1.090   2.200   0.189  1.00  0.00    -0.321 N 
ATOM      5  H1  UNL     1       0.802   3.171   0.064  1.00  0.00     0.169 HD
HETATM    6  C6  UNL     1       2.392   1.913   0.354  1.00  0.00     0.252 A 
HETATM    7  O1  UNL     1       3.261   2.838   0.355  1.00  0.00    -0.268 OA
HETATM    8  C7  UNL     1       2.817   0.616   0.526  1.00  0.00     0.012 A 
HETATM    9  C10 UNL     1       1.842  -0.372   0.520  1.00  0.00     0.044 A 
HETATM   10  C11 UNL     1       0.482  -0.110   0.351  1.00  0.00     0.063 A 
HETATM   11  N2  UNL     1      -0.458  -1.069   0.343  1.00  0.00    -0.335 N 
HETATM   12  C12 UNL     1      -0.094  -2.456   0.529  1.00  0.00     0.158 C 
HETATM   13  C13 UNL     1      -1.792  -0.735   0.165  1.00  0.00     0.113 A 
ENDROOT
BRANCH  13  14
HETATM   14  N3  UNL     1      -2.649  -1.851   0.088  1.00  0.00    -0.380 N 
HETATM   15  C14 UNL     1      -4.027  -1.831  -0.291  1.00  0.00     0.147 C 
ATOM     16  H3  UNL     1      -2.248  -2.758   0.325  1.00  0.00     0.160 HD
ENDBRANCH  13  14
BRANCH   1  17
HETATM   17  C2  UNL     1      -3.501   1.012  -0.166  1.00  0.00     0.005 C 
HETATM   18  C1  UNL     1      -3.720   2.020  -0.999  1.00  0.00     0.012 C 
ENDBRANCH   1  17
BRANCH   8  19
HETATM   19  C8  UNL     1       4.261   0.263   0.711  1.00  0.00     0.040 C 
HETATM   20  C9  UNL     1       5.009   0.327  -0.601  1.00  0.00     0.010 C 
ENDBRANCH   8  19
TORSDOF 3
