REMARK  4 active torsions:
REMARK  status: ('A' for Active; 'I' for Inactive)
REMARK       I    between atoms: N1_2  and  C2_4 
REMARK    1  A    between atoms: C2_4  and  C3_6 
REMARK       I    between atoms: C3_6  and  N2_8 
REMARK    2  A    between atoms: C9_14  and  C10_15 
REMARK    3  A    between atoms: C10_15  and  O3_16 
REMARK    4  A    between atoms: C10_15  and  N3_18 
ROOT
HETATM    1  C3  UNL     1       1.841   0.469   0.304  1.00  0.00     0.312 C 
HETATM    2  O2  UNL     1       2.166   1.191   1.324  1.00  0.00    -0.262 OA
HETATM    3  N2  UNL     1       0.516  -0.004   0.194  1.00  0.00    -0.331 N 
HETATM    4  C4  UNL     1       0.143  -0.863  -0.905  1.00  0.00     0.137 C 
HETATM    5  C5  UNL     1      -1.208  -1.510  -0.659  1.00  0.00    -0.020 C 
HETATM    6  C6  UNL     1      -1.659  -2.437  -1.718  1.00  0.00     0.018 C 
HETATM    7  C7  UNL     1      -2.287  -0.508  -0.308  1.00  0.00     0.019 C 
HETATM    8  C8  UNL     1      -1.686  -0.556   1.105  1.00  0.00     0.026 C 
HETATM    9  C9  UNL     1      -0.456   0.358   1.152  1.00  0.00     0.167 C 
HETATM   10  C13 UNL     1      -1.325  -1.986   0.775  1.00  0.00    -0.033 C 
HETATM   11  C14 UNL     1      -0.108  -2.532   1.409  1.00  0.00     0.016 C 
HETATM   12  C15 UNL     1      -2.530  -2.886   0.928  1.00  0.00     0.016 C 
ENDROOT
BRANCH   1  13
HETATM   13  C2  UNL     1       2.930   0.240  -0.618  1.00  0.00     0.309 C 
HETATM   14  N1  UNL     1       4.241   0.740  -0.406  1.00  0.00    -0.357 N 
HETATM   15  C1  UNL     1       5.305   0.492  -1.348  1.00  0.00     0.149 C 
ATOM     16  H1  UNL     1       4.436   1.288   0.432  1.00  0.00     0.162 HD
HETATM   17  O1  UNL     1       2.730  -0.426  -1.655  1.00  0.00    -0.262 OA
ENDBRANCH   1  13
BRANCH   9  18
HETATM   18  C10 UNL     1      -0.958   1.717   1.205  1.00  0.00     0.136 C 
BRANCH  18  19
HETATM   19  O3  UNL     1      -1.712   1.868   2.255  1.00  0.00    -0.348 OA
ATOM     20  H3  UNL     1      -2.041   2.759   2.290  1.00  0.00     0.219 HD
ENDBRANCH  18  19
BRANCH  18  21
HETATM   21  N3  UNL     1      -0.817   2.837   0.415  1.00  0.00    -0.372 N 
HETATM   22  C11 UNL     1      -0.072   2.993  -0.817  1.00  0.00     0.150 C 
HETATM   23  C12 UNL     1      -1.485   4.096   0.824  1.00  0.00     0.150 C 
ENDBRANCH  18  21
ENDBRANCH   9  18
TORSDOF 4
