REMARK  10 active torsions:
REMARK  status: ('A' for Active; 'I' for Inactive)
REMARK    1  A    between atoms: N1_1  and  C1_4 
REMARK    2  A    between atoms: C2_7  and  N3_8 
REMARK    3  A    between atoms: N4_11  and  C5_12 
REMARK    4  A    between atoms: C5_12  and  C6_13 
REMARK    5  A    between atoms: C6_13  and  N5_14 
REMARK    6  A    between atoms: C8_16  and  C9_17 
REMARK    7  A    between atoms: C9_17  and  N6_18 
REMARK    8  A    between atoms: N6_18  and  C10_19 
REMARK    9  A    between atoms: C10_19  and  C11_20 
REMARK   10  A    between atoms: C11_20  and  O1_21 
ROOT
HETATM    1  N3  UNL     1      -2.443  -0.178   0.844  1.00  0.00    -0.339 N 
HETATM    2  C3  UNL     1      -1.477  -0.882   1.645  1.00  0.00     0.156 C 
HETATM    3  C4  UNL     1      -0.223  -0.885   0.833  1.00  0.00     0.294 C 
HETATM    4  N4  UNL     1      -0.497  -0.211  -0.385  1.00  0.00     0.109 N 
HETATM    5  C14 UNL     1      -1.748   0.514  -0.216  1.00  0.00     0.399 C 
ENDROOT
BRANCH   4   6
HETATM    6  C5  UNL     1      -0.644  -1.061  -1.529  1.00  0.00     0.294 C 
BRANCH   6   7
HETATM    7  C6  UNL     1       0.595  -1.733  -2.013  1.00  0.00     0.163 C 
BRANCH   7   8
HETATM    8  N5  UNL     1       1.642  -0.879  -2.419  1.00  0.00    -0.307 N 
HETATM    9  C7  UNL     1       2.580  -0.500  -1.536  1.00  0.00     0.115 A 
HETATM   10  C8  UNL     1       3.619   0.344  -1.896  1.00  0.00     0.076 A 
HETATM   11  C12 UNL     1       3.699   0.805  -3.174  1.00  0.00     0.263 A 
HETATM   12  O2  UNL     1       4.643   1.582  -3.532  1.00  0.00    -0.267 OA
HETATM   13  N7  UNL     1       2.755   0.415  -4.041  1.00  0.00    -0.275 N 
HETATM   14  C13 UNL     1       1.743  -0.413  -3.674  1.00  0.00     0.329 A 
ATOM     15  H7  UNL     1       2.798   0.749  -5.004  1.00  0.00     0.173 HD
HETATM   16  O3  UNL     1       0.917  -0.722  -4.530  1.00  0.00    -0.246 OA
BRANCH  10  17
HETATM   17  C9  UNL     1       4.664   0.754  -0.913  1.00  0.00     0.193 C 
BRANCH  17  18
HETATM   18  N6  UNL     1       4.745   0.418   0.222  1.00  0.00    -0.457 NA
BRANCH  18  19
HETATM   19  C10 UNL     1       4.610  -0.103   1.444  1.00  0.00     0.243 C 
BRANCH  19  20
HETATM   20  C11 UNL     1       4.433   0.978   2.528  1.00  0.00     0.197 C 
BRANCH  20  21
HETATM   21  O1  UNL     1       5.521   1.831   2.561  1.00  0.00    -0.398 OA
ATOM     22  H1  UNL     1       5.412   2.497   3.229  1.00  0.00     0.209 HD
ENDBRANCH  20  21
ENDBRANCH  19  20
ENDBRANCH  18  19
ENDBRANCH  17  18
ENDBRANCH  10  17
ENDBRANCH   7   8
ENDBRANCH   6   7
ENDBRANCH   4   6
BRANCH   1  23
HETATM   23  C2  UNL     1      -3.837  -0.150   1.057  1.00  0.00     0.125 A 
HETATM   24  N2  UNL     1      -4.466   0.992   1.404  1.00  0.00    -0.177 N 
HETATM   25  C1  UNL     1      -5.793   1.080   1.629  1.00  0.00     0.680 A 
ATOM     26  H2  UNL     1      -3.905   1.838   1.502  1.00  0.00     0.185 HD
HETATM   27  N8  UNL     1      -6.557  -0.014   1.508  1.00  0.00    -0.156 N 
HETATM   28  C16 UNL     1      -5.979  -1.187   1.162  1.00  0.00     0.263 A 
ATOM     29  H8  UNL     1      -7.562   0.037   1.675  1.00  0.00     0.187 HD
HETATM   30  C15 UNL     1      -4.630  -1.284   0.931  1.00  0.00     0.123 A 
HETATM   31  O4  UNL     1      -6.732  -2.212   1.055  1.00  0.00    -0.268 OA
BRANCH  25  32
HETATM   32  N1  UNL     1      -6.328   2.229   1.957  1.00  0.00    -0.234 N 
ATOM     33  H12 UNL     1      -5.746   3.062   2.049  1.00  0.00     0.174 HD
ATOM     34  H11 UNL     1      -7.332   2.296   2.127  1.00  0.00     0.174 HD
ENDBRANCH  25  32
ENDBRANCH   1  23
TORSDOF 10
