REMARK  10 active torsions:
REMARK  status: ('A' for Active; 'I' for Inactive)
REMARK    1  A    between atoms: C2_2  and  C3_3 
REMARK    2  A    between atoms: C3_3  and  S1_4 
REMARK    3  A    between atoms: S1_4  and  N1_7 
REMARK    4  A    between atoms: N1_7  and  C4_9 
REMARK    5  A    between atoms: C11_18  and  C12_19 
REMARK    6  A    between atoms: C12_19  and  N2_20 
REMARK       I    between atoms: N2_20  and  C13_22 
REMARK    7  A    between atoms: C13_22  and  O4_24 
REMARK    8  A    between atoms: O4_24  and  C14_25 
REMARK    9  A    between atoms: C19_30  and  O5_31 
REMARK   10  A    between atoms: N3_34  and  C22_36 
ROOT
HETATM    1  C22 UNL     1       0.859   6.548  -1.206  1.00  0.00     0.245 C 
HETATM    2  C23 UNL     1      -0.378   7.025  -0.540  1.00  0.00     0.078 C 
HETATM    3  N4  UNL     1      -1.327   7.401  -0.018  1.00  0.00    -0.196 NA
ENDROOT
BRANCH   1   4
HETATM    4  N3  UNL     1       1.187   5.252  -0.703  1.00  0.00    -0.365 N 
HETATM    5  C21 UNL     1       0.539   4.159  -0.882  1.00  0.00     0.117 C 
HETATM    6  C19 UNL     1       1.156   3.013  -0.224  1.00  0.00     0.127 C 
HETATM    7  N5  UNL     1      -0.622   4.337  -1.684  1.00  0.00    -0.310 N 
HETATM    8  C10 UNL     1       0.513   1.727  -0.158  1.00  0.00     0.071 C 
HETATM    9  C18 UNL     1       2.225   2.424  -1.157  1.00  0.00     0.054 C 
HETATM   10  C8  UNL     1      -0.914   1.543  -0.224  1.00  0.00     0.008 A 
HETATM   11  C11 UNL     1       1.244   1.321  -1.447  1.00  0.00     0.019 C 
HETATM   12  C7  UNL     1      -1.958   2.246  -0.837  1.00  0.00     0.064 A 
HETATM   13  C9  UNL     1      -1.323   0.423   0.464  1.00  0.00     0.151 A 
HETATM   14  C6  UNL     1      -3.265   1.878  -0.773  1.00  0.00     0.052 A 
HETATM   15  C24 UNL     1      -1.773   3.466  -1.611  1.00  0.00     0.259 C 
HETATM   16  C5  UNL     1      -3.616   0.734  -0.062  1.00  0.00     0.058 A 
HETATM   17 CL1  UNL     1      -4.479   2.840  -1.583  1.00  0.00    -0.083 Cl
HETATM   18  C4  UNL     1      -2.656   0.004   0.557  1.00  0.00     0.083 A 
HETATM   19  O6  UNL     1      -2.719   3.860  -2.336  1.00  0.00    -0.267 OA
HETATM   20  F1  UNL     1      -0.415  -0.344   1.107  1.00  0.00    -0.203 F 
ATOM     21  H5  UNL     1      -0.643   5.116  -2.342  1.00  0.00     0.170 HD
ATOM     22  H3  UNL     1       2.033   5.188  -0.137  1.00  0.00     0.161 HD
BRANCH   6  23
HETATM   23  O5  UNL     1       1.739   3.415   0.979  1.00  0.00    -0.376 OA
HETATM   24  C20 UNL     1       0.749   3.488   1.945  1.00  0.00     0.203 C 
ENDBRANCH   6  23
BRANCH  18  25
HETATM   25  N1  UNL     1      -2.966  -1.158   1.311  1.00  0.00    -0.281 N 
ATOM     26  H1  UNL     1      -2.576  -1.198   2.253  1.00  0.00     0.178 HD
BRANCH  25  27
HETATM   27  S1  UNL     1      -3.902  -2.481   0.839  1.00  0.00     0.231 S 
HETATM   28  O1  UNL     1      -3.291  -3.149  -0.396  1.00  0.00    -0.206 OA
HETATM   29  O2  UNL     1      -3.836  -3.525   1.934  1.00  0.00    -0.206 OA
BRANCH  27  30
HETATM   30  C3  UNL     1      -5.575  -2.157   0.447  1.00  0.00     0.163 C 
BRANCH  30  31
HETATM   31  C2  UNL     1      -6.233  -3.485   0.078  1.00  0.00     0.012 C 
HETATM   32  C1  UNL     1      -6.206  -4.493   1.176  1.00  0.00     0.006 C 
ENDBRANCH  30  31
ENDBRANCH  27  30
ENDBRANCH  25  27
ENDBRANCH  18  25
BRANCH  11  33
HETATM   33  C12 UNL     1       1.790  -0.059  -1.492  1.00  0.00     0.130 C 
BRANCH  33  34
HETATM   34  N2  UNL     1       2.758  -0.369  -0.490  1.00  0.00    -0.336 N 
HETATM   35  C13 UNL     1       3.324  -1.675  -0.473  1.00  0.00     0.361 C 
HETATM   36  O3  UNL     1       2.982  -2.560  -1.330  1.00  0.00    -0.238 OA
ATOM     37  H2  UNL     1       3.038   0.330   0.198  1.00  0.00     0.164 HD
BRANCH  35  38
HETATM   38  O4  UNL     1       4.264  -2.081   0.448  1.00  0.00    -0.294 OA
BRANCH  38  39
HETATM   39  C14 UNL     1       4.828  -3.378   0.467  1.00  0.00     0.061 C 
HETATM   40  C15 UNL     1       5.524  -3.604  -0.855  1.00  0.00     0.046 C 
HETATM   41  C16 UNL     1       5.873  -3.508   1.550  1.00  0.00     0.046 C 
HETATM   42  C17 UNL     1       3.790  -4.443   0.711  1.00  0.00     0.046 C 
ENDBRANCH  38  39
ENDBRANCH  35  38
ENDBRANCH  33  34
ENDBRANCH  11  33
ENDBRANCH   1   4
TORSDOF 10
