REMARK  11 active torsions:
REMARK  status: ('A' for Active; 'I' for Inactive)
REMARK    1  A    between atoms: C3_3  and  C4_4 
REMARK    2  A    between atoms: C4_4  and  C5_5 
REMARK    3  A    between atoms: C5_5  and  C6_6 
REMARK    4  A    between atoms: C6_6  and  O1_7 
REMARK    5  A    between atoms: O1_7  and  C7_8 
REMARK    6  A    between atoms: C7_8  and  O2_9 
REMARK    7  A    between atoms: C9_12  and  O3_14 
REMARK    8  A    between atoms: C11_16  and  N1_17 
REMARK       I    between atoms: N1_17  and  C12_19 
REMARK    9  A    between atoms: C12_19  and  C13_21 
REMARK   10  A    between atoms: C17_25  and  O5_26 
REMARK   11  A    between atoms: C20_30  and  O6_31 
ROOT
HETATM    1  C1  UNL     1      -4.371   5.082  -2.909  1.00  0.00     0.012 C 
HETATM    2  C2  UNL     1      -3.769   4.049  -2.749  1.00  0.00    -0.117 C 
HETATM    3  C3  UNL     1      -3.050   2.777  -2.575  1.00  0.00     0.093 C 
ENDROOT
BRANCH   3   4
HETATM    4  C4  UNL     1      -3.991   1.656  -2.865  1.00  0.00     0.014 C 
BRANCH   4   5
HETATM    5  C5  UNL     1      -3.367   0.288  -2.730  1.00  0.00     0.027 C 
BRANCH   5   6
HETATM    6  C6  UNL     1      -2.886   0.118  -1.345  1.00  0.00     0.171 C 
BRANCH   6   7
HETATM    7  O1  UNL     1      -2.292  -1.153  -1.132  1.00  0.00    -0.354 OA
BRANCH   7   8
HETATM    8  C7  UNL     1      -1.845  -1.278   0.177  1.00  0.00     0.173 C 
HETATM    9  C8  UNL     1      -0.954  -0.288   0.723  1.00  0.00     0.108 C 
HETATM   10  C9  UNL     1       0.370   0.096   0.274  1.00  0.00     0.082 C 
HETATM   11  C10 UNL     1       0.843  -0.152  -1.114  1.00  0.00     0.048 C 
HETATM   12  C11 UNL     1       1.461  -0.037   1.316  1.00  0.00     0.147 C 
HETATM   13  C17 UNL     1       2.014  -1.332   1.665  1.00  0.00     0.144 C 
HETATM   14  C18 UNL     1       1.212  -2.237   2.569  1.00  0.00     0.036 C 
HETATM   15  C19 UNL     1       0.480  -3.250   1.721  1.00  0.00     0.035 C 
HETATM   16  C20 UNL     1      -1.024  -3.072   1.772  1.00  0.00     0.131 C 
HETATM   17  C21 UNL     1      -1.654  -2.743   0.470  1.00  0.00     0.035 C 
HETATM   18  C22 UNL     1      -0.966  -3.526  -0.618  1.00  0.00     0.023 C 
HETATM   19  C23 UNL     1      -3.048  -3.444   0.508  1.00  0.00     0.023 C 
BRANCH   8  20
HETATM   20  O2  UNL     1      -3.109  -1.064   0.889  1.00  0.00    -0.364 OA
ATOM     21  H2  UNL     1      -2.803  -1.150   1.784  1.00  0.00     0.213 HD
ENDBRANCH   8  20
BRANCH  10  22
HETATM   22  O3  UNL     1       0.340   1.563   0.208  1.00  0.00    -0.388 OA
ATOM     23  H3  UNL     1       1.208   1.815  -0.086  1.00  0.00     0.210 HD
ENDBRANCH  10  22
BRANCH  12  24
HETATM   24  N1  UNL     1       2.603   0.768   0.809  1.00  0.00    -0.347 N 
HETATM   25  C12 UNL     1       3.004   1.951   1.431  1.00  0.00     0.247 C 
HETATM   26  O4  UNL     1       2.397   2.359   2.442  1.00  0.00    -0.268 OA
ATOM     27  H1  UNL     1       3.108   0.447  -0.017  1.00  0.00     0.163 HD
BRANCH  25  28
HETATM   28  C13 UNL     1       4.118   2.724   0.928  1.00  0.00     0.002 C 
HETATM   29  C14 UNL     1       4.536   4.006   1.630  1.00  0.00     0.054 C 
HETATM   30  C15 UNL     1       4.844   2.419  -0.122  1.00  0.00    -0.019 C 
HETATM   31  C16 UNL     1       5.970   3.259  -0.577  1.00  0.00     0.036 C 
ENDBRANCH  25  28
ENDBRANCH  12  24
BRANCH  13  32
HETATM   32  O5  UNL     1       2.540  -2.124   0.672  1.00  0.00    -0.393 OA
ATOM     33  H5  UNL     1       2.902  -2.972   0.901  1.00  0.00     0.210 HD
ENDBRANCH  13  32
BRANCH  16  34
HETATM   34  O6  UNL     1      -1.538  -4.303   2.200  1.00  0.00    -0.395 OA
ATOM     35  H6  UNL     1      -2.481  -4.191   2.232  1.00  0.00     0.210 HD
ENDBRANCH  16  34
ENDBRANCH   7   8
ENDBRANCH   6   7
ENDBRANCH   5   6
ENDBRANCH   4   5
ENDBRANCH   3   4
TORSDOF 11
