REMARK  13 active torsions:
REMARK  status: ('A' for Active; 'I' for Inactive)
REMARK    1  A    between atoms: C2_2  and  C3_3 
REMARK    2  A    between atoms: C3_3  and  C5_5 
REMARK    3  A    between atoms: C5_5  and  N1_6 
REMARK    4  A    between atoms: C5_5  and  C32_41 
REMARK       I    between atoms: N1_6  and  C6_8 
REMARK    5  A    between atoms: C6_8  and  C7_10 
REMARK    6  A    between atoms: C7_10  and  C8_11 
REMARK    7  A    between atoms: C7_10  and  N2_15 
REMARK    8  A    between atoms: C8_11  and  C9_12 
REMARK       I    between atoms: N2_15  and  C12_17 
REMARK    9  A    between atoms: C12_17  and  C13_19 
REMARK   10  A    between atoms: N3_23  and  C18_25 
REMARK   11  A    between atoms: C18_25  and  C19_26 
REMARK   12  A    between atoms: C19_26  and  O3_27 
REMARK   13  A    between atoms: C19_26  and  C20_29 
ROOT
HETATM    1  C13 UNL     1      -0.960   1.131   0.337  1.00  0.00     0.027 C 
HETATM    2  C14 UNL     1      -1.067   0.478   1.681  1.00  0.00     0.078 C 
HETATM    3  C15 UNL     1      -2.561   0.371   2.001  1.00  0.00    -0.052 C 
HETATM    4  C16 UNL     1      -3.295  -0.128   1.040  1.00  0.00     0.206 C 
HETATM    5  N3  UNL     1      -2.669  -0.512  -0.190  1.00  0.00    -0.037 N 
HETATM    6  C17 UNL     1      -1.773  -1.646  -0.114  1.00  0.00     0.279 C 
HETATM    7  C24 UNL     1      -1.985   0.618  -0.694  1.00  0.00     0.253 C 
HETATM    8  C25 UNL     1      -2.567   1.818  -1.228  1.00  0.00     0.011 C 
HETATM    9  C26 UNL     1      -3.907   2.311  -1.328  1.00  0.00    -0.006 C 
HETATM   10  C27 UNL     1      -4.742   2.706  -0.167  1.00  0.00    -0.027 C 
HETATM   11  C28 UNL     1      -4.201   3.272   1.065  1.00  0.00     0.027 C 
HETATM   12  C29 UNL     1      -4.531   2.589   2.369  1.00  0.00     0.004 C 
HETATM   13  C30 UNL     1      -3.393   2.351   3.307  1.00  0.00     0.005 C 
HETATM   14  C31 UNL     1      -2.883   0.924   3.330  1.00  0.00     0.036 C 
ENDROOT
BRANCH   1  15
HETATM   15  C12 UNL     1       0.343   1.465  -0.156  1.00  0.00     0.250 C 
HETATM   16  N2  UNL     1       1.441   0.596  -0.203  1.00  0.00    -0.322 N 
ATOM     17  H2  UNL     1       1.299  -0.349   0.154  1.00  0.00     0.169 HD
HETATM   18  O2  UNL     1       0.598   2.639  -0.609  1.00  0.00    -0.268 OA
BRANCH  16  19
HETATM   19  C7  UNL     1       2.748   0.913  -0.707  1.00  0.00     0.080 C 
BRANCH  19  20
HETATM   20  C6  UNL     1       3.772   0.672   0.290  1.00  0.00     0.264 C 
HETATM   21  N1  UNL     1       4.990   0.040   0.115  1.00  0.00    -0.341 N 
ATOM     22  H1  UNL     1       5.243  -0.321  -0.805  1.00  0.00     0.163 HD
HETATM   23  O1  UNL     1       3.506   1.094   1.478  1.00  0.00    -0.266 OA
BRANCH  21  24
HETATM   24  C5  UNL     1       5.934  -0.120   1.250  1.00  0.00     0.189 C 
BRANCH  24  25
HETATM   25  C3  UNL     1       6.062  -1.569   1.501  1.00  0.00     0.014 C 
HETATM   26  C4  UNL     1       6.144  -2.340   0.216  1.00  0.00     0.012 C 
BRANCH  25  27
HETATM   27  C2  UNL     1       6.954  -2.063   2.570  1.00  0.00     0.002 C 
HETATM   28  C1  UNL     1       8.412  -2.113   2.269  1.00  0.00     0.005 C 
ENDBRANCH  25  27
ENDBRANCH  24  25
BRANCH  24  29
HETATM   29  C32 UNL     1       7.142   0.651   0.969  1.00  0.00     0.197 C 
HETATM   30  O4  UNL     1       7.276   1.180  -0.174  1.00  0.00    -0.646 OA
HETATM   31  O5  UNL     1       8.175   0.870   1.851  1.00  0.00    -0.646 OA
ENDBRANCH  24  29
ENDBRANCH  21  24
ENDBRANCH  19  20
BRANCH  19  32
HETATM   32  C8  UNL     1       3.080   0.544  -2.086  1.00  0.00     0.067 C 
BRANCH  32  33
HETATM   33  C9  UNL     1       4.221   1.362  -2.642  1.00  0.00    -0.017 C 
HETATM   34  C10 UNL     1       4.551   0.950  -4.064  1.00  0.00     0.010 C 
HETATM   35  C11 UNL     1       3.764   2.845  -2.752  1.00  0.00     0.010 C 
ENDBRANCH  32  33
ENDBRANCH  19  32
ENDBRANCH  16  19
ENDBRANCH   1  15
BRANCH   5  36
HETATM   36  C18 UNL     1      -3.741  -1.037  -1.008  1.00  0.00     0.276 C 
BRANCH  36  37
HETATM   37  C19 UNL     1      -4.526  -2.164  -0.414  1.00  0.00     0.152 C 
BRANCH  37  38
HETATM   38  O3  UNL     1      -3.866  -3.299  -0.056  1.00  0.00    -0.393 OA
ATOM     39  H3  UNL     1      -4.364  -4.014   0.321  1.00  0.00     0.210 HD
ENDBRANCH  37  38
BRANCH  37  40
HETATM   40  C20 UNL     1      -5.460  -2.646  -1.570  1.00  0.00    -0.024 C 
HETATM   41  C21 UNL     1      -6.282  -3.789  -1.023  1.00  0.00     0.017 C 
HETATM   42  C22 UNL     1      -6.330  -1.541  -2.055  1.00  0.00     0.017 C 
HETATM   43  C23 UNL     1      -4.616  -3.197  -2.697  1.00  0.00     0.017 C 
ENDBRANCH  37  40
ENDBRANCH  36  37
ENDBRANCH   5  36
TORSDOF 13
