REMARK  6 active torsions:
REMARK  status: ('A' for Active; 'I' for Inactive)
REMARK    1  A    between atoms: C3_8  and  N2_9 
REMARK    2  A    between atoms: N2_9  and  C4_11 
REMARK    3  A    between atoms: C4_11  and  C5_12 
REMARK    4  A    between atoms: C7_14  and  C8_15 
REMARK    5  A    between atoms: C18_27  and  C19_28 
REMARK    6  A    between atoms: C22_33  and  C23_34 
ROOT
HETATM    1  C5  UNL     1      -1.407  -1.177  -0.175  1.00  0.00    -0.007 A 
HETATM    2  C6  UNL     1      -2.680  -0.661  -0.112  1.00  0.00     0.041 A 
HETATM    3  C7  UNL     1      -2.572   0.697   0.090  1.00  0.00     0.043 A 
HETATM    4  N3  UNL     1      -1.254   0.977   0.147  1.00  0.00    -0.352 N 
ATOM      5  H3  UNL     1      -0.866   1.909   0.290  1.00  0.00     0.166 HD
HETATM    6  C18 UNL     1      -0.521  -0.139  -0.010  1.00  0.00     0.092 A 
ENDROOT
BRANCH   6   7
HETATM    7  C19 UNL     1       0.940  -0.253  -0.007  1.00  0.00     0.176 A 
HETATM    8  N4  UNL     1       1.818   0.752   0.158  1.00  0.00    -0.332 N 
HETATM    9  C20 UNL     1       3.067   0.259   0.101  1.00  0.00     0.069 A 
ATOM     10  H4  UNL     1       1.575   1.732   0.303  1.00  0.00     0.168 HD
HETATM   11  C21 UNL     1       4.335   0.820   0.205  1.00  0.00     0.044 A 
HETATM   12  C31 UNL     1       2.928  -1.094  -0.104  1.00  0.00     0.104 A 
HETATM   13  C22 UNL     1       5.472   0.050   0.106  1.00  0.00    -0.024 A 
HETATM   14  C29 UNL     1       5.327  -1.304  -0.101  1.00  0.00     0.015 A 
HETATM   15  C30 UNL     1       4.050  -1.868  -0.205  1.00  0.00     0.040 A 
HETATM   16  O4  UNL     1       1.645  -1.345  -0.161  1.00  0.00    -0.289 OA
BRANCH  13  17
HETATM   17  C23 UNL     1       6.803   0.630   0.216  1.00  0.00    -0.026 A 
HETATM   18  C24 UNL     1       7.048   1.738   1.025  1.00  0.00     0.012 A 
HETATM   19  C25 UNL     1       8.318   2.281   1.122  1.00  0.00     0.001 A 
HETATM   20  C26 UNL     1       9.368   1.726   0.412  1.00  0.00     0.000 A 
HETATM   21  C27 UNL     1       9.145   0.642  -0.383  1.00  0.00     0.001 A 
HETATM   22  C28 UNL     1       7.876   0.109  -0.473  1.00  0.00     0.012 A 
ENDBRANCH  13  17
ENDBRANCH   6   7
BRANCH   1  23
HETATM   23  C4  UNL     1      -1.114  -2.622  -0.388  1.00  0.00     0.162 C 
BRANCH  23  24
HETATM   24  N2  UNL     1      -2.338  -3.350  -0.506  1.00  0.00    -0.367 N 
ATOM     25  H2  UNL     1      -3.204  -2.827  -0.378  1.00  0.00     0.161 HD
BRANCH  24  26
HETATM   26  C3  UNL     1      -2.443  -4.600  -0.758  1.00  0.00     0.184 A 
HETATM   27  C2  UNL     1      -1.387  -5.450  -0.956  1.00  0.00     0.349 A 
HETATM   28  O2  UNL     1      -1.583  -6.708  -1.207  1.00  0.00    -0.188 OA
HETATM   29  O3  UNL     1      -0.199  -5.053  -0.904  1.00  0.00    -0.254 OA
HETATM   30  N1  UNL     1      -2.751  -7.279  -1.294  1.00  0.00    -0.207 N 
HETATM   31  C1  UNL     1      -3.808  -6.474  -1.105  1.00  0.00     0.346 A 
ATOM     32  H1  UNL     1      -2.855  -8.274  -1.493  1.00  0.00     0.200 HD
HETATM   33  O1  UNL     1      -4.983  -6.935  -1.170  1.00  0.00    -0.245 OA
HETATM   34  N5  UNL     1      -3.686  -5.170  -0.843  1.00  0.00    -0.288 N 
ATOM     35  H5  UNL     1      -4.519  -4.598  -0.706  1.00  0.00     0.172 HD
ENDBRANCH  24  26
ENDBRANCH  23  24
ENDBRANCH   1  23
BRANCH   3  36
HETATM   36  C8  UNL     1      -3.659   1.660   0.221  1.00  0.00    -0.009 A 
HETATM   37  C9  UNL     1      -4.944   1.203   0.142  1.00  0.00     0.014 A 
HETATM   38  C10 UNL     1      -6.020   2.085   0.261  1.00  0.00     0.013 A 
HETATM   39  C11 UNL     1      -5.807   3.431   0.459  1.00  0.00    -0.026 A 
HETATM   40  C12 UNL     1      -6.870   4.304   0.576  1.00  0.00     0.012 A 
HETATM   41  C16 UNL     1      -4.504   3.869   0.535  1.00  0.00    -0.025 A 
HETATM   42  C13 UNL     1      -6.646   5.661   0.776  1.00  0.00     0.001 A 
HETATM   43  C14 UNL     1      -5.335   6.082   0.850  1.00  0.00     0.001 A 
HETATM   44  C15 UNL     1      -4.271   5.216   0.734  1.00  0.00     0.012 A 
HETATM   45  C17 UNL     1      -3.439   3.000   0.419  1.00  0.00     0.026 A 
ENDBRANCH   3  36
TORSDOF 6
