REMARK  6 active torsions:
REMARK  status: ('A' for Active; 'I' for Inactive)
REMARK    1  A    between atoms: N2_10  and  C6_12 
REMARK    2  A    between atoms: C6_12  and  C7_13 
REMARK    3  A    between atoms: C12_18  and  C13_19 
REMARK    4  A    between atoms: C19_27  and  N4_28 
REMARK    5  A    between atoms: N4_28  and  C20_29 
REMARK    6  A    between atoms: C20_29  and  C21_30 
ROOT
HETATM    1  O1  UNL     1       1.951  -0.021   5.525  1.00  0.00    -0.272 OA
HETATM    2  C1  UNL     1       1.847   0.423   4.344  1.00  0.00     0.232 C 
HETATM    3  C2  UNL     1       3.050   1.113   3.795  1.00  0.00     0.182 C 
HETATM    4  S1  UNL     1       3.275   0.677   2.069  1.00  0.00    -0.112 SA
HETATM    5  C3  UNL     1       1.653   0.411   1.378  1.00  0.00     0.104 A 
HETATM    6  C4  UNL     1       0.566   0.257   2.173  1.00  0.00     0.145 A 
HETATM    7  N1  UNL     1      -0.622   0.018   1.604  1.00  0.00    -0.175 N 
ATOM      8  H1  UNL     1      -1.443  -0.099   2.198  1.00  0.00     0.186 HD
HETATM    9  C5  UNL     1      -0.763  -0.074   0.244  1.00  0.00     0.686 A 
HETATM   10  N2  UNL     1      -1.814  -0.281  -0.308  1.00  0.00    -0.201 N 
ATOM     11  H2  UNL     1      -1.582  -0.298  -1.301  1.00  0.00     0.183 HD
HETATM   12  N3  UNL     1       0.375   0.089  -0.513  1.00  0.00    -0.163 N 
ATOM     13  H3  UNL     1       0.282   0.022  -1.527  1.00  0.00     0.187 HD
HETATM   14  C19 UNL     1       1.577   0.326  -0.023  1.00  0.00     0.213 A 
HETATM   15  N5  UNL     1       0.655   0.263   3.611  1.00  0.00    -0.311 N 
ATOM     16  H5  UNL     1      -0.210   0.142   4.138  1.00  0.00     0.170 HD
ENDROOT
BRANCH  10  17
HETATM   17  C6  UNL     1      -3.182  -0.508  -0.268  1.00  0.00     0.118 C 
BRANCH  17  18
HETATM   18  C7  UNL     1      -3.882   0.660  -0.936  1.00  0.00    -0.009 A 
HETATM   19  C8  UNL     1      -3.132   1.674  -1.478  1.00  0.00     0.013 A 
HETATM   20  C9  UNL     1      -3.684   2.774  -2.084  1.00  0.00     0.001 A 
HETATM   21  C10 UNL     1      -5.049   2.860  -2.148  1.00  0.00     0.001 A 
HETATM   22  C11 UNL     1      -5.842   1.869  -1.614  1.00  0.00     0.013 A 
HETATM   23  C12 UNL     1      -5.233   0.746  -0.996  1.00  0.00    -0.014 A 
BRANCH  23  24
HETATM   24  C13 UNL     1      -6.181  -0.244  -0.542  1.00  0.00    -0.025 A 
HETATM   25  C14 UNL     1      -7.140   0.138   0.366  1.00  0.00     0.012 A 
HETATM   26  C15 UNL     1      -8.109  -0.790   0.720  1.00  0.00     0.001 A 
HETATM   27  C16 UNL     1      -8.141  -2.069   0.201  1.00  0.00     0.000 A 
HETATM   28  C17 UNL     1      -7.167  -2.412  -0.699  1.00  0.00     0.001 A 
HETATM   29  C18 UNL     1      -6.188  -1.501  -1.069  1.00  0.00     0.012 A 
ENDBRANCH  23  24
ENDBRANCH  17  18
ENDBRANCH  10  17
BRANCH  14  30
HETATM   30  N4  UNL     1       2.529   0.414  -0.723  1.00  0.00    -0.397 NA
BRANCH  30  31
HETATM   31  C20 UNL     1       3.410   0.475  -1.735  1.00  0.00     0.197 C 
BRANCH  31  32
HETATM   32  C21 UNL     1       4.813   0.574  -1.137  1.00  0.00     0.004 A 
HETATM   33  C22 UNL     1       5.395   1.744  -0.781  1.00  0.00     0.015 A 
HETATM   34  C23 UNL     1       6.723   1.654  -0.339  1.00  0.00     0.002 A 
HETATM   35  C24 UNL     1       7.385   0.458  -0.273  1.00  0.00     0.012 A 
HETATM   36  C25 UNL     1       6.793  -0.728  -0.635  1.00  0.00    -0.025 A 
HETATM   37  C26 UNL     1       7.402  -1.949  -0.477  1.00  0.00     0.012 A 
HETATM   38  C30 UNL     1       5.470  -0.660  -1.078  1.00  0.00    -0.013 A 
HETATM   39  C27 UNL     1       6.679  -3.097  -0.761  1.00  0.00     0.001 A 
HETATM   40  C28 UNL     1       5.370  -3.026  -1.197  1.00  0.00     0.001 A 
HETATM   41  C29 UNL     1       4.731  -1.787  -1.367  1.00  0.00     0.013 A 
ENDBRANCH  31  32
ENDBRANCH  30  31
ENDBRANCH  14  30
TORSDOF 6
