REMARK  9 active torsions:
REMARK  status: ('A' for Active; 'I' for Inactive)
REMARK    1  A    between atoms: C3_3  and  C4_4 
REMARK    2  A    between atoms: C7_7  and  C8_8 
REMARK    3  A    between atoms: C8_8  and  N1_10 
REMARK    4  A    between atoms: N1_10  and  C10_12 
REMARK    5  A    between atoms: C10_12  and  N2_14 
REMARK    6  A    between atoms: N2_14  and  C11_16 
REMARK    7  A    between atoms: C14_19  and  N3_20 
REMARK    8  A    between atoms: N3_20  and  C15_22 
REMARK    9  A    between atoms: C16_25  and  C17_26 
ROOT
HETATM    1  C1  UNL     1      11.040   4.985   0.183  1.00  0.00     0.112 C 
HETATM    2  C2  UNL     1      10.014   3.941   0.115  1.00  0.00    -0.105 C 
HETATM    3  C3  UNL     1       9.165   3.086   0.081  1.00  0.00    -0.067 C 
ENDROOT
BRANCH   3   4
HETATM    4  C4  UNL     1       8.151   2.061   0.066  1.00  0.00     0.017 A 
HETATM    5  C5  UNL     1       6.846   2.334   0.425  1.00  0.00     0.021 A 
HETATM    6  C6  UNL     1       5.859   1.383   0.424  1.00  0.00     0.011 A 
HETATM    7  C7  UNL     1       6.138   0.081   0.055  1.00  0.00    -0.036 A 
HETATM    8  C30 UNL     1       7.429  -0.217  -0.307  1.00  0.00     0.011 A 
HETATM    9  C31 UNL     1       8.405   0.754  -0.299  1.00  0.00     0.021 A 
BRANCH   7  10
HETATM   10  C8  UNL     1       5.048  -0.931   0.079  1.00  0.00     0.113 C 
HETATM   11  C9  UNL     1       5.407  -2.155  -0.689  1.00  0.00     0.037 C 
BRANCH  10  12
HETATM   12  N1  UNL     1       3.801  -0.405  -0.399  1.00  0.00    -0.359 N 
ATOM     13  H1  UNL     1       3.793   0.476  -0.912  1.00  0.00     0.162 HD
BRANCH  12  14
HETATM   14  C10 UNL     1       2.570  -1.093  -0.169  1.00  0.00     0.172 C 
HETATM   15  S1  UNL     1       2.683  -2.491   0.660  1.00  0.00    -0.041 SA
BRANCH  14  16
HETATM   16  N2  UNL     1       1.357  -0.568  -0.655  1.00  0.00    -0.333 N 
ATOM     17  H2  UNL     1       1.423   0.305  -1.179  1.00  0.00     0.168 HD
BRANCH  16  18
HETATM   18  C11 UNL     1       0.069  -1.103  -0.504  1.00  0.00     0.034 A 
HETATM   19  C12 UNL     1      -0.389  -1.892   0.523  1.00  0.00     0.032 A 
HETATM   20  C13 UNL     1      -1.694  -2.404   0.558  1.00  0.00     0.032 A 
HETATM   21  C14 UNL     1      -2.588  -2.136  -0.445  1.00  0.00     0.033 A 
HETATM   22  C28 UNL     1      -2.151  -1.346  -1.485  1.00  0.00     0.032 A 
HETATM   23  C29 UNL     1      -0.876  -0.846  -1.521  1.00  0.00     0.032 A 
BRANCH  21  24
HETATM   24  N3  UNL     1      -3.923  -2.642  -0.437  1.00  0.00    -0.342 N 
ATOM     25  H3  UNL     1      -4.061  -3.624  -0.674  1.00  0.00     0.167 HD
BRANCH  24  26
HETATM   26  C15 UNL     1      -4.956  -1.948  -0.153  1.00  0.00     0.119 A 
HETATM   27  N4  UNL     1      -4.827  -0.616   0.175  1.00  0.00    -0.326 N 
HETATM   28  C16 UNL     1      -5.873   0.140   0.476  1.00  0.00     0.134 A 
ATOM     29  H4  UNL     1      -3.896  -0.198   0.187  1.00  0.00     0.169 HD
HETATM   30  N6  UNL     1      -7.090  -0.492   0.441  1.00  0.00    -0.340 N 
HETATM   31  C22 UNL     1      -7.271  -1.771   0.133  1.00  0.00     0.047 A 
ATOM     32  H6  UNL     1      -7.916   0.061   0.668  1.00  0.00     0.167 HD
HETATM   33  C23 UNL     1      -8.536  -2.350   0.114  1.00  0.00     0.030 A 
HETATM   34  C27 UNL     1      -6.186  -2.554  -0.180  1.00  0.00     0.035 A 
HETATM   35  C24 UNL     1      -8.714  -3.674  -0.207  1.00  0.00     0.002 A 
HETATM   36  C25 UNL     1      -7.627  -4.466  -0.522  1.00  0.00     0.001 A 
HETATM   37  C26 UNL     1      -6.369  -3.875  -0.500  1.00  0.00     0.017 A 
BRANCH  28  38
HETATM   38  C17 UNL     1      -5.869   1.568   0.792  1.00  0.00     0.078 A 
HETATM   39  C18 UNL     1      -6.975   2.269   1.272  1.00  0.00     0.035 A 
HETATM   40  C19 UNL     1      -6.642   3.572   1.426  1.00  0.00     0.020 A 
HETATM   41  C20 UNL     1      -5.328   3.715   1.048  1.00  0.00     0.091 A 
HETATM   42  N5  UNL     1      -4.899   2.467   0.668  1.00  0.00    -0.358 N 
HETATM   43  C21 UNL     1      -3.547   2.300   0.186  1.00  0.00     0.156 C 
ENDBRANCH  28  38
ENDBRANCH  24  26
ENDBRANCH  21  24
ENDBRANCH  16  18
ENDBRANCH  14  16
ENDBRANCH  12  14
ENDBRANCH  10  12
ENDBRANCH   7  10
ENDBRANCH   3   4
TORSDOF 9
