REMARK  8 active torsions:
REMARK  status: ('A' for Active; 'I' for Inactive)
REMARK    1  A    between atoms: O1_2  and  C2_3 
REMARK    2  A    between atoms: C3_4  and  C4_5 
REMARK    3  A    between atoms: N1_6  and  N2_8 
REMARK       I    between atoms: C5_10  and  N4_12 
REMARK    4  A    between atoms: C8_17  and  C9_18 
REMARK    5  A    between atoms: C12_21  and  C13_22 
REMARK    6  A    between atoms: C13_22  and  N6_23 
REMARK       I    between atoms: N6_23  and  C14_25 
REMARK    7  A    between atoms: C17_30  and  C18_31 
REMARK    8  A    between atoms: C18_31  and  C19_32 
ROOT
HETATM    1  C2  UNL     1      -0.835  -1.372   0.411  1.00  0.00     0.105 A 
HETATM    2  C3  UNL     1      -1.307  -0.088   0.270  1.00  0.00     0.084 A 
HETATM    3  N5  UNL     1      -0.246   0.733   0.207  1.00  0.00    -0.352 N 
ATOM      4  H5  UNL     1      -0.301   1.746   0.102  1.00  0.00     0.166 HD
HETATM    5  C8  UNL     1       0.926   0.019   0.303  1.00  0.00     0.052 A 
HETATM    6  C17 UNL     1       0.581  -1.283   0.431  1.00  0.00     0.009 A 
ENDROOT
BRANCH   5   7
HETATM    7  C9  UNL     1       2.215   0.689   0.306  1.00  0.00    -0.009 A 
HETATM    8  C10 UNL     1       2.268   2.081   0.516  1.00  0.00     0.014 A 
HETATM    9  C11 UNL     1       3.424   2.816   0.497  1.00  0.00     0.013 A 
HETATM   10  C12 UNL     1       4.617   2.168   0.259  1.00  0.00    -0.021 A 
HETATM   11  C15 UNL     1       4.587   0.810   0.051  1.00  0.00     0.013 A 
HETATM   12  C16 UNL     1       3.404   0.068   0.072  1.00  0.00     0.014 A 
BRANCH  10  13
HETATM   13  C13 UNL     1       5.853   2.915   0.233  1.00  0.00     0.103 C 
BRANCH  13  14
HETATM   14  N6  UNL     1       5.841   4.177   0.430  1.00  0.00    -0.321 N 
HETATM   15  C14 UNL     1       7.019   4.970   0.419  1.00  0.00     0.332 C 
HETATM   16  N7  UNL     1       7.184   6.003   1.378  1.00  0.00    -0.040 NA
HETATM   17  O2  UNL     1       7.925   4.753  -0.453  1.00  0.00    -0.251 OA
ATOM     18  H6  UNL     1       4.946   4.635   0.603  1.00  0.00     0.169 HD
ENDBRANCH  13  14
ENDBRANCH  10  13
ENDBRANCH   5   7
BRANCH   6  19
HETATM   19  C18 UNL     1       1.451  -2.454   0.592  1.00  0.00     0.071 C 
BRANCH  19  20
HETATM   20  C19 UNL     1       1.605  -3.282  -0.622  1.00  0.00    -0.020 C 
HETATM   21  C20 UNL     1       1.335  -4.560  -0.741  1.00  0.00    -0.091 C 
HETATM   22  C21 UNL     1       1.526  -5.306  -2.021  1.00  0.00     0.042 C 
HETATM   23  C22 UNL     1       0.826  -5.345   0.411  1.00  0.00     0.042 C 
ENDBRANCH  19  20
ENDBRANCH   6  19
BRANCH   2  24
HETATM   24  C4  UNL     1      -2.712   0.331   0.198  1.00  0.00     0.139 C 
HETATM   25  N1  UNL     1      -3.035   1.579   0.063  1.00  0.00    -0.307 N 
ATOM     26  H1  UNL     1      -2.311   2.295   0.004  1.00  0.00     0.186 HD
BRANCH  25  27
HETATM   27  N2  UNL     1      -4.373   1.929   0.000  1.00  0.00    -0.274 N 
HETATM   28  C5  UNL     1      -5.125   1.510  -0.945  1.00  0.00     0.204 C 
HETATM   29  N3  UNL     1      -4.600   0.668  -1.963  1.00  0.00    -0.062 NA
HETATM   30  N4  UNL     1      -6.501   1.865  -1.018  1.00  0.00    -0.363 N 
HETATM   31  C6  UNL     1      -6.942   2.928  -1.900  1.00  0.00     0.152 C 
HETATM   32  C7  UNL     1      -7.475   1.162  -0.206  1.00  0.00     0.152 C 
ATOM     33  H2  UNL     1      -4.766   2.533   0.722  1.00  0.00     0.189 HD
ENDBRANCH  25  27
ENDBRANCH   2  24
BRANCH   1  34
HETATM   34  O1  UNL     1      -1.548  -2.556   0.518  1.00  0.00    -0.353 OA
HETATM   35  C1  UNL     1      -1.887  -2.916   1.869  1.00  0.00     0.210 C 
ENDBRANCH   1  34
TORSDOF 8
