REMARK  18 active torsions:
REMARK  status: ('A' for Active; 'I' for Inactive)
REMARK    1  A    between atoms: O1_2  and  C2_3 
REMARK    2  A    between atoms: C3_4  and  N1_5 
REMARK       I    between atoms: N1_5  and  C4_7 
REMARK    3  A    between atoms: C6_10  and  O3_11 
REMARK    4  A    between atoms: C7_13  and  C8_14 
REMARK    5  A    between atoms: C8_14  and  N2_15 
REMARK    6  A    between atoms: C8_14  and  N4_19 
REMARK    7  A    between atoms: N4_19  and  N5_21 
REMARK    8  A    between atoms: N5_21  and  C10_23 
REMARK    9  A    between atoms: C12_27  and  C13_28 
REMARK   10  A    between atoms: C13_28  and  O6_29 
REMARK   11  A    between atoms: O6_29  and  C14_30 
REMARK   12  A    between atoms: C15_31  and  O7_32 
REMARK   13  A    between atoms: C19_39  and  C20_40 
REMARK   14  A    between atoms: C21_43  and  O10_44 
REMARK   15  A    between atoms: C21_43  and  O11_46 
REMARK   16  A    between atoms: O11_46  and  C22_47 
REMARK   17  A    between atoms: C22_47  and  O12_49 
REMARK   18  A    between atoms: C24_51  and  N7_52 
ROOT
HETATM    1  N2  UNL     1      -2.006   0.940   3.655  1.00  0.00    -0.277 N 
ATOM      2  H2  UNL     1      -1.944   1.946   3.497  1.00  0.00     0.179 HD
HETATM    3  C9  UNL     1      -1.498   0.398   4.825  1.00  0.00     0.183 C 
HETATM    4  N3  UNL     1      -1.072  -0.040   5.781  1.00  0.00    -0.172 NA
ENDROOT
BRANCH   1   5
HETATM    5  C8  UNL     1      -2.617   0.105   2.666  1.00  0.00     0.146 C 
BRANCH   5   6
HETATM    6  C7  UNL     1      -2.081  -0.095   1.505  1.00  0.00     0.096 C 
HETATM    7  C6  UNL     1      -2.701  -0.920   0.569  1.00  0.00     0.113 C 
HETATM    8  C3  UNL     1      -2.986  -0.596  -0.772  1.00  0.00     0.105 C 
HETATM    9  C2  UNL     1      -2.314   0.380  -1.540  1.00  0.00     0.132 C 
HETATM   10  C24 UNL     1      -1.248   1.157  -1.123  1.00  0.00     0.155 C 
HETATM   11  C12 UNL     1      -0.391   0.843  -0.095  1.00  0.00     0.089 C 
HETATM   12  C11 UNL     1      -0.871   0.614   1.237  1.00  0.00     0.204 C 
HETATM   13  O5  UNL     1      -0.214   1.038   2.177  1.00  0.00    -0.286 OA
BRANCH   7  14
HETATM   14  O3  UNL     1      -3.051  -2.152   1.020  1.00  0.00    -0.357 OA
ATOM     15  H3  UNL     1      -2.859  -2.370   1.924  1.00  0.00     0.217 HD
ENDBRANCH   7  14
BRANCH   8  16
HETATM   16  N1  UNL     1      -3.998  -1.355  -1.385  1.00  0.00    -0.323 N 
HETATM   17  C4  UNL     1      -3.747  -2.629  -1.957  1.00  0.00     0.218 C 
HETATM   18  C5  UNL     1      -4.806  -3.432  -2.599  1.00  0.00     0.117 C 
HETATM   19  O2  UNL     1      -2.577  -3.114  -1.925  1.00  0.00    -0.274 OA
ATOM     20  H1  UNL     1      -4.945  -0.977  -1.420  1.00  0.00     0.169 HD
ENDBRANCH   8  16
BRANCH   9  21
HETATM   21  O1  UNL     1      -2.739   0.603  -2.821  1.00  0.00    -0.351 OA
HETATM   22  C1  UNL     1      -2.325  -0.010  -4.006  1.00  0.00     0.210 C 
ENDBRANCH   9  21
BRANCH  10  23
HETATM   23  N7  UNL     1      -1.073   2.402  -1.710  1.00  0.00    -0.112 N 
HETATM   24  O13 UNL     1      -1.764   2.681  -2.694  1.00  0.00    -0.532 OA
HETATM   25  O14 UNL     1      -0.219   3.380  -1.284  1.00  0.00    -0.532 OA
ENDBRANCH  10  23
BRANCH  11  26
HETATM   26  C13 UNL     1       0.898   0.836  -0.223  1.00  0.00     0.144 C 
HETATM   27  C21 UNL     1       1.615   0.971  -1.463  1.00  0.00     0.216 C 
BRANCH  26  28
HETATM   28  O6  UNL     1       1.593   0.651   0.905  1.00  0.00    -0.335 OA
BRANCH  28  29
HETATM   29  C14 UNL     1       2.714   0.295   1.466  1.00  0.00     0.194 C 
HETATM   30  C15 UNL     1       3.205  -1.124   1.120  1.00  0.00     0.183 C 
HETATM   31  C16 UNL     1       4.307  -1.189   2.156  1.00  0.00     0.182 C 
HETATM   32  S1  UNL     1       5.567  -2.391   1.746  1.00  0.00    -0.112 SA
HETATM   33  N6  UNL     1       4.985   0.049   1.829  1.00  0.00    -0.356 N 
HETATM   34  C17 UNL     1       6.898  -1.211   1.726  1.00  0.00     0.064 C 
HETATM   35  C18 UNL     1       6.373  -0.010   1.778  1.00  0.00     0.095 C 
HETATM   36  C19 UNL     1       3.928   1.082   1.630  1.00  0.00     0.218 C 
BRANCH  30  37
HETATM   37  O7  UNL     1       2.189  -2.049   1.332  1.00  0.00    -0.390 OA
ATOM     38  H7  UNL     1       2.492  -2.924   1.119  1.00  0.00     0.210 HD
ENDBRANCH  30  37
BRANCH  36  39
HETATM   39  C20 UNL     1       3.908   1.938   2.878  1.00  0.00     0.199 C 
HETATM   40  O8  UNL     1       3.059   2.861   2.977  1.00  0.00    -0.646 OA
HETATM   41  O9  UNL     1       4.822   1.687   3.882  1.00  0.00    -0.646 OA
ENDBRANCH  36  39
ENDBRANCH  28  29
ENDBRANCH  26  28
BRANCH  27  42
HETATM   42  O10 UNL     1       2.914   1.035  -1.460  1.00  0.00    -0.339 OA
ATOM     43  H10 UNL     1       3.387   1.124  -2.279  1.00  0.00     0.220 HD
ENDBRANCH  27  42
BRANCH  27  44
HETATM   44  O11 UNL     1       1.129   1.036  -2.748  1.00  0.00    -0.297 OA
BRANCH  44  45
HETATM   45  C22 UNL     1       1.983   1.159  -3.855  1.00  0.00     0.261 C 
HETATM   46  C23 UNL     1       1.844   0.051  -4.861  1.00  0.00     0.071 C 
BRANCH  45  47
HETATM   47  O12 UNL     1       1.754   2.377  -4.534  1.00  0.00    -0.371 OA
ATOM     48  H12 UNL     1       2.332   2.460  -5.283  1.00  0.00     0.212 HD
ENDBRANCH  45  47
ENDBRANCH  44  45
ENDBRANCH  27  44
ENDBRANCH  11  26
ENDBRANCH   5   6
BRANCH   5  49
HETATM   49  N4  UNL     1      -3.889  -0.396   3.028  1.00  0.00    -0.282 N 
ATOM     50  H4  UNL     1      -4.117  -1.384   2.917  1.00  0.00     0.188 HD
BRANCH  49  51
HETATM   51  N5  UNL     1      -4.846   0.530   3.556  1.00  0.00    -0.276 N 
ATOM     52  H5  UNL     1      -4.882   0.727   4.556  1.00  0.00     0.189 HD
BRANCH  51  53
HETATM   53  C10 UNL     1      -5.734   1.161   2.668  1.00  0.00     0.368 C 
HETATM   54  O4  UNL     1      -5.696   0.931   1.456  1.00  0.00    -0.282 OA
ENDBRANCH  51  53
ENDBRANCH  49  51
ENDBRANCH   5  49
ENDBRANCH   1   5
TORSDOF 18
