REMARK  2 active torsions:
REMARK  status: ('A' for Active; 'I' for Inactive)
REMARK    1  A    between atoms: C2_5  and  C3_6 
REMARK    2  A    between atoms: C8_11  and  C9_12 
ROOT
HETATM    1  O1  UNL     1      -4.208   3.530  -0.413  1.00  0.00    -0.238 OA
HETATM    2  C1  UNL     1      -3.314   2.650  -0.314  1.00  0.00     0.370 A 
HETATM    3  N1  UNL     1      -3.526   1.325  -0.205  1.00  0.00    -0.299 N 
ATOM      4  H1  UNL     1      -4.430   0.853  -0.187  1.00  0.00     0.171 HD
HETATM    5  C2  UNL     1      -2.321   0.746  -0.124  1.00  0.00     0.084 A 
HETATM    6  C9  UNL     1       0.404   0.079   0.004  1.00  0.00     0.017 A 
HETATM    7  C10 UNL     1       1.776   0.056   0.041  1.00  0.00     0.004 A 
HETATM    8  C11 UNL     1       2.723  -0.920   0.150  1.00  0.00     0.014 A 
HETATM    9  C12 UNL     1       4.093  -0.629   0.160  1.00  0.00     0.001 A 
HETATM   10  C13 UNL     1       4.491   0.684   0.057  1.00  0.00     0.002 A 
HETATM   11  C14 UNL     1       3.533   1.647  -0.051  1.00  0.00     0.030 A 
HETATM   12  C15 UNL     1       2.182   1.388  -0.063  1.00  0.00     0.043 A 
HETATM   13  N2  UNL     1       1.087   2.166  -0.159  1.00  0.00    -0.352 N 
ATOM     14  H2  UNL     1       1.096   3.182  -0.247  1.00  0.00     0.166 HD
HETATM   15  C16 UNL     1      -0.015   1.406  -0.122  1.00  0.00     0.081 A 
HETATM   16  C17 UNL     1      -1.354   1.718  -0.183  1.00  0.00     0.136 A 
HETATM   17  O2  UNL     1      -2.021   2.861  -0.299  1.00  0.00    -0.257 OA
ENDROOT
BRANCH   5  18
HETATM   18  C3  UNL     1      -1.897  -0.575   0.001  1.00  0.00     0.005 A 
HETATM   19  C4  UNL     1      -2.902  -1.517   0.056  1.00  0.00     0.014 A 
HETATM   20  C5  UNL     1      -2.591  -2.847   0.179  1.00  0.00     0.001 A 
HETATM   21  C6  UNL     1      -1.269  -3.179   0.242  1.00  0.00     0.001 A 
HETATM   22  C7  UNL     1      -0.230  -2.250   0.188  1.00  0.00     0.013 A 
HETATM   23  C8  UNL     1      -0.540  -0.919   0.065  1.00  0.00    -0.010 A 
ENDBRANCH   5  18
TORSDOF 2
