REMARK  4 active torsions:
REMARK  status: ('A' for Active; 'I' for Inactive)
REMARK    1  A    between atoms: C6_6  and  N1_7 
REMARK    2  A    between atoms: N1_7  and  C7_9 
REMARK    3  A    between atoms: C7_9  and  N2_11 
REMARK       I    between atoms: N2_11  and  C8_13 
REMARK    4  A    between atoms: C8_13  and  C9_15 
ROOT
HETATM    1  N1  UNL     1      -0.708  -0.622  -0.613  1.00  0.00    -0.332 N 
ATOM      2  H1  UNL     1      -0.490  -1.440  -1.182  1.00  0.00     0.168 HD
ENDROOT
BRANCH   1   3
HETATM    3  C6  UNL     1      -2.040  -0.209  -0.502  1.00  0.00     0.046 A 
HETATM    4  C4  UNL     1      -2.853  -0.710   0.521  1.00  0.00    -0.034 A 
HETATM    5  C3  UNL     1      -4.160  -0.293   0.615  1.00  0.00     0.015 A 
HETATM    6  C5  UNL     1      -2.298  -1.687   1.495  1.00  0.00     0.050 C 
HETATM    7  C2  UNL     1      -4.698   0.614  -0.280  1.00  0.00    -0.061 A 
HETATM    8  C1  UNL     1      -6.111   1.060  -0.172  1.00  0.00     0.048 C 
HETATM    9  C15 UNL     1      -3.878   1.095  -1.282  1.00  0.00     0.015 A 
HETATM   10  C13 UNL     1      -2.564   0.689  -1.392  1.00  0.00    -0.034 A 
HETATM   11  C14 UNL     1      -1.713   1.234  -2.489  1.00  0.00     0.050 C 
ENDBRANCH   1   3
BRANCH   1  12
HETATM   12  C7  UNL     1       0.350   0.063   0.042  1.00  0.00     0.178 C 
HETATM   13  S1  UNL     1      -0.009   1.367   0.947  1.00  0.00    -0.040 SA
BRANCH  12  14
HETATM   14  N2  UNL     1       1.700  -0.352  -0.068  1.00  0.00    -0.303 N 
HETATM   15  C8  UNL     1       2.785   0.297   0.564  1.00  0.00     0.231 C 
HETATM   16  O1  UNL     1       2.544   1.307   1.271  1.00  0.00    -0.272 OA
ATOM     17  H2  UNL     1       1.902  -1.172  -0.640  1.00  0.00     0.171 HD
BRANCH  15  18
HETATM   18  C9  UNL     1       4.189  -0.159   0.432  1.00  0.00     0.030 C 
HETATM   19  C10 UNL     1       4.545  -0.103  -1.058  1.00  0.00     0.025 C 
HETATM   20  C11 UNL     1       5.122   0.795   1.140  1.00  0.00     0.025 C 
HETATM   21  C12 UNL     1       4.399  -1.558   0.903  1.00  0.00     0.025 C 
ENDBRANCH  15  18
ENDBRANCH  12  14
ENDBRANCH   1  12
TORSDOF 4
