REMARK  5 active torsions:
REMARK  status: ('A' for Active; 'I' for Inactive)
REMARK    1  A    between atoms: C2_2  and  C3_3 
REMARK    2  A    between atoms: C2_2  and  C13_14 
REMARK    3  A    between atoms: C3_3  and  C4_4 
REMARK    4  A    between atoms: C4_4  and  C5_5 
REMARK    5  A    between atoms: C8_8  and  C9_9 
ROOT
HETATM    1  C13 UNL     1       1.717  -0.049   0.143  1.00  0.00     0.238 C 
HETATM    2  O2  UNL     1       2.464   0.137   1.280  1.00  0.00    -0.290 OA
HETATM    3  C14 UNL     1       3.128   1.198   1.794  1.00  0.00     0.302 C 
HETATM    4  O3  UNL     1       3.000   1.364   3.070  1.00  0.00    -0.259 OA
HETATM    5  C15 UNL     1       3.970   2.194   1.143  1.00  0.00     0.082 C 
HETATM    6 BR1  UNL     1       3.421   4.082   1.393  1.00  0.00    -0.045 Br
HETATM    7  C16 UNL     1       5.049   2.014   0.434  1.00  0.00     0.005 C 
HETATM    8  C17 UNL     1       5.825   0.881   0.014  1.00  0.00     0.045 C 
HETATM    9  C18 UNL     1       5.839  -0.367   0.860  1.00  0.00     0.046 C 
HETATM   10  C19 UNL     1       5.429  -1.371  -0.204  1.00  0.00     0.227 C 
HETATM   11  C20 UNL     1       6.349  -0.966  -1.362  1.00  0.00     0.072 C 
HETATM   12  C21 UNL     1       5.445   0.252  -1.310  1.00  0.00     0.233 C 
HETATM   13  N1  UNL     1       4.406  -0.661  -0.884  1.00  0.00     0.107 N 
HETATM   14  C22 UNL     1       3.679  -1.258  -1.940  1.00  0.00     0.375 C 
HETATM   15  C23 UNL     1       2.371  -1.815  -1.531  1.00  0.00     0.249 C 
HETATM   16  O4  UNL     1       1.805  -2.684  -2.241  1.00  0.00    -0.271 OA
HETATM   17  N2  UNL     1       1.678  -1.414  -0.332  1.00  0.00    -0.327 N 
HETATM   18  C24 UNL     1       0.934  -2.406   0.421  1.00  0.00     0.155 C 
ENDROOT
BRANCH   1  19
HETATM   19  C2  UNL     1       0.332   0.596   0.252  1.00  0.00     0.031 C 
HETATM   20  C1  UNL     1      -0.404   0.343  -1.011  1.00  0.00     0.014 C 
BRANCH  19  21
HETATM   21  C3  UNL     1      -0.355   0.402   1.533  1.00  0.00     0.011 C 
BRANCH  21  22
HETATM   22  C4  UNL     1      -1.540   1.239   1.815  1.00  0.00     0.032 C 
BRANCH  22  23
HETATM   23  C5  UNL     1      -2.738   1.136   0.962  1.00  0.00     0.122 C 
HETATM   24  C6  UNL     1      -3.750   2.137   1.546  1.00  0.00     0.034 C 
HETATM   25  C7  UNL     1      -5.040   1.548   0.994  1.00  0.00     0.035 C 
HETATM   26  C8  UNL     1      -4.730   0.086   1.020  1.00  0.00     0.129 C 
HETATM   27  O1  UNL     1      -3.379  -0.094   1.018  1.00  0.00    -0.380 OA
BRANCH  26  28
HETATM   28  C9  UNL     1      -5.458  -0.630  -0.092  1.00  0.00    -0.025 C 
HETATM   29  C10 UNL     1      -5.064  -0.100  -1.454  1.00  0.00     0.017 C 
HETATM   30  C11 UNL     1      -5.226  -2.107  -0.080  1.00  0.00     0.017 C 
HETATM   31  C12 UNL     1      -6.948  -0.358   0.065  1.00  0.00     0.017 C 
ENDBRANCH  26  28
ENDBRANCH  22  23
ENDBRANCH  21  22
ENDBRANCH  19  21
ENDBRANCH   1  19
TORSDOF 5
