REMARK  7 active torsions:
REMARK  status: ('A' for Active; 'I' for Inactive)
REMARK    1  A    between atoms: C2_2  and  O1_3 
REMARK    2  A    between atoms: O1_3  and  C3_4 
REMARK       I    between atoms: C3_4  and  N1_6 
REMARK    3  A    between atoms: C7_10  and  C8_11 
REMARK    4  A    between atoms: C8_11  and  O4_13 
REMARK    5  A    between atoms: O4_13  and  C9_14 
REMARK    6  A    between atoms: N2_16  and  S1_17 
REMARK    7  A    between atoms: S1_17  and  C11_20 
ROOT
HETATM    1  C3  UNL     1      -4.634   1.505   0.170  1.00  0.00     0.363 C 
HETATM    2  O2  UNL     1      -3.871   2.497   0.331  1.00  0.00    -0.238 OA
HETATM    3  N1  UNL     1      -4.194   0.460  -0.710  1.00  0.00    -0.313 N 
HETATM    4  C4  UNL     1      -4.803  -0.782  -1.111  1.00  0.00     0.125 C 
HETATM    5  C5  UNL     1      -3.835  -0.833  -2.294  1.00  0.00     0.056 C 
HETATM    6  C6  UNL     1      -3.059   0.174  -1.531  1.00  0.00     0.106 C 
HETATM    7  C7  UNL     1      -1.859  -0.332  -0.792  1.00  0.00     0.113 C 
HETATM    8  C19 UNL     1      -1.789  -1.803  -0.617  1.00  0.00     0.056 C 
HETATM    9  C20 UNL     1      -3.053  -2.257   0.060  1.00  0.00    -0.049 A 
HETATM   10  C21 UNL     1      -2.828  -3.233   1.000  1.00  0.00     0.007 A 
HETATM   11  C22 UNL     1      -3.880  -3.755   1.709  1.00  0.00     0.001 A 
HETATM   12  C23 UNL     1      -5.183  -3.341   1.524  1.00  0.00     0.001 A 
HETATM   13  C24 UNL     1      -5.387  -2.358   0.573  1.00  0.00     0.010 A 
HETATM   14  C25 UNL     1      -4.348  -1.824  -0.147  1.00  0.00    -0.029 A 
ENDROOT
BRANCH   7  15
HETATM   15  C8  UNL     1      -0.616   0.217  -1.386  1.00  0.00     0.265 C 
HETATM   16  O3  UNL     1      -0.593   0.993  -2.375  1.00  0.00    -0.265 OA
BRANCH  15  17
HETATM   17  O4  UNL     1       0.589  -0.141  -0.826  1.00  0.00    -0.314 OA
BRANCH  17  18
HETATM   18  C9  UNL     1       1.837   0.275  -1.246  1.00  0.00     0.155 C 
HETATM   19  C10 UNL     1       2.656   0.996  -0.190  1.00  0.00     0.140 C 
HETATM   20  N2  UNL     1       3.288  -0.107   0.465  1.00  0.00    -0.207 NA
HETATM   21  C15 UNL     1       3.917  -0.799  -0.620  1.00  0.00     0.118 C 
HETATM   22  C16 UNL     1       2.699  -0.923  -1.566  1.00  0.00    -0.007 C 
HETATM   23  C17 UNL     1       3.243  -0.820  -2.969  1.00  0.00     0.019 C 
HETATM   24  C18 UNL     1       2.017  -2.224  -1.298  1.00  0.00     0.019 C 
BRANCH  20  25
HETATM   25  S1  UNL     1       4.158   0.151   1.853  1.00  0.00     0.219 S 
HETATM   26  O5  UNL     1       3.286   0.782   2.908  1.00  0.00    -0.210 OA
HETATM   27  O6  UNL     1       4.630  -1.168   2.409  1.00  0.00    -0.210 OA
BRANCH  25  28
HETATM   28  C11 UNL     1       5.537   1.241   1.580  1.00  0.00     0.067 C 
HETATM   29  C12 UNL     1       6.298   1.432   2.913  1.00  0.00     0.033 C 
HETATM   30  C13 UNL     1       6.554   0.647   0.631  1.00  0.00     0.033 C 
HETATM   31  C14 UNL     1       5.092   2.618   1.169  1.00  0.00     0.033 C 
ENDBRANCH  25  28
ENDBRANCH  20  25
ENDBRANCH  17  18
ENDBRANCH  15  17
ENDBRANCH   7  15
BRANCH   1  32
HETATM   32  O1  UNL     1      -5.831   1.464   0.829  1.00  0.00    -0.304 OA
BRANCH  32  33
HETATM   33  C2  UNL     1      -6.182   2.546   1.679  1.00  0.00     0.176 C 
HETATM   34  C1  UNL     1      -6.251   3.845   0.931  1.00  0.00     0.034 C 
ENDBRANCH  32  33
ENDBRANCH   1  32
TORSDOF 7
