REMARK  19 active torsions:
REMARK  status: ('A' for Active; 'I' for Inactive)
REMARK    1  A    between atoms: C2_2  and  C3_3 
REMARK    2  A    between atoms: C3_3  and  C4_4 
REMARK    3  A    between atoms: C4_4  and  C5_5 
REMARK    4  A    between atoms: C5_5  and  C6_6 
REMARK    5  A    between atoms: C6_6  and  C7_7 
REMARK    6  A    between atoms: C7_7  and  C8_8 
REMARK    7  A    between atoms: C8_8  and  C9_9 
REMARK    8  A    between atoms: C9_9  and  C10_10 
REMARK    9  A    between atoms: C10_10  and  C11_11 
REMARK   10  A    between atoms: C12_12  and  C13_13 
REMARK   11  A    between atoms: C17_18  and  C18_19 
REMARK   12  A    between atoms: C18_19  and  O2_20 
REMARK   13  A    between atoms: C18_19  and  C19_22 
REMARK   14  A    between atoms: C19_22  and  O3_23 
REMARK   15  A    between atoms: C24_31  and  O6_33 
REMARK   16  A    between atoms: C26_36  and  C27_37 
REMARK   17  A    between atoms: C27_37  and  O8_38 
REMARK   18  A    between atoms: C27_37  and  C28_40 
REMARK   19  A    between atoms: C28_40  and  O9_41 
ROOT
HETATM    1  C13 UNL     1      -2.182   0.362   1.225  1.00  0.00     0.080 C 
HETATM    2  C14 UNL     1      -2.502  -0.964   0.715  1.00  0.00    -0.037 C 
HETATM    3  C15 UNL     1      -2.692  -2.003   1.495  1.00  0.00     0.059 C 
HETATM    4  C16 UNL     1      -3.007  -3.262   0.837  1.00  0.00     0.181 C 
HETATM    5  O1  UNL     1      -2.658  -4.372   1.296  1.00  0.00    -0.290 OA
HETATM    6  C17 UNL     1      -3.782  -3.091  -0.427  1.00  0.00     0.226 C 
HETATM    7  O4  UNL     1      -3.231  -2.181  -1.249  1.00  0.00    -0.366 OA
HETATM    8  C20 UNL     1      -2.575  -1.092  -0.744  1.00  0.00     0.155 C 
HETATM    9  C21 UNL     1      -2.967   0.205  -1.419  1.00  0.00     0.080 C 
HETATM   10  C22 UNL     1      -3.808   1.087  -0.548  1.00  0.00     0.130 A 
HETATM   11  O5  UNL     1      -4.807   1.515  -1.268  1.00  0.00    -0.360 OA
HETATM   12  C23 UNL     1      -4.060   2.539  -0.953  1.00  0.00     0.222 A 
HETATM   13  C24 UNL     1      -2.792   3.073  -0.579  1.00  0.00     0.188 C 
HETATM   14  C25 UNL     1      -2.868   4.603  -0.274  1.00  0.00     0.082 C 
HETATM   15  O7  UNL     1      -2.564   2.542   0.677  1.00  0.00    -0.335 OA
HETATM   16  C26 UNL     1      -3.301   1.337   0.805  1.00  0.00     0.137 C 
ENDROOT
BRANCH   1  17
HETATM   17  C12 UNL     1      -0.822   0.816   0.906  1.00  0.00    -0.019 C 
HETATM   18  C11 UNL     1       0.108   1.025   1.866  1.00  0.00    -0.030 C 
BRANCH  18  19
HETATM   19  C10 UNL     1       1.471   1.479   1.562  1.00  0.00     0.027 C 
BRANCH  19  20
HETATM   20  C9  UNL     1       1.720   1.681   0.101  1.00  0.00     0.004 C 
BRANCH  20  21
HETATM   21  C8  UNL     1       3.115   2.154  -0.218  1.00  0.00     0.000 C 
BRANCH  21  22
HETATM   22  C7  UNL     1       4.146   1.176   0.245  1.00  0.00     0.000 C 
BRANCH  22  23
HETATM   23  C6  UNL     1       5.504   1.766  -0.144  1.00  0.00     0.000 C 
BRANCH  23  24
HETATM   24  C5  UNL     1       6.638   0.874   0.267  1.00  0.00     0.000 C 
BRANCH  24  25
HETATM   25  C4  UNL     1       6.550  -0.490  -0.378  1.00  0.00     0.000 C 
BRANCH  25  26
HETATM   26  C3  UNL     1       7.736  -1.288   0.107  1.00  0.00    -0.000 C 
BRANCH  26  27
HETATM   27  C2  UNL     1       7.738  -2.685  -0.487  1.00  0.00    -0.005 C 
HETATM   28  C1  UNL     1       7.802  -2.659  -1.983  1.00  0.00     0.005 C 
ENDBRANCH  26  27
ENDBRANCH  25  26
ENDBRANCH  24  25
ENDBRANCH  23  24
ENDBRANCH  22  23
ENDBRANCH  21  22
ENDBRANCH  20  21
ENDBRANCH  19  20
ENDBRANCH  18  19
ENDBRANCH   1  17
BRANCH  16  29
HETATM   29  C27 UNL     1      -4.211   1.317   1.947  1.00  0.00     0.180 C 
BRANCH  29  30
HETATM   30  O8  UNL     1      -4.859   0.054   2.000  1.00  0.00    -0.390 OA
ATOM     31  H8  UNL     1      -5.451   0.041   2.743  1.00  0.00     0.210 HD
ENDBRANCH  29  30
BRANCH  29  32
HETATM   32  C28 UNL     1      -5.200   2.302   2.319  1.00  0.00     0.199 C 
BRANCH  32  33
HETATM   33  O9  UNL     1      -6.390   2.353   1.601  1.00  0.00    -0.398 OA
ATOM     34  H9  UNL     1      -7.040   3.001   1.846  1.00  0.00     0.209 HD
ENDBRANCH  32  33
ENDBRANCH  29  32
ENDBRANCH  16  29
BRANCH  13  35
HETATM   35  O6  UNL     1      -1.754   3.064  -1.470  1.00  0.00    -0.363 OA
ATOM     36  H6  UNL     1      -0.909   3.420  -1.221  1.00  0.00     0.213 HD
ENDBRANCH  13  35
BRANCH   6  37
HETATM   37  C18 UNL     1      -3.740  -4.457  -1.124  1.00  0.00     0.178 C 
BRANCH  37  38
HETATM   38  O2  UNL     1      -2.411  -4.787  -1.392  1.00  0.00    -0.390 OA
ATOM     39  H2  UNL     1      -2.385  -5.633  -1.824  1.00  0.00     0.210 HD
ENDBRANCH  37  38
BRANCH  37  40
HETATM   40  C19 UNL     1      -4.481  -4.399  -2.438  1.00  0.00     0.198 C 
BRANCH  40  41
HETATM   41  O3  UNL     1      -3.949  -3.455  -3.293  1.00  0.00    -0.398 OA
ATOM     42  H3  UNL     1      -4.415  -3.419  -4.120  1.00  0.00     0.209 HD
ENDBRANCH  40  41
ENDBRANCH  37  40
ENDBRANCH   6  37
TORSDOF 19
