REMARK  7 active torsions:
REMARK  status: ('A' for Active; 'I' for Inactive)
REMARK    1  A    between atoms: C2_2  and  C3_3 
REMARK    2  A    between atoms: C3_3  and  N1_4 
REMARK    3  A    between atoms: N1_4  and  C4_6 
REMARK    4  A    between atoms: C4_6  and  C5_7 
REMARK    5  A    between atoms: C5_7  and  C6_8 
REMARK    6  A    between atoms: C7_11  and  N3_12 
REMARK    7  A    between atoms: C8_17  and  N5_18 
ROOT
HETATM    1  C6  UNL     1       1.537   0.046  -0.167  1.00  0.00     0.082 A 
HETATM    2  N2  UNL     1       1.621   1.378  -0.102  1.00  0.00    -0.192 N 
ATOM      3  H2  UNL     1       0.878   2.031   0.148  1.00  0.00     0.184 HD
HETATM    4  C7  UNL     1       2.884   1.677  -0.434  1.00  0.00     0.678 A 
HETATM    5  N4  UNL     1       3.575   0.572  -0.698  1.00  0.00    -0.169 N 
ATOM      6  H4  UNL     1       4.556   0.524  -0.974  1.00  0.00     0.186 HD
HETATM    7  C8  UNL     1       2.724  -0.492  -0.531  1.00  0.00     0.211 A 
ENDROOT
BRANCH   1   8
HETATM    8  C5  UNL     1       0.296  -0.744   0.145  1.00  0.00     0.106 C 
BRANCH   8   9
HETATM    9  C4  UNL     1      -0.664   0.126   0.940  1.00  0.00     0.062 C 
BRANCH   9  10
HETATM   10  N1  UNL     1      -1.805  -0.608   1.272  1.00  0.00    -0.398 N 
ATOM     11  H1  UNL     1      -1.953  -0.904   2.237  1.00  0.00     0.158 HD
BRANCH  10  12
HETATM   12  C3  UNL     1      -2.754  -0.943   0.283  1.00  0.00     0.145 C 
BRANCH  12  13
HETATM   13  C2  UNL     1      -3.495   0.291  -0.187  1.00  0.00    -0.018 C 
HETATM   14  C1  UNL     1      -4.805   0.360  -0.019  1.00  0.00     0.008 C 
ENDBRANCH  12  13
ENDBRANCH  10  12
ENDBRANCH   9  10
ENDBRANCH   8   9
ENDBRANCH   1   8
BRANCH   7  15
HETATM   15  N5  UNL     1       3.148  -1.840  -0.756  1.00  0.00    -0.095 N 
HETATM   16  O1  UNL     1       2.331  -2.784  -0.623  1.00  0.00    -0.530 OA
HETATM   17  O2  UNL     1       4.406  -2.155  -1.117  1.00  0.00    -0.530 OA
ENDBRANCH   7  15
BRANCH   4  18
HETATM   18  N3  UNL     1       3.330   2.886  -0.465  1.00  0.00    -0.234 N 
ATOM     19  H32 UNL     1       2.800   3.734  -0.262  1.00  0.00     0.174 HD
ATOM     20  H31 UNL     1       4.292   3.114  -0.718  1.00  0.00     0.174 HD
ENDBRANCH   4  18
TORSDOF 7
