REMARK  4 active torsions:
REMARK  status: ('A' for Active; 'I' for Inactive)
REMARK    1  A    between atoms: C2_2  and  C3_3 
REMARK    2  A    between atoms: C3_3  and  C4_4 
REMARK    3  A    between atoms: C5_6  and  N1_7 
REMARK    4  A    between atoms: N1_7  and  O1_8 
ROOT
HETATM    1  N1  UNL     1      -2.330   0.896  -0.807  1.00  0.00    -0.179 N 
HETATM    2  C6  UNL     1      -3.409   0.686   0.079  1.00  0.00     0.206 C 
HETATM    3  N2  UNL     1      -4.304   0.501   0.794  1.00  0.00    -0.170 NA
ENDROOT
BRANCH   1   4
HETATM    4  C5  UNL     1      -1.264  -0.050  -0.989  1.00  0.00     0.201 A 
HETATM    5  C4  UNL     1      -0.393  -0.457   0.160  1.00  0.00     0.089 A 
HETATM    6  S1  UNL     1      -1.649  -1.707  -0.305  1.00  0.00    -0.131 SA
BRANCH   5   7
HETATM    7  C3  UNL     1       1.017  -0.932  -0.122  1.00  0.00     0.044 C 
BRANCH   7   8
HETATM    8  C2  UNL     1       2.048   0.040   0.237  1.00  0.00    -0.036 C 
HETATM    9  C1  UNL     1       2.976  -0.260   1.130  1.00  0.00     0.007 C 
ENDBRANCH   7   8
ENDBRANCH   5   7
ENDBRANCH   1   4
BRANCH   1  10
HETATM   10  O1  UNL     1      -2.356   1.985  -1.442  1.00  0.00    -0.277 OA
ATOM     11  H1  UNL     1      -3.061   2.610  -1.322  1.00  0.00     0.245 HD
ENDBRANCH   1  10
TORSDOF 4
