REMARK  13 active torsions:
REMARK  status: ('A' for Active; 'I' for Inactive)
REMARK    1  A    between atoms: N1_1  and  C1_4 
REMARK    2  A    between atoms: C2_7  and  N3_8 
REMARK    3  A    between atoms: N4_14  and  C5_15 
REMARK    4  A    between atoms: C5_15  and  C6_16 
REMARK    5  A    between atoms: C6_16  and  N5_17 
REMARK    6  A    between atoms: C6_16  and  C7_21 
REMARK    7  A    between atoms: C7_21  and  C8_22 
REMARK    8  A    between atoms: C8_22  and  C9_23 
REMARK    9  A    between atoms: C9_23  and  N6_24 
REMARK   10  A    between atoms: N6_24  and  C10_26 
REMARK   11  A    between atoms: C10_26  and  C11_27 
REMARK   12  A    between atoms: C11_27  and  C12_28 
REMARK   13  A    between atoms: C12_28  and  N7_29 
ROOT
HETATM    1  C1  UNL     1      -7.289  -0.008  -0.108  1.00  0.00     0.679 A 
HETATM    2  N2  UNL     1      -6.864  -0.940   0.718  1.00  0.00    -0.176 N 
ATOM      3  H2  UNL     1      -7.572  -1.518   1.171  1.00  0.00     0.186 HD
HETATM    4  C2  UNL     1      -5.547  -1.203   1.025  1.00  0.00     0.134 A 
HETATM    5  C3  UNL     1      -4.603  -0.415   0.407  1.00  0.00     0.121 A 
HETATM    6  C4  UNL     1      -3.253  -0.561   0.618  1.00  0.00     0.269 A 
HETATM    7  O1  UNL     1      -2.839  -1.447   1.404  1.00  0.00    -0.267 OA
HETATM    8  N4  UNL     1      -2.356   0.247  -0.017  1.00  0.00    -0.263 N 
HETATM    9  C13 UNL     1      -2.829   1.184  -0.851  1.00  0.00     0.331 A 
HETATM   10  O2  UNL     1      -2.032   1.948  -1.455  1.00  0.00    -0.246 OA
HETATM   11  N8  UNL     1      -4.142   1.344  -1.072  1.00  0.00    -0.293 N 
ATOM     12  H8  UNL     1      -4.446   2.073  -1.717  1.00  0.00     0.172 HD
HETATM   13  C14 UNL     1      -5.079   0.574  -0.471  1.00  0.00     0.144 A 
HETATM   14  N9  UNL     1      -6.384   0.764  -0.715  1.00  0.00    -0.176 N 
ATOM     15  H9  UNL     1      -6.684   1.494  -1.361  1.00  0.00     0.186 HD
ENDROOT
BRANCH   8  16
HETATM   16  C5  UNL     1      -0.950   0.101   0.200  1.00  0.00     0.169 C 
BRANCH  16  17
HETATM   17  C6  UNL     1      -0.268  -0.838  -0.723  1.00  0.00     0.202 C 
BRANCH  17  18
HETATM   18  N5  UNL     1      -0.360  -0.482  -2.110  1.00  0.00    -0.073 N 
ATOM     19  H53 UNL     1      -1.336  -0.363  -2.382  1.00  0.00     0.274 HD
ATOM     20  H52 UNL     1      -0.020   0.469  -2.256  1.00  0.00     0.274 HD
ATOM     21  H51 UNL     1       0.109  -1.128  -2.745  1.00  0.00     0.274 HD
ENDBRANCH  17  18
BRANCH  17  22
HETATM   22  C7  UNL     1       1.141  -1.081  -0.245  1.00  0.00     0.036 C 
BRANCH  22  23
HETATM   23  C8  UNL     1       1.880   0.208  -0.214  1.00  0.00     0.022 C 
BRANCH  23  24
HETATM   24  C9  UNL     1       3.334   0.046   0.239  1.00  0.00     0.118 C 
BRANCH  24  25
HETATM   25  N6  UNL     1       3.904   1.336   0.223  1.00  0.00    -0.402 N 
ATOM     26  H6  UNL     1       3.332   2.128  -0.069  1.00  0.00     0.158 HD
BRANCH  25  27
HETATM   27  C10 UNL     1       5.230   1.556   0.596  1.00  0.00     0.057 C 
BRANCH  27  28
HETATM   28  C11 UNL     1       6.344   1.112  -0.253  1.00  0.00     0.071 C 
BRANCH  28  29
HETATM   29  C12 UNL     1       6.513  -0.323  -0.562  1.00  0.00     0.234 C 
BRANCH  29  30
HETATM   30  N7  UNL     1       6.683  -1.177   0.600  1.00  0.00    -0.079 N 
ATOM     31  H73 UNL     1       7.458  -0.845   1.173  1.00  0.00     0.274 HD
ATOM     32  H72 UNL     1       5.911  -1.044   1.253  1.00  0.00     0.274 HD
ATOM     33  H71 UNL     1       6.800  -2.168   0.387  1.00  0.00     0.274 HD
ENDBRANCH  29  30
ENDBRANCH  28  29
ENDBRANCH  27  28
ENDBRANCH  25  27
ENDBRANCH  24  25
ENDBRANCH  23  24
ENDBRANCH  22  23
ENDBRANCH  17  22
ENDBRANCH  16  17
ENDBRANCH   8  16
BRANCH   4  34
HETATM   34  N3  UNL     1      -5.266  -2.104   1.817  1.00  0.00    -0.384 N 
ATOM     35  H32 UNL     1      -5.966  -2.688   2.275  1.00  0.00     0.157 HD
ATOM     36  H31 UNL     1      -4.291  -2.299   2.044  1.00  0.00     0.157 HD
ENDBRANCH   4  34
BRANCH   1  37
HETATM   37  N1  UNL     1      -8.579   0.172  -0.341  1.00  0.00    -0.234 N 
ATOM     38  H12 UNL     1      -9.270  -0.418   0.123  1.00  0.00     0.174 HD
ATOM     39  H11 UNL     1      -8.908   0.894  -0.981  1.00  0.00     0.174 HD
ENDBRANCH   1  37
TORSDOF 13
