REMARK  5 active torsions:
REMARK  status: ('A' for Active; 'I' for Inactive)
REMARK    1  A    between atoms: C2_2  and  C3_3 
REMARK    2  A    between atoms: C7_7  and  N1_8 
REMARK    3  A    between atoms: N1_8  and  C8_10 
REMARK    4  A    between atoms: C8_10  and  C9_11 
REMARK    5  A    between atoms: C14_16  and  C15_17 
ROOT
HETATM    1  C9  UNL     1      -1.658  -0.856  -1.106  1.00  0.00    -0.029 A 
HETATM    2  C10 UNL     1      -1.434  -1.681  -2.182  1.00  0.00     0.010 A 
HETATM    3  C11 UNL     1      -2.484  -2.210  -2.937  1.00  0.00     0.001 A 
HETATM    4  C12 UNL     1      -3.799  -1.941  -2.656  1.00  0.00     0.001 A 
HETATM    5  C13 UNL     1      -4.030  -1.118  -1.585  1.00  0.00     0.013 A 
HETATM    6  C14 UNL     1      -2.998  -0.582  -0.822  1.00  0.00    -0.018 A 
ENDROOT
BRANCH   1   7
HETATM    7  C8  UNL     1      -0.608  -0.280  -0.249  1.00  0.00     0.159 C 
BRANCH   7   8
HETATM    8  N1  UNL     1       0.704  -0.666  -0.636  1.00  0.00    -0.386 N 
ATOM      9  H1  UNL     1       0.852  -1.286  -1.432  1.00  0.00     0.160 HD
BRANCH   8  10
HETATM   10  C7  UNL     1       1.821  -0.160   0.123  1.00  0.00     0.028 A 
HETATM   11  C6  UNL     1       1.605   0.677   1.196  1.00  0.00     0.029 A 
HETATM   12  C5  UNL     1       2.682   1.156   1.919  1.00  0.00     0.003 A 
HETATM   13  C4  UNL     1       3.980   0.820   1.597  1.00  0.00     0.007 A 
HETATM   14  C3  UNL     1       4.212  -0.015   0.527  1.00  0.00    -0.056 A 
HETATM   15  C21 UNL     1       3.129  -0.486  -0.185  1.00  0.00     0.036 A 
BRANCH  14  16
HETATM   16  C2  UNL     1       5.556  -0.443   0.090  1.00  0.00     0.034 C 
HETATM   17  C1  UNL     1       6.171   0.478  -0.922  1.00  0.00     0.010 C 
ENDBRANCH  14  16
ENDBRANCH   8  10
ENDBRANCH   7   8
ENDBRANCH   1   7
BRANCH   6  18
HETATM   18  C15 UNL     1      -3.366   0.303   0.276  1.00  0.00    -0.025 A 
HETATM   19  C16 UNL     1      -3.096   1.636   0.319  1.00  0.00     0.012 A 
HETATM   20  C17 UNL     1      -3.447   2.429   1.393  1.00  0.00     0.001 A 
HETATM   21  C18 UNL     1      -4.097   1.887   2.476  1.00  0.00     0.000 A 
HETATM   22  C19 UNL     1      -4.380   0.540   2.451  1.00  0.00     0.001 A 
HETATM   23  C20 UNL     1      -4.026  -0.233   1.383  1.00  0.00     0.012 A 
ENDBRANCH   6  18
TORSDOF 5
