REMARK  7 active torsions:
REMARK  status: ('A' for Active; 'I' for Inactive)
REMARK    1  A    between atoms: C4_4  and  C5_5 
REMARK    2  A    between atoms: C5_5  and  C6_6 
REMARK    3  A    between atoms: C21_26  and  O6_27 
REMARK    4  A    between atoms: O6_27  and  C22_28 
REMARK    5  A    between atoms: C22_28  and  C23_30 
REMARK    6  A    between atoms: C23_30  and  C24_31 
REMARK    7  A    between atoms: C24_31  and  C25_32 
ROOT
HETATM    1  C6  UNL     1      -1.578   0.011   0.908  1.00  0.00    -0.000 C 
HETATM    2  C7  UNL     1      -0.884   0.782   2.058  1.00  0.00     0.019 C 
HETATM    3  C8  UNL     1      -2.626  -0.768   1.629  1.00  0.00     0.013 C 
HETATM    4  C9  UNL     1      -2.212  -1.650   2.768  1.00  0.00     0.011 C 
HETATM    5  C10 UNL     1      -1.801  -2.958   2.233  1.00  0.00    -0.034 A 
HETATM    6  C11 UNL     1      -2.926  -3.709   1.638  1.00  0.00     0.016 C 
HETATM    7  C12 UNL     1      -0.659  -3.802   2.437  1.00  0.00    -0.003 A 
HETATM    8  C13 UNL     1      -0.513  -5.123   1.687  1.00  0.00     0.011 C 
HETATM    9  C14 UNL     1      -0.477  -2.630   1.645  1.00  0.00     0.031 A 
HETATM   10  C15 UNL     1      -0.649  -2.245   0.280  1.00  0.00     0.179 C 
HETATM   11  O1  UNL     1      -1.878  -2.600  -0.342  1.00  0.00    -0.308 OA
HETATM   12  C16 UNL     1      -2.247  -1.690  -1.310  1.00  0.00     0.329 C 
HETATM   13  O2  UNL     1      -3.324  -1.618  -1.922  1.00  0.00    -0.259 OA
HETATM   14  C17 UNL     1      -1.015  -0.847  -1.404  1.00  0.00     0.324 C 
HETATM   15  O3  UNL     1      -0.110  -1.752  -2.032  1.00  0.00    -0.183 OA
HETATM   16  O4  UNL     1      -0.449  -1.745  -3.287  1.00  0.00    -0.198 OA
HETATM   17  C18 UNL     1      -0.718  -0.398  -3.526  1.00  0.00     0.194 C 
HETATM   18  C19 UNL     1       0.558   0.235  -4.040  1.00  0.00     0.081 C 
HETATM   19  C20 UNL     1      -1.843  -0.258  -4.521  1.00  0.00     0.081 C 
HETATM   20  O5  UNL     1      -1.034   0.125  -2.280  1.00  0.00    -0.303 OA
HETATM   21  C21 UNL     1      -0.624  -0.726   0.021  1.00  0.00     0.174 C 
ENDROOT
BRANCH  21  22
HETATM   22  O6  UNL     1       0.526  -0.077   0.196  1.00  0.00    -0.300 OA
BRANCH  22  23
HETATM   23  C22 UNL     1       1.804  -0.045  -0.116  1.00  0.00     0.259 C 
HETATM   24  O7  UNL     1       2.166  -0.949  -0.860  1.00  0.00    -0.265 OA
BRANCH  23  25
HETATM   25  C23 UNL     1       2.820   0.947   0.328  1.00  0.00     0.111 C 
BRANCH  25  26
HETATM   26  C24 UNL     1       4.159   0.621  -0.258  1.00  0.00     0.013 C 
BRANCH  26  27
HETATM   27  C25 UNL     1       5.232   1.576   0.146  1.00  0.00    -0.022 C 
HETATM   28  C26 UNL     1       4.956   2.990  -0.265  1.00  0.00     0.009 C 
HETATM   29  C27 UNL     1       6.533   1.140  -0.502  1.00  0.00     0.009 C 
ENDBRANCH  26  27
ENDBRANCH  25  26
ENDBRANCH  23  25
ENDBRANCH  22  23
ENDBRANCH  21  22
BRANCH   1  30
HETATM   30  C5  UNL     1      -2.315   1.182   0.279  1.00  0.00     0.040 C 
BRANCH  30  31
HETATM   31  C4  UNL     1      -1.452   2.316  -0.121  1.00  0.00    -0.024 C 
HETATM   32  C2  UNL     1      -1.730   3.551   0.367  1.00  0.00    -0.091 C 
HETATM   33  C1  UNL     1      -2.877   3.775   1.286  1.00  0.00     0.042 C 
HETATM   34  C3  UNL     1      -0.882   4.687  -0.020  1.00  0.00     0.042 C 
ENDBRANCH  30  31
ENDBRANCH   1  30
TORSDOF 7
