REMARK  15 active torsions:
REMARK  status: ('A' for Active; 'I' for Inactive)
REMARK    1  A    between atoms: O1_2  and  C2_3 
REMARK    2  A    between atoms: C2_3  and  C3_5 
REMARK    3  A    between atoms: C3_5  and  O3_7 
REMARK    4  A    between atoms: C3_5  and  C5_9 
REMARK    5  A    between atoms: C7_11  and  O4_12 
REMARK    6  A    between atoms: C12_18  and  C13_19 
REMARK    7  A    between atoms: C13_19  and  C15_21 
REMARK    8  A    between atoms: C15_21  and  C16_22 
REMARK    9  A    between atoms: C16_22  and  C17_23 
REMARK   10  A    between atoms: C17_23  and  C20_26 
REMARK   11  A    between atoms: C20_26  and  C21_27 
REMARK   12  A    between atoms: C21_27  and  C22_29 
REMARK   13  A    between atoms: C22_29  and  C24_31 
REMARK   14  A    between atoms: C24_31  and  C25_32 
REMARK   15  A    between atoms: C25_32  and  C26_33 
ROOT
HETATM    1  C5  UNL     1       5.987   0.039   1.295  1.00  0.00     0.041 C 
HETATM    2  C6  UNL     1       5.400  -0.603   2.540  1.00  0.00     0.041 C 
HETATM    3  C7  UNL     1       3.971  -0.996   2.147  1.00  0.00     0.123 C 
HETATM    4  C8  UNL     1       4.174  -1.345   0.716  1.00  0.00     0.028 C 
HETATM    5  C9  UNL     1       2.995  -1.713  -0.104  1.00  0.00     0.001 C 
HETATM    6  C10 UNL     1       1.819  -2.066   0.796  1.00  0.00     0.006 C 
HETATM    7  C11 UNL     1       0.703  -1.099   0.406  1.00  0.00     0.006 C 
HETATM    8  C12 UNL     1       0.967  -0.913  -1.027  1.00  0.00    -0.002 C 
HETATM    9  C29 UNL     1       2.475  -0.769  -1.108  1.00  0.00    -0.036 C 
HETATM   10  C30 UNL     1       2.817  -0.951  -2.550  1.00  0.00     0.016 C 
HETATM   11  C31 UNL     1       2.898   0.649  -0.783  1.00  0.00     0.011 C 
HETATM   12  C32 UNL     1       4.352   0.821  -0.509  1.00  0.00     0.011 C 
HETATM   13  C33 UNL     1       5.086  -0.271   0.159  1.00  0.00    -0.031 C 
HETATM   14  C34 UNL     1       5.990  -0.981  -0.868  1.00  0.00     0.016 C 
ENDROOT
BRANCH   8  15
HETATM   15  C13 UNL     1       0.297  -1.804  -1.973  1.00  0.00    -0.014 C 
HETATM   16  C14 UNL     1       0.453  -3.274  -1.854  1.00  0.00     0.010 C 
BRANCH  15  17
HETATM   17  C15 UNL     1      -1.111  -1.411  -2.285  1.00  0.00     0.005 C 
BRANCH  17  18
HETATM   18  C16 UNL     1      -2.082  -1.338  -1.179  1.00  0.00     0.009 C 
BRANCH  18  19
HETATM   19  C17 UNL     1      -3.470  -0.971  -1.745  1.00  0.00    -0.041 C 
HETATM   20  C18 UNL     1      -3.305   0.376  -2.412  1.00  0.00     0.015 C 
HETATM   21  C19 UNL     1      -3.988  -2.012  -2.688  1.00  0.00     0.015 C 
BRANCH  19  22
HETATM   22  C20 UNL     1      -4.464  -0.833  -0.633  1.00  0.00     0.087 C 
BRANCH  22  23
HETATM   23  C21 UNL     1      -5.788  -0.497  -1.199  1.00  0.00     0.131 C 
HETATM   24  O5  UNL     1      -6.034  -0.367  -2.392  1.00  0.00    -0.298 OA
BRANCH  23  25
HETATM   25  C22 UNL     1      -6.940  -0.293  -0.273  1.00  0.00     0.051 C 
HETATM   26  C23 UNL     1      -7.133  -1.590   0.491  1.00  0.00     0.018 C 
BRANCH  25  27
HETATM   27  C24 UNL     1      -6.594   0.846   0.660  1.00  0.00     0.012 C 
BRANCH  27  28
HETATM   28  C25 UNL     1      -7.784   1.024   1.580  1.00  0.00     0.004 C 
BRANCH  28  29
HETATM   29  C26 UNL     1      -7.591   2.128   2.578  1.00  0.00    -0.023 C 
HETATM   30  C27 UNL     1      -7.366   3.474   1.955  1.00  0.00     0.009 C 
HETATM   31  C28 UNL     1      -8.826   2.161   3.458  1.00  0.00     0.009 C 
ENDBRANCH  28  29
ENDBRANCH  27  28
ENDBRANCH  25  27
ENDBRANCH  23  25
ENDBRANCH  22  23
ENDBRANCH  19  22
ENDBRANCH  18  19
ENDBRANCH  17  18
ENDBRANCH  15  17
ENDBRANCH   8  15
BRANCH   3  32
HETATM   32  O4  UNL     1       3.232   0.097   2.460  1.00  0.00    -0.395 OA
ATOM     33  H4  UNL     1       2.347  -0.146   2.217  1.00  0.00     0.210 HD
ENDBRANCH   3  32
BRANCH   1  34
HETATM   34  C3  UNL     1       6.353   1.424   1.628  1.00  0.00     0.146 C 
HETATM   35  C4  UNL     1       7.495   1.305   2.672  1.00  0.00     0.057 C 
BRANCH  34  36
HETATM   36  C2  UNL     1       6.966   2.214   0.531  1.00  0.00     0.293 C 
HETATM   37  O2  UNL     1       7.795   1.717  -0.243  1.00  0.00    -0.262 OA
BRANCH  36  38
HETATM   38  O1  UNL     1       6.618   3.542   0.352  1.00  0.00    -0.324 OA
HETATM   39  C1  UNL     1       7.203   4.321  -0.703  1.00  0.00     0.213 C 
ENDBRANCH  36  38
ENDBRANCH  34  36
BRANCH  34  40
HETATM   40  O3  UNL     1       5.400   2.157   2.329  1.00  0.00    -0.380 OA
ATOM     41  H3  UNL     1       5.008   1.651   3.031  1.00  0.00     0.211 HD
ENDBRANCH  34  40
ENDBRANCH   1  34
TORSDOF 15
