REMARK  11 active torsions:
REMARK  status: ('A' for Active; 'I' for Inactive)
REMARK    1  A    between atoms: C4_4  and  C5_5 
REMARK    2  A    between atoms: C7_7  and  O1_8 
REMARK    3  A    between atoms: C9_11  and  O2_12 
REMARK    4  A    between atoms: C13_17  and  C14_18 
REMARK    5  A    between atoms: C14_18  and  C15_19 
REMARK    6  A    between atoms: C16_20  and  C17_21 
REMARK    7  A    between atoms: N1_23  and  C19_24 
REMARK    8  A    between atoms: C22_27  and  O3_28 
REMARK    9  A    between atoms: C25_34  and  C26_35 
REMARK   10  A    between atoms: C26_35  and  O4_36 
REMARK   11  A    between atoms: C28_39  and  O5_40 
ROOT
HETATM    1  C5  UNL     1      -3.174  -0.503  -0.468  1.00  0.00    -0.003 C 
HETATM    2  C6  UNL     1      -4.670  -0.994  -0.476  1.00  0.00     0.037 C 
HETATM    3  C7  UNL     1      -4.768  -2.465  -0.362  1.00  0.00     0.125 C 
HETATM    4  C8  UNL     1      -4.171  -2.885   0.943  1.00  0.00     0.048 C 
HETATM    5  C9  UNL     1      -4.006  -4.372   1.113  1.00  0.00     0.125 C 
HETATM    6  C10 UNL     1      -2.915  -4.445   2.157  1.00  0.00     0.032 C 
HETATM    7  C11 UNL     1      -2.180  -3.093   2.102  1.00  0.00     0.008 C 
HETATM    8  C12 UNL     1      -2.685  -2.468   0.848  1.00  0.00    -0.001 C 
HETATM    9  C13 UNL     1      -2.672  -0.931   0.859  1.00  0.00    -0.002 C 
ENDROOT
BRANCH   9  10
HETATM   10  C14 UNL     1      -1.327  -0.549   1.330  1.00  0.00     0.032 C 
BRANCH  10  11
HETATM   11  C15 UNL     1      -0.178  -1.014   0.547  1.00  0.00    -0.025 C 
HETATM   12  C16 UNL     1       0.953  -0.716   0.105  1.00  0.00     0.011 C 
BRANCH  12  13
HETATM   13  C17 UNL     1       2.028   0.146  -0.057  1.00  0.00     0.007 A 
HETATM   14  C18 UNL     1       2.875   0.202  -1.118  1.00  0.00     0.124 A 
HETATM   15  N1  UNL     1       3.913   0.991  -0.864  1.00  0.00    -0.297 N 
HETATM   16  N2  UNL     1       3.610   1.321   0.265  1.00  0.00    -0.300 N 
HETATM   17  C25 UNL     1       2.756   1.157   1.101  1.00  0.00     0.061 A 
ATOM     18  H2  UNL     1       4.321   1.953   0.632  1.00  0.00     0.187 HD
BRANCH  15  19
HETATM   19  C19 UNL     1       5.051   1.273  -1.757  1.00  0.00     0.107 C 
HETATM   20  C20 UNL     1       6.030   0.142  -1.604  1.00  0.00     0.030 C 
HETATM   21  C21 UNL     1       7.462   0.579  -1.772  1.00  0.00     0.034 C 
HETATM   22  C22 UNL     1       7.829   1.443  -0.591  1.00  0.00     0.118 C 
HETATM   23  C23 UNL     1       6.686   2.360  -0.207  1.00  0.00     0.034 C 
HETATM   24  C24 UNL     1       5.729   2.552  -1.366  1.00  0.00     0.030 C 
BRANCH  22  25
HETATM   25  O3  UNL     1       8.973   2.168  -0.913  1.00  0.00    -0.396 OA
ATOM     26  H3  UNL     1       9.204   2.712  -0.169  1.00  0.00     0.210 HD
ENDBRANCH  22  25
ENDBRANCH  15  19
BRANCH  17  27
HETATM   27  C26 UNL     1       1.737   0.963   2.097  1.00  0.00     0.223 C 
BRANCH  27  28
HETATM   28  O4  UNL     1       2.244   1.366   3.315  1.00  0.00    -0.395 OA
ATOM     29  H4  UNL     1       1.571   1.238   3.973  1.00  0.00     0.209 HD
ENDBRANCH  27  28
ENDBRANCH  17  27
ENDBRANCH  12  13
ENDBRANCH  10  11
ENDBRANCH   9  10
BRANCH   1  30
HETATM   30  C4  UNL     1      -3.323   0.947  -0.682  1.00  0.00    -0.003 C 
HETATM   31  C3  UNL     1      -3.934   1.739   0.436  1.00  0.00     0.041 C 
HETATM   32  C2  UNL     1      -3.347   3.081   0.238  1.00  0.00    -0.060 C 
HETATM   33  C1  UNL     1      -3.192   4.066   1.079  1.00  0.00     0.017 C 
HETATM   34  C28 UNL     1      -2.885   3.137  -1.221  1.00  0.00     0.146 C 
HETATM   35  C27 UNL     1      -2.204   1.728  -1.273  1.00  0.00     0.041 C 
BRANCH  34  36
HETATM   36  O5  UNL     1      -2.008   4.141  -1.474  1.00  0.00    -0.391 OA
ATOM     37  H5  UNL     1      -1.721   4.176  -2.379  1.00  0.00     0.210 HD
ENDBRANCH  34  36
ENDBRANCH   1  30
BRANCH   3  38
HETATM   38  O1  UNL     1      -4.279  -3.150  -1.460  1.00  0.00    -0.395 OA
ATOM     39  H1  UNL     1      -4.342  -4.095  -1.387  1.00  0.00     0.210 HD
ENDBRANCH   3  38
BRANCH   5  40
HETATM   40  O2  UNL     1      -5.173  -5.006   1.496  1.00  0.00    -0.395 OA
ATOM     41  H2  UNL     1      -5.069  -5.944   1.603  1.00  0.00     0.210 HD
ENDBRANCH   5  40
TORSDOF 11
