REMARK  10 active torsions:
REMARK  status: ('A' for Active; 'I' for Inactive)
REMARK    1  A    between atoms: C2_2  and  C3_3 
REMARK    2  A    between atoms: C2_2  and  C17_27 
REMARK    3  A    between atoms: C4_4  and  C5_5 
REMARK    4  A    between atoms: C10_11  and  O2_12 
REMARK    5  A    between atoms: C12_18  and  C13_19 
REMARK    6  A    between atoms: C13_19  and  O5_20 
REMARK    7  A    between atoms: C13_19  and  C14_22 
REMARK    8  A    between atoms: C14_22  and  O6_25 
REMARK    9  A    between atoms: C21_31  and  O7_32 
REMARK   10  A    between atoms: C21_31  and  C22_34 
ROOT
HETATM    1  C5  UNL     1      -1.756  -0.204  -0.955  1.00  0.00     0.189 C 
HETATM    2  O1  UNL     1      -2.379  -1.382  -1.216  1.00  0.00    -0.371 OA
HETATM    3  C6  UNL     1      -2.464  -2.314  -0.235  1.00  0.00     0.126 C 
HETATM    4  C7  UNL     1      -2.065  -3.657  -0.879  1.00  0.00     0.040 C 
HETATM    5  C8  UNL     1      -3.907  -2.468   0.187  1.00  0.00     0.054 C 
HETATM    6  C9  UNL     1      -3.968  -3.272   1.500  1.00  0.00     0.016 C 
HETATM    7  C10 UNL     1      -4.698  -1.233   0.269  1.00  0.00     0.250 C 
HETATM    8  S1  UNL     1      -3.894   0.188   0.958  1.00  0.00     0.201 S 
HETATM    9  O3  UNL     1      -3.708  -0.063   2.415  1.00  0.00    -0.220 OA
HETATM   10  O4  UNL     1      -4.922   1.304   0.818  1.00  0.00    -0.220 OA
HETATM   11  C11 UNL     1      -2.414   0.574   0.148  1.00  0.00     0.071 C 
HETATM   12  C12 UNL     1      -1.784   1.653   0.487  1.00  0.00     0.029 C 
ENDROOT
BRANCH   1  13
HETATM   13  C4  UNL     1      -0.317  -0.407  -0.802  1.00  0.00     0.011 C 
HETATM   14  C3  UNL     1       0.238  -0.507   0.368  1.00  0.00     0.006 C 
BRANCH  14  15
HETATM   15  C2  UNL     1       1.670  -0.718   0.671  1.00  0.00    -0.059 C 
HETATM   16  C1  UNL     1       1.986  -0.735   1.932  1.00  0.00     0.019 C 
BRANCH  15  17
HETATM   17  C17 UNL     1       2.565  -0.869  -0.427  1.00  0.00     0.049 C 
HETATM   18  C18 UNL     1       2.317  -2.160  -1.287  1.00  0.00     0.014 C 
HETATM   19  C19 UNL     1       2.967  -1.901  -2.587  1.00  0.00     0.004 C 
HETATM   20  C20 UNL     1       3.981  -0.839  -2.729  1.00  0.00     0.042 C 
HETATM   21  C21 UNL     1       4.742  -0.422  -1.495  1.00  0.00     0.081 C 
HETATM   22  C24 UNL     1       4.011  -0.994  -0.282  1.00  0.00    -0.047 C 
HETATM   23  C25 UNL     1       4.694  -1.585   0.611  1.00  0.00     0.018 C 
BRANCH  21  24
HETATM   24  O7  UNL     1       6.040  -0.883  -1.495  1.00  0.00    -0.385 OA
ATOM     25  H7  UNL     1       6.519  -0.620  -0.718  1.00  0.00     0.211 HD
ENDBRANCH  21  24
BRANCH  21  26
HETATM   26  C22 UNL     1       4.757   1.063  -1.301  1.00  0.00     0.038 C 
HETATM   27  C23 UNL     1       5.550   1.342  -0.033  1.00  0.00     0.008 C 
ENDBRANCH  21  26
ENDBRANCH  15  17
ENDBRANCH  14  15
ENDBRANCH   1  13
BRANCH  12  28
HETATM   28  C13 UNL     1      -2.001   2.705   1.463  1.00  0.00     0.175 C 
BRANCH  28  29
HETATM   29  O5  UNL     1      -3.073   2.685   2.276  1.00  0.00    -0.389 OA
ATOM     30  H5  UNL     1      -3.215   3.374   2.915  1.00  0.00     0.210 HD
ENDBRANCH  28  29
BRANCH  28  31
HETATM   31  C14 UNL     1      -1.952   4.106   0.823  1.00  0.00     0.080 C 
HETATM   32  C15 UNL     1      -3.216   4.419   0.096  1.00  0.00     0.048 C 
HETATM   33  C16 UNL     1      -0.747   4.249  -0.056  1.00  0.00     0.048 C 
BRANCH  31  34
HETATM   34  O6  UNL     1      -1.831   5.035   1.871  1.00  0.00    -0.388 OA
ATOM     35  H6  UNL     1      -1.801   5.899   1.476  1.00  0.00     0.210 HD
ENDBRANCH  31  34
ENDBRANCH  28  31
ENDBRANCH  12  28
BRANCH   7  36
HETATM   36  O2  UNL     1      -5.824  -1.482   1.078  1.00  0.00    -0.380 OA
ATOM     37  H2  UNL     1      -6.336  -0.683   1.131  1.00  0.00     0.211 HD
ENDBRANCH   7  36
TORSDOF 10
