REMARK  6 active torsions:
REMARK  status: ('A' for Active; 'I' for Inactive)
REMARK    1  A    between atoms: C5_5  and  O1_6 
REMARK    2  A    between atoms: O1_6  and  C6_7 
REMARK    3  A    between atoms: C11_12  and  C12_13 
REMARK       I    between atoms: C12_13  and  N1_15 
REMARK    4  A    between atoms: N1_15  and  C13_17 
REMARK    5  A    between atoms: C16_20  and  N2_21 
REMARK       I    between atoms: N2_21  and  C17_23 
REMARK    6  A    between atoms: C17_23  and  C18_25 
ROOT
HETATM    1  C12 UNL     1       0.863  -2.132  -0.650  1.00  0.00     0.259 C 
HETATM    2  O2  UNL     1       0.028  -3.110  -0.795  1.00  0.00    -0.267 OA
HETATM    3  N1  UNL     1       0.298  -0.881  -0.478  1.00  0.00    -0.323 N 
ATOM      4  H1  UNL     1       0.923  -0.085  -0.350  1.00  0.00     0.169 HD
ENDROOT
BRANCH   3   5
HETATM    5  C13 UNL     1      -1.090  -0.643  -0.470  1.00  0.00     0.035 A 
HETATM    6  C14 UNL     1      -2.030  -1.365  -1.144  1.00  0.00     0.032 A 
HETATM    7  C15 UNL     1      -3.380  -1.094  -1.061  1.00  0.00     0.032 A 
HETATM    8  C16 UNL     1      -3.845  -0.038  -0.262  1.00  0.00     0.035 A 
HETATM    9  C22 UNL     1      -2.923   0.700   0.422  1.00  0.00     0.032 A 
HETATM   10  C23 UNL     1      -1.564   0.394   0.312  1.00  0.00     0.032 A 
BRANCH   8  11
HETATM   11  N2  UNL     1      -5.224   0.205  -0.214  1.00  0.00    -0.323 N 
HETATM   12  C17 UNL     1      -5.958   1.076   0.597  1.00  0.00     0.257 C 
HETATM   13  O3  UNL     1      -5.402   1.799   1.452  1.00  0.00    -0.267 OA
ATOM     14  H2  UNL     1      -5.780  -0.339  -0.874  1.00  0.00     0.169 HD
BRANCH  12  15
HETATM   15  C18 UNL     1      -7.419   1.191   0.490  1.00  0.00     0.049 A 
HETATM   16  C19 UNL     1      -8.277   0.509  -0.368  1.00  0.00     0.035 A 
HETATM   17  C20 UNL     1      -9.566   0.919  -0.135  1.00  0.00     0.088 A 
HETATM   18  N3  UNL     1      -9.501   1.828   0.841  1.00  0.00    -0.374 N 
HETATM   19  C21 UNL     1      -8.219   2.015   1.240  1.00  0.00     0.104 A 
ATOM     20  H3  UNL     1     -10.307   2.315   1.233  1.00  0.00     0.164 HD
ENDBRANCH  12  15
ENDBRANCH   8  11
ENDBRANCH   3   5
BRANCH   1  21
HETATM   21  C11 UNL     1       2.249  -2.531  -0.694  1.00  0.00     0.066 A 
HETATM   22  C6  UNL     1       3.277  -1.645  -0.560  1.00  0.00     0.091 A 
HETATM   23  C7  UNL     1       4.588  -2.141  -0.618  1.00  0.00     0.038 A 
HETATM   24  C8  UNL     1       4.884  -3.466  -0.802  1.00  0.00     0.003 A 
HETATM   25  C9  UNL     1       3.842  -4.354  -0.936  1.00  0.00     0.001 A 
HETATM   26  C10 UNL     1       2.545  -3.902  -0.884  1.00  0.00     0.020 A 
BRANCH  22  27
HETATM   27  O1  UNL     1       3.067  -0.306  -0.373  1.00  0.00    -0.310 OA
BRANCH  27  28
HETATM   28  C5  UNL     1       4.136   0.566  -0.241  1.00  0.00     0.076 A 
HETATM   29  C4  UNL     1       4.678   1.166  -1.368  1.00  0.00     0.038 A 
HETATM   30  C3  UNL     1       5.742   2.039  -1.277  1.00  0.00     0.009 A 
HETATM   31  C2  UNL     1       6.314   2.352  -0.063  1.00  0.00    -0.062 A 
HETATM   32  C1  UNL     1       7.459   3.297  -0.013  1.00  0.00     0.048 C 
HETATM   33  C25 UNL     1       5.784   1.762   1.063  1.00  0.00     0.009 A 
HETATM   34  C24 UNL     1       4.715   0.885   0.970  1.00  0.00     0.038 A 
ENDBRANCH  27  28
ENDBRANCH  22  27
ENDBRANCH   1  21
TORSDOF 6
