REMARK  7 active torsions:
REMARK  status: ('A' for Active; 'I' for Inactive)
REMARK    1  A    between atoms: S1_2  and  C2_5 
REMARK    2  A    between atoms: C2_5  and  C3_6 
REMARK    3  A    between atoms: C3_6  and  N1_7 
REMARK    4  A    between atoms: N1_7  and  C4_8 
REMARK    5  A    between atoms: C7_21  and  N6_22 
REMARK    6  A    between atoms: N6_22  and  N7_23 
REMARK    7  A    between atoms: N8_27  and  O3_29 
ROOT
HETATM    1  C4  UNL     1      -0.294   0.166   0.494  1.00  0.00     0.220 C 
HETATM    2  N2  UNL     1      -0.235   0.106   1.949  1.00  0.00    -0.162 N 
ATOM      3  H2  UNL     1       0.670   0.331   2.361  1.00  0.00     0.187 HD
HETATM    4  C5  UNL     1      -1.251  -0.219   2.862  1.00  0.00     0.679 C 
HETATM    5  N3  UNL     1      -0.973  -0.002   4.098  1.00  0.00    -0.234 N 
ATOM      6  H31 UNL     1      -1.711  -0.238   4.761  1.00  0.00     0.174 HD
ATOM      7  H32 UNL     1      -0.056   0.383   4.326  1.00  0.00     0.174 HD
HETATM    8  N4  UNL     1      -2.551  -0.765   2.538  1.00  0.00    -0.177 N 
ATOM      9  H4  UNL     1      -3.019  -1.310   3.262  1.00  0.00     0.185 HD
HETATM   10  C6  UNL     1      -3.170  -0.626   1.421  1.00  0.00     0.148 C 
HETATM   11  N5  UNL     1      -4.435  -1.068   0.889  1.00  0.00    -0.314 N 
ATOM     12  H5  UNL     1      -5.403  -1.107   1.207  1.00  0.00     0.175 HD
HETATM   13  S2  UNL     1      -3.533  -1.513  -0.573  1.00  0.00    -0.009 SA
HETATM   14  C7  UNL     1      -2.940   0.038   0.146  1.00  0.00     0.224 C 
HETATM   15  C8  UNL     1      -1.584   0.446  -0.195  1.00  0.00     0.136 C 
HETATM   16  N8  UNL     1      -1.453   1.156  -1.242  1.00  0.00    -0.265 N 
ATOM     17  H8  UNL     1      -2.290   1.393  -1.775  1.00  0.00     0.194 HD
ENDROOT
BRANCH   1  18
HETATM   18  N1  UNL     1       0.721  -0.035  -0.102  1.00  0.00    -0.400 NA
BRANCH  18  19
HETATM   19  C3  UNL     1       1.856  -0.260  -0.769  1.00  0.00     0.172 C 
BRANCH  19  20
HETATM   20  C2  UNL     1       2.788  -1.334  -0.212  1.00  0.00     0.199 C 
BRANCH  20  21
HETATM   21  S1  UNL     1       4.239  -1.494  -1.220  1.00  0.00     0.146 S 
HETATM   22  C1  UNL     1       5.143   0.047  -1.282  1.00  0.00     0.161 C 
HETATM   23  O1  UNL     1       5.111  -2.545  -0.593  1.00  0.00    -0.228 OA
HETATM   24  O2  UNL     1       3.910  -1.866  -2.637  1.00  0.00    -0.228 OA
ENDBRANCH  20  21
ENDBRANCH  19  20
ENDBRANCH  18  19
ENDBRANCH   1  18
BRANCH  14  25
HETATM   25  N6  UNL     1      -3.915   1.086  -0.058  1.00  0.00    -0.110 NA
BRANCH  25  26
HETATM   26  N7  UNL     1      -3.845   1.683  -1.303  1.00  0.00    -0.346 N 
ATOM     27  H72 UNL     1      -3.161   1.398  -2.004  1.00  0.00     0.172 HD
ATOM     28  H71 UNL     1      -4.533   2.422  -1.447  1.00  0.00     0.172 HD
ENDBRANCH  25  26
ENDBRANCH  14  25
BRANCH  16  29
HETATM   29  O3  UNL     1      -0.267   1.609  -1.680  1.00  0.00    -0.289 OA
ATOM     30  H3  UNL     1      -0.169   2.139  -2.462  1.00  0.00     0.244 HD
ENDBRANCH  16  29
TORSDOF 7
