REMARK  5 active torsions:
REMARK  status: ('A' for Active; 'I' for Inactive)
REMARK       I    between atoms: C2_2  and  N1_4 
REMARK    1  A    between atoms: N1_4  and  C3_6 
REMARK    2  A    between atoms: C4_9  and  C5_10 
REMARK    3  A    between atoms: C8_13  and  C9_14 
REMARK    4  A    between atoms: C9_14  and  N3_15 
REMARK    5  A    between atoms: N3_15  and  C11_17 
ROOT
HETATM    1  C3  UNL     1       2.924   0.305  -0.357  1.00  0.00     0.152 A 
HETATM    2  N2  UNL     1       2.591  -1.030  -0.284  1.00  0.00    -0.335 N 
ATOM      3  H2  UNL     1       3.304  -1.759  -0.283  1.00  0.00     0.168 HD
HETATM    4  C4  UNL     1       1.311  -1.319  -0.216  1.00  0.00     0.050 A 
HETATM    5  C8  UNL     1       0.421  -0.274  -0.212  1.00  0.00     0.041 A 
HETATM    6  S1  UNL     1       1.432   1.081  -0.317  1.00  0.00    -0.054 SA
ENDROOT
BRANCH   5   7
HETATM    7  C9  UNL     1      -1.060  -0.325   0.010  1.00  0.00     0.321 C 
BRANCH   7   8
HETATM    8  N3  UNL     1      -1.700   0.922  -0.215  1.00  0.00     0.092 N 
HETATM    9  C10 UNL     1      -1.231   2.031   0.554  1.00  0.00     0.310 C 
BRANCH   8  10
HETATM   10  C11 UNL     1      -3.131   0.700   0.060  1.00  0.00     0.215 C 
HETATM   11  C12 UNL     1      -3.473   0.515   1.485  1.00  0.00     0.042 C 
HETATM   12  C13 UNL     1      -4.010   1.630  -0.705  1.00  0.00     0.042 C 
ENDBRANCH   8  10
ENDBRANCH   7   8
ENDBRANCH   5   7
BRANCH   4  13
HETATM   13  C5  UNL     1       0.818  -2.757  -0.430  1.00  0.00    -0.060 C 
HETATM   14  C6  UNL     1       0.189  -3.377   0.725  1.00  0.00     0.045 C 
HETATM   15  C7  UNL     1       0.304  -2.989  -1.807  1.00  0.00     0.045 C 
ENDBRANCH   4  13
BRANCH   1  16
HETATM   16  N1  UNL     1       4.179   0.713  -0.448  1.00  0.00    -0.307 N 
HETATM   17  C2  UNL     1       4.506   2.047  -0.527  1.00  0.00     0.219 C 
HETATM   18  C1  UNL     1       4.629   2.950   0.635  1.00  0.00     0.117 C 
HETATM   19  O1  UNL     1       4.717   2.535  -1.704  1.00  0.00    -0.274 OA
ATOM     20  H1  UNL     1       4.926   0.018  -0.460  1.00  0.00     0.171 HD
ENDBRANCH   1  16
TORSDOF 5
