REMARK  6 active torsions:
REMARK  status: ('A' for Active; 'I' for Inactive)
REMARK    1  A    between atoms: N1_2  and  C3_4 
REMARK    2  A    between atoms: C3_4  and  N2_5 
REMARK    3  A    between atoms: C3_4  and  C10_15 
REMARK    4  A    between atoms: N2_5  and  C4_7 
REMARK    5  A    between atoms: C4_7  and  C5_9 
REMARK    6  A    between atoms: C5_9  and  C6_10 
ROOT
HETATM    1  C3  UNL     1      -1.511  -0.364   0.834  1.00  0.00     0.094 C 
ENDROOT
BRANCH   1   2
HETATM    2  N1  UNL     1      -2.102  -1.583   0.365  1.00  0.00    -0.277 NA
HETATM    3  C1  UNL     1      -1.301  -2.499  -0.347  1.00  0.00     0.118 C 
HETATM    4  C2  UNL     1      -2.779  -2.327   1.432  1.00  0.00     0.118 C 
ENDBRANCH   1   2
BRANCH   1   5
HETATM    5  N2  UNL     1      -0.258  -0.492   1.494  1.00  0.00    -0.340 N 
ATOM      6  H2  UNL     1      -0.326  -0.773   2.472  1.00  0.00     0.167 HD
BRANCH   5   7
HETATM    7  C4  UNL     1       1.046  -0.302   1.041  1.00  0.00     0.084 C 
HETATM    8  S1  UNL     1       2.298  -0.569   2.087  1.00  0.00    -0.065 SA
BRANCH   7   9
HETATM    9  C5  UNL     1       1.412   0.123  -0.309  1.00  0.00     0.134 C 
BRANCH   9  10
HETATM   10  C6  UNL     1       2.893   0.139  -0.516  1.00  0.00     0.059 A 
HETATM   11  C7  UNL     1       3.795   1.151  -0.335  1.00  0.00     0.035 A 
HETATM   12  C8  UNL     1       5.055   0.653  -0.667  1.00  0.00     0.027 A 
HETATM   13  C9  UNL     1       4.828  -0.654  -1.035  1.00  0.00     0.142 A 
HETATM   14  O1  UNL     1       3.566  -0.905  -0.932  1.00  0.00    -0.327 OA
ENDBRANCH   9  10
ENDBRANCH   7   9
ENDBRANCH   5   7
ENDBRANCH   1   5
BRANCH   1  15
HETATM   15  C10 UNL     1      -1.701   0.815  -0.022  1.00  0.00     0.018 A 
HETATM   16  C11 UNL     1      -1.794   2.102   0.534  1.00  0.00     0.017 A 
HETATM   17  C12 UNL     1      -2.006   3.208  -0.258  1.00  0.00     0.018 A 
HETATM   18  C13 UNL     1      -2.135   3.087  -1.623  1.00  0.00     0.087 A 
HETATM   19  N3  UNL     1      -2.045   1.857  -2.147  1.00  0.00    -0.374 N 
HETATM   20  C14 UNL     1      -1.835   0.741  -1.380  1.00  0.00     0.102 A 
ATOM     21  H3  UNL     1      -2.136   1.747  -3.157  1.00  0.00     0.164 HD
ENDBRANCH   1  15
TORSDOF 6
