REMARK  6 active torsions:
REMARK  status: ('A' for Active; 'I' for Inactive)
REMARK    1  A    between atoms: C2_2  and  C4_4 
REMARK       I    between atoms: C4_4  and  N1_6 
REMARK    2  A    between atoms: N1_6  and  N2_8 
REMARK       I    between atoms: N2_8  and  C5_10 
REMARK    3  A    between atoms: C5_10  and  C6_12 
REMARK       I    between atoms: C6_12  and  N3_14 
REMARK    4  A    between atoms: N3_14  and  N4_16 
REMARK       I    between atoms: N4_16  and  C7_18 
REMARK    5  A    between atoms: C7_18  and  C8_20 
REMARK    6  A    between atoms: C10_22  and  N5_23 
ROOT
HETATM    1  C6  UNL     1       0.770  -0.462   0.082  1.00  0.00     0.329 C 
HETATM    2  O3  UNL     1       0.983  -0.235  -1.156  1.00  0.00    -0.261 OA
HETATM    3  N3  UNL     1       1.869  -0.588   0.958  1.00  0.00    -0.259 N 
ATOM      4  H3  UNL     1       1.684  -0.772   1.944  1.00  0.00     0.190 HD
ENDROOT
BRANCH   1   5
HETATM    5  C5  UNL     1      -0.574  -0.590   0.589  1.00  0.00     0.329 C 
HETATM    6  N2  UNL     1      -1.688  -0.460  -0.279  1.00  0.00    -0.259 N 
ATOM      7  H2  UNL     1      -1.514  -0.271  -1.266  1.00  0.00     0.190 HD
HETATM    8  O2  UNL     1      -0.771  -0.816   1.800  1.00  0.00    -0.261 OA
BRANCH   6   9
HETATM    9  N1  UNL     1      -3.001  -0.577   0.149  1.00  0.00    -0.267 N 
HETATM   10  C4  UNL     1      -3.925   0.488   0.037  1.00  0.00     0.239 C 
HETATM   11  O1  UNL     1      -3.582   1.579  -0.455  1.00  0.00    -0.271 OA
ATOM     12  H1  UNL     1      -3.311  -1.459   0.558  1.00  0.00     0.190 HD
BRANCH  10  13
HETATM   13  C2  UNL     1      -5.339   0.356   0.499  1.00  0.00     0.071 C 
HETATM   14  C1  UNL     1      -6.136   1.608   0.292  1.00  0.00     0.019 C 
HETATM   15  C3  UNL     1      -5.955  -0.823  -0.263  1.00  0.00     0.019 C 
ENDBRANCH  10  13
ENDBRANCH   6   9
ENDBRANCH   1   5
BRANCH   3  16
HETATM   16  N4  UNL     1       3.194  -0.474   0.543  1.00  0.00    -0.267 N 
HETATM   17  C7  UNL     1       3.658   0.742  -0.007  1.00  0.00     0.242 C 
HETATM   18  O4  UNL     1       2.812   1.700  -0.095  1.00  0.00    -0.271 OA
ATOM     19  H4  UNL     1       3.828  -1.267   0.636  1.00  0.00     0.190 HD
BRANCH  17  20
HETATM   20  C8  UNL     1       5.017   0.981  -0.476  1.00  0.00     0.112 A 
HETATM   21  C9  UNL     1       6.083   0.566   0.540  1.00  0.00     0.050 A 
HETATM   22  C10 UNL     1       5.999  -0.018  -0.871  1.00  0.00     0.197 A 
BRANCH  22  23
HETATM   23  N5  UNL     1       5.812  -1.428  -0.923  1.00  0.00    -0.074 N 
ATOM     24  H53 UNL     1       5.485  -1.704   0.003  1.00  0.00     0.274 HD
ATOM     25  H52 UNL     1       4.997  -1.583  -1.516  1.00  0.00     0.274 HD
ATOM     26  H51 UNL     1       6.500  -2.128  -1.200  1.00  0.00     0.274 HD
ENDBRANCH  22  23
ENDBRANCH  17  20
ENDBRANCH   3  16
TORSDOF 6
