REMARK  2 active torsions:
REMARK  status: ('A' for Active; 'I' for Inactive)
REMARK    1  A    between atoms: C2_2  and  O1_3 
REMARK    2  A    between atoms: C8_11  and  O3_12 
ROOT
HETATM    1  C1  UNL     1      -1.842   0.346   1.404  1.00  0.00     0.049 C 
HETATM    2  C2  UNL     1      -1.153  -0.201   0.148  1.00  0.00     0.082 C 
HETATM    3  C3  UNL     1      -0.342  -1.399   0.467  1.00  0.00     0.072 C 
HETATM    4  C4  UNL     1       1.134  -1.192   0.476  1.00  0.00     0.130 C 
HETATM    5  O2  UNL     1       1.655  -0.316   1.391  1.00  0.00    -0.385 OA
HETATM    6  C5  UNL     1       2.424   0.302   0.391  1.00  0.00     0.175 C 
HETATM    7  C6  UNL     1       1.677  -0.431  -0.674  1.00  0.00     0.041 C 
HETATM    8  C7  UNL     1       0.630   0.332  -1.418  1.00  0.00     0.044 C 
HETATM    9  C8  UNL     1      -0.414   0.918  -0.504  1.00  0.00     0.152 C 
ENDROOT
BRANCH   2  10
HETATM   10  O1  UNL     1      -2.215  -0.616  -0.691  1.00  0.00    -0.388 OA
ATOM     11  H1  UNL     1      -1.788  -0.955  -1.469  1.00  0.00     0.210 HD
ENDBRANCH   2  10
BRANCH   9  12
HETATM   12  O3  UNL     1      -1.276   1.685  -1.287  1.00  0.00    -0.393 OA
ATOM     13  H3  UNL     1      -0.805   2.398  -1.702  1.00  0.00     0.210 HD
ENDBRANCH   9  12
TORSDOF 2
