REMARK  15 active torsions:
REMARK  status: ('A' for Active; 'I' for Inactive)
REMARK    1  A    between atoms: C2_2  and  C26_31 
REMARK    2  A    between atoms: C3_3  and  C4_4 
REMARK    3  A    between atoms: C4_4  and  C5_5 
REMARK    4  A    between atoms: C5_5  and  C6_6 
REMARK    5  A    between atoms: C7_7  and  C8_8 
REMARK    6  A    between atoms: C8_8  and  O1_9 
REMARK    7  A    between atoms: C8_8  and  C9_11 
REMARK    8  A    between atoms: C19_22  and  C21_24 
REMARK    9  A    between atoms: C21_24  and  O2_25 
REMARK   10  A    between atoms: C26_31  and  C27_32 
REMARK   11  A    between atoms: C27_32  and  O3_33 
REMARK   12  A    between atoms: C27_32  and  C28_35 
REMARK   13  A    between atoms: C29_36  and  C30_37 
REMARK   14  A    between atoms: C30_37  and  C31_38 
REMARK   15  A    between atoms: C31_38  and  C32_39 
ROOT
HETATM    1  C6  UNL     1      -0.780  -1.610  -0.407  1.00  0.00     0.005 C 
HETATM    2  C7  UNL     1      -1.430  -0.439   0.258  1.00  0.00     0.042 C 
HETATM    3  C16 UNL     1      -2.325  -1.009   1.295  1.00  0.00    -0.023 C 
HETATM    4  C17 UNL     1      -2.999  -2.115   1.120  1.00  0.00    -0.024 C 
HETATM    5  C18 UNL     1      -2.939  -2.892  -0.104  1.00  0.00     0.026 C 
HETATM    6  C19 UNL     1      -3.140  -4.368   0.101  1.00  0.00    -0.015 C 
HETATM    7  C20 UNL     1      -4.488  -4.820  -0.420  1.00  0.00     0.018 C 
HETATM    8  C22 UNL     1      -2.064  -5.045  -0.672  1.00  0.00     0.012 C 
HETATM    9  C23 UNL     1      -0.966  -4.018  -0.698  1.00  0.00     0.011 C 
HETATM   10  C24 UNL     1      -1.700  -2.671  -0.883  1.00  0.00    -0.032 C 
HETATM   11  C25 UNL     1      -2.069  -2.605  -2.338  1.00  0.00     0.016 C 
ENDROOT
BRANCH   1  12
HETATM   12  C5  UNL     1       0.318  -1.293  -1.350  1.00  0.00     0.010 C 
BRANCH  12  13
HETATM   13  C4  UNL     1       1.485  -0.560  -0.723  1.00  0.00     0.028 C 
BRANCH  13  14
HETATM   14  C3  UNL     1       2.149  -1.279   0.361  1.00  0.00    -0.024 C 
HETATM   15  C2  UNL     1       3.382  -1.697   0.459  1.00  0.00    -0.085 C 
HETATM   16  C1  UNL     1       3.805  -2.414   1.691  1.00  0.00     0.043 C 
BRANCH  15  17
HETATM   17  C26 UNL     1       4.373  -1.491  -0.605  1.00  0.00     0.069 C 
BRANCH  17  18
HETATM   18  C27 UNL     1       5.568  -0.681  -0.142  1.00  0.00     0.144 C 
BRANCH  18  19
HETATM   19  O3  UNL     1       6.453  -0.530  -1.194  1.00  0.00    -0.391 OA
ATOM     20  H3  UNL     1       7.202  -0.022  -0.904  1.00  0.00     0.210 HD
ENDBRANCH  18  19
BRANCH  18  21
HETATM   21  C28 UNL     1       5.166   0.653   0.352  1.00  0.00     0.001 C 
HETATM   22  C29 UNL     1       5.657   1.740  -0.211  1.00  0.00    -0.028 C 
BRANCH  22  23
HETATM   23  C30 UNL     1       5.294   3.111   0.239  1.00  0.00     0.037 C 
BRANCH  23  24
HETATM   24  C31 UNL     1       6.567   3.796   0.678  1.00  0.00     0.117 C 
BRANCH  24  25
HETATM   25  C32 UNL     1       6.269   5.173   1.140  1.00  0.00     0.172 C 
HETATM   26  O4  UNL     1       5.108   5.661   1.148  1.00  0.00    -0.648 OA
HETATM   27  O5  UNL     1       7.325   5.964   1.587  1.00  0.00    -0.648 OA
ENDBRANCH  24  25
ENDBRANCH  23  24
ENDBRANCH  22  23
ENDBRANCH  18  21
ENDBRANCH  17  18
ENDBRANCH  15  17
ENDBRANCH  13  14
ENDBRANCH  12  13
ENDBRANCH   1  12
BRANCH   2  28
HETATM   28  C8  UNL     1      -2.019   0.602  -0.586  1.00  0.00     0.130 C 
BRANCH  28  29
HETATM   29  O1  UNL     1      -3.031   0.188  -1.442  1.00  0.00    -0.395 OA
ATOM     30  H1  UNL     1      -3.413   0.864  -1.990  1.00  0.00     0.210 HD
ENDBRANCH  28  29
BRANCH  28  31
HETATM   31  C9  UNL     1      -2.654   1.754   0.201  1.00  0.00     0.017 C 
HETATM   32  C10 UNL     1      -1.683   2.478   1.079  1.00  0.00     0.009 C 
HETATM   33  C11 UNL     1      -2.487   3.130   2.205  1.00  0.00     0.020 C 
HETATM   34  C12 UNL     1      -3.621   3.981   1.621  1.00  0.00     0.116 C 
HETATM   35  N1  UNL     1      -3.044   4.763   0.578  1.00  0.00    -0.417 N 
HETATM   36  C13 UNL     1      -3.451   6.121   0.527  1.00  0.00     0.143 C 
HETATM   37  C14 UNL     1      -2.915   4.115  -0.683  1.00  0.00     0.117 C 
HETATM   38  C15 UNL     1      -3.375   2.700  -0.704  1.00  0.00     0.026 C 
ENDBRANCH  28  31
ENDBRANCH   2  28
BRANCH   6  39
HETATM   39  C21 UNL     1      -3.078  -4.785   1.550  1.00  0.00     0.173 C 
BRANCH  39  40
HETATM   40  O2  UNL     1      -1.887  -4.501   2.165  1.00  0.00    -0.400 OA
ATOM     41  H2  UNL     1      -1.848  -4.764   3.077  1.00  0.00     0.209 HD
ENDBRANCH  39  40
ENDBRANCH   6  39
TORSDOF 15
