REMARK  14 active torsions:
REMARK  status: ('A' for Active; 'I' for Inactive)
REMARK    1  A    between atoms: C3_3  and  C4_4 
REMARK    2  A    between atoms: C4_4  and  N1_5 
REMARK    3  A    between atoms: N1_5  and  C7_8 
REMARK    4  A    between atoms: C7_8  and  N2_9 
REMARK       I    between atoms: N2_9  and  C8_11 
REMARK    5  A    between atoms: C8_11  and  C9_13 
REMARK    6  A    between atoms: C11_18  and  C12_19 
REMARK    7  A    between atoms: C12_19  and  C13_20 
REMARK    8  A    between atoms: C13_20  and  C14_21 
REMARK    9  A    between atoms: C17_27  and  C18_28 
REMARK   10  A    between atoms: C22_34  and  C23_35 
REMARK   11  A    between atoms: C23_35  and  C24_36 
REMARK   12  A    between atoms: C27_41  and  O5_42 
REMARK   13  A    between atoms: C28_44  and  C29_45 
REMARK   14  A    between atoms: C31_49  and  O6_50 
ROOT
HETATM    1  C1  UNL     1       9.695  -0.069   2.202  1.00  0.00     0.112 C 
HETATM    2  C2  UNL     1       8.798  -0.966   1.473  1.00  0.00    -0.109 C 
HETATM    3  C3  UNL     1       8.057  -1.699   0.874  1.00  0.00    -0.079 C 
ENDROOT
BRANCH   3   4
HETATM    4  C4  UNL     1       7.141  -2.582   0.117  1.00  0.00     0.331 C 
BRANCH   4   5
HETATM    5  N1  UNL     1       6.067  -1.812  -0.452  1.00  0.00    -0.049 N 
HETATM    6  C5  UNL     1       5.524  -2.485  -1.595  1.00  0.00     0.275 C 
HETATM    7  C6  UNL     1       6.671  -0.557  -0.931  1.00  0.00     0.275 C 
BRANCH   5   8
HETATM    8  C7  UNL     1       5.019  -1.536   0.509  1.00  0.00     0.362 C 
BRANCH   8   9
HETATM    9  N2  UNL     1       3.905  -0.886  -0.138  1.00  0.00    -0.335 N 
HETATM   10  C8  UNL     1       2.732  -0.494   0.556  1.00  0.00     0.249 C 
HETATM   11  O1  UNL     1       2.630  -0.708   1.773  1.00  0.00    -0.271 OA
ATOM     12  H2  UNL     1       3.964  -0.700  -1.139  1.00  0.00     0.164 HD
BRANCH  10  13
HETATM   13  C9  UNL     1       1.590   0.185  -0.158  1.00  0.00     0.251 C 
HETATM   14  N3  UNL     1       0.595   0.444   0.801  1.00  0.00    -0.339 N 
HETATM   15  C10 UNL     1      -0.122   1.632   1.094  1.00  0.00     0.241 C 
ATOM     16  H3  UNL     1       0.348  -0.356   1.383  1.00  0.00     0.163 HD
HETATM   17  O2  UNL     1      -0.339   1.859   2.320  1.00  0.00    -0.271 OA
HETATM   18  C11 UNL     1      -0.619   2.597   0.120  1.00  0.00     0.176 C 
HETATM   19  N4  UNL     1      -2.023   2.704  -0.086  1.00  0.00    -0.346 N 
HETATM   20  C16 UNL     1      -3.133   2.694   0.735  1.00  0.00     0.241 C 
ATOM     21  H4  UNL     1      -2.266   2.814  -1.070  1.00  0.00     0.163 HD
HETATM   22  O3  UNL     1      -3.793   3.808   0.806  1.00  0.00    -0.271 OA
HETATM   23  C17 UNL     1      -3.743   1.639   1.575  1.00  0.00     0.178 C 
HETATM   24  N5  UNL     1      -4.812   0.937   0.854  1.00  0.00    -0.341 N 
HETATM   25  C20 UNL     1      -6.144   1.573   0.943  1.00  0.00     0.153 C 
HETATM   26  C21 UNL     1      -4.753  -0.215   0.107  1.00  0.00     0.243 C 
HETATM   27  O4  UNL     1      -5.452  -0.296  -0.957  1.00  0.00    -0.271 OA
HETATM   28  C22 UNL     1      -3.934  -1.475   0.375  1.00  0.00     0.176 C 
HETATM   29  N6  UNL     1      -2.562  -1.208   0.080  1.00  0.00    -0.359 N 
HETATM   30  C27 UNL     1      -1.677  -1.297  -0.966  1.00  0.00     0.135 C 
ATOM     31  H6  UNL     1      -2.093  -0.834   0.905  1.00  0.00     0.162 HD
HETATM   32  C28 UNL     1      -0.698  -2.316  -1.416  1.00  0.00     0.157 C 
HETATM   33  N7  UNL     1       0.633  -1.758  -1.626  1.00  0.00    -0.360 N 
HETATM   34  C31 UNL     1       1.215  -0.541  -1.392  1.00  0.00     0.144 C 
ATOM     35  H7  UNL     1       1.279  -2.428  -2.043  1.00  0.00     0.162 HD
BRANCH  18  36
HETATM   36  C12 UNL     1       0.055   3.966   0.362  1.00  0.00     0.035 C 
BRANCH  36  37
HETATM   37  C13 UNL     1      -0.479   4.908  -0.674  1.00  0.00     0.002 C 
BRANCH  37  38
HETATM   38  C14 UNL     1       0.125   6.303  -0.532  1.00  0.00    -0.004 C 
HETATM   39  C15 UNL     1      -0.482   7.158  -1.623  1.00  0.00     0.005 C 
ENDBRANCH  37  38
ENDBRANCH  36  37
ENDBRANCH  18  36
BRANCH  23  40
HETATM   40  C18 UNL     1      -4.422   2.372   2.756  1.00  0.00     0.030 C 
HETATM   41  C19 UNL     1      -3.459   3.167   3.568  1.00  0.00     0.007 C 
ENDBRANCH  23  40
BRANCH  28  42
HETATM   42  C23 UNL     1      -4.570  -2.649  -0.277  1.00  0.00     0.038 C 
BRANCH  42  43
HETATM   43  C24 UNL     1      -3.902  -3.973  -0.067  1.00  0.00    -0.020 C 
HETATM   44  C25 UNL     1      -3.866  -4.278   1.441  1.00  0.00     0.009 C 
HETATM   45  C26 UNL     1      -4.901  -5.022  -0.613  1.00  0.00     0.009 C 
ENDBRANCH  42  43
ENDBRANCH  28  42
BRANCH  30  46
HETATM   46  O5  UNL     1      -1.573  -0.317  -1.841  1.00  0.00    -0.348 OA
ATOM     47  H5  UNL     1      -0.961  -0.379  -2.565  1.00  0.00     0.219 HD
ENDBRANCH  30  46
BRANCH  32  48
HETATM   48  C29 UNL     1      -1.271  -2.745  -2.799  1.00  0.00     0.029 C 
HETATM   49  C30 UNL     1      -0.361  -3.786  -3.365  1.00  0.00     0.007 C 
ENDBRANCH  32  48
BRANCH  34  50
HETATM   50  O6  UNL     1       1.508   0.124  -2.477  1.00  0.00    -0.348 OA
ATOM     51  H6  UNL     1       1.267  -0.342  -3.269  1.00  0.00     0.219 HD
ENDBRANCH  34  50
ENDBRANCH  10  13
ENDBRANCH   8   9
ENDBRANCH   5   8
ENDBRANCH   4   5
ENDBRANCH   3   4
TORSDOF 14
