REMARK  10 active torsions:
REMARK  status: ('A' for Active; 'I' for Inactive)
REMARK    1  A    between atoms: C2_2  and  N1_3 
REMARK    2  A    between atoms: N1_3  and  C3_5 
REMARK    3  A    between atoms: C3_5  and  C4_6 
REMARK    4  A    between atoms: C3_5  and  C5_9 
REMARK    5  A    between atoms: C4_6  and  O1_7 
REMARK    6  A    between atoms: C7_13  and  N3_14 
REMARK    7  A    between atoms: N3_14  and  C8_16 
REMARK    8  A    between atoms: C8_16  and  C9_17 
REMARK       I    between atoms: N4_21  and  C13_22 
REMARK       I    between atoms: C13_22  and  N5_24 
REMARK    9  A    between atoms: C18_31  and  N7_32 
REMARK   10  A    between atoms: N7_32  and  C19_34 
ROOT
HETATM    1  C5  UNL     1      -3.618  -0.446  -0.386  1.00  0.00     0.049 A 
HETATM    2  C6  UNL     1      -2.699  -1.374  -0.778  1.00  0.00     0.123 A 
HETATM    3  N2  UNL     1      -1.351  -1.150  -0.626  1.00  0.00    -0.201 N 
ATOM      4  H2  UNL     1      -0.697  -1.870  -0.934  1.00  0.00     0.183 HD
HETATM    5  C7  UNL     1      -0.869  -0.037  -0.096  1.00  0.00     0.683 A 
HETATM    6  N6  UNL     1      -1.790   0.893   0.295  1.00  0.00    -0.176 N 
ATOM      7  H6  UNL     1      -1.446   1.761   0.706  1.00  0.00     0.186 HD
HETATM    8  C18 UNL     1      -3.125   0.740   0.174  1.00  0.00     0.131 A 
ENDROOT
BRANCH   5   9
HETATM    9  N3  UNL     1       0.422   0.175   0.164  1.00  0.00    -0.205 N 
ATOM     10  H3  UNL     1       0.705   1.067   0.569  1.00  0.00     0.183 HD
BRANCH   9  11
HETATM   11  C8  UNL     1       1.392  -0.784  -0.101  1.00  0.00     0.085 C 
BRANCH  11  12
HETATM   12  C9  UNL     1       2.681  -0.562  -0.783  1.00  0.00     0.043 C 
HETATM   13  C10 UNL     1       3.277  -2.025  -0.848  1.00  0.00     0.013 C 
HETATM   14  C11 UNL     1       4.610  -1.986  -1.470  1.00  0.00     0.021 C 
HETATM   15  C12 UNL     1       5.542  -1.291  -0.457  1.00  0.00     0.127 C 
HETATM   16  N4  UNL     1       5.056   0.036  -0.235  1.00  0.00    -0.333 N 
HETATM   17  C13 UNL     1       5.984   1.111  -0.012  1.00  0.00     0.320 C 
HETATM   18  C17 UNL     1       3.635   0.325  -0.142  1.00  0.00     0.137 C 
HETATM   19  O2  UNL     1       5.507   2.284  -0.052  1.00  0.00    -0.247 OA
HETATM   20  N5  UNL     1       7.353   0.875   0.242  1.00  0.00    -0.334 N 
HETATM   21  C14 UNL     1       8.354  -0.086   0.502  1.00  0.00     0.129 C 
HETATM   22  C16 UNL     1       8.472   1.884   0.267  1.00  0.00     0.129 C 
HETATM   23  C15 UNL     1       9.361   0.781  -0.254  1.00  0.00     0.040 C 
ENDBRANCH  11  12
ENDBRANCH   9  11
ENDBRANCH   5   9
BRANCH   8  24
HETATM   24  N7  UNL     1      -4.003   1.608   0.433  1.00  0.00    -0.371 N 
ATOM     25  H7  UNL     1      -4.926   1.256   0.177  1.00  0.00     0.161 HD
BRANCH  24  26
HETATM   26  C19 UNL     1      -4.114   2.889   0.955  1.00  0.00     0.075 C 
HETATM   27  C20 UNL     1      -5.598   3.338   0.910  1.00  0.00     0.031 C 
HETATM   28  C21 UNL     1      -3.430   3.949   0.042  1.00  0.00     0.031 C 
ENDBRANCH  24  26
ENDBRANCH   8  24
BRANCH   1  29
HETATM   29  C3  UNL     1      -5.053  -0.826  -0.385  1.00  0.00     0.044 C 
BRANCH  29  30
HETATM   30  N1  UNL     1      -5.837  -0.341   0.642  1.00  0.00    -0.391 N 
ATOM     31  H1  UNL     1      -5.707   0.583   1.053  1.00  0.00     0.159 HD
BRANCH  30  32
HETATM   32  C2  UNL     1      -6.880  -1.283   1.090  1.00  0.00     0.115 C 
HETATM   33  C1  UNL     1      -6.351  -2.525   1.718  1.00  0.00     0.026 C 
ENDBRANCH  30  32
ENDBRANCH  29  30
BRANCH  29  34
HETATM   34  C4  UNL     1      -5.559  -1.221  -1.724  1.00  0.00     0.221 C 
BRANCH  34  35
HETATM   35  O1  UNL     1      -6.472  -2.253  -1.694  1.00  0.00    -0.395 OA
ATOM     36  H1  UNL     1      -6.796  -2.506  -2.551  1.00  0.00     0.209 HD
ENDBRANCH  34  35
ENDBRANCH  29  34
ENDBRANCH   1  29
TORSDOF 10
