REMARK  2 active torsions:
REMARK  status: ('A' for Active; 'I' for Inactive)
REMARK    1  A    between atoms: O1_1  and  C1_3 
REMARK    2  A    between atoms: C1_3  and  N1_4 
ROOT
HETATM    1  N1  UNL     1      -1.213  -0.166   0.044  1.00  0.00    -0.319 N 
HETATM    2  C2  UNL     1      -1.304  -1.514  -0.047  1.00  0.00     0.185 A 
HETATM    3  N2  UNL     1      -0.058  -2.022  -0.055  1.00  0.00    -0.350 N 
ATOM      4  H2  UNL     1       0.186  -3.011  -0.115  1.00  0.00     0.166 HD
HETATM    5  C3  UNL     1       0.824  -0.981   0.032  1.00  0.00     0.060 A 
HETATM    6  C4  UNL     1       2.200  -0.888   0.067  1.00  0.00     0.032 A 
HETATM    7  C5  UNL     1       2.855   0.322   0.160  1.00  0.00     0.002 A 
HETATM    8  C6  UNL     1       2.097   1.457   0.220  1.00  0.00     0.002 A 
HETATM    9  C7  UNL     1       0.720   1.403   0.188  1.00  0.00     0.032 A 
HETATM   10  C8  UNL     1       0.084   0.183   0.094  1.00  0.00     0.064 A 
ENDROOT
BRANCH   1  11
HETATM   11  C1  UNL     1      -2.344   0.752   0.082  1.00  0.00     0.296 C 
BRANCH  11  12
HETATM   12  O1  UNL     1      -2.684   0.916   1.440  1.00  0.00    -0.382 OA
ATOM     13  H1  UNL     1      -3.421   1.514   1.465  1.00  0.00     0.211 HD
ENDBRANCH  11  12
ENDBRANCH   1  11
TORSDOF 2
