REMARK  1 active torsions:
REMARK  status: ('A' for Active; 'I' for Inactive)
REMARK    1  A    between atoms: C2_2  and  C3_3 
ROOT
HETATM    1  C3  UNL     1       0.521   0.018  -0.104  1.00  0.00     0.250 C 
HETATM    2  C4  UNL     1      -0.327  -0.403   1.047  1.00  0.00     0.052 C 
HETATM    3  C5  UNL     1      -1.351  -1.249   0.331  1.00  0.00     0.039 C 
HETATM    4  C6  UNL     1      -1.608  -0.291  -0.848  1.00  0.00     0.273 C 
HETATM    5  N1  UNL     1      -0.657   0.784  -0.548  1.00  0.00     0.097 N 
HETATM    6  C7  UNL     1      -0.923   0.971   0.893  1.00  0.00     0.280 C 
ENDROOT
BRANCH   1   7
HETATM    7  C2  UNL     1       1.704   0.836   0.187  1.00  0.00    -0.001 C 
HETATM    8  C1  UNL     1       2.912   0.287   0.179  1.00  0.00     0.009 C 
ENDBRANCH   1   7
TORSDOF 1
