REMARK  1 active torsions:
REMARK  status: ('A' for Active; 'I' for Inactive)
REMARK    1  A    between atoms: C2_2  and  C3_3 
ROOT
HETATM    1  C3  UNL     1       0.604  -0.242   0.057  1.00  0.00     0.212 C 
HETATM    2  N1  UNL     1      -0.070  -0.734   1.277  1.00  0.00    -0.063 N 
ATOM      3  H11 UNL     1       0.246  -0.314   2.151  1.00  0.00     0.278 HD
ATOM      4  H12 UNL     1       0.159  -1.690   1.549  1.00  0.00     0.278 HD
HETATM    5  C4  UNL     1      -1.437  -0.503   0.945  1.00  0.00     0.187 C 
HETATM    6  C5  UNL     1      -1.539  -0.925  -0.527  1.00  0.00     0.040 C 
HETATM    7  C6  UNL     1      -0.580   0.261  -0.704  1.00  0.00     0.024 C 
HETATM    8  C7  UNL     1      -1.394   0.926   0.386  1.00  0.00     0.040 C 
ENDROOT
BRANCH   1   9
HETATM    9  C2  UNL     1       1.596   0.812   0.384  1.00  0.00    -0.004 C 
HETATM   10  C1  UNL     1       2.881   0.489   0.309  1.00  0.00     0.009 C 
ENDBRANCH   1   9
TORSDOF 1
