REMARK  8 active torsions:
REMARK  status: ('A' for Active; 'I' for Inactive)
REMARK    1  A    between atoms: C3_3  and  C6_6 
REMARK    2  A    between atoms: C6_6  and  C7_7 
REMARK    3  A    between atoms: C7_7  and  N1_8 
REMARK    4  A    between atoms: N1_8  and  C8_10 
REMARK    5  A    between atoms: C8_10  and  N2_12 
REMARK    6  A    between atoms: N2_12  and  C9_14 
REMARK    7  A    between atoms: C9_14  and  C10_15 
REMARK    8  A    between atoms: C10_15  and  N3_16 
ROOT
HETATM    1  C1  UNL     1       4.720   0.504  -2.376  1.00  0.00     0.013 C 
HETATM    2  C2  UNL     1       4.020   0.132  -1.458  1.00  0.00    -0.108 C 
HETATM    3  C3  UNL     1       3.192  -0.319  -0.326  1.00  0.00     0.017 C 
HETATM    4  C4  UNL     1       3.396  -1.811  -0.205  1.00  0.00     0.029 C 
HETATM    5  C5  UNL     1       3.782   0.325   0.908  1.00  0.00     0.029 C 
ENDROOT
BRANCH   3   6
HETATM    6  C6  UNL     1       1.749   0.044  -0.541  1.00  0.00     0.041 C 
BRANCH   6   7
HETATM    7  C7  UNL     1       0.907  -0.414   0.606  1.00  0.00     0.123 C 
BRANCH   7   8
HETATM    8  N1  UNL     1      -0.485  -0.126   0.508  1.00  0.00    -0.367 N 
ATOM      9  H1  UNL     1      -1.103  -0.927   0.379  1.00  0.00     0.161 HD
BRANCH   8  10
HETATM   10  C8  UNL     1      -1.097   1.119   0.568  1.00  0.00     0.167 C 
HETATM   11  S1  UNL     1      -0.214   2.458   0.782  1.00  0.00    -0.041 SA
BRANCH  10  12
HETATM   12  N2  UNL     1      -2.496   1.235   0.451  1.00  0.00    -0.364 N 
ATOM     13  H2  UNL     1      -2.913   2.165   0.499  1.00  0.00     0.162 HD
BRANCH  12  14
HETATM   14  C9  UNL     1      -3.371   0.092   0.265  1.00  0.00     0.169 C 
BRANCH  14  15
HETATM   15  C10 UNL     1      -4.809   0.480   0.164  1.00  0.00     0.306 C 
HETATM   16  C11 UNL     1      -5.060   1.298  -1.048  1.00  0.00     0.094 C 
HETATM   17  N4  UNL     1      -5.265   1.935  -1.993  1.00  0.00    -0.195 NA
BRANCH  15  18
HETATM   18  N3  UNL     1      -5.620  -0.729  -0.019  1.00  0.00    -0.061 N 
ATOM     19  H33 UNL     1      -5.312  -1.286  -0.816  1.00  0.00     0.276 HD
ATOM     20  H32 UNL     1      -5.455  -1.421   0.712  1.00  0.00     0.276 HD
ATOM     21  H31 UNL     1      -6.603  -0.464  -0.088  1.00  0.00     0.276 HD
ENDBRANCH  15  18
ENDBRANCH  14  15
ENDBRANCH  12  14
ENDBRANCH  10  12
ENDBRANCH   8  10
ENDBRANCH   7   8
ENDBRANCH   6   7
ENDBRANCH   3   6
TORSDOF 8
