REMARK  5 active torsions:
REMARK  status: ('A' for Active; 'I' for Inactive)
REMARK    1  A    between atoms: C2_4  and  N2_5 
REMARK    2  A    between atoms: C2_4  and  C3_10 
REMARK    3  A    between atoms: N2_5  and  N3_7 
REMARK    4  A    between atoms: N4_13  and  C6_14 
REMARK    5  A    between atoms: C6_14  and  C7_15 
ROOT
HETATM    1  C3  UNL     1      -0.912   0.058  -0.107  1.00  0.00     0.012 A 
HETATM    2  C4  UNL     1      -0.176  -0.405   0.965  1.00  0.00     0.032 A 
HETATM    3  C5  UNL     1       1.158  -0.084   1.097  1.00  0.00     0.092 A 
HETATM    4  N4  UNL     1       1.823   0.682   0.215  1.00  0.00    -0.360 N 
HETATM    5  C8  UNL     1       1.129   1.145  -0.839  1.00  0.00     0.092 A 
HETATM    6  C9  UNL     1      -0.207   0.850  -1.012  1.00  0.00     0.032 A 
ENDROOT
BRANCH   1   7
HETATM    7  C2  UNL     1      -2.315  -0.253  -0.288  1.00  0.00     0.131 C 
HETATM    8  N1  UNL     1      -2.972   0.187  -1.288  1.00  0.00    -0.379 N 
HETATM    9  C1  UNL     1      -4.351  -0.058  -1.560  1.00  0.00     0.147 C 
ATOM     10  H1  UNL     1      -2.465   0.768  -1.955  1.00  0.00     0.160 HD
BRANCH   7  11
HETATM   11  N2  UNL     1      -2.972  -1.061   0.664  1.00  0.00    -0.225 N 
ATOM     12  H2  UNL     1      -2.974  -2.075   0.552  1.00  0.00     0.195 HD
BRANCH  11  13
HETATM   13  N3  UNL     1      -3.622  -0.481   1.763  1.00  0.00    -0.037 N 
HETATM   14  O1  UNL     1      -4.559  -1.040   2.363  1.00  0.00    -0.516 OA
HETATM   15  O2  UNL     1      -3.231   0.755   2.219  1.00  0.00    -0.516 OA
ENDBRANCH  11  13
ENDBRANCH   7  11
ENDBRANCH   1   7
BRANCH   4  16
HETATM   16  C6  UNL     1       3.233   0.985   0.410  1.00  0.00     0.200 C 
BRANCH  16  17
HETATM   17  C7  UNL     1       4.113  -0.005  -0.222  1.00  0.00     0.105 C 
HETATM   18  N5  UNL     1       4.951   0.357  -1.138  1.00  0.00    -0.390 N 
ATOM     19  H52 UNL     1       4.975   1.343  -1.399  1.00  0.00     0.157 HD
ATOM     20  H51 UNL     1       5.563  -0.331  -1.577  1.00  0.00     0.157 HD
HETATM   21  N6  UNL     1       4.079  -1.377   0.142  1.00  0.00    -0.086 NA
ENDBRANCH  16  17
ENDBRANCH   4  16
TORSDOF 5
