REMARK  12 active torsions:
REMARK  status: ('A' for Active; 'I' for Inactive)
REMARK    1  A    between atoms: C2_2  and  N1_4 
REMARK    2  A    between atoms: N1_4  and  C3_6 
REMARK    3  A    between atoms: C5_8  and  O1_9 
REMARK    4  A    between atoms: O1_9  and  C6_10 
REMARK    5  A    between atoms: C6_10  and  C7_11 
REMARK    6  A    between atoms: C12_16  and  C13_17 
REMARK    7  A    between atoms: C13_17  and  C16_20 
REMARK    8  A    between atoms: C16_20  and  O2_21 
REMARK    9  A    between atoms: C17_23  and  O3_24 
REMARK   10  A    between atoms: C18_26  and  O4_27 
REMARK   11  A    between atoms: O4_27  and  C19_28 
REMARK   12  A    between atoms: C24_33  and  O5_34 
ROOT
HETATM    1  C3  UNL     1       0.995   2.932   0.083  1.00  0.00     0.095 C 
HETATM    2  C4  UNL     1      -0.092   2.742  -0.909  1.00  0.00     0.060 C 
HETATM    3  C5  UNL     1      -0.445   1.267  -0.908  1.00  0.00     0.155 C 
HETATM    4  C17 UNL     1       0.725   0.545  -1.531  1.00  0.00     0.176 C 
HETATM    5  C18 UNL     1       1.866   0.621  -0.540  1.00  0.00     0.163 C 
HETATM    6  C26 UNL     1       2.171   2.030  -0.099  1.00  0.00     0.002 C 
HETATM    7  C27 UNL     1       2.866   1.934   1.251  1.00  0.00     0.020 C 
HETATM    8  C28 UNL     1       3.129   2.681  -1.080  1.00  0.00     0.020 C 
ENDROOT
BRANCH   3   9
HETATM    9  O1  UNL     1      -1.661   0.971  -1.425  1.00  0.00    -0.379 OA
BRANCH   9  10
HETATM   10  C6  UNL     1      -2.552   0.384  -0.518  1.00  0.00     0.207 C 
BRANCH  10  11
HETATM   11  C7  UNL     1      -3.846   0.085  -1.110  1.00  0.00    -0.027 A 
HETATM   12  C8  UNL     1      -3.977   0.455  -2.458  1.00  0.00     0.010 A 
HETATM   13  C9  UNL     1      -5.141   0.235  -3.156  1.00  0.00     0.001 A 
HETATM   14  C10 UNL     1      -6.207  -0.363  -2.521  1.00  0.00     0.001 A 
HETATM   15  C11 UNL     1      -6.074  -0.727  -1.190  1.00  0.00     0.008 A 
HETATM   16  C12 UNL     1      -4.919  -0.520  -0.457  1.00  0.00    -0.040 A 
BRANCH  16  17
HETATM   17  C13 UNL     1      -4.771  -0.928   0.940  1.00  0.00     0.001 C 
HETATM   18  C14 UNL     1      -4.439   0.207   1.895  1.00  0.00     0.022 C 
HETATM   19  C15 UNL     1      -3.892  -2.128   1.141  1.00  0.00     0.022 C 
BRANCH  17  20
HETATM   20  C16 UNL     1      -6.161  -1.373   1.446  1.00  0.00     0.177 C 
BRANCH  20  21
HETATM   21  O2  UNL     1      -7.083  -0.333   1.394  1.00  0.00    -0.400 OA
ATOM     22  H2  UNL     1      -7.938  -0.607   1.705  1.00  0.00     0.209 HD
ENDBRANCH  20  21
ENDBRANCH  17  20
ENDBRANCH  16  17
ENDBRANCH  10  11
ENDBRANCH   9  10
ENDBRANCH   3   9
BRANCH   4  23
HETATM   23  O3  UNL     1       0.317  -0.774  -1.699  1.00  0.00    -0.390 OA
ATOM     24  H3  UNL     1       1.053  -1.228  -2.091  1.00  0.00     0.210 HD
ENDBRANCH   4  23
BRANCH   1  25
HETATM   25  N1  UNL     1       0.488   2.936   1.436  1.00  0.00    -0.379 N 
ATOM     26  H1  UNL     1       0.739   2.146   2.030  1.00  0.00     0.160 HD
BRANCH  25  27
HETATM   27  C2  UNL     1      -0.326   3.942   2.007  1.00  0.00     0.069 C 
HETATM   28  C1  UNL     1      -0.824   3.885   3.405  1.00  0.00     0.081 C 
HETATM   29  S1  UNL     1      -0.751   5.256   1.146  1.00  0.00    -0.066 SA
ENDBRANCH  25  27
ENDBRANCH   1  25
BRANCH   5  30
HETATM   30  O4  UNL     1       3.017   0.154  -1.132  1.00  0.00    -0.377 OA
BRANCH  30  31
HETATM   31  C19 UNL     1       3.665  -0.898  -0.601  1.00  0.00     0.124 C 
HETATM   32  C20 UNL     1       5.105  -0.694  -0.205  1.00  0.00     0.032 C 
HETATM   33  C21 UNL     1       5.533  -1.981   0.507  1.00  0.00     0.009 C 
HETATM   34  C22 UNL     1       5.402  -3.199  -0.337  1.00  0.00     0.010 C 
HETATM   35  C23 UNL     1       5.532  -4.404   0.592  1.00  0.00     0.012 C 
HETATM   36  C24 UNL     1       4.092  -3.328  -1.054  1.00  0.00     0.124 C 
HETATM   37  C25 UNL     1       3.679  -2.001  -1.639  1.00  0.00     0.064 C 
BRANCH  36  38
HETATM   38  O5  UNL     1       3.089  -3.893  -0.275  1.00  0.00    -0.395 OA
ATOM     39  H5  UNL     1       2.259  -3.975  -0.729  1.00  0.00     0.210 HD
ENDBRANCH  36  38
ENDBRANCH  30  31
ENDBRANCH   5  30
TORSDOF 12
