REMARK  13 active torsions:
REMARK  status: ('A' for Active; 'I' for Inactive)
REMARK    1  A    between atoms: O1_2  and  N1_3 
REMARK    2  A    between atoms: N1_3  and  C3_5 
REMARK    3  A    between atoms: C3_5  and  C4_6 
REMARK    4  A    between atoms: C5_9  and  C6_10 
REMARK    5  A    between atoms: C6_10  and  C7_11 
REMARK    6  A    between atoms: C6_10  and  N3_15 
REMARK    7  A    between atoms: C7_11  and  O2_13 
REMARK    8  A    between atoms: N3_15  and  O3_16 
REMARK    9  A    between atoms: N3_15  and  C9_18 
REMARK   10  A    between atoms: C12_29  and  C13_30 
REMARK   11  A    between atoms: C16_36  and  N9_37 
REMARK   12  A    between atoms: C18_47  and  N13_48 
REMARK   13  A    between atoms: N13_48  and  N14_50 
ROOT
HETATM    1  C6  UNL     1      -0.389   0.738   0.202  1.00  0.00     0.212 C 
ENDROOT
BRANCH   1   2
HETATM    2  C5  UNL     1      -1.713   0.116  -0.252  1.00  0.00     0.127 A 
HETATM    3  N2  UNL     1      -2.832   0.804  -0.161  1.00  0.00    -0.331 N 
HETATM    4  C4  UNL     1      -4.084   0.369  -0.538  1.00  0.00     0.140 A 
ATOM      5  H2  UNL     1      -2.766   1.746   0.224  1.00  0.00     0.168 HD
HETATM    6  N17 UNL     1      -4.127  -0.869  -1.037  1.00  0.00     0.036 N 
HETATM    7  C17 UNL     1      -2.976  -1.607  -1.143  1.00  0.00     0.721 A 
HETATM    8  C19 UNL     1      -5.285  -1.404  -1.436  1.00  0.00     0.713 A 
HETATM    9  N11 UNL     1      -1.776  -1.118  -0.753  1.00  0.00    -0.176 N 
HETATM   10  N12 UNL     1      -3.052  -2.853  -1.650  1.00  0.00    -0.019 N 
ATOM     11  H11 UNL     1      -0.933  -1.685  -0.841  1.00  0.00     0.185 HD
HETATM   12  C18 UNL     1      -4.178  -3.420  -2.057  1.00  0.00     0.725 A 
ATOM     13  H12 UNL     1      -2.190  -3.393  -1.725  1.00  0.00     0.203 HD
HETATM   14  N15 UNL     1      -5.295  -2.681  -1.945  1.00  0.00    -0.020 N 
ATOM     15  H15 UNL     1      -6.182  -3.082  -2.249  1.00  0.00     0.203 HD
HETATM   16  N16 UNL     1      -6.389  -0.754  -1.355  1.00  0.00    -0.233 N 
ATOM     17 2H16 UNL     1      -7.273  -1.162  -1.659  1.00  0.00     0.174 HD
ATOM     18 1H16 UNL     1      -6.382   0.193  -0.977  1.00  0.00     0.174 HD
BRANCH   4  19
HETATM   19  C3  UNL     1      -5.238   1.216  -0.386  1.00  0.00     0.198 C 
BRANCH  19  20
HETATM   20  N1  UNL     1      -5.904   1.186   0.918  1.00  0.00    -0.195 NA
HETATM   21  C2  UNL     1      -6.957   2.195   0.889  1.00  0.00     0.144 C 
BRANCH  20  22
HETATM   22  O1  UNL     1      -5.021   1.532   1.891  1.00  0.00    -0.308 OA
HETATM   23  C1  UNL     1      -4.748   2.870   1.968  1.00  0.00     0.229 C 
ENDBRANCH  20  22
ENDBRANCH  19  20
ENDBRANCH   4  19
BRANCH  12  24
HETATM   24  N13 UNL     1      -4.250  -4.621  -2.545  1.00  0.00    -0.138 N 
ATOM     25  H13 UNL     1      -5.146  -5.007  -2.843  1.00  0.00     0.205 HD
BRANCH  24  26
HETATM   26  N14 UNL     1      -3.079  -5.375  -2.654  1.00  0.00    -0.331 N 
ATOM     27 2H14 UNL     1      -2.191  -4.974  -2.351  1.00  0.00     0.177 HD
ATOM     28 1H14 UNL     1      -3.136  -6.319  -3.037  1.00  0.00     0.177 HD
ENDBRANCH  24  26
ENDBRANCH  12  24
ENDBRANCH   1   2
BRANCH   1  29
HETATM   29  C7  UNL     1      -0.237   0.289   1.622  1.00  0.00     0.146 C 
HETATM   30  C8  UNL     1      -0.310  -1.184   1.843  1.00  0.00     0.042 C 
BRANCH  29  31
HETATM   31  O2  UNL     1       0.884   0.839   2.224  1.00  0.00    -0.393 OA
ATOM     32  H2  UNL     1       0.980   0.554   3.125  1.00  0.00     0.210 HD
ENDBRANCH  29  31
ENDBRANCH   1  29
BRANCH   1  33
HETATM   33  N3  UNL     1       0.635   0.451  -0.707  1.00  0.00    -0.227 N 
BRANCH  33  34
HETATM   34  O3  UNL     1       0.335   0.595  -2.049  1.00  0.00    -0.285 OA
ATOM     35  H3  UNL     1       1.030   0.400  -2.666  1.00  0.00     0.245 HD
ENDBRANCH  33  34
BRANCH  33  36
HETATM   36  C9  UNL     1       1.941   0.091  -0.412  1.00  0.00     0.170 A 
HETATM   37  N4  UNL     1       2.479  -1.142  -0.444  1.00  0.00    -0.267 N 
HETATM   38  N5  UNL     1       3.737  -1.134  -0.106  1.00  0.00    -0.236 N 
ATOM     39  H4  UNL     1       1.963  -1.983  -0.702  1.00  0.00     0.190 HD
HETATM   40  N6  UNL     1       4.054   0.118   0.157  1.00  0.00    -0.239 N 
ATOM     41  H5  UNL     1       4.358  -1.942  -0.055  1.00  0.00     0.208 HD
HETATM   42  C10 UNL     1       2.989   0.914  -0.015  1.00  0.00     0.105 A 
HETATM   43  C12 UNL     1       5.209   0.887   0.576  1.00  0.00     0.359 C 
HETATM   44  C11 UNL     1       3.478   2.283   0.292  1.00  0.00     0.298 C 
HETATM   45  N7  UNL     1       4.905   2.206   0.051  1.00  0.00    -0.041 N 
ATOM     46  H72 UNL     1       5.195   2.370  -0.913  1.00  0.00     0.280 HD
ATOM     47  H71 UNL     1       5.456   2.970   0.442  1.00  0.00     0.280 HD
BRANCH  43  48
HETATM   48  C13 UNL     1       6.468   0.347   0.032  1.00  0.00     0.083 A 
HETATM   49  C14 UNL     1       6.780   0.423  -1.306  1.00  0.00     0.104 A 
HETATM   50  C15 UNL     1       7.962  -0.086  -1.811  1.00  0.00     0.261 A 
HETATM   51  O4  UNL     1       8.274  -0.032  -3.024  1.00  0.00    -0.268 OA
HETATM   52  N8  UNL     1       8.823  -0.667  -0.964  1.00  0.00    -0.156 N 
HETATM   53  C16 UNL     1       8.534  -0.749   0.337  1.00  0.00     0.679 A 
ATOM     54  H8  UNL     1       9.702  -1.048  -1.314  1.00  0.00     0.187 HD
HETATM   55  N10 UNL     1       7.371  -0.246   0.823  1.00  0.00    -0.192 N 
ATOM     56  H10 UNL     1       7.179  -0.322   1.822  1.00  0.00     0.184 HD
BRANCH  53  57
HETATM   57  N9  UNL     1       9.397  -1.324   1.141  1.00  0.00    -0.234 N 
ATOM     58  H92 UNL     1      10.271  -1.702   0.776  1.00  0.00     0.174 HD
ATOM     59  H91 UNL     1       9.176  -1.387   2.135  1.00  0.00     0.174 HD
ENDBRANCH  53  57
ENDBRANCH  43  48
ENDBRANCH  33  36
ENDBRANCH   1  33
TORSDOF 13
