REMARK  11 active torsions:
REMARK  status: ('A' for Active; 'I' for Inactive)
REMARK    1  A    between atoms: C3_3  and  C4_4 
REMARK    2  A    between atoms: C4_4  and  O1_5 
REMARK    3  A    between atoms: C5_7  and  O2_8 
REMARK    4  A    between atoms: O2_8  and  S1_9 
REMARK    5  A    between atoms: S1_9  and  C6_12 
REMARK    6  A    between atoms: C23_29  and  C24_30 
REMARK       I    between atoms: C24_30  and  N1_32 
REMARK    7  A    between atoms: N1_32  and  C25_34 
REMARK    8  A    between atoms: C25_34  and  C26_35 
REMARK    9  A    between atoms: C26_35  and  C27_36 
REMARK   10  A    between atoms: C27_36  and  C28_37 
REMARK   11  A    between atoms: C36_45  and  O6_46 
ROOT
HETATM    1  C1  UNL     1      -2.334   0.212  -4.591  1.00  0.00     0.112 C 
HETATM    2  C2  UNL     1      -2.764  -0.070  -3.220  1.00  0.00    -0.108 C 
HETATM    3  C3  UNL     1      -3.112  -0.287  -2.080  1.00  0.00    -0.065 C 
ENDROOT
BRANCH   3   4
HETATM    4  C4  UNL     1      -3.567  -0.551  -0.687  1.00  0.00     0.156 C 
HETATM    5  C5  UNL     1      -3.751   0.749   0.012  1.00  0.00     0.190 C 
HETATM    6  C10 UNL     1      -4.108   0.349   1.456  1.00  0.00     0.038 C 
HETATM    7  C11 UNL     1      -2.770  -0.080   2.006  1.00  0.00     0.013 C 
HETATM    8  C12 UNL     1      -2.275  -1.380   1.364  1.00  0.00    -0.028 C 
HETATM    9  C13 UNL     1      -3.028  -2.396   2.228  1.00  0.00     0.016 C 
HETATM   10  C14 UNL     1      -0.785  -1.405   1.623  1.00  0.00     0.006 C 
HETATM   11  C38 UNL     1      -2.706  -1.583  -0.032  1.00  0.00     0.011 C 
HETATM   12  C15 UNL     1      -0.144  -0.111   1.293  1.00  0.00     0.007 C 
HETATM   13  C34 UNL     1      -0.070  -2.611   1.078  1.00  0.00    -0.006 C 
HETATM   14  C16 UNL     1       1.212  -0.153   0.664  1.00  0.00     0.006 C 
HETATM   15  C17 UNL     1       2.028  -1.183   1.361  1.00  0.00     0.000 C 
HETATM   16  C18 UNL     1       3.430  -1.077   0.844  1.00  0.00     0.012 C 
HETATM   17  C32 UNL     1       1.437  -2.538   1.394  1.00  0.00    -0.030 C 
HETATM   18  C19 UNL     1       4.491  -1.388   1.867  1.00  0.00    -0.013 C 
HETATM   19  C23 UNL     1       3.773  -1.858  -0.357  1.00  0.00     0.045 C 
HETATM   20  C20 UNL     1       4.641  -0.298   2.903  1.00  0.00     0.010 C 
HETATM   21  C21 UNL     1       5.733  -1.304   0.994  1.00  0.00     0.006 C 
HETATM   22  C22 UNL     1       5.295  -2.017  -0.237  1.00  0.00     0.020 C 
HETATM   23  C30 UNL     1       3.100  -3.187  -0.458  1.00  0.00     0.020 C 
HETATM   24  C31 UNL     1       2.202  -3.586   0.636  1.00  0.00     0.011 C 
HETATM   25  C33 UNL     1       1.540  -2.978   2.878  1.00  0.00     0.016 C 
HETATM   26  C35 UNL     1      -0.467  -3.915   1.718  1.00  0.00     0.019 C 
HETATM   27  C36 UNL     1      -0.423  -2.698  -0.357  1.00  0.00     0.128 C 
HETATM   28  C37 UNL     1      -1.497  -1.828  -0.896  1.00  0.00     0.046 C 
HETATM   29  C39 UNL     1      -3.567  -2.858  -0.190  1.00  0.00     0.020 C 
BRANCH   4  30
HETATM   30  O1  UNL     1      -4.920  -0.985  -0.845  1.00  0.00    -0.374 OA
ATOM     31  H1  UNL     1      -5.210  -1.153   0.044  1.00  0.00     0.212 HD
ENDBRANCH   4  30
BRANCH   5  32
HETATM   32  O2  UNL     1      -4.849   1.407  -0.517  1.00  0.00    -0.266 OA
BRANCH  32  33
HETATM   33  S1  UNL     1      -4.549   2.995  -0.922  1.00  0.00     0.273 S 
HETATM   34  O3  UNL     1      -4.395   3.089  -2.413  1.00  0.00    -0.198 OA
HETATM   35  O4  UNL     1      -3.308   3.539  -0.281  1.00  0.00    -0.198 OA
BRANCH  33  36
HETATM   36  C6  UNL     1      -5.903   4.056  -0.472  1.00  0.00     0.078 C 
HETATM   37  C7  UNL     1      -6.161   4.003   1.029  1.00  0.00     0.033 C 
HETATM   38  C8  UNL     1      -7.169   3.717  -1.214  1.00  0.00     0.033 C 
HETATM   39  C9  UNL     1      -5.547   5.490  -0.791  1.00  0.00     0.033 C 
ENDBRANCH  33  36
ENDBRANCH  32  33
ENDBRANCH   5  32
BRANCH  19  40
HETATM   40  C24 UNL     1       3.562  -1.085  -1.612  1.00  0.00     0.226 C 
HETATM   41  O5  UNL     1       2.770  -1.500  -2.495  1.00  0.00    -0.273 OA
HETATM   42  N1  UNL     1       4.217   0.143  -1.906  1.00  0.00    -0.360 N 
ATOM     43  H1  UNL     1       4.868   0.513  -1.213  1.00  0.00     0.162 HD
BRANCH  42  44
HETATM   44  C25 UNL     1       4.025   0.890  -3.102  1.00  0.00     0.122 C 
BRANCH  44  45
HETATM   45  C26 UNL     1       4.885   2.132  -3.060  1.00  0.00     0.020 C 
BRANCH  45  46
HETATM   46  C27 UNL     1       4.542   3.022  -1.888  1.00  0.00     0.001 C 
BRANCH  46  47
HETATM   47  C28 UNL     1       5.482   4.224  -1.974  1.00  0.00    -0.004 C 
HETATM   48  C29 UNL     1       5.199   5.167  -0.829  1.00  0.00     0.005 C 
ENDBRANCH  46  47
ENDBRANCH  45  46
ENDBRANCH  44  45
ENDBRANCH  42  44
ENDBRANCH  19  40
BRANCH  27  49
HETATM   49  O6  UNL     1      -0.678  -4.021  -0.805  1.00  0.00    -0.395 OA
ATOM     50  H6  UNL     1      -0.905  -4.077  -1.726  1.00  0.00     0.210 HD
ENDBRANCH  27  49
ENDBRANCH   3   4
TORSDOF 11
