REMARK  8 active torsions:
REMARK  status: ('A' for Active; 'I' for Inactive)
REMARK    1  A    between atoms: O1_2  and  C2_3 
REMARK    2  A    between atoms: C2_3  and  C3_4 
REMARK    3  A    between atoms: C7_8  and  C9_10 
REMARK    4  A    between atoms: C15_16  and  C16_17 
REMARK    5  A    between atoms: C25_26  and  C26_27 
REMARK    6  A    between atoms: C26_27  and  C27_28 
REMARK    7  A    between atoms: C35_38  and  O3_39 
REMARK    8  A    between atoms: C38_43  and  O4_44 
ROOT
HETATM    1  C9  UNL     1       4.738  -1.049  -0.167  1.00  0.00     0.058 C 
HETATM    2  C10 UNL     1       4.878  -2.510   0.227  1.00  0.00     0.021 C 
HETATM    3  C11 UNL     1       4.203  -3.458  -0.665  1.00  0.00     0.008 C 
HETATM    4  C12 UNL     1       2.686  -3.363  -0.769  1.00  0.00     0.016 C 
HETATM    5  C13 UNL     1       2.016  -3.591   0.526  1.00  0.00     0.007 C 
HETATM    6  C14 UNL     1       0.960  -2.611   0.947  1.00  0.00     0.007 C 
HETATM    7  C15 UNL     1       0.308  -1.930  -0.262  1.00  0.00     0.009 C 
HETATM    8  C36 UNL     1       1.383  -1.177  -0.905  1.00  0.00     0.013 C 
HETATM    9  C37 UNL     1       0.921  -0.365  -2.151  1.00  0.00     0.021 C 
HETATM   10  C38 UNL     1       2.313  -0.262  -0.272  1.00  0.00     0.130 C 
HETATM   11  C39 UNL     1       3.479  -0.547   0.564  1.00  0.00     0.053 C 
HETATM   12  C40 UNL     1       2.240  -2.246  -1.640  1.00  0.00     0.147 C 
HETATM   13  O5  UNL     1       3.368  -1.608  -2.216  1.00  0.00    -0.314 OA
HETATM   14  C41 UNL     1       4.501  -1.070  -1.631  1.00  0.00     0.269 C 
HETATM   15  O6  UNL     1       5.311  -0.601  -2.445  1.00  0.00    -0.264 OA
ENDROOT
BRANCH   7  16
HETATM   16  C16 UNL     1      -1.085  -1.503   0.003  1.00  0.00    -0.013 C 
HETATM   17  C17 UNL     1      -1.749  -2.804   0.569  1.00  0.00     0.018 C 
HETATM   18  C18 UNL     1      -1.394  -0.488   1.012  1.00  0.00     0.012 C 
HETATM   19  C19 UNL     1      -1.905   0.826   0.531  1.00  0.00     0.006 C 
HETATM   20  C20 UNL     1      -3.158   0.862  -0.256  1.00  0.00    -0.010 C 
HETATM   21  C21 UNL     1      -3.840   2.160   0.116  1.00  0.00     0.006 C 
HETATM   22  C33 UNL     1      -4.010  -0.355  -0.167  1.00  0.00     0.001 C 
HETATM   23  C22 UNL     1      -5.145   2.260  -0.568  1.00  0.00     0.011 C 
HETATM   24  C23 UNL     1      -6.063   1.161  -0.189  1.00  0.00    -0.032 C 
HETATM   25  C24 UNL     1      -7.270   1.369  -1.137  1.00  0.00     0.016 C 
HETATM   26  C25 UNL     1      -6.617   1.124   1.181  1.00  0.00     0.006 C 
HETATM   27  C31 UNL     1      -5.461  -0.209  -0.411  1.00  0.00    -0.032 C 
HETATM   28  C28 UNL     1      -6.993  -0.293   1.486  1.00  0.00    -0.013 C 
HETATM   29  C29 UNL     1      -8.430  -0.644   1.409  1.00  0.00     0.010 C 
HETATM   30  C30 UNL     1      -6.210  -1.142   0.529  1.00  0.00     0.015 C 
HETATM   31  C32 UNL     1      -5.899  -0.643  -1.810  1.00  0.00     0.016 C 
HETATM   32  C34 UNL     1      -3.402  -1.345  -1.118  1.00  0.00     0.038 C 
HETATM   33  C35 UNL     1      -1.929  -1.367  -1.261  1.00  0.00     0.127 C 
BRANCH  26  34
HETATM   34  C26 UNL     1      -7.630   2.119   1.581  1.00  0.00     0.105 C 
BRANCH  34  35
HETATM   35  C27 UNL     1      -7.244   3.540   1.603  1.00  0.00     0.231 C 
HETATM   36  N1  UNL     1      -8.081   4.549   1.049  1.00  0.00    -0.062 NA
HETATM   37  O2  UNL     1      -6.157   3.892   2.116  1.00  0.00    -0.277 OA
ENDBRANCH  34  35
ENDBRANCH  26  34
BRANCH  33  38
HETATM   38  O3  UNL     1      -1.689  -2.599  -1.933  1.00  0.00    -0.395 OA
ATOM     39  H3  UNL     1      -2.214  -2.514  -2.720  1.00  0.00     0.210 HD
ENDBRANCH  33  38
ENDBRANCH   7  16
BRANCH  10  40
HETATM   40  O4  UNL     1       1.697   0.929   0.221  1.00  0.00    -0.395 OA
ATOM     41  H4  UNL     1       2.306   1.528   0.636  1.00  0.00     0.210 HD
ENDBRANCH  10  40
BRANCH   1  42
HETATM   42  C7  UNL     1       5.974  -0.330   0.243  1.00  0.00    -0.027 C 
HETATM   43  C6  UNL     1       7.238  -0.708  -0.396  1.00  0.00     0.010 C 
HETATM   44  C5  UNL     1       8.381  -0.135   0.466  1.00  0.00     0.001 C 
HETATM   45  C4  UNL     1       8.323   1.351   0.355  1.00  0.00     0.007 C 
HETATM   46  C3  UNL     1       7.067   1.888  -0.270  1.00  0.00     0.010 C 
HETATM   47  C42 UNL     1       5.820   1.185   0.154  1.00  0.00     0.017 C 
HETATM   48  C8  UNL     1       6.154  -0.600   1.754  1.00  0.00     0.016 C 
BRANCH  46  49
HETATM   49  C2  UNL     1       6.913   3.346   0.167  1.00  0.00     0.171 C 
BRANCH  49  50
HETATM   50  O1  UNL     1       7.993   4.098  -0.239  1.00  0.00    -0.396 OA
HETATM   51  C1  UNL     1       7.847   5.410   0.156  1.00  0.00     0.201 C 
ENDBRANCH  49  50
ENDBRANCH  46  49
ENDBRANCH   1  42
TORSDOF 8
