REMARK  8 active torsions:
REMARK  status: ('A' for Active; 'I' for Inactive)
REMARK    1  A    between atoms: C2_2  and  C3_3 
REMARK    2  A    between atoms: C3_3  and  C4_4 
REMARK    3  A    between atoms: C4_4  and  N1_5 
REMARK       I    between atoms: N1_5  and  C5_7 
REMARK    4  A    between atoms: C5_7  and  C6_9 
REMARK    5  A    between atoms: C17_21  and  C19_23 
REMARK    6  A    between atoms: C24_30  and  O5_31 
REMARK    7  A    between atoms: O5_31  and  C25_32 
REMARK    8  A    between atoms: C35_43  and  O7_44 
ROOT
HETATM    1  C6  UNL     1       4.300   0.629  -0.624  1.00  0.00     0.086 C 
HETATM    2  C7  UNL     1       4.045   1.852   0.272  1.00  0.00     0.015 C 
HETATM    3  C8  UNL     1       3.179   2.757  -0.601  1.00  0.00     0.010 C 
HETATM    4  C9  UNL     1       1.821   2.103  -0.883  1.00  0.00    -0.039 C 
HETATM    5  C10 UNL     1       1.572   2.253  -2.342  1.00  0.00     0.015 C 
HETATM    6  C11 UNL     1       0.835   2.946  -0.116  1.00  0.00     0.015 C 
HETATM    7  C12 UNL     1      -0.592   2.481  -0.170  1.00  0.00     0.003 C 
HETATM    8  C13 UNL     1      -0.769   1.352   0.797  1.00  0.00     0.019 C 
HETATM    9  C14 UNL     1      -2.049   1.362   1.574  1.00  0.00     0.010 C 
HETATM   10  C15 UNL     1      -2.270   2.787   2.123  1.00  0.00     0.033 C 
HETATM   11  C16 UNL     1      -2.660   3.542   0.855  1.00  0.00     0.132 C 
HETATM   12  O2  UNL     1      -3.186   4.797   1.113  1.00  0.00    -0.363 OA
HETATM   13  C17 UNL     1      -3.818   5.237  -0.025  1.00  0.00     0.145 C 
HETATM   14  C18 UNL     1      -4.014   6.753   0.184  1.00  0.00     0.058 C 
HETATM   15  C20 UNL     1      -3.085   5.063  -1.299  1.00  0.00     0.050 C 
HETATM   16  C21 UNL     1      -1.887   4.216  -1.320  1.00  0.00     0.015 C 
HETATM   17  C22 UNL     1      -1.433   3.695   0.042  1.00  0.00    -0.014 C 
HETATM   18  C23 UNL     1      -0.651   4.864   0.663  1.00  0.00     0.018 C 
HETATM   19  C24 UNL     1      -0.574  -0.016   0.228  1.00  0.00     0.126 C 
HETATM   20  C36 UNL     1       0.598  -0.059  -0.781  1.00  0.00     0.038 C 
HETATM   21  C37 UNL     1       1.787   0.718  -0.354  1.00  0.00     0.005 C 
HETATM   22  C38 UNL     1       3.020  -0.122  -0.636  1.00  0.00    -0.031 C 
HETATM   23  C39 UNL     1       2.894  -0.867  -1.964  1.00  0.00     0.016 C 
HETATM   24  C40 UNL     1       3.065  -1.153   0.470  1.00  0.00     0.016 C 
ENDROOT
BRANCH  19  25
HETATM   25  O5  UNL     1      -1.642  -0.480  -0.506  1.00  0.00    -0.380 OA
BRANCH  25  26
HETATM   26  C25 UNL     1      -2.115  -1.724  -0.202  1.00  0.00     0.122 C 
HETATM   27  C26 UNL     1      -3.607  -1.703  -0.070  1.00  0.00     0.032 C 
HETATM   28  C27 UNL     1      -4.126  -2.710   0.924  1.00  0.00     0.013 C 
HETATM   29  C28 UNL     1      -3.835  -4.115   0.660  1.00  0.00     0.060 C 
HETATM   30  C29 UNL     1      -4.806  -4.950  -0.125  1.00  0.00     0.093 C 
HETATM   31  C31 UNL     1      -3.184  -4.479  -0.625  1.00  0.00     0.100 C 
HETATM   32  C30 UNL     1      -6.084  -5.312   0.214  1.00  0.00     0.049 C 
HETATM   33  O6  UNL     1      -4.376  -4.261  -1.255  1.00  0.00    -0.363 OA
HETATM   34  C35 UNL     1      -3.652  -5.892  -0.392  1.00  0.00     0.188 C 
HETATM   35  C32 UNL     1      -1.911  -4.095  -0.977  1.00  0.00     0.022 C 
HETATM   36  C33 UNL     1      -0.932  -4.250   0.194  1.00  0.00     0.013 C 
HETATM   37  C34 UNL     1      -1.829  -2.647  -1.416  1.00  0.00     0.039 C 
BRANCH  34  38
HETATM   38  O7  UNL     1      -3.788  -6.678  -1.517  1.00  0.00    -0.389 OA
ATOM     39  H7  UNL     1      -3.064  -7.269  -1.685  1.00  0.00     0.210 HD
ENDBRANCH  34  38
ENDBRANCH  25  26
ENDBRANCH  19  25
BRANCH   1  40
HETATM   40  C5  UNL     1       5.490  -0.064  -0.142  1.00  0.00     0.222 C 
HETATM   41  N1  UNL     1       6.122  -1.173  -0.760  1.00  0.00    -0.361 N 
ATOM     42  H1  UNL     1       5.714  -1.549  -1.616  1.00  0.00     0.162 HD
HETATM   43  O1  UNL     1       6.036   0.352   0.933  1.00  0.00    -0.273 OA
BRANCH  41  44
HETATM   44  C4  UNL     1       7.304  -1.789  -0.240  1.00  0.00     0.122 C 
BRANCH  44  45
HETATM   45  C3  UNL     1       7.221  -2.399   1.111  1.00  0.00     0.019 C 
BRANCH  45  46
HETATM   46  C2  UNL     1       6.249  -3.542   1.240  1.00  0.00    -0.003 C 
HETATM   47  C1  UNL     1       6.328  -4.005   2.702  1.00  0.00     0.005 C 
ENDBRANCH  45  46
ENDBRANCH  44  45
ENDBRANCH  41  44
ENDBRANCH   1  40
BRANCH  13  48
HETATM   48  C19 UNL     1      -5.190   4.680  -0.049  1.00  0.00     0.208 C 
HETATM   49  O3  UNL     1      -6.011   4.907  -0.973  1.00  0.00    -0.646 OA
HETATM   50  O4  UNL     1      -5.611   3.867   0.987  1.00  0.00    -0.646 OA
ENDBRANCH  13  48
TORSDOF 8
