REMARK  6 active torsions:
REMARK  status: ('A' for Active; 'I' for Inactive)
REMARK    1  A    between atoms: C2_2  and  C3_3 
REMARK    2  A    between atoms: C3_3  and  N1_4 
REMARK    3  A    between atoms: N1_4  and  C4_7 
REMARK    4  A    between atoms: C4_7  and  C5_8 
REMARK    5  A    between atoms: C5_8  and  N2_9 
REMARK    6  A    between atoms: N2_9  and  C6_12 
ROOT
HETATM    1  N2  UNL     1      -0.755  -0.708   0.040  1.00  0.00    -0.068 N 
ATOM      2  H21 UNL     1      -0.510  -1.572  -0.443  1.00  0.00     0.277 HD
ATOM      3  H22 UNL     1      -0.655  -0.059  -0.741  1.00  0.00     0.277 HD
ENDROOT
BRANCH   1   4
HETATM    4  C5  UNL     1       0.168  -0.413   1.090  1.00  0.00     0.260 C 
BRANCH   4   5
HETATM    5  C4  UNL     1       1.591  -0.258   0.690  1.00  0.00     0.260 C 
BRANCH   5   6
HETATM    6  N1  UNL     1       1.812   0.818  -0.255  1.00  0.00    -0.070 N 
ATOM      7  H12 UNL     1       1.377   1.688   0.051  1.00  0.00     0.277 HD
ATOM      8  H11 UNL     1       1.285   0.681  -1.117  1.00  0.00     0.277 HD
BRANCH   6   9
HETATM    9  C3  UNL     1       3.225   0.983  -0.508  1.00  0.00     0.259 C 
BRANCH   9  10
HETATM   10  C2  UNL     1       3.879  -0.099  -1.229  1.00  0.00    -0.010 C 
HETATM   11  C1  UNL     1       4.886  -0.775  -0.670  1.00  0.00     0.008 C 
ENDBRANCH   9  10
ENDBRANCH   6   9
ENDBRANCH   5   6
ENDBRANCH   4   5
ENDBRANCH   1   4
BRANCH   1  12
HETATM   12  C6  UNL     1      -2.124  -0.741   0.539  1.00  0.00     0.213 C 
HETATM   13  C7  UNL     1      -2.466   0.644   1.036  1.00  0.00     0.062 C 
HETATM   14  C8  UNL     1      -3.752   0.991   0.354  1.00  0.00     0.234 C 
HETATM   15  N3  UNL     1      -4.159  -0.080  -0.482  1.00  0.00    -0.073 N 
HETATM   16  C9  UNL     1      -3.134  -1.103  -0.484  1.00  0.00     0.265 C 
ATOM     17  H32 UNL     1      -5.073  -0.449  -0.219  1.00  0.00     0.277 HD
ATOM     18  H31 UNL     1      -4.394   0.233  -1.424  1.00  0.00     0.277 HD
ENDBRANCH   1  12
TORSDOF 6
