REMARK  14 active torsions:
REMARK  status: ('A' for Active; 'I' for Inactive)
REMARK    1  A    between atoms: C2_2  and  C3_3 
REMARK    2  A    between atoms: C3_3  and  O1_4 
REMARK    3  A    between atoms: O1_4  and  C4_5 
REMARK       I    between atoms: C4_5  and  N1_7 
REMARK    4  A    between atoms: N1_7  and  C5_9 
REMARK    5  A    between atoms: C5_9  and  C6_10 
REMARK    6  A    between atoms: C6_10  and  C7_11 
REMARK    7  A    between atoms: C7_11  and  C8_12 
REMARK    8  A    between atoms: C8_12  and  C9_13 
REMARK    9  A    between atoms: C9_13  and  C10_14 
REMARK   10  A    between atoms: C10_14  and  N2_15 
REMARK       I    between atoms: N2_15  and  C11_17 
REMARK   11  A    between atoms: N4_19  and  C12_21 
REMARK   12  A    between atoms: C12_21  and  C13_22 
REMARK   13  A    between atoms: C13_22  and  C14_23 
REMARK   14  A    between atoms: C14_23  and  N5_24 
ROOT
HETATM    1  C4  UNL     1       0.967   2.397   1.294  1.00  0.00     0.360 C 
HETATM    2  O2  UNL     1       0.475   3.239   2.077  1.00  0.00    -0.239 OA
HETATM    3  N1  UNL     1       2.360   2.632   0.924  1.00  0.00    -0.337 N 
ATOM      4  H1  UNL     1       2.833   1.991   0.287  1.00  0.00     0.164 HD
ENDROOT
BRANCH   1   5
HETATM    5  O1  UNL     1       0.249   1.351   0.832  1.00  0.00    -0.303 OA
BRANCH   5   6
HETATM    6  C3  UNL     1      -1.027   0.968   1.017  1.00  0.00     0.190 C 
BRANCH   6   7
HETATM    7  C2  UNL     1      -2.178   1.712   0.399  1.00  0.00    -0.018 C 
HETATM    8  C1  UNL     1      -2.350   3.129   0.774  1.00  0.00     0.018 C 
HETATM    9  C15 UNL     1      -1.909   1.586  -1.128  1.00  0.00     0.012 C 
HETATM   10  C16 UNL     1      -2.537   0.257  -1.487  1.00  0.00     0.011 C 
HETATM   11  C17 UNL     1      -3.899   0.461  -0.808  1.00  0.00    -0.036 C 
HETATM   12  C18 UNL     1      -4.650   1.469  -1.578  1.00  0.00     0.016 C 
HETATM   13  C19 UNL     1      -4.613  -0.852  -0.607  1.00  0.00    -0.002 C 
HETATM   14  C31 UNL     1      -3.421   0.878   0.556  1.00  0.00     0.004 C 
HETATM   15  C20 UNL     1      -5.249  -1.385  -1.868  1.00  0.00     0.007 C 
HETATM   16  C28 UNL     1      -5.505  -0.794   0.584  1.00  0.00    -0.004 C 
HETATM   17  C21 UNL     1      -5.718  -2.789  -1.437  1.00  0.00     0.018 C 
HETATM   18  C22 UNL     1      -6.936  -2.511  -0.613  1.00  0.00     0.021 C 
HETATM   19  C23 UNL     1      -7.579  -3.837  -0.219  1.00  0.00     0.024 C 
HETATM   20  C24 UNL     1      -7.913  -1.830  -1.540  1.00  0.00     0.135 C 
HETATM   21  C27 UNL     1      -6.729  -1.602   0.547  1.00  0.00     0.006 C 
HETATM   22  O3  UNL     1      -8.223  -2.290  -2.607  1.00  0.00    -0.297 OA
HETATM   23  C25 UNL     1      -8.374  -0.573  -0.907  1.00  0.00     0.079 C 
HETATM   24  C26 UNL     1      -8.028  -0.814   0.538  1.00  0.00     0.013 C 
HETATM   25  C29 UNL     1      -5.804   0.645   1.040  1.00  0.00     0.006 C 
HETATM   26  C30 UNL     1      -4.543   1.437   1.315  1.00  0.00     0.006 C 
ENDBRANCH   6   7
ENDBRANCH   5   6
ENDBRANCH   1   5
BRANCH   3  27
HETATM   27  C5  UNL     1       3.057   3.752   1.449  1.00  0.00     0.125 C 
BRANCH  27  28
HETATM   28  C6  UNL     1       4.475   3.870   1.039  1.00  0.00     0.020 C 
BRANCH  28  29
HETATM   29  C7  UNL     1       5.412   2.823   1.508  1.00  0.00     0.002 C 
BRANCH  29  30
HETATM   30  C8  UNL     1       5.153   1.418   1.135  1.00  0.00     0.002 C 
BRANCH  30  31
HETATM   31  C9  UNL     1       6.253   0.487   1.662  1.00  0.00     0.020 C 
BRANCH  31  32
HETATM   32  C10 UNL     1       7.607   0.868   1.096  1.00  0.00     0.122 C 
BRANCH  32  33
HETATM   33  N2  UNL     1       7.655   0.799  -0.336  1.00  0.00    -0.365 N 
HETATM   34  C11 UNL     1       7.577  -0.450  -0.987  1.00  0.00     0.183 C 
HETATM   35  N3  UNL     1       6.441  -0.904  -1.707  1.00  0.00    -0.064 NA
HETATM   36  N4  UNL     1       8.624  -1.219  -0.911  1.00  0.00    -0.365 N 
ATOM     37  H4  UNL     1       9.431  -0.876  -0.390  1.00  0.00     0.162 HD
ATOM     38  H2  UNL     1       7.746   1.654  -0.884  1.00  0.00     0.162 HD
BRANCH  36  39
HETATM   39  C12 UNL     1       8.718  -2.518  -1.512  1.00  0.00     0.124 C 
BRANCH  39  40
HETATM   40  C13 UNL     1       7.953  -3.522  -0.704  1.00  0.00     0.047 C 
BRANCH  40  41
HETATM   41  C14 UNL     1       8.513  -3.586   0.685  1.00  0.00     0.231 C 
BRANCH  41  42
HETATM   42  N5  UNL     1       9.908  -3.973   0.717  1.00  0.00    -0.079 N 
ATOM     43  H53 UNL     1      10.052  -4.855   0.226  1.00  0.00     0.274 HD
ATOM     44  H52 UNL     1      10.469  -3.359   0.126  1.00  0.00     0.274 HD
ATOM     45  H51 UNL     1      10.289  -4.017   1.662  1.00  0.00     0.274 HD
ENDBRANCH  41  42
ENDBRANCH  40  41
ENDBRANCH  39  40
ENDBRANCH  36  39
ENDBRANCH  32  33
ENDBRANCH  31  32
ENDBRANCH  30  31
ENDBRANCH  29  30
ENDBRANCH  28  29
ENDBRANCH  27  28
ENDBRANCH   3  27
TORSDOF 14
