REMARK  3 active torsions:
REMARK  status: ('A' for Active; 'I' for Inactive)
REMARK    1  A    between atoms: C3_5  and  C4_6 
REMARK    2  A    between atoms: C4_6  and  C6_8 
REMARK    3  A    between atoms: C4_6  and  N2_11 
ROOT
HETATM    1  C4  UNL     1      -0.210  -0.626  -0.192  1.00  0.00     0.202 C 
HETATM    2  C5  UNL     1      -0.656  -1.141  -1.514  1.00  0.00     0.057 C 
ENDROOT
BRANCH   1   3
HETATM    3  C3  UNL     1       1.146   0.011  -0.216  1.00  0.00     0.057 A 
HETATM    4  N1  UNL     1       1.455   1.116   0.485  1.00  0.00    -0.358 N 
HETATM    5  C2  UNL     1       2.761   1.414   0.386  1.00  0.00     0.045 A 
ATOM      6  H1  UNL     1       0.782   1.660   1.025  1.00  0.00     0.165 HD
HETATM    7  C1  UNL     1       3.426   2.570   1.037  1.00  0.00     0.071 C 
HETATM    8  C15 UNL     1       3.286   0.442  -0.416  1.00  0.00     0.146 A 
HETATM    9  C13 UNL     1       2.296  -0.458  -0.814  1.00  0.00     0.004 A 
HETATM   10  F1  UNL     1       4.584   0.349  -0.784  1.00  0.00    -0.203 F 
HETATM   11  C14 UNL     1       2.457  -1.601  -1.710  1.00  0.00     0.054 C 
ENDBRANCH   1   3
BRANCH   1  12
HETATM   12  C6  UNL     1       0.068  -1.855   0.659  1.00  0.00     0.030 A 
HETATM   13  C7  UNL     1      -0.983  -2.815   1.017  1.00  0.00     0.008 A 
HETATM   14  C8  UNL     1      -0.365  -2.017   2.054  1.00  0.00     0.008 A 
ENDBRANCH   1  12
BRANCH   1  15
HETATM   15  N2  UNL     1      -1.096   0.311   0.437  1.00  0.00     0.114 N 
HETATM   16  C9  UNL     1      -1.228   1.516  -0.386  1.00  0.00     0.294 C 
HETATM   17  C10 UNL     1      -2.525   1.611  -1.158  1.00  0.00     0.153 C 
HETATM   18  N3  UNL     1      -3.496   1.957  -0.091  1.00  0.00    -0.358 N 
HETATM   19  C11 UNL     1      -3.219   1.144   1.044  1.00  0.00     0.246 C 
ATOM     20  H3  UNL     1      -4.235   2.657  -0.159  1.00  0.00     0.162 HD
HETATM   21  O1  UNL     1      -3.626   1.473   2.167  1.00  0.00    -0.272 OA
HETATM   22  C12 UNL     1      -2.419  -0.094   0.730  1.00  0.00     0.376 C 
ENDBRANCH   1  15
TORSDOF 3
