REMARK  4 active torsions:
REMARK  status: ('A' for Active; 'I' for Inactive)
REMARK    1  A    between atoms: C2_2  and  C3_4 
REMARK    2  A    between atoms: C3_4  and  N1_5 
REMARK    3  A    between atoms: C6_8  and  N2_9 
REMARK    4  A    between atoms: N2_9  and  C7_11 
ROOT
HETATM    1  N1  UNL     1      -1.355   0.701   0.156  1.00  0.00     0.093 N 
HETATM    2  C4  UNL     1      -0.413   1.233  -0.789  1.00  0.00     0.275 C 
HETATM    3  C5  UNL     1       0.934   1.297  -0.127  1.00  0.00     0.056 C 
HETATM    4  C6  UNL     1       1.295  -0.046   0.452  1.00  0.00     0.090 C 
HETATM    5  C8  UNL     1       0.290  -1.120   0.187  1.00  0.00     0.032 C 
HETATM    6  C9  UNL     1       0.381  -1.725  -1.180  1.00  0.00     0.014 C 
HETATM    7  C10 UNL     1      -1.099  -0.650   0.544  1.00  0.00     0.279 C 
ENDROOT
BRANCH   4   8
HETATM    8  N2  UNL     1       2.627  -0.397   0.024  1.00  0.00    -0.364 N 
ATOM      9  H2  UNL     1       2.763  -1.247  -0.523  1.00  0.00     0.162 HD
BRANCH   8  10
HETATM   10  C7  UNL     1       3.750   0.403   0.341  1.00  0.00     0.181 C 
HETATM   11  N3  UNL     1       5.063   0.070  -0.073  1.00  0.00    -0.070 NA
HETATM   12  S1  UNL     1       3.505   1.754   1.216  1.00  0.00    -0.044 SA
ENDBRANCH   8  10
ENDBRANCH   4   8
BRANCH   1  13
HETATM   13  C3  UNL     1      -2.691   0.928  -0.337  1.00  0.00     0.317 C 
BRANCH  13  14
HETATM   14  C2  UNL     1      -3.734   0.406   0.583  1.00  0.00     0.007 C 
HETATM   15  C1  UNL     1      -4.574  -0.514   0.160  1.00  0.00     0.029 C 
HETATM   16 BR1  UNL     1      -3.881   1.048   2.368  1.00  0.00    -0.055 Br
ENDBRANCH  13  14
ENDBRANCH   1  13
TORSDOF 4
