REMARK  9 active torsions:
REMARK  status: ('A' for Active; 'I' for Inactive)
REMARK    1  A    between atoms: N2_3  and  O1_4 
REMARK    2  A    between atoms: N2_3  and  N3_6 
REMARK    3  A    between atoms: N3_6  and  C2_7 
REMARK    4  A    between atoms: C2_7  and  C3_8 
REMARK    5  A    between atoms: C3_8  and  C4_9 
REMARK    6  A    between atoms: C4_9  and  C5_10 
REMARK    7  A    between atoms: C5_10  and  N4_11 
REMARK    8  A    between atoms: C6_12  and  N5_13 
REMARK    9  A    between atoms: C8_21  and  N8_22 
ROOT
HETATM    1  N1  UNL     1       5.190   3.343  -1.616  1.00  0.00    -0.168 NA
HETATM    2  C1  UNL     1       4.906   2.242  -1.392  1.00  0.00     0.224 C 
HETATM    3  N2  UNL     1       4.567   0.912  -1.132  1.00  0.00    -0.096 N 
ENDROOT
BRANCH   3   4
HETATM    4  O1  UNL     1       5.506  -0.070  -1.318  1.00  0.00    -0.262 OA
ATOM      5  H1  UNL     1       5.275  -0.974  -1.141  1.00  0.00     0.247 HD
ENDBRANCH   3   4
BRANCH   3   6
HETATM    6  N3  UNL     1       3.309   0.510  -0.686  1.00  0.00    -0.102 NA
BRANCH   6   7
HETATM    7  C2  UNL     1       2.559  -0.158  -1.748  1.00  0.00     0.138 C 
BRANCH   7   8
HETATM    8  C3  UNL     1       1.197  -0.566  -1.182  1.00  0.00     0.019 C 
BRANCH   8   9
HETATM    9  C4  UNL     1       1.327  -1.491  -0.031  1.00  0.00     0.022 C 
BRANCH   9  10
HETATM   10  C5  UNL     1       0.039  -1.943   0.610  1.00  0.00     0.148 C 
BRANCH  10  11
HETATM   11  N4  UNL     1      -0.738  -0.855   1.103  1.00  0.00    -0.176 N 
HETATM   12  C6  UNL     1      -0.443  -0.283   2.303  1.00  0.00     0.680 A 
HETATM   13  N6  UNL     1      -1.340   0.666   2.520  1.00  0.00    -0.174 N 
HETATM   14  C7  UNL     1      -2.206   0.707   1.475  1.00  0.00     0.167 A 
ATOM     15  H6  UNL     1      -1.375   1.270   3.341  1.00  0.00     0.186 HD
HETATM   16  N7  UNL     1      -3.278   1.454   1.216  1.00  0.00    -0.174 N 
HETATM   17  C10 UNL     1      -1.821  -0.278   0.552  1.00  0.00     0.140 A 
HETATM   18  C8  UNL     1      -3.998   1.298   0.112  1.00  0.00     0.679 A 
ATOM     19  H7  UNL     1      -3.555   2.169   1.888  1.00  0.00     0.186 HD
HETATM   20  N9  UNL     1      -3.643   0.367  -0.768  1.00  0.00    -0.175 N 
HETATM   21  C9  UNL     1      -2.554  -0.463  -0.605  1.00  0.00     0.146 A 
ATOM     22  H9  UNL     1      -4.208   0.261  -1.611  1.00  0.00     0.186 HD
HETATM   23  N10 UNL     1      -2.300  -1.325  -1.462  1.00  0.00    -0.383 N 
ATOM     24 2H10 UNL     1      -2.841  -1.462  -2.316  1.00  0.00     0.157 HD
ATOM     25 1H10 UNL     1      -1.494  -1.939  -1.341  1.00  0.00     0.157 HD
BRANCH  12  26
HETATM   26  N5  UNL     1       0.515  -0.581   3.106  1.00  0.00    -0.234 N 
ATOM     27  H52 UNL     1       1.206  -1.312   2.939  1.00  0.00     0.174 HD
ATOM     28  H51 UNL     1       0.736  -0.153   4.005  1.00  0.00     0.174 HD
ENDBRANCH  12  26
BRANCH  18  29
HETATM   29  N8  UNL     1      -5.053   2.028  -0.152  1.00  0.00    -0.234 N 
ATOM     30  H82 UNL     1      -5.325   2.742   0.523  1.00  0.00     0.174 HD
ATOM     31  H81 UNL     1      -5.606   1.908  -1.000  1.00  0.00     0.174 HD
ENDBRANCH  18  29
ENDBRANCH  10  11
ENDBRANCH   9  10
ENDBRANCH   8   9
ENDBRANCH   7   8
ENDBRANCH   6   7
ENDBRANCH   3   6
TORSDOF 9
