REMARK  9 active torsions:
REMARK  status: ('A' for Active; 'I' for Inactive)
REMARK    1  A    between atoms: O1_2  and  C2_3 
REMARK    2  A    between atoms: C5_6  and  O2_7 
REMARK    3  A    between atoms: C8_11  and  O3_12 
REMARK    4  A    between atoms: C9_14  and  O4_15 
REMARK    5  A    between atoms: C10_17  and  O5_18 
REMARK    6  A    between atoms: C10_17  and  C11_20 
REMARK    7  A    between atoms: C11_20  and  C12_21 
REMARK    8  A    between atoms: C13_24  and  O8_25 
REMARK    9  A    between atoms: O8_25  and  C14_26 
ROOT
HETATM    1  C2  UNL     1       2.854  -0.169  -0.292  1.00  0.00     0.111 A 
HETATM    2  C3  UNL     1       2.245   0.848  -0.933  1.00  0.00     0.008 A 
HETATM    3  C4  UNL     1       3.103   1.852  -1.662  1.00  0.00     0.054 C 
HETATM    4  C5  UNL     1       0.850   0.981  -0.931  1.00  0.00     0.088 A 
HETATM    5  C6  UNL     1       0.058   0.046  -0.252  1.00  0.00     0.047 A 
HETATM    6  C7  UNL     1       0.673  -1.018   0.419  1.00  0.00     0.048 A 
HETATM    7  C8  UNL     1       2.055  -1.094   0.379  1.00  0.00     0.113 A 
HETATM    8  C9  UNL     1      -0.224  -1.766   1.004  1.00  0.00     0.099 C 
HETATM    9  C10 UNL     1      -1.565  -1.197   0.725  1.00  0.00     0.166 C 
HETATM   10  C13 UNL     1      -1.240   0.033  -0.022  1.00  0.00     0.112 C 
ENDROOT
BRANCH   9  11
HETATM   11  O5  UNL     1      -2.300  -0.966   1.862  1.00  0.00    -0.375 OA
ATOM     12  H5  UNL     1      -3.159  -0.602   1.683  1.00  0.00     0.211 HD
ENDBRANCH   9  11
BRANCH   9  13
HETATM   13  C11 UNL     1      -2.262  -2.146  -0.234  1.00  0.00     0.165 C 
BRANCH  13  14
HETATM   14  C12 UNL     1      -3.614  -1.816  -0.628  1.00  0.00     0.176 C 
HETATM   15  O6  UNL     1      -4.248  -0.871  -0.150  1.00  0.00    -0.648 OA
HETATM   16  O7  UNL     1      -4.223  -2.607  -1.592  1.00  0.00    -0.648 OA
ENDBRANCH  13  14
ENDBRANCH   9  13
BRANCH   8  17
HETATM   17  O4  UNL     1       0.026  -2.924   1.771  1.00  0.00    -0.360 OA
ATOM     18  H4  UNL     1      -0.626  -3.468   2.196  1.00  0.00     0.217 HD
ENDBRANCH   8  17
BRANCH  10  19
HETATM   19  O8  UNL     1      -2.134   1.040  -0.424  1.00  0.00    -0.279 OA
BRANCH  19  20
HETATM   20  C14 UNL     1      -2.386   2.049   0.521  1.00  0.00     0.259 C 
HETATM   21  C15 UNL     1      -3.306   3.153   0.207  1.00  0.00     0.126 C 
HETATM   22  O9  UNL     1      -1.806   1.976   1.627  1.00  0.00    -0.265 OA
ENDBRANCH  19  20
ENDBRANCH  10  19
BRANCH   7  23
HETATM   23  O3  UNL     1       2.698  -2.112   1.016  1.00  0.00    -0.357 OA
ATOM     24  H3  UNL     1       2.154  -2.742   1.473  1.00  0.00     0.217 HD
ENDBRANCH   7  23
BRANCH   4  25
HETATM   25  O2  UNL     1       0.386   2.059  -1.631  1.00  0.00    -0.359 OA
ATOM     26  H2  UNL     1      -0.560   2.149  -1.630  1.00  0.00     0.217 HD
ENDBRANCH   4  25
BRANCH   1  27
HETATM   27  O1  UNL     1       4.241  -0.290  -0.301  1.00  0.00    -0.352 OA
HETATM   28  C1  UNL     1       4.916   0.376   0.776  1.00  0.00     0.210 C 
ENDBRANCH   1  27
TORSDOF 9
