REMARK  15 active torsions:
REMARK  status: ('A' for Active; 'I' for Inactive)
REMARK    1  A    between atoms: C2_2  and  C3_3 
REMARK    2  A    between atoms: C3_3  and  C4_4 
REMARK    3  A    between atoms: C4_4  and  N1_5 
REMARK    4  A    between atoms: N1_5  and  C5_7 
REMARK    5  A    between atoms: C7_9  and  N2_10 
REMARK    6  A    between atoms: N2_10  and  C8_11 
REMARK    7  A    between atoms: N2_10  and  S1_16 
REMARK    8  A    between atoms: C8_11  and  C9_12 
REMARK    9  A    between atoms: C9_12  and  C10_13 
REMARK   10  A    between atoms: C10_13  and  O1_14 
REMARK   11  A    between atoms: S1_16  and  C12_19 
REMARK   12  A    between atoms: C15_22  and  N3_23 
REMARK   13  A    between atoms: C16_28  and  N5_29 
REMARK   14  A    between atoms: C18_35  and  C19_36 
REMARK   15  A    between atoms: C21_43  and  N9_44 
ROOT
HETATM    1  S1  UNL     1      -0.718   0.358  -1.269  1.00  0.00     0.268 S 
HETATM    2  O2  UNL     1      -1.186   1.227  -2.428  1.00  0.00    -0.200 OA
HETATM    3  O3  UNL     1       0.393  -0.504  -1.904  1.00  0.00    -0.200 OA
ENDROOT
BRANCH   1   4
HETATM    4  N2  UNL     1       0.035   1.335  -0.107  1.00  0.00    -0.256 N 
BRANCH   4   5
HETATM    5  C7  UNL     1       1.424   1.220   0.146  1.00  0.00     0.136 A 
HETATM    6  C6  UNL     1       1.986   0.439   1.108  1.00  0.00     0.098 A 
HETATM    7  C5  UNL     1       3.368   0.321   1.343  1.00  0.00     0.120 A 
HETATM    8  N10 UNL     1       4.145   1.050   0.535  1.00  0.00    -0.177 N 
HETATM    9  C21 UNL     1       3.634   1.836  -0.428  1.00  0.00     0.679 A 
ATOM     10  H10 UNL     1       5.157   1.008   0.653  1.00  0.00     0.185 HD
HETATM   11  N8  UNL     1       2.323   1.922  -0.621  1.00  0.00    -0.176 N 
ATOM     12  H8  UNL     1       1.972   2.528  -1.362  1.00  0.00     0.186 HD
BRANCH   7  13
HETATM   13  N1  UNL     1       3.783  -0.447   2.279  1.00  0.00    -0.376 N 
ATOM     14  H1  UNL     1       3.085  -0.951   2.826  1.00  0.00     0.161 HD
BRANCH  13  15
HETATM   15  C4  UNL     1       5.154  -0.644   2.606  1.00  0.00     0.121 C 
BRANCH  15  16
HETATM   16  C3  UNL     1       5.675  -1.998   2.154  1.00  0.00     0.019 C 
BRANCH  16  17
HETATM   17  C2  UNL     1       5.530  -2.113   0.663  1.00  0.00    -0.003 C 
HETATM   18  C1  UNL     1       6.032  -3.440   0.154  1.00  0.00     0.005 C 
ENDBRANCH  16  17
ENDBRANCH  15  16
ENDBRANCH  13  15
ENDBRANCH   7  13
BRANCH   9  19
HETATM   19  N9  UNL     1       4.444   2.501  -1.158  1.00  0.00    -0.234 N 
ATOM     20  H92 UNL     1       4.056   3.098  -1.889  1.00  0.00     0.174 HD
ATOM     21  H91 UNL     1       5.451   2.435  -1.010  1.00  0.00     0.174 HD
ENDBRANCH   9  19
ENDBRANCH   4   5
BRANCH   4  22
HETATM   22  C8  UNL     1      -0.673   2.341   0.635  1.00  0.00     0.145 C 
BRANCH  22  23
HETATM   23  C9  UNL     1      -0.486   3.750   0.260  1.00  0.00     0.047 C 
BRANCH  23  24
HETATM   24  C10 UNL     1      -0.849   4.164  -1.127  1.00  0.00     0.168 C 
BRANCH  24  25
HETATM   25  O1  UNL     1      -0.643   5.564  -1.287  1.00  0.00    -0.396 OA
HETATM   26  C11 UNL     1      -0.988   5.935  -2.593  1.00  0.00     0.201 C 
ENDBRANCH  24  25
ENDBRANCH  23  24
ENDBRANCH  22  23
ENDBRANCH   4  22
ENDBRANCH   1   4
BRANCH   1  27
HETATM   27  C12 UNL     1      -2.013  -0.650  -0.746  1.00  0.00     0.106 A 
HETATM   28  C13 UNL     1      -3.313  -0.374  -1.191  1.00  0.00     0.044 A 
HETATM   29  C14 UNL     1      -4.410  -1.097  -0.821  1.00  0.00     0.038 A 
HETATM   30  C15 UNL     1      -5.682  -0.821  -1.262  1.00  0.00     0.127 A 
HETATM   31  C17 UNL     1      -4.257  -2.186   0.055  1.00  0.00     0.082 A 
HETATM   32  N4  UNL     1      -6.783  -1.529  -0.904  1.00  0.00    -0.176 N 
HETATM   33  C16 UNL     1      -6.600  -2.554  -0.072  1.00  0.00     0.677 A 
ATOM     34  H4  UNL     1      -7.709  -1.287  -1.256  1.00  0.00     0.186 HD
HETATM   35  N6  UNL     1      -5.361  -2.869   0.393  1.00  0.00    -0.190 N 
ATOM     36  H6  UNL     1      -5.267  -3.661   1.028  1.00  0.00     0.184 HD
HETATM   37  C18 UNL     1      -3.010  -2.493   0.515  1.00  0.00     0.094 A 
HETATM   38  C20 UNL     1      -1.899  -1.704   0.095  1.00  0.00     0.089 A 
HETATM   39  N7  UNL     1      -0.631  -2.103   0.602  1.00  0.00    -0.100 NA
BRANCH  30  40
HETATM   40  N3  UNL     1      -5.898   0.149  -2.057  1.00  0.00    -0.384 N 
ATOM     41  H32 UNL     1      -5.070   0.681  -2.326  1.00  0.00     0.157 HD
ATOM     42  H31 UNL     1      -6.842   0.354  -2.384  1.00  0.00     0.157 HD
ENDBRANCH  30  40
BRANCH  33  43
HETATM   43  N5  UNL     1      -7.650  -3.240   0.278  1.00  0.00    -0.234 N 
ATOM     44  H52 UNL     1      -8.579  -3.004  -0.071  1.00  0.00     0.174 HD
ATOM     45  H51 UNL     1      -7.510  -4.024   0.915  1.00  0.00     0.174 HD
ENDBRANCH  33  43
BRANCH  37  46
HETATM   46  C19 UNL     1      -2.773  -3.595   1.403  1.00  0.00     0.213 C 
HETATM   47  O4  UNL     1      -1.567  -3.846   1.796  1.00  0.00    -0.644 OA
HETATM   48  O5  UNL     1      -3.687  -4.453   1.911  1.00  0.00    -0.644 OA
ENDBRANCH  37  46
ENDBRANCH   1  27
TORSDOF 15
