REMARK  3 active torsions:
REMARK  status: ('A' for Active; 'I' for Inactive)
REMARK    1  A    between atoms: N1_1  and  N2_4 
REMARK    2  A    between atoms: N2_4  and  C1_5 
REMARK    3  A    between atoms: C1_5  and  C2_6 
ROOT
HETATM    1  C2  UNL     1       0.326  -0.059   0.184  1.00  0.00     0.063 A 
HETATM    2  C3  UNL     1      -0.444   0.517  -0.812  1.00  0.00     0.033 A 
HETATM    3  C4  UNL     1      -1.755   0.215  -0.545  1.00  0.00     0.019 A 
HETATM    4  C5  UNL     1      -1.782  -0.542   0.607  1.00  0.00     0.088 A 
HETATM    5  N3  UNL     1      -0.525  -0.680   1.006  1.00  0.00    -0.364 N 
ATOM      6  H3  UNL     1      -0.242  -1.197   1.839  1.00  0.00     0.165 HD
ENDROOT
BRANCH   1   7
HETATM    7  C1  UNL     1       1.778   0.005   0.302  1.00  0.00     0.237 C 
BRANCH   7   8
HETATM    8  N2  UNL     1       2.494   0.614  -0.522  1.00  0.00    -0.344 NA
BRANCH   8   9
HETATM    9  N1  UNL     1       3.230   0.933  -1.480  1.00  0.00    -0.281 N 
ATOM     10  H12 UNL     1       3.249  -0.017  -1.851  1.00  0.00     0.191 HD
ATOM     11  H11 UNL     1       3.814   1.430  -2.152  1.00  0.00     0.191 HD
ENDBRANCH   8   9
ENDBRANCH   7   8
ENDBRANCH   1   7
TORSDOF 3
