REMARK  3 active torsions:
REMARK  status: ('A' for Active; 'I' for Inactive)
REMARK    1  A    between atoms: C2_2  and  N1_3 
REMARK    2  A    between atoms: C2_2  and  C6_8 
REMARK    3  A    between atoms: N1_3  and  C3_5 
ROOT
HETATM    1  C1  UNL     1       0.356   1.241  -1.409  1.00  0.00     0.063 C 
HETATM    2  C2  UNL     1       0.268   1.030   0.090  1.00  0.00    -0.018 C 
ENDROOT
BRANCH   2   3
HETATM    3  N1  UNL     1       1.473   0.628   0.715  1.00  0.00    -0.392 N 
ATOM      4  H1  UNL     1       1.915   1.216   1.422  1.00  0.00     0.159 HD
BRANCH   3   5
HETATM    5  C3  UNL     1       2.051  -0.610   0.336  1.00  0.00     0.081 A 
HETATM    6  C4  UNL     1       3.429  -0.840   0.968  1.00  0.00     0.027 A 
HETATM    7  C5  UNL     1       3.337  -0.499  -0.475  1.00  0.00     0.027 A 
ENDBRANCH   3   5
ENDBRANCH   2   3
BRANCH   2   8
HETATM    8  C6  UNL     1      -0.941   0.293   0.535  1.00  0.00     0.030 C 
HETATM    9  C7  UNL     1      -1.151  -1.073   0.000  1.00  0.00     0.010 C 
HETATM   10  C8  UNL     1      -2.635  -1.269  -0.234  1.00  0.00     0.001 C 
HETATM   11  C9  UNL     1      -3.253  -0.084   0.466  1.00  0.00     0.001 C 
HETATM   12  C10 UNL     1      -2.243   1.018   0.189  1.00  0.00     0.010 C 
ENDBRANCH   2   8
TORSDOF 3
