REMARK  3 active torsions:
REMARK  status: ('A' for Active; 'I' for Inactive)
REMARK    1  A    between atoms: C3_3  and  C4_4 
REMARK    2  A    between atoms: C4_4  and  N1_5 
REMARK    3  A    between atoms: N1_5  and  C5_8 
ROOT
HETATM    1  N1  UNL     1       0.521  -0.025  -0.431  1.00  0.00    -0.070 N 
ATOM      2  H11 UNL     1       0.729  -0.956  -0.071  1.00  0.00     0.277 HD
ATOM      3  H12 UNL     1       0.763  -0.199  -1.406  1.00  0.00     0.277 HD
ENDROOT
BRANCH   1   4
HETATM    4  C4  UNL     1       1.326   0.990   0.165  1.00  0.00     0.237 C 
BRANCH   4   5
HETATM    5  C3  UNL     1       2.787   0.707   0.219  1.00  0.00     0.011 A 
HETATM    6  C1  UNL     1       3.543   0.477  -1.054  1.00  0.00     0.007 A 
HETATM    7  C2  UNL     1       3.363  -0.619  -0.047  1.00  0.00     0.007 A 
ENDBRANCH   4   5
ENDBRANCH   1   4
BRANCH   1   8
HETATM    8  C5  UNL     1      -0.855   0.342  -0.258  1.00  0.00     0.194 C 
HETATM    9  C6  UNL     1      -1.918  -0.421  -0.940  1.00  0.00     0.017 C 
HETATM   10  C7  UNL     1      -3.195   0.143  -0.351  1.00  0.00     0.007 C 
HETATM   11  C10 UNL     1      -1.658  -1.535   0.075  1.00  0.00     0.013 C 
HETATM   12  C8  UNL     1      -2.734   0.279   1.114  1.00  0.00     0.007 C 
HETATM   13  C9  UNL     1      -1.402  -0.373   1.005  1.00  0.00     0.017 C 
ENDBRANCH   1   8
TORSDOF 3
