REMARK  13 active torsions:
REMARK  status: ('A' for Active; 'I' for Inactive)
REMARK    1  A    between atoms: O1_2  and  C2_3 
REMARK    2  A    between atoms: C3_4  and  S1_5 
REMARK    3  A    between atoms: S1_5  and  S2_6 
REMARK    4  A    between atoms: S2_6  and  C4_7 
REMARK    5  A    between atoms: C4_7  and  N1_8 
REMARK       I    between atoms: N1_8  and  C5_10 
REMARK    6  A    between atoms: C5_10  and  C6_12 
REMARK    7  A    between atoms: C9_25  and  O3_26 
REMARK    8  A    between atoms: C10_28  and  C11_29 
REMARK       I    between atoms: N8_35  and  C13_37 
REMARK    9  A    between atoms: C13_37  and  C14_39 
REMARK   10  A    between atoms: C14_39  and  N9_40 
REMARK   11  A    between atoms: C14_39  and  C15_44 
REMARK   12  A    between atoms: C17_47  and  O7_48 
REMARK   13  A    between atoms: O7_48  and  S5_49 
ROOT
HETATM    1  C2  UNL     1      -1.174  -2.183  -0.605  1.00  0.00     0.098 C 
HETATM    2  C3  UNL     1      -0.038  -2.330   0.256  1.00  0.00     0.078 C 
HETATM    3  C10 UNL     1      -0.220  -2.489   1.560  1.00  0.00     0.139 C 
HETATM    4  N7  UNL     1      -1.475  -2.444   2.127  1.00  0.00    -0.295 N 
HETATM    5  S3  UNL     1      -2.610  -2.464   3.562  1.00  0.00     0.005 SA
HETATM    6  C12 UNL     1      -3.179  -1.162   2.354  1.00  0.00     0.097 C 
HETATM    7  N8  UNL     1      -3.665  -0.029   2.523  1.00  0.00    -0.320 N 
ATOM      8  H8  UNL     1      -3.772   0.222   3.506  1.00  0.00     0.169 HD
HETATM    9  C13 UNL     1      -4.089   0.959   1.657  1.00  0.00     0.253 C 
HETATM   10  O6  UNL     1      -5.166   0.931   1.051  1.00  0.00    -0.271 OA
HETATM   11  C16 UNL     1      -2.702  -2.225   1.384  1.00  0.00     0.193 C 
HETATM   12  C17 UNL     1      -2.486  -1.736   0.013  1.00  0.00     0.233 C 
ENDROOT
BRANCH   2  13
HETATM   13  S1  UNL     1       1.619  -2.263  -0.333  1.00  0.00    -0.048 SA
BRANCH  13  14
HETATM   14  S2  UNL     1       1.665  -1.158  -2.106  1.00  0.00    -0.028 SA
BRANCH  14  15
HETATM   15  C4  UNL     1       2.005   0.528  -1.758  1.00  0.00     0.287 C 
HETATM   16  N6  UNL     1       1.170   0.953  -0.581  1.00  0.00    -0.033 N 
HETATM   17  C8  UNL     1       1.034   2.224  -1.277  1.00  0.00     0.273 C 
ATOM     18  H62 UNL     1       0.358   0.417  -0.274  1.00  0.00     0.281 HD
ATOM     19  H61 UNL     1       1.519   0.897   0.376  1.00  0.00     0.281 HD
HETATM   20  C9  UNL     1       1.315   1.580  -2.601  1.00  0.00     0.212 C 
BRANCH  15  21
HETATM   21  N1  UNL     1       3.346   0.934  -1.438  1.00  0.00    -0.310 N 
HETATM   22  C5  UNL     1       4.350   0.279  -0.726  1.00  0.00     0.291 C 
HETATM   23  O2  UNL     1       4.181  -0.850  -0.239  1.00  0.00    -0.264 OA
ATOM     24  H1  UNL     1       3.607   1.855  -1.791  1.00  0.00     0.166 HD
BRANCH  22  25
HETATM   25  C6  UNL     1       5.669   0.892  -0.509  1.00  0.00     0.206 A 
HETATM   26  N2  UNL     1       6.697   0.377   0.171  1.00  0.00    -0.264 N 
HETATM   27  N3  UNL     1       7.689   1.276   0.112  1.00  0.00    -0.225 N 
ATOM     28  H2  UNL     1       6.722  -0.526   0.644  1.00  0.00     0.190 HD
HETATM   29  N4  UNL     1       7.320   2.322  -0.572  1.00  0.00    -0.223 N 
ATOM     30  H3  UNL     1       8.606   1.158   0.543  1.00  0.00     0.210 HD
HETATM   31  C7  UNL     1       8.129   3.513  -0.853  1.00  0.00     0.202 C 
HETATM   32  N5  UNL     1       6.069   2.090  -0.961  1.00  0.00    -0.262 N 
ATOM     33  H5  UNL     1       5.500   2.727  -1.519  1.00  0.00     0.190 HD
ENDBRANCH  22  25
ENDBRANCH  15  21
BRANCH  20  34
HETATM   34  O3  UNL     1       0.265   1.184  -3.372  1.00  0.00    -0.389 OA
ATOM     35  H3  UNL     1      -0.168   1.844  -3.901  1.00  0.00     0.210 HD
ENDBRANCH  20  34
ENDBRANCH  14  15
ENDBRANCH  13  14
ENDBRANCH   2  13
BRANCH   1  36
HETATM   36  O1  UNL     1      -0.959  -1.552  -1.803  1.00  0.00    -0.356 OA
HETATM   37  C1  UNL     1      -1.181  -2.439  -2.899  1.00  0.00     0.209 C 
ENDBRANCH   1  36
BRANCH   3  38
HETATM   38  C11 UNL     1       0.935  -2.650   2.466  1.00  0.00     0.229 C 
HETATM   39  O4  UNL     1       0.775  -2.803   3.703  1.00  0.00    -0.643 OA
HETATM   40  O5  UNL     1       2.188  -2.629   1.933  1.00  0.00    -0.643 OA
ENDBRANCH   3  38
BRANCH  12  41
HETATM   41  O7  UNL     1      -3.444  -2.219  -0.889  1.00  0.00    -0.242 OA
BRANCH  41  42
HETATM   42  S5  UNL     1      -4.785  -2.946  -0.355  1.00  0.00     0.252 S 
HETATM   43  O8  UNL     1      -5.546  -2.335   0.766  1.00  0.00    -0.572 OA
HETATM   44  O9  UNL     1      -5.781  -2.959  -1.531  1.00  0.00    -0.572 OA
HETATM   45  O10 UNL     1      -4.540  -4.611  -0.053  1.00  0.00    -0.572 OA
ENDBRANCH  41  42
ENDBRANCH  12  41
BRANCH   9  46
HETATM   46  C14 UNL     1      -3.186   2.155   1.434  1.00  0.00     0.285 C 
BRANCH  46  47
HETATM   47  N9  UNL     1      -2.002   2.014   2.256  1.00  0.00    -0.066 N 
ATOM     48  H93 UNL     1      -2.228   1.877   3.241  1.00  0.00     0.275 HD
ATOM     49  H92 UNL     1      -1.521   1.129   2.095  1.00  0.00     0.275 HD
ATOM     50  H91 UNL     1      -1.394   2.819   2.106  1.00  0.00     0.275 HD
ENDBRANCH  46  47
BRANCH  46  51
HETATM   51  C15 UNL     1      -3.879   3.438   1.838  1.00  0.00     0.129 C 
HETATM   52  S4  UNL     1      -5.392   3.705   0.866  1.00  0.00    -0.095 SA
ENDBRANCH  46  51
ENDBRANCH   9  46
TORSDOF 13
