REMARK  6 active torsions:
REMARK  status: ('A' for Active; 'I' for Inactive)
REMARK    1  A    between atoms: N1_1  and  C1_4 
REMARK    2  A    between atoms: C2_9  and  S1_10 
REMARK    3  A    between atoms: S1_10  and  C3_11 
REMARK    4  A    between atoms: C3_11  and  C4_12 
REMARK    5  A    between atoms: C4_12  and  N4_13 
REMARK    6  A    between atoms: N5_17  and  N6_18 
ROOT
HETATM    1  C1  UNL     1       2.999  -0.092   0.375  1.00  0.00     0.713 A 
HETATM    2  N2  UNL     1       2.644  -0.336   1.650  1.00  0.00    -0.129 N 
ATOM      3  H2  UNL     1       3.262  -0.690   2.380  1.00  0.00     0.205 HD
HETATM    4  N3  UNL     1       1.363  -0.042   1.804  1.00  0.00    -0.263 N 
ATOM      5  H3  UNL     1       0.839  -0.135   2.674  1.00  0.00     0.189 HD
HETATM    6  C2  UNL     1       0.854   0.402   0.629  1.00  0.00     0.198 A 
HETATM    7  N5  UNL     1       1.897   0.359  -0.239  1.00  0.00    -0.068 N 
ENDROOT
BRANCH   6   8
HETATM    8  S1  UNL     1      -0.819   0.932   0.282  1.00  0.00    -0.088 SA
BRANCH   8   9
HETATM    9  C3  UNL     1      -1.756  -0.506  -0.238  1.00  0.00     0.109 C 
BRANCH   9  10
HETATM   10  C4  UNL     1      -3.193  -0.189  -0.562  1.00  0.00     0.240 C 
BRANCH  10  11
HETATM   11  N4  UNL     1      -3.926   0.359   0.534  1.00  0.00    -0.079 N 
ATOM     12  H43 UNL     1      -3.869  -0.255   1.347  1.00  0.00     0.274 HD
ATOM     13  H42 UNL     1      -3.452   1.182   0.907  1.00  0.00     0.274 HD
ATOM     14  H41 UNL     1      -4.899   0.574   0.315  1.00  0.00     0.274 HD
ENDBRANCH  10  11
ENDBRANCH   9  10
ENDBRANCH   8   9
ENDBRANCH   6   8
BRANCH   7  15
HETATM   15  N6  UNL     1       1.770   0.747  -1.578  1.00  0.00    -0.322 N 
ATOM     16  H62 UNL     1       2.554   0.715  -2.230  1.00  0.00     0.178 HD
ATOM     17  H61 UNL     1       0.931   1.090  -2.045  1.00  0.00     0.178 HD
ENDBRANCH   7  15
BRANCH   1  18
HETATM   18  N1  UNL     1       4.139  -0.234  -0.214  1.00  0.00    -0.231 N 
ATOM     19  H12 UNL     1       4.978  -0.577   0.253  1.00  0.00     0.174 HD
ATOM     20  H11 UNL     1       4.408  -0.049  -1.180  1.00  0.00     0.174 HD
ENDBRANCH   1  18
TORSDOF 6
