REMARK  13 active torsions:
REMARK  status: ('A' for Active; 'I' for Inactive)
REMARK    1  A    between atoms: N2_6  and  O1_8 
REMARK    2  A    between atoms: C5_17  and  C6_18 
REMARK    3  A    between atoms: C7_21  and  C8_22 
REMARK    4  A    between atoms: C8_22  and  O5_24 
REMARK    5  A    between atoms: O5_24  and  C9_25 
REMARK    6  A    between atoms: C9_25  and  C10_26 
REMARK    7  A    between atoms: C9_25  and  C17_39 
REMARK    8  A    between atoms: C10_26  and  C11_27 
REMARK    9  A    between atoms: C13_29  and  O6_30 
REMARK   10  A    between atoms: C14_32  and  O7_33 
REMARK   11  A    between atoms: C15_35  and  O8_36 
REMARK   12  A    between atoms: C17_39  and  O9_40 
REMARK   13  A    between atoms: C17_39  and  O10_42 
ROOT
HETATM    1  C8  UNL     1       1.324  -0.062  -0.924  1.00  0.00     0.297 C 
HETATM    2  O4  UNL     1       0.905   0.265  -2.043  1.00  0.00    -0.259 OA
ENDROOT
BRANCH   1   3
HETATM    3  C7  UNL     1       2.685  -0.027  -0.482  1.00  0.00     0.084 C 
HETATM    4  C1  UNL     1       2.870  -0.202   0.995  1.00  0.00     0.071 C 
HETATM    5  N1  UNL     1       2.157  -1.011   1.606  1.00  0.00    -0.397 N 
HETATM    6  C2  UNL     1       3.851   0.504   1.846  1.00  0.00     0.106 C 
ATOM      7  H12 UNL     1       2.283  -1.130   2.611  1.00  0.00     0.156 HD
ATOM      8  H11 UNL     1       1.480  -1.498   1.019  1.00  0.00     0.156 HD
HETATM    9  N2  UNL     1       3.523   0.704   3.098  1.00  0.00    -0.268 N 
HETATM   10  C3  UNL     1       5.172   1.006   1.424  1.00  0.00     0.349 C 
ATOM     11  H2  UNL     1       4.170   1.188   3.721  1.00  0.00     0.194 HD
HETATM   12  N3  UNL     1       6.021  -0.140   1.089  1.00  0.00    -0.106 NA
HETATM   13  N5  UNL     1       5.015   1.675   0.146  1.00  0.00    -0.027 N 
HETATM   14  N4  UNL     1       5.686  -0.467  -0.226  1.00  0.00    -0.107 NA
HETATM   15  C4  UNL     1       5.079   0.633  -0.871  1.00  0.00     0.337 C 
HETATM   16  C5  UNL     1       3.633   0.324  -1.307  1.00  0.00     0.084 C 
ATOM     17  H52 UNL     1       4.172   2.246   0.088  1.00  0.00     0.282 HD
ATOM     18  H51 UNL     1       5.687   2.428  -0.002  1.00  0.00     0.282 HD
BRANCH   9  19
HETATM   19  O1  UNL     1       2.327   0.271   3.570  1.00  0.00    -0.290 OA
ATOM     20  H1  UNL     1       2.089   0.416   4.478  1.00  0.00     0.244 HD
ENDBRANCH   9  19
BRANCH  16  21
HETATM   21  C6  UNL     1       3.512   0.272  -2.710  1.00  0.00     0.209 C 
HETATM   22  O2  UNL     1       4.512   0.739  -3.417  1.00  0.00    -0.644 OA
HETATM   23  O3  UNL     1       2.497  -0.211  -3.484  1.00  0.00    -0.644 OA
ENDBRANCH  16  21
ENDBRANCH   1   3
BRANCH   1  24
HETATM   24  O5  UNL     1       0.293  -0.494  -0.076  1.00  0.00    -0.307 OA
BRANCH  24  25
HETATM   25  C9  UNL     1      -1.078  -0.534  -0.510  1.00  0.00     0.191 C 
BRANCH  25  26
HETATM   26  C10 UNL     1      -1.873   0.322   0.413  1.00  0.00     0.076 C 
BRANCH  26  27
HETATM   27  C11 UNL     1      -3.304   0.424   0.152  1.00  0.00    -0.050 A 
HETATM   28  C12 UNL     1      -3.875   1.353  -0.703  1.00  0.00     0.046 A 
HETATM   29  C13 UNL     1      -5.246   1.435  -0.917  1.00  0.00     0.102 A 
HETATM   30  C14 UNL     1      -6.107   0.573  -0.270  1.00  0.00     0.132 A 
HETATM   31  C15 UNL     1      -5.550  -0.359   0.587  1.00  0.00     0.102 A 
HETATM   32  C16 UNL     1      -4.187  -0.424   0.785  1.00  0.00     0.046 A 
BRANCH  29  33
HETATM   33  O6  UNL     1      -5.740   2.408  -1.802  1.00  0.00    -0.358 OA
ATOM     34  H6  UNL     1      -6.677   2.464  -1.948  1.00  0.00     0.217 HD
ENDBRANCH  29  33
BRANCH  30  35
HETATM   35  O7  UNL     1      -7.466   0.606  -0.441  1.00  0.00    -0.356 OA
ATOM     36  H7  UNL     1      -8.059   0.012   0.005  1.00  0.00     0.218 HD
ENDBRANCH  30  35
BRANCH  31  37
HETATM   37  O8  UNL     1      -6.423  -1.238   1.248  1.00  0.00    -0.358 OA
ATOM     38  H8  UNL     1      -6.040  -1.878   1.837  1.00  0.00     0.217 HD
ENDBRANCH  31  37
ENDBRANCH  26  27
ENDBRANCH  25  26
BRANCH  25  39
HETATM   39  C17 UNL     1      -1.452  -2.006  -0.472  1.00  0.00     0.283 C 
BRANCH  39  40
HETATM   40  O9  UNL     1      -1.364  -2.551   0.792  1.00  0.00    -0.369 OA
ATOM     41  H9  UNL     1      -1.598  -3.471   0.816  1.00  0.00     0.212 HD
ENDBRANCH  39  40
BRANCH  39  42
HETATM   42  O10 UNL     1      -2.656  -2.235  -1.123  1.00  0.00    -0.369 OA
ATOM     43  H10 UNL     1      -2.890  -3.155  -1.099  1.00  0.00     0.212 HD
ENDBRANCH  39  42
ENDBRANCH  25  39
ENDBRANCH  24  25
ENDBRANCH   1  24
TORSDOF 13
