REMARK  9 active torsions:
REMARK  status: ('A' for Active; 'I' for Inactive)
REMARK    1  A    between atoms: N1_2  and  C2_4 
REMARK    2  A    between atoms: C4_14  and  C5_15 
REMARK    3  A    between atoms: C5_15  and  O1_16 
REMARK    4  A    between atoms: C5_15  and  O2_18 
REMARK    5  A    between atoms: O2_18  and  N6_19 
REMARK    6  A    between atoms: C6_22  and  N7_23 
REMARK    7  A    between atoms: N7_23  and  C7_25 
REMARK    8  A    between atoms: C7_25  and  C8_26 
REMARK    9  A    between atoms: C8_26  and  C9_27 
ROOT
HETATM    1  C2  UNL     1      -2.428  -1.685  -1.543  1.00  0.00     0.147 A 
HETATM    2  N2  UNL     1      -3.474  -1.519  -2.370  1.00  0.00    -0.269 N 
ATOM      3  H2  UNL     1      -4.068  -2.327  -2.558  1.00  0.00     0.190 HD
HETATM    4  N3  UNL     1      -3.781  -0.375  -2.955  1.00  0.00    -0.239 N 
ATOM      5  H3  UNL     1      -4.593  -0.330  -3.571  1.00  0.00     0.208 HD
HETATM    6  N4  UNL     1      -3.057   0.712  -2.758  1.00  0.00    -0.269 N 
ATOM      7  H4  UNL     1      -3.292   1.596  -3.209  1.00  0.00     0.190 HD
HETATM    8  C3  UNL     1      -1.998   0.605  -1.939  1.00  0.00     0.152 A 
HETATM    9  N5  UNL     1      -1.249   1.706  -1.728  1.00  0.00    -0.336 N 
ATOM     10  H5  UNL     1      -1.490   2.587  -2.182  1.00  0.00     0.167 HD
HETATM   11  C4  UNL     1      -0.182   1.633  -0.915  1.00  0.00     0.112 A 
HETATM   12  C6  UNL     1       0.148   0.453  -0.301  1.00  0.00     0.130 A 
HETATM   13  N8  UNL     1      -0.580  -0.677  -0.488  1.00  0.00    -0.335 N 
ATOM     14  H8  UNL     1      -0.336  -1.556  -0.033  1.00  0.00     0.168 HD
HETATM   15  C10 UNL     1      -1.646  -0.572  -1.311  1.00  0.00     0.125 A 
ENDROOT
BRANCH  11  16
HETATM   16  C5  UNL     1       0.634   2.879  -0.698  1.00  0.00     0.340 C 
BRANCH  16  17
HETATM   17  O1  UNL     1       1.991   2.503  -0.801  1.00  0.00    -0.364 OA
ATOM     18  H1  UNL     1       2.506   3.289  -0.664  1.00  0.00     0.213 HD
ENDBRANCH  16  17
BRANCH  16  19
HETATM   19  O2  UNL     1       0.324   3.830  -1.654  1.00  0.00    -0.248 OA
BRANCH  19  20
HETATM   20  N6  UNL     1      -0.186   4.909  -1.053  1.00  0.00    -0.308 N 
ATOM     21  H62 UNL     1      -0.320   5.002  -0.046  1.00  0.00     0.184 HD
ATOM     22  H61 UNL     1      -0.415   5.610  -1.758  1.00  0.00     0.184 HD
ENDBRANCH  19  20
ENDBRANCH  16  19
ENDBRANCH  11  16
BRANCH  12  23
HETATM   23  N7  UNL     1       1.177   0.412   0.474  1.00  0.00    -0.374 N 
ATOM     24  H7  UNL     1       1.721   1.264   0.610  1.00  0.00     0.161 HD
BRANCH  23  25
HETATM   25  C7  UNL     1       1.592  -0.794   1.159  1.00  0.00     0.122 C 
BRANCH  25  26
HETATM   26  C8  UNL     1       2.642  -0.469   2.190  1.00  0.00     0.030 C 
BRANCH  26  27
HETATM   27  C9  UNL     1       3.054  -1.763   2.889  1.00  0.00     0.088 C 
HETATM   28  S1  UNL     1       4.328  -1.378   4.143  1.00  0.00    -0.098 SA
ENDBRANCH  26  27
ENDBRANCH  25  26
ENDBRANCH  23  25
ENDBRANCH  12  23
BRANCH   1  29
HETATM   29  N1  UNL     1      -2.153  -2.831  -0.981  1.00  0.00    -0.378 N 
HETATM   30  C1  UNL     1      -3.018  -3.958  -1.271  1.00  0.00     0.148 C 
ATOM     31  H1  UNL     1      -1.353  -2.931  -0.356  1.00  0.00     0.160 HD
ENDBRANCH   1  29
TORSDOF 9
