REMARK  5 active torsions:
REMARK  status: ('A' for Active; 'I' for Inactive)
REMARK       I    between atoms: C2_2  and  N1_4 
REMARK    1  A    between atoms: N1_4  and  C3_6 
REMARK    2  A    between atoms: C4_7  and  C5_8 
REMARK    3  A    between atoms: N5_15  and  C6_16 
REMARK    4  A    between atoms: C7_19  and  N7_20 
REMARK    5  A    between atoms: C9_27  and  N9_28 
ROOT
HETATM    1  C3  UNL     1       0.933   0.712   0.413  1.00  0.00     0.167 A 
HETATM    2  C4  UNL     1       1.640   1.830   0.713  1.00  0.00     0.161 A 
HETATM    3  N3  UNL     1       0.690   2.757   1.140  1.00  0.00    -0.278 N 
ATOM      4  H3  UNL     1       0.881   3.713   1.439  1.00  0.00     0.189 HD
HETATM    5  N4  UNL     1      -0.470   2.200   1.092  1.00  0.00    -0.232 N 
ATOM      6  H4  UNL     1      -1.334   2.672   1.358  1.00  0.00     0.209 HD
HETATM    7  N5  UNL     1      -0.421   0.970   0.668  1.00  0.00    -0.203 N 
ENDROOT
BRANCH   7   8
HETATM    8  C6  UNL     1      -1.466   0.037   0.473  1.00  0.00     0.184 A 
HETATM    9  N6  UNL     1      -1.571  -1.102   1.168  1.00  0.00    -0.172 N 
HETATM   10  C7  UNL     1      -2.570  -1.977   0.975  1.00  0.00     0.680 A 
ATOM     11  H6  UNL     1      -0.864  -1.313   1.872  1.00  0.00     0.186 HD
HETATM   12  N8  UNL     1      -3.523  -1.734   0.054  1.00  0.00    -0.154 N 
HETATM   13  C8  UNL     1      -3.476  -0.607  -0.680  1.00  0.00     0.296 A 
ATOM     14  H8  UNL     1      -4.279  -2.404  -0.087  1.00  0.00     0.187 HD
HETATM   15  O3  UNL     1      -4.374  -0.370  -1.553  1.00  0.00    -0.265 OA
HETATM   16  C9  UNL     1      -2.448   0.290  -0.478  1.00  0.00     0.217 A 
BRANCH  10  17
HETATM   17  N7  UNL     1      -2.587  -3.057   1.701  1.00  0.00    -0.234 N 
ATOM     18  H72 UNL     1      -1.866  -3.241   2.398  1.00  0.00     0.174 HD
ATOM     19  H71 UNL     1      -3.346  -3.722   1.554  1.00  0.00     0.174 HD
ENDBRANCH  10  17
BRANCH  16  20
HETATM   20  N9  UNL     1      -2.446   1.460  -1.269  1.00  0.00    -0.106 N 
HETATM   21  O4  UNL     1      -1.629   1.576  -2.185  1.00  0.00    -0.531 OA
HETATM   22  O5  UNL     1      -3.340   2.455  -1.019  1.00  0.00    -0.531 OA
ENDBRANCH  16  20
ENDBRANCH   7   8
BRANCH   1  23
HETATM   23  N1  UNL     1       1.299  -0.467  -0.241  1.00  0.00    -0.310 N 
HETATM   24  C2  UNL     1       2.290  -0.771  -1.156  1.00  0.00     0.219 C 
HETATM   25  C1  UNL     1       2.552  -2.232  -1.539  1.00  0.00     0.117 C 
HETATM   26  O1  UNL     1       3.028   0.056  -1.727  1.00  0.00    -0.274 OA
ATOM     27  H1  UNL     1       0.716  -1.267   0.007  1.00  0.00     0.170 HD
ENDBRANCH   1  23
BRANCH   2  28
HETATM   28  C5  UNL     1       3.054   2.098   0.835  1.00  0.00     0.286 C 
HETATM   29  N2  UNL     1       3.493   3.457   1.026  1.00  0.00    -0.056 NA
HETATM   30  O2  UNL     1       3.924   1.230   0.784  1.00  0.00    -0.269 OA
ENDBRANCH   2  28
TORSDOF 5
