REMARK  6 active torsions:
REMARK  status: ('A' for Active; 'I' for Inactive)
REMARK    1  A    between atoms: C3_3  and  C4_4 
REMARK    2  A    between atoms: N1_7  and  C7_8 
REMARK    3  A    between atoms: C7_8  and  C8_9 
REMARK    4  A    between atoms: C8_9  and  C9_10 
REMARK    5  A    between atoms: C9_10  and  N3_14 
REMARK    6  A    between atoms: N3_14  and  N4_16 
ROOT
HETATM    1  C1  UNL     1       5.696   1.123   0.713  1.00  0.00     0.012 C 
HETATM    2  C2  UNL     1       4.978   0.505  -0.046  1.00  0.00    -0.113 C 
HETATM    3  C3  UNL     1       4.102  -0.226  -0.969  1.00  0.00     0.131 C 
ENDROOT
BRANCH   3   4
HETATM    4  C4  UNL     1       2.695  -0.186  -0.490  1.00  0.00    -0.044 A 
HETATM    5  C5  UNL     1       2.166  -1.141   0.354  1.00  0.00     0.025 A 
HETATM    6  C6  UNL     1       0.860  -1.087   0.788  1.00  0.00     0.091 A 
HETATM    7  N1  UNL     1       0.079  -0.070   0.373  1.00  0.00    -0.366 N 
HETATM    8  C10 UNL     1       0.550   0.892  -0.454  1.00  0.00     0.091 A 
HETATM    9  C11 UNL     1       1.859   0.834  -0.886  1.00  0.00     0.025 A 
BRANCH   7  10
HETATM   10  C7  UNL     1      -1.283   0.015   0.806  1.00  0.00     0.135 C 
BRANCH  10  11
HETATM   11  C8  UNL     1      -2.191  -0.721  -0.155  1.00  0.00     0.097 C 
BRANCH  11  12
HETATM   12  C9  UNL     1      -3.600  -0.666   0.243  1.00  0.00     0.090 C 
HETATM   13  N2  UNL     1      -4.245  -1.754   0.483  1.00  0.00    -0.388 N 
ATOM     14  H22 UNL     1      -3.719  -2.622   0.379  1.00  0.00     0.157 HD
ATOM     15  H21 UNL     1      -5.226  -1.716   0.760  1.00  0.00     0.157 HD
BRANCH  12  16
HETATM   16  N3  UNL     1      -4.334   0.544   0.388  1.00  0.00    -0.296 N 
ATOM     17  H3  UNL     1      -4.938   0.638   1.205  1.00  0.00     0.187 HD
BRANCH  16  18
HETATM   18  N4  UNL     1      -4.286   1.606  -0.504  1.00  0.00    -0.344 N 
ATOM     19  H42 UNL     1      -3.677   1.495  -1.315  1.00  0.00     0.176 HD
ATOM     20  H41 UNL     1      -4.812   2.474  -0.400  1.00  0.00     0.176 HD
ENDBRANCH  16  18
ENDBRANCH  12  16
ENDBRANCH  11  12
ENDBRANCH  10  11
ENDBRANCH   7  10
ENDBRANCH   3   4
TORSDOF 6
