REMARK  6 active torsions:
REMARK  status: ('A' for Active; 'I' for Inactive)
REMARK    1  A    between atoms: C2_2  and  N1_3 
REMARK    2  A    between atoms: C4_5  and  C5_6 
REMARK    3  A    between atoms: C6_7  and  C7_8 
REMARK    4  A    between atoms: C8_9  and  C9_10 
REMARK    5  A    between atoms: C9_10  and  N2_11 
REMARK    6  A    between atoms: N2_11  and  C10_14 
ROOT
HETATM    1  C5  UNL     1       1.723  -0.412  -0.104  1.00  0.00    -0.032 C 
HETATM    2  C6  UNL     1       0.540  -0.172  -0.090  1.00  0.00    -0.008 C 
ENDROOT
BRANCH   2   3
HETATM    3  C7  UNL     1      -0.846   0.095  -0.046  1.00  0.00    -0.013 C 
HETATM    4  C8  UNL     1      -2.036   0.324   0.018  1.00  0.00    -0.065 C 
BRANCH   4   5
HETATM    5  C9  UNL     1      -3.466   0.599   0.128  1.00  0.00     0.326 C 
BRANCH   5   6
HETATM    6  N2  UNL     1      -4.217  -0.438  -0.547  1.00  0.00    -0.062 N 
ATOM      7  H22 UNL     1      -3.937  -0.526  -1.524  1.00  0.00     0.278 HD
ATOM      8  H21 UNL     1      -3.947  -1.366  -0.221  1.00  0.00     0.278 HD
BRANCH   6   9
HETATM    9  C10 UNL     1      -5.649  -0.226  -0.422  1.00  0.00     0.179 C 
HETATM   10  C11 UNL     1      -6.079   1.048  -1.069  1.00  0.00     0.039 C 
HETATM   11  C12 UNL     1      -6.076  -0.207   1.037  1.00  0.00     0.039 C 
ENDBRANCH   6   9
ENDBRANCH   5   6
ENDBRANCH   4   5
ENDBRANCH   2   3
BRANCH   1  12
HETATM   12  C4  UNL     1       3.147  -0.715  -0.093  1.00  0.00     0.117 A 
HETATM   13  C3  UNL     1       4.150   0.009   0.504  1.00  0.00     0.147 A 
HETATM   14  N1  UNL     1       5.312  -0.630   0.276  1.00  0.00    -0.284 N 
HETATM   15  N4  UNL     1       5.012  -1.712  -0.441  1.00  0.00    -0.020 NA
HETATM   16  N3  UNL     1       3.710  -1.768  -0.665  1.00  0.00    -0.275 N 
ATOM     17  H3  UNL     1       3.224  -2.496  -1.188  1.00  0.00     0.185 HD
BRANCH  14  18
HETATM   18  C2  UNL     1       6.627  -0.219   0.729  1.00  0.00     0.141 C 
HETATM   19  C1  UNL     1       7.233   0.667  -0.333  1.00  0.00     0.028 C 
ENDBRANCH  14  18
ENDBRANCH   1  12
TORSDOF 6
