REMARK  2 active torsions:
REMARK  status: ('A' for Active; 'I' for Inactive)
REMARK    1  A    between atoms: C3_6  and  C4_7 
REMARK    2  A    between atoms: C4_7  and  N2_8 
ROOT
HETATM    1  N2  UNL     1       0.900   0.265   0.009  1.00  0.00    -0.329 N 
HETATM    2  C5  UNL     1       1.398  -1.015  -0.456  1.00  0.00     0.149 C 
HETATM    3  C6  UNL     1       2.867  -0.994  -0.732  1.00  0.00     0.159 C 
HETATM    4  N3  UNL     1       3.646  -0.151   0.106  1.00  0.00    -0.331 N 
ATOM      5  H3  UNL     1       4.633   0.023  -0.082  1.00  0.00     0.180 HD
HETATM    6  N4  UNL     1       3.008   0.419   1.181  1.00  0.00    -0.256 N 
ATOM      7  H4  UNL     1       3.482   0.495   2.081  1.00  0.00     0.191 HD
HETATM    8  C7  UNL     1       1.673   0.905   1.025  1.00  0.00     0.336 C 
HETATM    9  O2  UNL     1       1.203   1.828   1.725  1.00  0.00    -0.245 OA
ENDROOT
BRANCH   1  10
HETATM   10  C4  UNL     1      -0.300   0.885  -0.500  1.00  0.00     0.154 C 
BRANCH  10  11
HETATM   11  C3  UNL     1      -1.508   0.476   0.281  1.00  0.00     0.122 C 
HETATM   12  C2  UNL     1      -2.725   1.172  -0.320  1.00  0.00     0.151 C 
HETATM   13  N1  UNL     1      -3.800   0.404   0.281  1.00  0.00    -0.341 N 
HETATM   14  C1  UNL     1      -3.298  -0.927   0.366  1.00  0.00     0.316 C 
ATOM     15  H1  UNL     1      -4.715   0.743   0.578  1.00  0.00     0.164 HD
HETATM   16  O1  UNL     1      -3.968  -1.973   0.601  1.00  0.00    -0.247 OA
HETATM   17  N5  UNL     1      -1.872  -0.898   0.137  1.00  0.00    -0.335 N 
ATOM     18  H5  UNL     1      -1.260  -1.685  -0.080  1.00  0.00     0.164 HD
ENDBRANCH  10  11
ENDBRANCH   1  10
TORSDOF 2
