REMARK  3 active torsions:
REMARK  status: ('A' for Active; 'I' for Inactive)
REMARK    1  A    between atoms: C2_2  and  N1_3 
REMARK       I    between atoms: N1_3  and  C3_5 
REMARK       I    between atoms: C3_5  and  N2_7 
REMARK    2  A    between atoms: N2_7  and  C4_9 
REMARK    3  A    between atoms: N3_10  and  C5_12 
ROOT
HETATM    1  C4  UNL     1       0.392  -1.669   0.749  1.00  0.00     0.181 C 
HETATM    2  N3  UNL     1      -0.823  -1.844   0.366  1.00  0.00    -0.359 N 
ATOM      3  H3  UNL     1      -1.236  -2.776   0.336  1.00  0.00     0.162 HD
ENDROOT
BRANCH   2   4
HETATM    4  C5  UNL     1      -1.584  -0.682  -0.019  1.00  0.00     0.285 C 
HETATM    5  C6  UNL     1      -2.371  -0.102   1.157  1.00  0.00     0.061 C 
HETATM    6  C7  UNL     1      -3.287   0.843   0.427  1.00  0.00     0.022 A 
HETATM    7  C8  UNL     1      -4.604   0.406  -0.086  1.00  0.00     0.040 A 
HETATM    8  C9  UNL     1      -3.429   0.203  -0.965  1.00  0.00     0.193 A 
HETATM    9  N4  UNL     1      -2.689  -1.029  -0.909  1.00  0.00    -0.050 N 
ATOM     10  H42 UNL     1      -2.411  -1.407  -1.815  1.00  0.00     0.280 HD
ATOM     11  H41 UNL     1      -3.231  -1.845  -0.626  1.00  0.00     0.280 HD
ENDBRANCH   2   4
BRANCH   1  12
HETATM   12  N2  UNL     1       0.997  -0.393   0.803  1.00  0.00    -0.305 N 
HETATM   13  C3  UNL     1       2.150  -0.150   0.021  1.00  0.00     0.321 C 
HETATM   14  N1  UNL     1       2.762   1.131   0.072  1.00  0.00    -0.343 N 
HETATM   15  O1  UNL     1       2.636  -1.058  -0.718  1.00  0.00    -0.247 OA
ATOM     16  H1  UNL     1       2.370   1.861   0.667  1.00  0.00     0.164 HD
ATOM     17  H2  UNL     1       0.609   0.340   1.396  1.00  0.00     0.171 HD
BRANCH  14  18
HETATM   18  C2  UNL     1       3.955   1.401  -0.730  1.00  0.00     0.120 C 
HETATM   19  C1  UNL     1       5.019   0.439  -0.298  1.00  0.00     0.026 C 
ENDBRANCH  14  18
ENDBRANCH   1  12
TORSDOF 3
