REMARK  9 active torsions:
REMARK  status: ('A' for Active; 'I' for Inactive)
REMARK    1  A    between atoms: C2_2  and  C5_5 
REMARK    2  A    between atoms: C5_5  and  C6_6 
REMARK    3  A    between atoms: C7_7  and  C8_8 
REMARK    4  A    between atoms: C8_8  and  N1_9 
REMARK       I    between atoms: N1_9  and  C9_11 
REMARK    5  A    between atoms: C9_11  and  C10_13 
REMARK    6  A    between atoms: C10_13  and  C11_14 
REMARK    7  A    between atoms: C11_14  and  C12_15 
REMARK    8  A    between atoms: C12_15  and  C14_18 
REMARK       I    between atoms: C14_18  and  N3_20 
REMARK    9  A    between atoms: N3_20  and  C15_22 
ROOT
HETATM    1  C12 UNL     1       1.834   0.442  -0.921  1.00  0.00     0.185 C 
HETATM    2  C13 UNL     1       0.841  -0.092  -1.784  1.00  0.00     0.073 C 
HETATM    3  N2  UNL     1       0.064  -0.539  -2.523  1.00  0.00    -0.196 NA
ENDROOT
BRANCH   1   4
HETATM    4  C11 UNL     1       1.455   0.848   0.440  1.00  0.00     0.038 C 
BRANCH   4   5
HETATM    5  C10 UNL     1       0.454   1.889   0.678  1.00  0.00     0.104 C 
BRANCH   5   6
HETATM    6  C9  UNL     1      -0.955   1.644   0.345  1.00  0.00     0.217 C 
HETATM    7  N1  UNL     1      -1.840   2.714   0.121  1.00  0.00    -0.358 N 
ATOM      8  H1  UNL     1      -1.426   3.642   0.211  1.00  0.00     0.162 HD
HETATM    9  O1  UNL     1      -1.358   0.494   0.261  1.00  0.00    -0.274 OA
BRANCH   7  10
HETATM   10  C8  UNL     1      -3.225   2.701  -0.212  1.00  0.00     0.149 C 
BRANCH  10  11
HETATM   11  C7  UNL     1      -4.030   2.014   0.811  1.00  0.00    -0.011 C 
HETATM   12  C6  UNL     1      -4.930   1.079   0.689  1.00  0.00    -0.028 C 
BRANCH  12  13
HETATM   13  C5  UNL     1      -5.355   0.484  -0.587  1.00  0.00     0.035 C 
BRANCH  13  14
HETATM   14  C2  UNL     1      -5.273  -0.992  -0.672  1.00  0.00    -0.048 C 
HETATM   15  C1  UNL     1      -6.154  -1.642   0.404  1.00  0.00     0.014 C 
HETATM   16  C3  UNL     1      -3.926  -1.591  -0.537  1.00  0.00     0.014 C 
HETATM   17  C4  UNL     1      -5.851  -1.372  -2.057  1.00  0.00     0.014 C 
ENDBRANCH  13  14
ENDBRANCH  12  13
ENDBRANCH  10  11
ENDBRANCH   7  10
ENDBRANCH   5   6
ENDBRANCH   4   5
ENDBRANCH   1   4
BRANCH   1  18
HETATM   18  C14 UNL     1       2.999  -0.524  -0.792  1.00  0.00     0.235 C 
HETATM   19  O2  UNL     1       2.899  -1.694  -1.199  1.00  0.00    -0.272 OA
HETATM   20  N3  UNL     1       4.185  -0.066  -0.205  1.00  0.00    -0.354 N 
ATOM     21  H3  UNL     1       4.220   0.902   0.114  1.00  0.00     0.162 HD
BRANCH  20  22
HETATM   22  C15 UNL     1       5.367  -0.887  -0.023  1.00  0.00     0.099 C 
HETATM   23  C16 UNL     1       5.711  -0.865   1.439  1.00  0.00     0.041 C 
HETATM   24  C17 UNL     1       7.044  -1.553   1.599  1.00  0.00     0.142 C 
HETATM   25  S1  UNL     1       7.906  -0.994   0.123  1.00  0.00     0.146 S 
HETATM   26  O3  UNL     1       8.432  -2.191  -0.572  1.00  0.00    -0.228 OA
HETATM   27  O4  UNL     1       8.940   0.021   0.460  1.00  0.00    -0.228 OA
HETATM   28  C18 UNL     1       6.532  -0.263  -0.763  1.00  0.00     0.165 C 
ENDBRANCH  20  22
ENDBRANCH   1  18
TORSDOF 9
