REMARK  1 active torsions:
REMARK  status: ('A' for Active; 'I' for Inactive)
REMARK    1  A    between atoms: C2_2  and  C3_3 
ROOT
HETATM    1  C3  UNL     1      -0.482   0.030   0.705  1.00  0.00     0.151 C 
HETATM    2  N1  UNL     1      -0.003  -1.043  -0.131  1.00  0.00    -0.372 N 
ATOM      3  H1  UNL     1      -0.559  -1.458  -0.879  1.00  0.00     0.161 HD
HETATM    4  C4  UNL     1       1.313  -1.468   0.183  1.00  0.00     0.178 C 
HETATM    5  N2  UNL     1       2.307  -0.421   0.175  1.00  0.00    -0.334 N 
ATOM      6  H2  UNL     1       3.262  -0.659   0.443  1.00  0.00     0.168 HD
HETATM    7  C5  UNL     1       2.028   0.914  -0.184  1.00  0.00     0.140 C 
HETATM    8  N3  UNL     1       2.889   1.654  -0.735  1.00  0.00    -0.380 N 
ATOM      9  H31 UNL     1       2.687   2.620  -0.995  1.00  0.00     0.158 HD
ATOM     10  H32 UNL     1       3.824   1.301  -0.940  1.00  0.00     0.158 HD
HETATM   11  S1  UNL     1       0.403   1.527   0.173  1.00  0.00    -0.069 SA
ENDROOT
BRANCH   1  12
HETATM   12  C2  UNL     1      -1.960   0.235   0.612  1.00  0.00     0.032 C 
HETATM   13  C1  UNL     1      -2.385   0.572  -0.798  1.00  0.00     0.008 C 
ENDBRANCH   1  12
TORSDOF 1
