REMARK  1 active torsions:
REMARK  status: ('A' for Active; 'I' for Inactive)
REMARK    1  A    between atoms: C3_3  and  C4_4 
ROOT
HETATM    1  C4  UNL     1      -1.000   0.135   0.808  1.00  0.00     0.217 C 
HETATM    2  C5  UNL     1      -1.479   0.986  -0.312  1.00  0.00     0.267 C 
HETATM    3  N1  UNL     1      -2.816   0.526  -0.613  1.00  0.00    -0.049 N 
ATOM      4  H11 UNL     1      -3.048   0.585  -1.605  1.00  0.00     0.279 HD
ATOM      5  H12 UNL     1      -3.543   1.155  -0.273  1.00  0.00     0.279 HD
HETATM    6  C6  UNL     1      -2.927  -0.813  -0.081  1.00  0.00     0.463 C 
HETATM    7  N2  UNL     1      -1.927  -0.956   0.934  1.00  0.00    -0.045 N 
ATOM      8  H21 UNL     1      -2.325  -1.028   1.871  1.00  0.00     0.279 HD
ATOM      9  H22 UNL     1      -1.468  -1.867   0.909  1.00  0.00     0.279 HD
ENDROOT
BRANCH   1  10
HETATM   10  C3  UNL     1       0.430  -0.309   0.686  1.00  0.00     0.021 C 
HETATM   11  C2  UNL     1       0.728  -1.113  -0.526  1.00  0.00     0.026 C 
HETATM   12  C1  UNL     1       1.693  -0.509  -1.478  1.00  0.00     0.114 C 
HETATM   13  N3  UNL     1       2.788   0.188  -0.904  1.00  0.00    -0.421 N 
HETATM   14  C8  UNL     1       2.736   0.405   0.498  1.00  0.00     0.114 C 
ATOM     15  H3  UNL     1       3.571   0.516  -1.469  1.00  0.00     0.153 HD
HETATM   16  C7  UNL     1       1.336   0.896   0.841  1.00  0.00     0.026 C 
ENDBRANCH   1  10
TORSDOF 1
