REMARK  14 active torsions:
REMARK  status: ('A' for Active; 'I' for Inactive)
REMARK    1  A    between atoms: C2_2  and  N1_3 
REMARK       I    between atoms: N1_3  and  C3_5 
REMARK    2  A    between atoms: C3_5  and  C4_7 
REMARK    3  A    between atoms: N2_9  and  C6_10 
REMARK    4  A    between atoms: C6_10  and  C7_11 
REMARK    5  A    between atoms: C8_13  and  N3_14 
REMARK    6  A    between atoms: C9_15  and  N4_16 
REMARK    7  A    between atoms: N6_21  and  C10_22 
REMARK    8  A    between atoms: C10_22  and  C11_23 
REMARK    9  A    between atoms: C10_22  and  C13_34 
REMARK       I    between atoms: C11_23  and  N7_25 
REMARK   10  A    between atoms: N7_25  and  N8_27 
REMARK       I    between atoms: N8_27  and  C12_29 
REMARK   11  A    between atoms: C13_34  and  O4_36 
REMARK   12  A    between atoms: C16_40  and  O6_41 
REMARK   13  A    between atoms: C17_43  and  O7_44 
REMARK   14  A    between atoms: C18_46  and  O8_47 
ROOT
HETATM    1  C7  UNL     1       1.599   0.116   0.669  1.00  0.00     0.175 C 
HETATM    2  O2  UNL     1       0.782  -0.209  -0.401  1.00  0.00    -0.353 OA
HETATM    3  C8  UNL     1       0.174  -1.439  -0.325  1.00  0.00     0.282 C 
HETATM    4  C16 UNL     1       0.635  -2.244   0.870  1.00  0.00     0.199 C 
HETATM    5  C17 UNL     1       2.176  -2.274   0.864  1.00  0.00     0.182 C 
HETATM    6  C18 UNL     1       2.723  -0.869   0.899  1.00  0.00     0.180 C 
ENDROOT
BRANCH   3   7
HETATM    7  N3  UNL     1      -1.249  -1.399  -0.498  1.00  0.00    -0.100 N 
HETATM    8  C9  UNL     1      -1.875  -1.076  -1.632  1.00  0.00     0.699 A 
HETATM    9  N5  UNL     1      -3.190  -1.154  -1.395  1.00  0.00    -0.125 N 
HETATM   10  N6  UNL     1      -3.426  -1.517  -0.150  1.00  0.00    -0.211 N 
ATOM     11  H5  UNL     1      -3.914  -0.958  -2.086  1.00  0.00     0.206 HD
HETATM   12  C15 UNL     1      -2.188  -1.669   0.412  1.00  0.00     0.361 A 
HETATM   13  O5  UNL     1      -2.077  -2.018   1.616  1.00  0.00    -0.244 OA
BRANCH   8  14
HETATM   14  N4  UNL     1      -1.321  -0.737  -2.781  1.00  0.00    -0.233 N 
ATOM     15  H42 UNL     1      -0.319  -0.678  -2.962  1.00  0.00     0.174 HD
ATOM     16  H41 UNL     1      -1.799  -0.490  -3.647  1.00  0.00     0.174 HD
ENDBRANCH   8  14
BRANCH  10  17
HETATM   17  C10 UNL     1      -4.726  -1.714   0.520  1.00  0.00     0.235 C 
BRANCH  17  18
HETATM   18  C11 UNL     1      -4.919  -0.741   1.590  1.00  0.00     0.263 C 
HETATM   19  O3  UNL     1      -4.884  -1.054   2.798  1.00  0.00    -0.269 OA
HETATM   20  N7  UNL     1      -5.152   0.613   1.247  1.00  0.00    -0.266 N 
ATOM     21  H7  UNL     1      -5.190   0.875   0.262  1.00  0.00     0.190 HD
BRANCH  20  22
HETATM   22  N8  UNL     1      -5.334   1.615   2.234  1.00  0.00    -0.271 N 
HETATM   23  C12 UNL     1      -5.753   2.921   1.876  1.00  0.00     0.200 C 
HETATM   24  N9  UNL     1      -5.056   3.941   2.283  1.00  0.00    -0.372 N 
HETATM   25  N10 UNL     1      -6.902   3.177   1.092  1.00  0.00    -0.062 NA
ATOM     26  H92 UNL     1      -4.227   3.756   2.848  1.00  0.00     0.158 HD
ATOM     27  H91 UNL     1      -5.357   4.881   2.025  1.00  0.00     0.158 HD
ATOM     28  H8  UNL     1      -5.161   1.393   3.214  1.00  0.00     0.189 HD
ENDBRANCH  20  22
ENDBRANCH  17  18
BRANCH  17  29
HETATM   29  C13 UNL     1      -4.824  -3.159   0.908  1.00  0.00     0.148 C 
HETATM   30  C14 UNL     1      -6.155  -3.421   1.589  1.00  0.00     0.042 C 
BRANCH  29  31
HETATM   31  O4  UNL     1      -4.868  -3.887  -0.310  1.00  0.00    -0.393 OA
ATOM     32  H4  UNL     1      -4.930  -4.803  -0.064  1.00  0.00     0.210 HD
ENDBRANCH  29  31
ENDBRANCH  17  29
ENDBRANCH  10  17
ENDBRANCH   3   7
BRANCH   4  33
HETATM   33  O6  UNL     1       0.235  -3.576   0.780  1.00  0.00    -0.388 OA
ATOM     34  H6  UNL     1       0.524  -4.082   1.530  1.00  0.00     0.210 HD
ENDBRANCH   4  33
BRANCH   1  35
HETATM   35  C6  UNL     1       2.048   1.537   0.592  1.00  0.00     0.184 C 
BRANCH  35  36
HETATM   36  N2  UNL     1       2.806   1.894  -0.577  1.00  0.00    -0.284 N 
HETATM   37  C5  UNL     1       4.152   1.840  -0.691  1.00  0.00     0.148 A 
HETATM   38  C4  UNL     1       4.517   2.269  -1.954  1.00  0.00     0.134 A 
HETATM   39  N12 UNL     1       3.348   2.574  -2.576  1.00  0.00    -0.280 N 
HETATM   40  N11 UNL     1       2.358   2.341  -1.734  1.00  0.00    -0.240 N 
ATOM     41  H12 UNL     1       3.252   2.923  -3.530  1.00  0.00     0.189 HD
ATOM     42  H11 UNL     1       1.372   2.488  -1.951  1.00  0.00     0.208 HD
BRANCH  38  43
HETATM   43  C3  UNL     1       5.854   2.390  -2.523  1.00  0.00     0.271 C 
HETATM   44  N1  UNL     1       6.988   2.039  -1.752  1.00  0.00    -0.356 N 
ATOM     45  H1  UNL     1       6.858   1.701  -0.798  1.00  0.00     0.162 HD
HETATM   46  O1  UNL     1       6.024   2.805  -3.696  1.00  0.00    -0.266 OA
BRANCH  44  47
HETATM   47  C2  UNL     1       8.334   2.150  -2.290  1.00  0.00     0.118 C 
HETATM   48  C1  UNL     1       8.658   3.566  -2.689  1.00  0.00     0.026 C 
ENDBRANCH  44  47
ENDBRANCH  38  43
ENDBRANCH  35  36
ENDBRANCH   1  35
BRANCH   5  49
HETATM   49  O7  UNL     1       2.581  -2.970   1.997  1.00  0.00    -0.390 OA
ATOM     50  H7  UNL     1       3.531  -2.988   1.993  1.00  0.00     0.210 HD
ENDBRANCH   5  49
BRANCH   6  51
HETATM   51  O8  UNL     1       3.262  -0.641   2.176  1.00  0.00    -0.390 OA
ATOM     52  H8  UNL     1       3.968  -1.260   2.320  1.00  0.00     0.210 HD
ENDBRANCH   6  51
TORSDOF 14
