REMARK  11 active torsions:
REMARK  status: ('A' for Active; 'I' for Inactive)
REMARK    1  A    between atoms: C3_3  and  C4_4 
REMARK    2  A    between atoms: C4_4  and  N1_5 
REMARK    3  A    between atoms: C4_4  and  C9_23 
REMARK       I    between atoms: N1_5  and  C5_7 
REMARK    4  A    between atoms: C5_7  and  C6_9 
REMARK    5  A    between atoms: C6_9  and  O2_10 
REMARK    6  A    between atoms: C6_9  and  C7_12 
REMARK    7  A    between atoms: C7_12  and  N2_13 
REMARK    8  A    between atoms: C8_19  and  N6_20 
REMARK    9  A    between atoms: N9_37  and  N10_38 
REMARK   10  A    between atoms: N10_38  and  C19_40 
REMARK   11  A    between atoms: N12_45  and  O3_46 
ROOT
HETATM    1  C4  UNL     1      -1.110   0.772  -0.207  1.00  0.00     0.186 C 
ENDROOT
BRANCH   1   2
HETATM    2  C3  UNL     1       0.136  -0.003  -0.438  1.00  0.00     0.058 C 
HETATM    3  C2  UNL     1       1.036  -0.242   0.527  1.00  0.00     0.050 C 
HETATM    4  C1  UNL     1       0.771   0.288   1.862  1.00  0.00     0.072 C 
HETATM    5  N9  UNL     1       2.213  -0.982   0.301  1.00  0.00    -0.279 N 
HETATM    6  C18 UNL     1       2.809  -0.998  -1.035  1.00  0.00     0.169 C 
HETATM    7  C17 UNL     1       1.810  -0.795  -2.137  1.00  0.00     0.141 C 
HETATM    8  N8  UNL     1       0.469  -0.550  -1.710  1.00  0.00    -0.388 N 
ATOM      9  H8  UNL     1      -0.291  -0.779  -2.351  1.00  0.00     0.159 HD
BRANCH   5  10
HETATM   10  N10 UNL     1       2.840  -1.710   1.281  1.00  0.00    -0.128 N 
ATOM     11  H10 UNL     1       2.394  -2.598   1.510  1.00  0.00     0.206 HD
BRANCH  10  12
HETATM   12  C19 UNL     1       3.994  -1.424   2.014  1.00  0.00     0.714 C 
HETATM   13  N11 UNL     1       4.019  -1.463   3.327  1.00  0.00    -0.221 N 
HETATM   14  C20 UNL     1       5.329  -1.127   3.826  1.00  0.00     0.161 C 
ATOM     15  H11 UNL     1       3.219  -1.699   3.914  1.00  0.00     0.177 HD
HETATM   16  C21 UNL     1       6.005  -0.443   2.653  1.00  0.00     0.195 C 
HETATM   17  N12 UNL     1       5.284  -1.066   1.544  1.00  0.00    -0.088 N 
BRANCH  17  18
HETATM   18  O3  UNL     1       5.781  -1.259   0.306  1.00  0.00    -0.274 OA
ATOM     19  H3  UNL     1       6.645  -1.019  -0.009  1.00  0.00     0.245 HD
ENDBRANCH  17  18
ENDBRANCH  10  12
ENDBRANCH   5  10
ENDBRANCH   1   2
BRANCH   1  20
HETATM   20  N1  UNL     1      -2.291  -0.028  -0.507  1.00  0.00    -0.343 N 
HETATM   21  C5  UNL     1      -3.240  -0.396   0.481  1.00  0.00     0.249 C 
HETATM   22  O1  UNL     1      -3.051  -0.013   1.664  1.00  0.00    -0.271 OA
ATOM     23  H1  UNL     1      -2.441  -0.336  -1.468  1.00  0.00     0.163 HD
BRANCH  21  24
HETATM   24  C6  UNL     1      -4.435  -1.202   0.195  1.00  0.00     0.230 C 
BRANCH  24  25
HETATM   25  O2  UNL     1      -4.533  -1.556  -1.145  1.00  0.00    -0.384 OA
ATOM     26  H2  UNL     1      -5.306  -2.077  -1.330  1.00  0.00     0.210 HD
ENDBRANCH  24  25
BRANCH  24  27
HETATM   27  C7  UNL     1      -4.582  -2.401   1.094  1.00  0.00     0.207 C 
BRANCH  27  28
HETATM   28  N2  UNL     1      -3.502  -3.335   1.028  1.00  0.00    -0.103 N 
HETATM   29  N3  UNL     1      -2.408  -3.313   1.769  1.00  0.00     0.011 NA
HETATM   30  N4  UNL     1      -1.629  -4.348   1.418  1.00  0.00    -0.211 N 
HETATM   31  N5  UNL     1      -2.243  -5.008   0.462  1.00  0.00    -0.118 N 
ATOM     32  H4  UNL     1      -0.722  -4.581   1.822  1.00  0.00     0.206 HD
HETATM   33  C8  UNL     1      -3.426  -4.387   0.200  1.00  0.00     0.706 A 
ATOM     34  H5  UNL     1      -1.893  -5.844  -0.005  1.00  0.00     0.207 HD
BRANCH  33  35
HETATM   35  N6  UNL     1      -4.237  -4.820  -0.695  1.00  0.00    -0.232 N 
ATOM     36  H62 UNL     1      -5.123  -4.355  -0.891  1.00  0.00     0.174 HD
ATOM     37  H61 UNL     1      -4.179  -5.620  -1.325  1.00  0.00     0.174 HD
ENDBRANCH  33  35
ENDBRANCH  27  28
ENDBRANCH  24  27
ENDBRANCH  21  24
ENDBRANCH   1  20
BRANCH   1  38
HETATM   38  C9  UNL     1      -1.117   2.055  -0.940  1.00  0.00     0.039 A 
HETATM   39  C10 UNL     1      -0.810   3.291  -0.410  1.00  0.00     0.041 A 
HETATM   40  C11 UNL     1      -0.920   4.266  -1.377  1.00  0.00    -0.007 A 
HETATM   41  C12 UNL     1      -0.731   5.629  -1.386  1.00  0.00     0.014 A 
HETATM   42  C16 UNL     1      -1.305   3.597  -2.523  1.00  0.00     0.042 A 
HETATM   43  C13 UNL     1      -0.924   6.350  -2.544  1.00  0.00     0.001 A 
HETATM   44  C14 UNL     1      -1.306   5.677  -3.673  1.00  0.00     0.002 A 
HETATM   45  C15 UNL     1      -1.494   4.325  -3.669  1.00  0.00     0.030 A 
HETATM   46  N7  UNL     1      -1.414   2.298  -2.237  1.00  0.00    -0.357 N 
ATOM     47  H7  UNL     1      -1.686   1.581  -2.910  1.00  0.00     0.166 HD
ENDBRANCH   1  38
TORSDOF 11
