REMARK  14 active torsions:
REMARK  status: ('A' for Active; 'I' for Inactive)
REMARK    1  A    between atoms: C2_2  and  C3_3 
REMARK    2  A    between atoms: C3_3  and  C4_4 
REMARK    3  A    between atoms: C4_4  and  C5_5 
REMARK    4  A    between atoms: C5_5  and  C6_6 
REMARK    5  A    between atoms: C6_6  and  S1_7 
REMARK    6  A    between atoms: S1_7  and  C7_8 
REMARK    7  A    between atoms: C7_8  and  C8_9 
REMARK    8  A    between atoms: C9_11  and  O2_12 
REMARK    9  A    between atoms: O2_12  and  C10_13 
REMARK   10  A    between atoms: C16_21  and  O5_22 
REMARK   11  A    between atoms: C17_24  and  O6_25 
REMARK   12  A    between atoms: C18_27  and  O7_28 
REMARK   13  A    between atoms: C19_30  and  O8_31 
REMARK   14  A    between atoms: C20_33  and  O9_34 
ROOT
HETATM    1  C8  UNL     1      -0.449  -0.298   1.299  1.00  0.00     0.165 C 
HETATM    2  O1  UNL     1      -0.549   0.186   0.026  1.00  0.00    -0.350 OA
HETATM    3  C9  UNL     1       0.480  -0.233  -0.813  1.00  0.00     0.294 C 
HETATM    4  C18 UNL     1       0.317  -1.712  -1.116  1.00  0.00     0.204 C 
HETATM    5  C19 UNL     1       0.135  -2.453   0.171  1.00  0.00     0.183 C 
HETATM    6  C20 UNL     1       0.321  -1.592   1.397  1.00  0.00     0.179 C 
ENDROOT
BRANCH   3   7
HETATM    7  O2  UNL     1       1.729   0.055  -0.322  1.00  0.00    -0.326 OA
BRANCH   7   8
HETATM    8  C10 UNL     1       2.497   0.889  -1.109  1.00  0.00     0.294 C 
HETATM    9  O3  UNL     1       3.713   0.273  -1.477  1.00  0.00    -0.347 OA
HETATM   10  C11 UNL     1       4.236  -0.313  -0.326  1.00  0.00     0.190 C 
HETATM   11  C12 UNL     1       4.402   0.758   0.704  1.00  0.00     0.186 C 
HETATM   12  C13 UNL     1       5.716  -0.493  -0.270  1.00  0.00     0.083 C 
HETATM   13  O4  UNL     1       5.746   0.396   0.823  1.00  0.00    -0.368 OA
HETATM   14  C16 UNL     1       4.213   2.138   0.098  1.00  0.00     0.183 C 
HETATM   15  C17 UNL     1       2.787   2.214  -0.400  1.00  0.00     0.204 C 
HETATM   16  C14 UNL     1       6.111  -1.877   0.256  1.00  0.00     0.048 C 
HETATM   17  C15 UNL     1       6.519  -0.013  -1.432  1.00  0.00     0.048 C 
BRANCH  14  18
HETATM   18  O5  UNL     1       4.495   3.119   1.034  1.00  0.00    -0.390 OA
ATOM     19  H5  UNL     1       4.377   3.982   0.655  1.00  0.00     0.210 HD
ENDBRANCH  14  18
BRANCH  15  20
HETATM   20  O6  UNL     1       1.960   2.415   0.683  1.00  0.00    -0.388 OA
ATOM     21  H6  UNL     1       2.140   3.237   1.123  1.00  0.00     0.210 HD
ENDBRANCH  15  20
ENDBRANCH   7   8
ENDBRANCH   3   7
BRANCH   4  22
HETATM   22  O7  UNL     1      -0.789  -1.848  -1.955  1.00  0.00    -0.388 OA
ATOM     23  H7  UNL     1      -0.891  -2.773  -2.145  1.00  0.00     0.210 HD
ENDBRANCH   4  22
BRANCH   1  24
HETATM   24  C7  UNL     1      -1.781  -0.451   1.992  1.00  0.00     0.108 C 
BRANCH  24  25
HETATM   25  S1  UNL     1      -2.639   1.111   2.121  1.00  0.00    -0.166 SA
BRANCH  25  26
HETATM   26  C6  UNL     1      -3.158   1.807   0.565  1.00  0.00     0.074 C 
BRANCH  26  27
HETATM   27  C5  UNL     1      -4.218   0.999  -0.140  1.00  0.00     0.010 C 
BRANCH  27  28
HETATM   28  C4  UNL     1      -5.437   0.907   0.743  1.00  0.00     0.001 C 
BRANCH  28  29
HETATM   29  C3  UNL     1      -6.551   0.119   0.124  1.00  0.00    -0.000 C 
BRANCH  29  30
HETATM   30  C2  UNL     1      -7.024   0.733  -1.191  1.00  0.00    -0.005 C 
HETATM   31  C1  UNL     1      -8.142  -0.137  -1.723  1.00  0.00     0.005 C 
ENDBRANCH  29  30
ENDBRANCH  28  29
ENDBRANCH  27  28
ENDBRANCH  26  27
ENDBRANCH  25  26
ENDBRANCH  24  25
ENDBRANCH   1  24
BRANCH   5  32
HETATM   32  O8  UNL     1       1.047  -3.504   0.216  1.00  0.00    -0.390 OA
ATOM     33  H8  UNL     1       0.931  -3.974   1.033  1.00  0.00     0.210 HD
ENDBRANCH   5  32
BRANCH   6  34
HETATM   34  O9  UNL     1      -0.200  -2.316   2.479  1.00  0.00    -0.390 OA
ATOM     35  H9  UNL     1       0.285  -3.131   2.541  1.00  0.00     0.210 HD
ENDBRANCH   6  34
TORSDOF 14
