REMARK  14 active torsions:
REMARK  status: ('A' for Active; 'I' for Inactive)
REMARK    1  A    between atoms: C2_2  and  C3_3 
REMARK    2  A    between atoms: C3_3  and  C4_4 
REMARK    3  A    between atoms: C4_4  and  C5_5 
REMARK    4  A    between atoms: C5_5  and  C6_6 
REMARK    5  A    between atoms: C6_6  and  C7_7 
REMARK    6  A    between atoms: C11_12  and  C12_13 
REMARK    7  A    between atoms: C12_13  and  O2_16 
REMARK    8  A    between atoms: C15_19  and  O4_20 
REMARK    9  A    between atoms: O4_20  and  C16_21 
REMARK   10  A    between atoms: C17_23  and  C18_24 
REMARK   11  A    between atoms: C18_24  and  O6_25 
REMARK   12  A    between atoms: C19_27  and  O7_28 
REMARK   13  A    between atoms: C20_30  and  O8_31 
REMARK   14  A    between atoms: C21_33  and  O9_34 
ROOT
HETATM    1  C7  UNL     1       1.274   1.437   0.855  1.00  0.00    -0.003 C 
HETATM    2  C8  UNL     1       2.162   2.586   0.623  1.00  0.00     0.008 C 
HETATM    3  C9  UNL     1       1.351   3.867   0.719  1.00  0.00     0.033 C 
HETATM    4  C10 UNL     1      -0.088   3.413   0.430  1.00  0.00     0.134 C 
HETATM    5  O1  UNL     1      -0.499   3.768  -0.818  1.00  0.00    -0.352 OA
HETATM    6  C11 UNL     1      -0.899   2.803  -1.679  1.00  0.00     0.296 C 
HETATM    7  O3  UNL     1      -0.456   1.528  -1.461  1.00  0.00    -0.328 OA
HETATM    8  C15 UNL     1      -0.958   1.138  -0.196  1.00  0.00     0.273 C 
HETATM    9  C22 UNL     1      -0.139   1.974   0.789  1.00  0.00     0.074 C 
ENDROOT
BRANCH   8  10
HETATM   10  O4  UNL     1      -0.720  -0.199  -0.067  1.00  0.00    -0.328 OA
BRANCH  10  11
HETATM   11  C16 UNL     1      -1.820  -0.988   0.143  1.00  0.00     0.294 C 
HETATM   12  O5  UNL     1      -1.828  -1.578   1.429  1.00  0.00    -0.348 OA
HETATM   13  C17 UNL     1      -3.039  -2.278   1.494  1.00  0.00     0.179 C 
HETATM   14  C19 UNL     1      -2.939  -3.596   0.756  1.00  0.00     0.180 C 
HETATM   15  C20 UNL     1      -1.871  -3.410  -0.316  1.00  0.00     0.183 C 
HETATM   16  C21 UNL     1      -2.081  -2.013  -0.899  1.00  0.00     0.204 C 
BRANCH  13  17
HETATM   17  C18 UNL     1      -3.460  -2.540   2.917  1.00  0.00     0.198 C 
BRANCH  17  18
HETATM   18  O6  UNL     1      -4.668  -3.237   2.866  1.00  0.00    -0.398 OA
ATOM     19  H6  UNL     1      -4.933  -3.402   3.763  1.00  0.00     0.209 HD
ENDBRANCH  17  18
ENDBRANCH  13  17
BRANCH  14  20
HETATM   20  O7  UNL     1      -4.113  -3.956   0.134  1.00  0.00    -0.390 OA
ATOM     21  H7  UNL     1      -4.050  -4.783  -0.329  1.00  0.00     0.210 HD
ENDBRANCH  14  20
BRANCH  15  22
HETATM   22  O8  UNL     1      -1.954  -4.389  -1.280  1.00  0.00    -0.390 OA
ATOM     23  H8  UNL     1      -1.289  -4.273  -1.948  1.00  0.00     0.210 HD
ENDBRANCH  15  22
BRANCH  16  24
HETATM   24  O9  UNL     1      -3.400  -1.997  -1.378  1.00  0.00    -0.388 OA
ATOM     25  H9  UNL     1      -3.567  -2.653  -2.045  1.00  0.00     0.210 HD
ENDBRANCH  16  24
ENDBRANCH  10  11
ENDBRANCH   8  10
BRANCH   6  26
HETATM   26  C12 UNL     1      -0.583   3.279  -3.093  1.00  0.00     0.100 C 
HETATM   27  C13 UNL     1      -1.325   4.559  -3.361  1.00  0.00     0.051 C 
HETATM   28  C14 UNL     1      -0.961   2.276  -4.136  1.00  0.00     0.051 C 
BRANCH  26  29
HETATM   29  O2  UNL     1       0.806   3.503  -3.226  1.00  0.00    -0.386 OA
ATOM     30  H2  UNL     1       1.003   3.800  -4.107  1.00  0.00     0.210 HD
ENDBRANCH  26  29
ENDBRANCH   6  26
BRANCH   1  31
HETATM   31  C6  UNL     1       1.484   0.678   2.123  1.00  0.00     0.005 C 
BRANCH  31  32
HETATM   32  C5  UNL     1       2.839   0.075   2.283  1.00  0.00     0.000 C 
BRANCH  32  33
HETATM   33  C4  UNL     1       3.148  -0.912   1.167  1.00  0.00     0.000 C 
BRANCH  33  34
HETATM   34  C3  UNL     1       4.538  -1.451   1.435  1.00  0.00    -0.000 C 
BRANCH  34  35
HETATM   35  C2  UNL     1       4.956  -2.451   0.379  1.00  0.00    -0.005 C 
HETATM   36  C1  UNL     1       3.968  -3.603   0.388  1.00  0.00     0.005 C 
ENDBRANCH  34  35
ENDBRANCH  33  34
ENDBRANCH  32  33
ENDBRANCH  31  32
ENDBRANCH   1  31
TORSDOF 14
