REMARK  14 active torsions:
REMARK  status: ('A' for Active; 'I' for Inactive)
REMARK    1  A    between atoms: C2_2  and  N1_3 
REMARK    2  A    between atoms: C2_2  and  C3_7 
REMARK    3  A    between atoms: C3_7  and  O1_11 
REMARK    4  A    between atoms: O1_11  and  C4_12 
REMARK    5  A    between atoms: C4_12  and  N3_13 
REMARK    6  A    between atoms: C10_23  and  N5_24 
REMARK    7  A    between atoms: N5_24  and  C11_25 
REMARK    8  A    between atoms: N5_24  and  C22_45 
REMARK    9  A    between atoms: C11_25  and  C12_26 
REMARK   10  A    between atoms: C12_26  and  O4_27 
REMARK   11  A    between atoms: C12_26  and  C13_29 
REMARK   12  A    between atoms: C13_29  and  S1_30 
REMARK   13  A    between atoms: S1_30  and  C14_33 
REMARK   14  A    between atoms: C22_45  and  C23_46 
ROOT
HETATM    1  N5  UNL     1       0.785  -1.451  -0.002  1.00  0.00    -0.335 N 
ENDROOT
BRANCH   1   2
HETATM    2  C10 UNL     1       1.627  -0.561   0.848  1.00  0.00     0.040 A 
HETATM    3  C9  UNL     1       1.704  -0.727   2.198  1.00  0.00     0.031 A 
HETATM    4  C8  UNL     1       2.478   0.148   2.974  1.00  0.00     0.022 A 
HETATM    5  C7  UNL     1       3.155   1.175   2.323  1.00  0.00     0.059 A 
HETATM    6  C6  UNL     1       3.916   2.060   3.075  1.00  0.00     0.261 A 
HETATM    7  C27 UNL     1       3.084   1.348   0.978  1.00  0.00     0.063 A 
HETATM    8  N4  UNL     1       4.538   3.039   2.408  1.00  0.00    -0.274 N 
HETATM    9  O3  UNL     1       3.989   1.911   4.317  1.00  0.00    -0.267 OA
HETATM   10  C5  UNL     1       4.435   3.172   1.050  1.00  0.00     0.335 A 
ATOM     11  H4  UNL     1       5.107   3.707   2.928  1.00  0.00     0.173 HD
HETATM   12  N3  UNL     1       3.719   2.348   0.290  1.00  0.00    -0.253 N 
HETATM   13  O2  UNL     1       5.073   4.140   0.581  1.00  0.00    -0.246 OA
HETATM   14  C26 UNL     1       2.316   0.470   0.255  1.00  0.00     0.061 A 
BRANCH  12  15
HETATM   15  C4  UNL     1       3.582   2.440  -1.103  1.00  0.00     0.247 C 
BRANCH  15  16
HETATM   16  O1  UNL     1       4.496   1.663  -1.807  1.00  0.00    -0.291 OA
BRANCH  16  17
HETATM   17  C3  UNL     1       5.859   1.767  -1.855  1.00  0.00     0.149 C 
HETATM   18  N2  UNL     1       6.241   2.936  -2.358  1.00  0.00    -0.381 N 
ATOM     19  H22 UNL     1       7.257   3.014  -2.394  1.00  0.00     0.158 HD
ATOM     20  H21 UNL     1       5.544   3.621  -2.650  1.00  0.00     0.158 HD
BRANCH  17  21
HETATM   21  C2  UNL     1       6.866   0.778  -1.433  1.00  0.00     0.253 C 
HETATM   22  C1  UNL     1       6.811  -0.512  -2.211  1.00  0.00     0.049 C 
BRANCH  21  23
HETATM   23  N1  UNL     1       8.188   1.366  -1.695  1.00  0.00    -0.068 N 
ATOM     24  H13 UNL     1       8.960   0.734  -1.485  1.00  0.00     0.275 HD
ATOM     25  H12 UNL     1       8.388   1.484  -2.688  1.00  0.00     0.275 HD
ATOM     26  H11 UNL     1       8.225   2.239  -1.169  1.00  0.00     0.275 HD
ENDBRANCH  21  23
ENDBRANCH  17  21
ENDBRANCH  16  17
ENDBRANCH  15  16
ENDBRANCH  12  15
ENDBRANCH   1   2
BRANCH   1  27
HETATM   27  C11 UNL     1      -0.429  -0.905  -0.468  1.00  0.00     0.102 C 
BRANCH  27  28
HETATM   28  C12 UNL     1      -1.741  -1.313   0.050  1.00  0.00     0.171 C 
BRANCH  28  29
HETATM   29  O4  UNL     1      -1.753  -1.119   1.438  1.00  0.00    -0.389 OA
ATOM     30  H4  UNL     1      -2.602  -1.383   1.773  1.00  0.00     0.210 HD
ENDBRANCH  28  29
BRANCH  28  31
HETATM   31  C13 UNL     1      -2.757  -0.260  -0.502  1.00  0.00     0.179 C 
BRANCH  31  32
HETATM   32  S1  UNL     1      -4.379  -0.625   0.049  1.00  0.00     0.170 S 
HETATM   33  O5  UNL     1      -4.718  -2.016  -0.524  1.00  0.00    -0.226 OA
HETATM   34  O6  UNL     1      -4.458  -0.861   1.553  1.00  0.00    -0.226 OA
BRANCH  32  35
HETATM   35  C14 UNL     1      -5.616   0.513  -0.459  1.00  0.00     0.234 C 
HETATM   36  C15 UNL     1      -5.553   0.821  -1.911  1.00  0.00     0.050 C 
HETATM   37  C16 UNL     1      -6.509   1.880  -2.326  1.00  0.00     0.083 C 
HETATM   38  C17 UNL     1      -7.832   1.775  -1.683  1.00  0.00     0.146 C 
HETATM   39  O7  UNL     1      -8.771   1.323  -2.316  1.00  0.00    -0.296 OA
HETATM   40  C18 UNL     1      -8.171   2.173  -0.299  1.00  0.00     0.226 C 
HETATM   41  N6  UNL     1      -6.924   2.382   0.443  1.00  0.00    -0.290 N 
HETATM   42  C19 UNL     1      -6.777   3.379   1.331  1.00  0.00     0.116 A 
HETATM   43  N7  UNL     1      -5.776   1.677   0.412  1.00  0.00    -0.236 N 
HETATM   44  C20 UNL     1      -5.524   3.293   1.860  1.00  0.00     0.095 A 
HETATM   45  C21 UNL     1      -4.890   2.191   1.258  1.00  0.00     0.264 A 
HETATM   46  O8  UNL     1      -3.715   1.852   1.545  1.00  0.00    -0.267 OA
ENDBRANCH  32  35
ENDBRANCH  31  32
ENDBRANCH  28  31
ENDBRANCH  27  28
ENDBRANCH   1  27
BRANCH   1  47
HETATM   47  C22 UNL     1       1.343  -2.712  -0.208  1.00  0.00     0.102 C 
BRANCH  47  48
HETATM   48  C23 UNL     1       0.815  -3.959   0.370  1.00  0.00     0.188 A 
HETATM   49  N8  UNL     1      -0.489  -4.383   0.022  1.00  0.00    -0.349 N 
HETATM   50  C24 UNL     1      -0.467  -5.498  -0.599  1.00  0.00     0.190 A 
ATOM     51  H8  UNL     1      -1.339  -3.863   0.240  1.00  0.00     0.163 HD
HETATM   52  N9  UNL     1      -1.553  -6.280  -1.130  1.00  0.00    -0.063 NA
HETATM   53  N10 UNL     1       0.885  -5.912  -0.713  1.00  0.00    -0.321 N 
HETATM   54  C25 UNL     1       1.681  -5.074  -0.176  1.00  0.00     0.123 A 
ATOM     55  H10 UNL     1       1.183  -6.774  -1.169  1.00  0.00     0.169 HD
HETATM   56  N11 UNL     1       3.098  -5.074  -0.051  1.00  0.00    -0.085 NA
ENDBRANCH  47  48
ENDBRANCH   1  47
TORSDOF 14
