REMARK  1 active torsions:
REMARK  status: ('A' for Active; 'I' for Inactive)
REMARK       I    between atoms: C1_4  and  N3_6 
REMARK    1  A    between atoms: N3_6  and  N4_8 
ROOT
HETATM    1  N4  UNL     1      -0.376   0.183  -0.570  1.00  0.00    -0.252 N 
HETATM    2  C2  UNL     1      -1.436  -0.560  -1.256  1.00  0.00     0.256 C 
HETATM    3  C3  UNL     1      -2.390  -1.007  -0.217  1.00  0.00     0.256 C 
HETATM    4  O1  UNL     1      -2.803  -2.177  -0.198  1.00  0.00    -0.270 OA
HETATM    5  N5  UNL     1      -2.814  -0.054   0.750  1.00  0.00    -0.266 N 
ATOM      6  H5  UNL     1      -3.709  -0.147   1.229  1.00  0.00     0.190 HD
HETATM    7  N6  UNL     1      -1.958   1.011   1.016  1.00  0.00    -0.270 N 
ATOM      8  H6  UNL     1      -2.233   1.711   1.705  1.00  0.00     0.189 HD
HETATM    9  C4  UNL     1      -0.807   1.134   0.401  1.00  0.00     0.224 C 
HETATM   10  N7  UNL     1       0.035   2.228   0.698  1.00  0.00    -0.060 NA
ENDROOT
BRANCH   1  11
HETATM   11  N3  UNL     1       0.956  -0.030  -0.851  1.00  0.00    -0.269 N 
HETATM   12  C1  UNL     1       1.859  -0.532   0.118  1.00  0.00     0.201 C 
HETATM   13  N1  UNL     1       1.389  -0.974   1.223  1.00  0.00    -0.372 N 
HETATM   14  N2  UNL     1       3.260  -0.564  -0.089  1.00  0.00    -0.062 NA
ATOM     15  H12 UNL     1       2.039  -1.335   1.921  1.00  0.00     0.158 HD
ATOM     16  H11 UNL     1       0.380  -0.951   1.372  1.00  0.00     0.158 HD
ATOM     17  H3  UNL     1       1.303   0.181  -1.787  1.00  0.00     0.190 HD
ENDBRANCH   1  11
TORSDOF 1
