REMARK  9 active torsions:
REMARK  status: ('A' for Active; 'I' for Inactive)
REMARK    1  A    between atoms: C2_5  and  N3_6 
REMARK    2  A    between atoms: C2_5  and  C8_19 
REMARK    3  A    between atoms: C6_11  and  C7_12 
REMARK    4  A    between atoms: C8_19  and  C9_20 
REMARK    5  A    between atoms: C8_19  and  N7_23 
REMARK    6  A    between atoms: C9_20  and  O3_21 
REMARK    7  A    between atoms: N7_23  and  C10_25 
REMARK    8  A    between atoms: C11_28  and  S1_29 
REMARK    9  A    between atoms: S1_29  and  N9_30 
ROOT
HETATM    1  C1  UNL     1       1.185   3.192   2.569  1.00  0.00     0.258 C 
HETATM    2  N1  UNL     1       1.443   2.144   2.123  1.00  0.00    -0.349 NA
HETATM    3  N2  UNL     1       1.716   0.928   1.605  1.00  0.00    -0.223 N 
ATOM      4  H2  UNL     1       2.674   0.660   1.378  1.00  0.00     0.203 HD
HETATM    5  C2  UNL     1       0.712   0.091   1.399  1.00  0.00     0.134 C 
ENDROOT
BRANCH   5   6
HETATM    6  N3  UNL     1      -0.538   0.510   1.722  1.00  0.00    -0.328 N 
HETATM    7  C3  UNL     1      -1.710   0.553   1.332  1.00  0.00     0.119 C 
HETATM    8  C4  UNL     1      -2.159   0.008   0.062  1.00  0.00     0.048 C 
HETATM    9  N6  UNL     1      -2.638   1.191   2.246  1.00  0.00    -0.273 N 
HETATM   10  C5  UNL     1      -3.409  -0.183  -0.412  1.00  0.00     0.010 C 
HETATM   11  C6  UNL     1      -4.635   0.165   0.360  1.00  0.00     0.220 C 
HETATM   12  N4  UNL     1      -4.453   1.534   0.806  1.00  0.00    -0.106 NA
HETATM   13  N5  UNL     1      -3.951   1.620   2.103  1.00  0.00    -0.029 NA
ATOM     14  H6  UNL     1      -2.251   1.357   3.175  1.00  0.00     0.185 HD
ATOM     15  H3  UNL     1      -0.493   0.962   2.635  1.00  0.00     0.169 HD
BRANCH  11  16
HETATM   16  C7  UNL     1      -5.862  -0.016  -0.423  1.00  0.00     0.198 C 
HETATM   17  O1  UNL     1      -6.619   0.997  -0.626  1.00  0.00    -0.646 OA
HETATM   18  O2  UNL     1      -6.273  -1.208  -0.966  1.00  0.00    -0.646 OA
ENDBRANCH  11  16
ENDBRANCH   5   6
BRANCH   5  19
HETATM   19  C8  UNL     1       0.971  -1.248   0.843  1.00  0.00     0.178 C 
BRANCH  19  20
HETATM   20  C9  UNL     1       0.340  -2.277   1.773  1.00  0.00     0.197 C 
BRANCH  20  21
HETATM   21  O3  UNL     1       0.537  -3.580   1.284  1.00  0.00    -0.398 OA
ATOM     22  H3  UNL     1       0.144  -4.222   1.864  1.00  0.00     0.209 HD
ENDBRANCH  20  21
ENDBRANCH  19  20
BRANCH  19  23
HETATM   23  N7  UNL     1       2.380  -1.577   0.808  1.00  0.00    -0.341 N 
ATOM     24  H7  UNL     1       2.722  -2.231   1.512  1.00  0.00     0.164 HD
BRANCH  23  25
HETATM   25  C10 UNL     1       3.223  -1.126  -0.017  1.00  0.00     0.246 A 
HETATM   26  N8  UNL     1       2.987  -0.267  -1.008  1.00  0.00    -0.294 N 
HETATM   27  C11 UNL     1       4.162  -0.053  -1.642  1.00  0.00     0.247 A 
ATOM     28  H8  UNL     1       2.087   0.151  -1.244  1.00  0.00     0.171 HD
HETATM   29  N10 UNL     1       5.084  -0.779  -1.030  1.00  0.00    -0.230 N 
HETATM   30  O6  UNL     1       4.492  -1.419  -0.052  1.00  0.00    -0.199 OA
ATOM     31  H10 UNL     1       6.073  -0.831  -1.275  1.00  0.00     0.197 HD
BRANCH  27  32
HETATM   32  S1  UNL     1       4.425   0.987  -3.022  1.00  0.00     0.290 S 
HETATM   33  O4  UNL     1       3.521   0.526  -4.129  1.00  0.00    -0.198 OA
HETATM   34  O5  UNL     1       4.063   2.416  -2.667  1.00  0.00    -0.198 OA
BRANCH  32  35
HETATM   35  N9  UNL     1       6.075   0.961  -3.500  1.00  0.00    -0.322 N 
ATOM     36  H92 UNL     1       6.793   0.408  -3.031  1.00  0.00     0.169 HD
ATOM     37  H91 UNL     1       6.228   1.568  -4.305  1.00  0.00     0.169 HD
ENDBRANCH  32  35
ENDBRANCH  27  32
ENDBRANCH  23  25
ENDBRANCH  19  23
ENDBRANCH   5  19
TORSDOF 9
