REMARK  0 active torsions:
REMARK  status: ('A' for Active; 'I' for Inactive)
REMARK       I    between atoms: N2_5  and  C3_7 
ROOT
HETATM    1  C1  UNL     1       4.353   0.067  -0.092  1.00  0.00     0.038 C 
HETATM    2  C2  UNL     1       3.147   0.191   0.033  1.00  0.00     0.015 C 
HETATM    3  N1  UNL     1       1.763   0.325   0.198  1.00  0.00    -0.257 N 
ATOM      4  H1  UNL     1       1.383   1.214   0.523  1.00  0.00     0.197 HD
HETATM    5  N2  UNL     1       0.972  -0.634  -0.047  1.00  0.00    -0.266 N 
ATOM      6  H2  UNL     1       1.320  -1.536  -0.373  1.00  0.00     0.190 HD
HETATM    7  C3  UNL     1      -0.415  -0.410   0.148  1.00  0.00     0.203 C 
HETATM    8  N3  UNL     1      -1.213  -1.423   0.712  1.00  0.00    -0.062 NA
HETATM    9  N4  UNL     1      -0.878   0.733  -0.209  1.00  0.00    -0.368 N 
ATOM     10  H4  UNL     1      -0.227   1.408  -0.609  1.00  0.00     0.161 HD
HETATM   11  C4  UNL     1      -2.265   1.124  -0.080  1.00  0.00     0.148 C 
ENDROOT
TORSDOF 0
