REMARK  7 active torsions:
REMARK  status: ('A' for Active; 'I' for Inactive)
REMARK    1  A    between atoms: C2_2  and  C3_3 
REMARK       I    between atoms: C3_3  and  N1_5 
REMARK    2  A    between atoms: N1_5  and  C4_7 
REMARK    3  A    between atoms: C7_11  and  N2_12 
REMARK    4  A    between atoms: N2_12  and  N3_14 
REMARK    5  A    between atoms: N3_14  and  N4_15 
REMARK    6  A    between atoms: C8_18  and  O2_19 
REMARK    7  A    between atoms: C9_21  and  O3_22 
ROOT
HETATM    1  C4  UNL     1       0.217  -0.320  -0.557  1.00  0.00     0.118 C 
HETATM    2  C5  UNL     1      -0.695   0.687  -1.173  1.00  0.00     0.067 C 
HETATM    3  C6  UNL     1      -1.581   1.293  -0.116  1.00  0.00     0.200 C 
HETATM    4  F1  UNL     1      -0.838   1.838   0.904  1.00  0.00    -0.247 F 
HETATM    5  C7  UNL     1      -2.502   0.196   0.358  1.00  0.00     0.179 C 
HETATM    6  C8  UNL     1      -1.768  -1.022   0.829  1.00  0.00     0.176 C 
HETATM    7  C9  UNL     1      -0.295  -0.965   0.678  1.00  0.00     0.171 C 
ENDROOT
BRANCH   1   8
HETATM    8  N1  UNL     1       1.526   0.250  -0.301  1.00  0.00    -0.350 N 
HETATM    9  C3  UNL     1       2.703  -0.187  -0.951  1.00  0.00     0.240 C 
HETATM   10  O1  UNL     1       2.661  -1.108  -1.796  1.00  0.00    -0.269 OA
ATOM     11  H1  UNL     1       1.601   1.004   0.382  1.00  0.00     0.163 HD
BRANCH   9  12
HETATM   12  C2  UNL     1       3.986   0.425  -0.650  1.00  0.00     0.064 C 
HETATM   13  C1  UNL     1       5.094   0.041  -1.237  1.00  0.00     0.017 C 
ENDBRANCH   9  12
ENDBRANCH   1   8
BRANCH   7  14
HETATM   14  O3  UNL     1       0.207  -2.266   0.765  1.00  0.00    -0.391 OA
ATOM     15  H3  UNL     1      -0.121  -2.679   1.555  1.00  0.00     0.210 HD
ENDBRANCH   7  14
BRANCH   6  16
HETATM   16  O2  UNL     1      -2.064  -1.172   2.199  1.00  0.00    -0.391 OA
ATOM     17  H2  UNL     1      -1.599  -1.944   2.498  1.00  0.00     0.210 HD
ENDBRANCH   6  16
BRANCH   5  18
HETATM   18  N2  UNL     1      -3.371   0.763   1.372  1.00  0.00    -0.242 N 
ATOM     19  H2  UNL     1      -3.012   0.892   2.318  1.00  0.00     0.197 HD
BRANCH  18  20
HETATM   20  N3  UNL     1      -4.526   1.091   1.121  1.00  0.00    -0.248 NA
BRANCH  20  21
HETATM   21  N4  UNL     1      -5.622   1.503   0.721  1.00  0.00    -0.261 N 
ATOM     22  H42 UNL     1      -5.112   1.914  -0.061  1.00  0.00     0.193 HD
ATOM     23  H41 UNL     1      -6.582   1.776   0.512  1.00  0.00     0.193 HD
ENDBRANCH  20  21
ENDBRANCH  18  20
ENDBRANCH   5  18
TORSDOF 7
