REMARK  2 active torsions:
REMARK  status: ('A' for Active; 'I' for Inactive)
REMARK    1  A    between atoms: N1_2  and  C2_5 
REMARK    2  A    between atoms: C2_5  and  C3_6 
ROOT
HETATM    1  C2  UNL     1      -0.496   0.124   0.420  1.00  0.00     0.254 C 
HETATM    2  C4  UNL     1      -0.778  -0.979  -0.567  1.00  0.00     0.230 C 
HETATM    3  C5  UNL     1      -1.664  -0.588  -1.704  1.00  0.00     0.043 C 
HETATM    4  N2  UNL     1       0.515  -1.347  -1.152  1.00  0.00    -0.063 N 
ATOM      5  H21 UNL     1       0.471  -1.542  -2.152  1.00  0.00     0.278 HD
ATOM      6  H22 UNL     1       0.848  -2.267  -0.864  1.00  0.00     0.278 HD
HETATM    7  C6  UNL     1       1.427  -0.258  -0.806  1.00  0.00     0.200 C 
HETATM    8  C7  UNL     1       2.862  -0.700  -0.788  1.00  0.00     0.041 C 
HETATM    9  C8  UNL     1       0.979  -0.046   0.650  1.00  0.00     0.137 C 
HETATM   10 BR1  UNL     1       1.281  -1.642   1.684  1.00  0.00    -0.086 Br
ENDROOT
BRANCH   1  11
HETATM   11  N1  UNL     1      -0.811   1.373  -0.238  1.00  0.00    -0.057 N 
HETATM   12  C1  UNL     1      -0.506   2.528   0.563  1.00  0.00     0.268 C 
ATOM     13  H12 UNL     1      -1.785   1.388  -0.541  1.00  0.00     0.278 HD
ATOM     14  H11 UNL     1      -0.352   1.430  -1.147  1.00  0.00     0.278 HD
ENDBRANCH   1  11
BRANCH   1  15
HETATM   15  C3  UNL     1      -1.309  -0.057   1.645  1.00  0.00     0.214 C 
HETATM   16  O1  UNL     1      -2.132   0.809   2.025  1.00  0.00    -0.646 OA
HETATM   17  O2  UNL     1      -1.186  -1.195   2.414  1.00  0.00    -0.646 OA
ENDBRANCH   1  15
TORSDOF 2
