REMARK  0 active torsions:
REMARK  status: ('A' for Active; 'I' for Inactive)
REMARK       I    between atoms: C3_5  and  N3_7 
ROOT
HETATM    1  C1  UNL     1       2.924   0.289  -0.231  1.00  0.00     0.037 C 
HETATM    2  C2  UNL     1       1.945  -0.393  -0.044  1.00  0.00     0.001 C 
HETATM    3  N1  UNL     1       0.786  -1.172   0.184  1.00  0.00    -0.289 N 
ATOM      4  H1  UNL     1       0.817  -2.186   0.076  1.00  0.00     0.179 HD
HETATM    5  C3  UNL     1      -0.321  -0.581   0.533  1.00  0.00     0.208 C 
HETATM    6  N2  UNL     1      -1.444  -1.414   0.746  1.00  0.00    -0.062 NA
HETATM    7  N3  UNL     1      -0.354   0.826   0.681  1.00  0.00    -0.267 N 
ATOM      8  H3  UNL     1       0.503   1.332   0.903  1.00  0.00     0.180 HD
HETATM    9  C4  UNL     1      -1.555   1.528   0.525  1.00  0.00     0.184 C 
HETATM   10  N4  UNL     1      -2.556   2.132   0.405  1.00  0.00    -0.172 NA
ENDROOT
TORSDOF 0
