REMARK  14 active torsions:
REMARK  status: ('A' for Active; 'I' for Inactive)
REMARK    1  A    between atoms: N1_2  and  C2_4 
REMARK    2  A    between atoms: C4_9  and  C5_10 
REMARK    3  A    between atoms: C6_13  and  N5_14 
REMARK    4  A    between atoms: N5_14  and  C7_16 
REMARK    5  A    between atoms: C8_19  and  N7_20 
REMARK    6  A    between atoms: C10_22  and  N8_23 
REMARK    7  A    between atoms: C12_28  and  N9_29 
REMARK    8  A    between atoms: C14_36  and  N11_37 
REMARK    9  A    between atoms: N11_37  and  C15_39 
REMARK   10  A    between atoms: C15_39  and  C16_40 
REMARK   11  A    between atoms: C19_43  and  O2_44 
REMARK   12  A    between atoms: C21_46  and  C22_47 
REMARK   13  A    between atoms: C22_47  and  C23_48 
REMARK   14  A    between atoms: C23_48  and  O3_49 
ROOT
HETATM    1  C7  UNL     1      -1.863  -0.088  -0.863  1.00  0.00     0.713 A 
HETATM    2  N6  UNL     1      -2.439   0.963  -0.258  1.00  0.00    -0.021 N 
ATOM      3  H6  UNL     1      -3.433   1.139  -0.407  1.00  0.00     0.203 HD
HETATM    4  C8  UNL     1      -1.729   1.800   0.550  1.00  0.00     0.709 A 
HETATM    5  N10 UNL     1      -0.434   1.504   0.694  1.00  0.00    -0.021 N 
ATOM      6  H10 UNL     1       0.125   2.112   1.292  1.00  0.00     0.203 HD
HETATM    7  C14 UNL     1       0.188   0.465   0.110  1.00  0.00     0.707 A 
HETATM    8  N13 UNL     1      -0.556  -0.341  -0.683  1.00  0.00    -0.021 N 
ATOM      9  H13 UNL     1      -0.124  -1.141  -1.144  1.00  0.00     0.203 HD
ENDROOT
BRANCH   1  10
HETATM   10  N5  UNL     1      -2.644  -0.932  -1.694  1.00  0.00    -0.174 N 
ATOM     11  H5  UNL     1      -2.916  -0.592  -2.616  1.00  0.00     0.186 HD
BRANCH  10  12
HETATM   12  C6  UNL     1      -3.026  -2.111  -1.335  1.00  0.00     0.155 A 
HETATM   13  C4  UNL     1      -3.783  -2.881  -2.187  1.00  0.00     0.116 A 
HETATM   14  C3  UNL     1      -4.156  -4.140  -1.735  1.00  0.00     0.151 A 
HETATM   15  N2  UNL     1      -3.789  -4.583  -0.511  1.00  0.00    -0.178 N 
HETATM   16  N3  UNL     1      -4.934  -4.925  -2.621  1.00  0.00    -0.081 NA
HETATM   17  C2  UNL     1      -3.050  -3.810   0.301  1.00  0.00     0.680 A 
ATOM     18  H2  UNL     1      -4.076  -5.512  -0.202  1.00  0.00     0.185 HD
HETATM   19  N14 UNL     1      -2.687  -2.595  -0.129  1.00  0.00    -0.175 N 
ATOM     20  H14 UNL     1      -2.126  -2.009   0.489  1.00  0.00     0.186 HD
BRANCH  13  21
HETATM   21  C5  UNL     1      -4.177  -2.395  -3.507  1.00  0.00     0.272 C 
HETATM   22  N4  UNL     1      -3.759  -1.097  -3.902  1.00  0.00    -0.057 NA
HETATM   23  O1  UNL     1      -4.865  -3.060  -4.316  1.00  0.00    -0.271 OA
ENDBRANCH  13  21
BRANCH  17  24
HETATM   24  N1  UNL     1      -2.710  -4.264   1.477  1.00  0.00    -0.230 N 
HETATM   25  C1  UNL     1      -1.916  -3.414   2.329  1.00  0.00     0.165 C 
ATOM     26  H1  UNL     1      -2.998  -5.193   1.784  1.00  0.00     0.177 HD
ENDBRANCH  17  24
ENDBRANCH  10  12
ENDBRANCH   1  10
BRANCH   4  27
HETATM   27  N7  UNL     1      -2.358   2.906   1.178  1.00  0.00    -0.213 N 
HETATM   28  C9  UNL     1      -3.794   3.086   0.913  1.00  0.00     0.174 C 
HETATM   29  C10 UNL     1      -3.849   4.433   0.185  1.00  0.00     0.204 C 
HETATM   30  C11 UNL     1      -3.517   5.467   1.225  1.00  0.00     0.069 C 
HETATM   31  C12 UNL     1      -2.239   5.251   1.935  1.00  0.00     0.204 C 
HETATM   32  C13 UNL     1      -1.747   3.856   2.033  1.00  0.00     0.174 C 
BRANCH  29  33
HETATM   33  N8  UNL     1      -5.133   4.706  -0.387  1.00  0.00    -0.073 N 
ATOM     34  H83 UNL     1      -5.427   3.947  -1.002  1.00  0.00     0.274 HD
ATOM     35  H82 UNL     1      -5.867   4.643   0.318  1.00  0.00     0.274 HD
ATOM     36  H81 UNL     1      -5.170   5.603  -0.872  1.00  0.00     0.274 HD
ENDBRANCH  29  33
BRANCH  31  37
HETATM   37  N9  UNL     1      -1.231   6.103   1.307  1.00  0.00    -0.073 N 
ATOM     38  H93 UNL     1      -1.156   5.952   0.301  1.00  0.00     0.274 HD
ATOM     39  H92 UNL     1      -1.506   7.085   1.276  1.00  0.00     0.274 HD
ATOM     40  H91 UNL     1      -0.349   5.954   1.797  1.00  0.00     0.274 HD
ENDBRANCH  31  37
ENDBRANCH   4  27
BRANCH   7  41
HETATM   41  N11 UNL     1       1.447   0.251   0.306  1.00  0.00    -0.219 N 
ATOM     42  H11 UNL     1       1.972   0.881   0.913  1.00  0.00     0.178 HD
BRANCH  41  43
HETATM   43  C15 UNL     1       2.128  -0.862  -0.317  1.00  0.00     0.195 C 
BRANCH  43  44
HETATM   44  C16 UNL     1       3.540  -0.954   0.085  1.00  0.00     0.028 A 
HETATM   45  C17 UNL     1       4.073  -0.189   1.096  1.00  0.00     0.029 A 
HETATM   46  C18 UNL     1       5.421  -0.296   1.452  1.00  0.00     0.041 A 
HETATM   47  C19 UNL     1       6.227  -1.183   0.777  1.00  0.00     0.090 A 
HETATM   48  C21 UNL     1       5.664  -1.933  -0.229  1.00  0.00     0.045 A 
HETATM   49  N12 UNL     1       4.357  -1.805  -0.547  1.00  0.00    -0.359 N 
ATOM     50  H12 UNL     1       3.978  -2.380  -1.299  1.00  0.00     0.165 HD
BRANCH  47  51
HETATM   51  O2  UNL     1       7.571  -1.323   1.093  1.00  0.00    -0.354 OA
HETATM   52  C20 UNL     1       8.173  -0.571   2.115  1.00  0.00     0.210 C 
ENDBRANCH  47  51
BRANCH  48  53
HETATM   53  C22 UNL     1       6.507  -2.911  -0.997  1.00  0.00     0.086 C 
BRANCH  53  54
HETATM   54  C23 UNL     1       7.391  -2.157  -1.989  1.00  0.00     0.170 C 
BRANCH  54  55
HETATM   55  O3  UNL     1       6.633  -1.423  -2.894  1.00  0.00    -0.400 OA
ATOM     56  H3  UNL     1       7.183  -0.954  -3.511  1.00  0.00     0.209 HD
ENDBRANCH  54  55
ENDBRANCH  53  54
ENDBRANCH  48  53
ENDBRANCH  43  44
ENDBRANCH  41  43
ENDBRANCH   7  41
TORSDOF 14
