REMARK  4 active torsions:
REMARK  status: ('A' for Active; 'I' for Inactive)
REMARK    1  A    between atoms: N1_2  and  C2_3 
REMARK    2  A    between atoms: C2_3  and  C3_4 
REMARK    3  A    between atoms: C3_4  and  N2_5 
REMARK    4  A    between atoms: N2_5  and  C4_8 
ROOT
HETATM    1  C3  UNL     1      -0.067   1.410  -1.009  1.00  0.00     0.262 C 
ENDROOT
BRANCH   1   2
HETATM    2  C2  UNL     1      -0.821   1.303   0.269  1.00  0.00     0.287 C 
BRANCH   2   3
HETATM    3  N1  UNL     1      -1.736   0.195   0.353  1.00  0.00     0.009 N 
HETATM    4  C1  UNL     1      -1.652  -0.462   1.644  1.00  0.00     0.297 C 
HETATM    5  C8  UNL     1      -1.844  -0.709  -0.724  1.00  0.00     0.277 C 
HETATM    6  C9  UNL     1      -3.359  -0.631  -0.477  1.00  0.00     0.172 C 
HETATM    7  N3  UNL     1      -3.074   0.606   0.171  1.00  0.00    -0.045 NA
ENDBRANCH   2   3
ENDBRANCH   1   2
BRANCH   1   8
HETATM    8  N2  UNL     1       0.803   0.292  -1.290  1.00  0.00    -0.069 N 
ATOM      9  H22 UNL     1       0.303  -0.596  -1.251  1.00  0.00     0.277 HD
ATOM     10  H21 UNL     1       1.083   0.267  -2.271  1.00  0.00     0.277 HD
BRANCH   8  11
HETATM   11  C4  UNL     1       1.941   0.303  -0.410  1.00  0.00     0.186 C 
HETATM   12  C5  UNL     1       3.215  -0.272  -1.028  1.00  0.00     0.033 C 
HETATM   13  C6  UNL     1       3.579  -0.671   0.412  1.00  0.00     0.004 C 
HETATM   14  C7  UNL     1       2.051  -0.812   0.592  1.00  0.00     0.033 C 
ENDBRANCH   8  11
ENDBRANCH   1   8
TORSDOF 4
