REMARK  3 active torsions:
REMARK  status: ('A' for Active; 'I' for Inactive)
REMARK    1  A    between atoms: C2_3  and  C3_4 
REMARK    2  A    between atoms: C3_4  and  C4_5 
REMARK    3  A    between atoms: C4_5  and  N2_6 
ROOT
HETATM    1  N2  UNL     1       0.813   0.211   0.128  1.00  0.00    -0.362 N 
ATOM      2  H2  UNL     1      -0.011   0.225   0.729  1.00  0.00     0.162 HD
HETATM    3  C5  UNL     1       1.957   0.004   0.684  1.00  0.00     0.181 A 
HETATM    4  N3  UNL     1       3.317  -0.115   0.401  1.00  0.00    -0.324 N 
ATOM      5  H3  UNL     1       3.836  -0.057  -0.475  1.00  0.00     0.169 HD
HETATM    6  C6  UNL     1       3.699  -0.322   1.610  1.00  0.00     0.186 A 
HETATM    7  N4  UNL     1       2.347  -0.222   2.021  1.00  0.00    -0.324 N 
ATOM      8  H4  UNL     1       1.858  -0.287   2.914  1.00  0.00     0.169 HD
ENDROOT
BRANCH   1   9
HETATM    9  C4  UNL     1       0.619   0.423  -1.273  1.00  0.00     0.126 C 
BRANCH   9  10
HETATM   10  C3  UNL     1      -0.568  -0.435  -1.698  1.00  0.00     0.048 C 
BRANCH  10  11
HETATM   11  C2  UNL     1      -1.722   0.041  -0.891  1.00  0.00    -0.011 C 
HETATM   12  C1  UNL     1      -2.377  -0.750  -0.072  1.00  0.00     0.096 C 
HETATM   13  N1  UNL     1      -3.471  -0.261   0.680  1.00  0.00    -0.115 NA
ENDBRANCH  10  11
ENDBRANCH   9  10
ENDBRANCH   1   9
TORSDOF 3
