REMARK  2 active torsions:
REMARK  status: ('A' for Active; 'I' for Inactive)
REMARK    1  A    between atoms: N1_1  and  N2_4 
REMARK       I    between atoms: N3_6  and  C1_8 
REMARK    2  A    between atoms: C1_8  and  C2_10 
ROOT
HETATM    1  N2  UNL     1       2.705   0.335   0.602  1.00  0.00    -0.247 N 
ATOM      2  H2  UNL     1       3.168   1.032   0.019  1.00  0.00     0.207 HD
HETATM    3  N3  UNL     1       1.513   0.631   0.506  1.00  0.00    -0.256 N 
ATOM      4  H3  UNL     1       1.032   1.133   1.252  1.00  0.00     0.191 HD
HETATM    5  C1  UNL     1       0.835   0.249  -0.678  1.00  0.00     0.241 C 
HETATM    6  O1  UNL     1       1.465   0.264  -1.757  1.00  0.00    -0.271 OA
ENDROOT
BRANCH   1   7
HETATM    7  N1  UNL     1       3.653  -0.358   1.028  1.00  0.00    -0.331 N 
ATOM      8  H12 UNL     1       3.153  -1.037   1.602  1.00  0.00     0.178 HD
ATOM      9  H11 UNL     1       4.640  -0.603   1.107  1.00  0.00     0.178 HD
ENDBRANCH   1   7
BRANCH   5  10
HETATM   10  C2  UNL     1      -0.588  -0.168  -0.689  1.00  0.00     0.080 A 
HETATM   11  C3  UNL     1      -1.176  -0.818   0.513  1.00  0.00     0.015 A 
HETATM   12  C4  UNL     1      -1.440   0.625   0.297  1.00  0.00     0.015 A 
ENDBRANCH   5  10
TORSDOF 2
