REMARK  2 active torsions:
REMARK  status: ('A' for Active; 'I' for Inactive)
REMARK    1  A    between atoms: C2_2  and  C3_3 
REMARK    2  A    between atoms: C3_3  and  N1_4 
ROOT
HETATM    1  C3  UNL     1       0.587   0.327  -0.169  1.00  0.00     0.145 A 
HETATM    2  C7  UNL     1       0.925   1.814  -0.086  1.00  0.00     0.046 A 
HETATM    3  C8  UNL     1       0.721   1.134  -1.381  1.00  0.00     0.046 A 
ENDROOT
BRANCH   1   4
HETATM    4  C2  UNL     1       1.706  -0.543   0.312  1.00  0.00     0.002 C 
HETATM    5  C1  UNL     1       2.251  -1.490  -0.401  1.00  0.00     0.009 C 
ENDBRANCH   1   4
BRANCH   1   6
HETATM    6  N1  UNL     1      -0.713  -0.106   0.218  1.00  0.00    -0.066 N 
HETATM    7  C4  UNL     1      -0.692  -0.620   1.586  1.00  0.00     0.272 C 
HETATM    8  C5  UNL     1      -1.712   0.942   0.195  1.00  0.00     0.272 C 
HETATM    9  C6  UNL     1      -1.235  -1.180  -0.621  1.00  0.00     0.272 C 
ENDBRANCH   1   6
TORSDOF 2
