REMARK  1 active torsions:
REMARK  status: ('A' for Active; 'I' for Inactive)
REMARK    1  A    between atoms: C6_7  and  N2_8 
ROOT
HETATM    1  C1  UNL     1       1.531  -0.368   1.223  1.00  0.00     0.274 C 
HETATM    2  N1  UNL     1       0.667  -0.049   0.099  1.00  0.00    -0.046 N 
HETATM    3  C2  UNL     1       1.472   0.743  -0.837  1.00  0.00     0.274 C 
HETATM    4  C3  UNL     1       0.123  -1.227  -0.511  1.00  0.00     0.239 C 
HETATM    5  C4  UNL     1      -1.369  -1.120  -0.501  1.00  0.00     0.032 C 
HETATM    6  C5  UNL     1      -1.654  -0.135   0.605  1.00  0.00     0.064 C 
HETATM    7  C6  UNL     1      -0.444   0.797   0.489  1.00  0.00     0.384 C 
ENDROOT
BRANCH   7   8
HETATM    8  N2  UNL     1      -0.783   1.728  -0.594  1.00  0.00    -0.050 N 
ATOM      9  H23 UNL     1       0.025   2.275  -0.891  1.00  0.00     0.276 HD
ATOM     10  H22 UNL     1      -0.967   1.240  -1.471  1.00  0.00     0.276 HD
ATOM     11  H21 UNL     1      -1.565   2.323  -0.320  1.00  0.00     0.276 HD
ENDBRANCH   7   8
TORSDOF 1
