REMARK  9 active torsions:
REMARK  status: ('A' for Active; 'I' for Inactive)
REMARK    1  A    between atoms: C2_2  and  N1_3 
REMARK    2  A    between atoms: C2_2  and  C10_27 
REMARK    3  A    between atoms: C4_8  and  N3_9 
REMARK    4  A    between atoms: C5_14  and  N5_15 
REMARK    5  A    between atoms: N5_15  and  N6_16 
REMARK    6  A    between atoms: N8_29  and  C12_30 
REMARK    7  A    between atoms: C12_30  and  C13_31 
REMARK    8  A    between atoms: C13_31  and  S1_32 
REMARK    9  A    between atoms: S1_32  and  C14_33 
ROOT
HETATM    1  C14 UNL     1       5.253  -1.342  -4.980  1.00  0.00     0.197 C 
HETATM    2  C15 UNL     1       4.530  -2.534  -4.604  1.00  0.00     0.069 C 
HETATM    3  N9  UNL     1       3.979  -3.490  -4.301  1.00  0.00    -0.197 NA
ENDROOT
BRANCH   1   4
HETATM    4  S1  UNL     1       4.777   0.156  -4.131  1.00  0.00    -0.153 SA
BRANCH   4   5
HETATM    5  C13 UNL     1       3.141   0.743  -4.519  1.00  0.00     0.096 C 
BRANCH   5   6
HETATM    6  C12 UNL     1       2.074  -0.143  -3.930  1.00  0.00     0.160 C 
BRANCH   6   7
HETATM    7  N8  UNL     1       2.224  -0.122  -2.469  1.00  0.00    -0.286 N 
HETATM    8  C11 UNL     1       1.600   0.796  -1.668  1.00  0.00     0.140 A 
HETATM    9  C10 UNL     1       1.974   0.512  -0.371  1.00  0.00     0.066 A 
HETATM   10  N11 UNL     1       2.782  -0.528  -0.412  1.00  0.00    -0.287 N 
HETATM   11  N10 UNL     1       2.915  -0.885  -1.673  1.00  0.00    -0.241 N 
ATOM     12  H11 UNL     1       3.225  -0.977   0.390  1.00  0.00     0.188 HD
ATOM     13  H10 UNL     1       3.491  -1.666  -1.988  1.00  0.00     0.208 HD
BRANCH   9  14
HETATM   14  C2  UNL     1       1.516   1.301   0.844  1.00  0.00     0.132 C 
HETATM   15  C1  UNL     1       2.045   0.608   2.075  1.00  0.00     0.039 C 
BRANCH  14  16
HETATM   16  N1  UNL     1       0.173   1.513   0.777  1.00  0.00    -0.364 N 
HETATM   17  C3  UNL     1      -0.990   1.308   0.855  1.00  0.00     0.153 C 
HETATM   18  N2  UNL     1      -1.838   2.328   0.503  1.00  0.00    -0.174 N 
HETATM   19  C7  UNL     1      -1.490   0.097   1.288  1.00  0.00     0.147 C 
HETATM   20  C4  UNL     1      -3.106   2.565   0.915  1.00  0.00     0.680 C 
ATOM     21  H2  UNL     1      -1.460   3.002  -0.162  1.00  0.00     0.186 HD
HETATM   22  N4  UNL     1      -3.899   1.873   1.737  1.00  0.00    -0.160 N 
HETATM   23  C5  UNL     1      -3.666   0.684   2.399  1.00  0.00     0.246 C 
ATOM     24  H4  UNL     1      -4.817   2.286   1.901  1.00  0.00     0.187 HD
HETATM   25  C6  UNL     1      -2.687  -0.195   1.923  1.00  0.00     0.129 C 
HETATM   26  N7  UNL     1      -3.258  -1.455   2.265  1.00  0.00    -0.362 N 
HETATM   27  C9  UNL     1      -2.515  -2.707   2.184  1.00  0.00     0.293 C 
ATOM     28  H7  UNL     1      -4.228  -1.482   2.580  1.00  0.00     0.162 HD
HETATM   29  O2  UNL     1      -1.717  -2.706   1.016  1.00  0.00    -0.348 OA
HETATM   30  C8  UNL     1      -0.450  -2.184   1.243  1.00  0.00     0.347 C 
HETATM   31  O1  UNL     1      -0.497  -0.796   0.935  1.00  0.00    -0.320 OA
ATOM     32  H1  UNL     1       0.162   2.476   0.440  1.00  0.00     0.162 HD
BRANCH  20  33
HETATM   33  N3  UNL     1      -3.630   3.663   0.413  1.00  0.00    -0.234 N 
ATOM     34  H32 UNL     1      -3.024   4.192  -0.215  1.00  0.00     0.174 HD
ATOM     35  H31 UNL     1      -4.585   3.842   0.723  1.00  0.00     0.174 HD
ENDBRANCH  20  33
BRANCH  23  36
HETATM   36  N5  UNL     1      -4.257   0.386   3.372  1.00  0.00    -0.311 NA
BRANCH  36  37
HETATM   37  N6  UNL     1      -4.893   0.054   4.427  1.00  0.00    -0.278 N 
ATOM     38  H62 UNL     1      -4.241  -0.037   3.648  1.00  0.00     0.191 HD
ATOM     39  H61 UNL     1      -5.405  -0.204   5.270  1.00  0.00     0.191 HD
ENDBRANCH  36  37
ENDBRANCH  23  36
ENDBRANCH  14  16
ENDBRANCH   9  14
ENDBRANCH   6   7
ENDBRANCH   5   6
ENDBRANCH   4   5
ENDBRANCH   1   4
TORSDOF 9
