REMARK  4 active torsions:
REMARK  status: ('A' for Active; 'I' for Inactive)
REMARK    1  A    between atoms: C1_2  and  C2_4 
REMARK    2  A    between atoms: C3_5  and  C7_9 
REMARK    3  A    between atoms: C4_6  and  C9_11 
REMARK    4  A    between atoms: C5_7  and  C6_8 
ROOT
HETATM    1  C2  UNL     1       1.039  -0.863  -0.213  1.00  0.00     0.084 C 
HETATM    2  C3  UNL     1       0.081  -0.531   0.908  1.00  0.00     0.008 C 
HETATM    3  C4  UNL     1      -0.011   0.870   0.314  1.00  0.00     0.001 C 
HETATM    4  C5  UNL     1       0.149   0.076  -0.984  1.00  0.00     0.008 C 
ENDROOT
BRANCH   1   5
HETATM    5  C1  UNL     1       2.435  -0.605  -0.089  1.00  0.00     0.236 C 
HETATM    6  N1  UNL     1       3.082   0.640   0.112  1.00  0.00    -0.062 NA
HETATM    7  O1  UNL     1       3.276  -1.576  -0.156  1.00  0.00    -0.276 OA
ENDBRANCH   1   5
BRANCH   2   8
HETATM    8  C7  UNL     1      -1.297  -1.027   0.468  1.00  0.00     0.001 A 
HETATM    9  C6  UNL     1      -1.238  -0.571  -1.000  1.00  0.00     0.001 A 
HETATM   10  C10 UNL     1      -2.133   0.526  -0.667  1.00  0.00     0.000 A 
HETATM   11  C8  UNL     1      -2.224   0.078   0.731  1.00  0.00     0.000 A 
HETATM   12  C9  UNL     1      -1.455   1.291   0.395  1.00  0.00     0.000 A 
ENDBRANCH   2   8
TORSDOF 4
