REMARK  8 active torsions:
REMARK  status: ('A' for Active; 'I' for Inactive)
REMARK    1  A    between atoms: N1_1  and  C1_4 
REMARK    2  A    between atoms: C3_8  and  C4_9 
REMARK    3  A    between atoms: C4_9  and  N3_10 
REMARK    4  A    between atoms: C4_9  and  C5_14 
REMARK    5  A    between atoms: C5_14  and  C6_15 
REMARK    6  A    between atoms: C6_15  and  N4_16 
REMARK    7  A    between atoms: N4_16  and  C7_18 
REMARK    8  A    between atoms: N6_23  and  O1_24 
ROOT
HETATM    1  C4  UNL     1       1.327  -0.824  -0.343  1.00  0.00     0.235 C 
ENDROOT
BRANCH   1   2
HETATM    2  C3  UNL     1       2.704  -0.279  -0.400  1.00  0.00     0.055 A 
HETATM    3  N2  UNL     1       3.788  -1.107  -0.330  1.00  0.00    -0.363 N 
HETATM    4  C2  UNL     1       5.034  -0.620  -0.379  1.00  0.00     0.136 A 
ATOM      5  H2  UNL     1       3.646  -2.113  -0.239  1.00  0.00     0.165 HD
HETATM    6  C1  UNL     1       5.274   0.731  -0.501  1.00  0.00     0.114 A 
HETATM    7  N7  UNL     1       4.216   1.557  -0.572  1.00  0.00    -0.350 N 
HETATM    8  C10 UNL     1       2.954   1.062  -0.522  1.00  0.00     0.117 A 
ATOM      9  H7  UNL     1       4.363   2.562  -0.664  1.00  0.00     0.166 HD
BRANCH   6  10
HETATM   10  N1  UNL     1       6.473   1.201  -0.548  1.00  0.00    -0.384 N 
ATOM     11  H12 UNL     1       7.276   0.574  -0.494  1.00  0.00     0.157 HD
ATOM     12  H11 UNL     1       6.651   2.201  -0.638  1.00  0.00     0.157 HD
ENDBRANCH   6  10
ENDBRANCH   1   2
BRANCH   1  13
HETATM   13  N3  UNL     1       1.172  -1.808   0.725  1.00  0.00    -0.070 N 
ATOM     14  H33 UNL     1       1.862  -2.554   0.644  1.00  0.00     0.275 HD
ATOM     15  H32 UNL     1       1.456  -1.424   1.626  1.00  0.00     0.275 HD
ATOM     16  H31 UNL     1       0.224  -2.183   0.764  1.00  0.00     0.275 HD
ENDBRANCH   1  13
BRANCH   1  17
HETATM   17  C5  UNL     1       0.289   0.242  -0.197  1.00  0.00     0.059 C 
BRANCH  17  18
HETATM   18  C6  UNL     1      -1.112  -0.340  -0.135  1.00  0.00     0.140 C 
BRANCH  18  19
HETATM   19  N4  UNL     1      -2.049   0.746   0.005  1.00  0.00    -0.225 N 
ATOM     20  H4  UNL     1      -1.725   1.712   0.046  1.00  0.00     0.177 HD
BRANCH  19  21
HETATM   21  C7  UNL     1      -3.457   0.436   0.086  1.00  0.00     0.695 C 
HETATM   22  N5  UNL     1      -4.383   0.830  -0.718  1.00  0.00    -0.223 N 
HETATM   23  C8  UNL     1      -5.686   0.328  -0.334  1.00  0.00     0.161 C 
ATOM     24  H5  UNL     1      -4.218   1.425  -1.530  1.00  0.00     0.177 HD
HETATM   25  C9  UNL     1      -5.491  -0.236   1.064  1.00  0.00     0.195 C 
HETATM   26  N6  UNL     1      -4.046  -0.374   1.093  1.00  0.00    -0.089 N 
BRANCH  26  27
HETATM   27  O1  UNL     1      -3.308  -1.154   1.944  1.00  0.00    -0.274 OA
ATOM     28  H1  UNL     1      -3.702  -1.696   2.618  1.00  0.00     0.245 HD
ENDBRANCH  26  27
ENDBRANCH  19  21
ENDBRANCH  18  19
ENDBRANCH  17  18
ENDBRANCH   1  17
TORSDOF 8
