REMARK  6 active torsions:
REMARK  status: ('A' for Active; 'I' for Inactive)
REMARK    1  A    between atoms: C4_7  and  C5_8 
REMARK    2  A    between atoms: C5_8  and  N3_9 
REMARK    3  A    between atoms: N3_9  and  C6_12 
REMARK    4  A    between atoms: C6_12  and  C7_13 
REMARK    5  A    between atoms: C6_12  and  C8_15 
REMARK    6  A    between atoms: C9_20  and  N5_21 
ROOT
HETATM    1  N1  UNL     1       6.098   0.019   0.339  1.00  0.00    -0.191 NA
HETATM    2  C1  UNL     1       4.962   0.145   0.237  1.00  0.00     0.104 C 
HETATM    3  C2  UNL     1       3.539   0.288   0.127  1.00  0.00     0.103 A 
HETATM    4  C3  UNL     1       2.969   1.540   0.013  1.00  0.00     0.116 A 
HETATM    5  N2  UNL     1       1.632   1.676  -0.091  1.00  0.00    -0.353 N 
ATOM      6  H2  UNL     1       1.199   2.596  -0.175  1.00  0.00     0.166 HD
HETATM    7  C4  UNL     1       0.893   0.559  -0.080  1.00  0.00     0.108 A 
HETATM    8  N4  UNL     1       1.428  -0.664   0.030  1.00  0.00    -0.330 N 
ATOM      9  H4  UNL     1       0.811  -1.476   0.033  1.00  0.00     0.168 HD
HETATM   10  C9  UNL     1       2.761  -0.852   0.137  1.00  0.00     0.122 A 
ENDROOT
BRANCH  10  11
HETATM   11  N5  UNL     1       3.269  -2.043   0.243  1.00  0.00    -0.384 N 
ATOM     12  H52 UNL     1       4.276  -2.185   0.324  1.00  0.00     0.157 HD
ATOM     13  H51 UNL     1       2.694  -2.885   0.250  1.00  0.00     0.157 HD
ENDBRANCH  10  11
BRANCH   7  14
HETATM   14  C5  UNL     1      -0.591   0.696  -0.201  1.00  0.00     0.309 C 
BRANCH  14  15
HETATM   15  N3  UNL     1      -1.294  -0.228   0.614  1.00  0.00    -0.048 N 
ATOM     16  H32 UNL     1      -1.003  -1.186   0.419  1.00  0.00     0.279 HD
ATOM     17  H31 UNL     1      -0.995  -0.161   1.587  1.00  0.00     0.279 HD
BRANCH  15  18
HETATM   18  C6  UNL     1      -2.701  -0.089   0.501  1.00  0.00     0.346 C 
BRANCH  18  19
HETATM   19  C7  UNL     1      -3.279  -0.420  -0.822  1.00  0.00     0.275 C 
HETATM   20  O1  UNL     1      -2.643  -0.839  -1.760  1.00  0.00    -0.304 OA
ENDBRANCH  18  19
BRANCH  18  21
HETATM   21  C8  UNL     1      -3.352  -0.991   1.519  1.00  0.00     0.211 C 
HETATM   22  O2  UNL     1      -2.615  -1.667   2.257  1.00  0.00    -0.646 OA
HETATM   23  O3  UNL     1      -4.728  -1.045   1.609  1.00  0.00    -0.646 OA
ENDBRANCH  18  21
ENDBRANCH  15  18
ENDBRANCH  14  15
ENDBRANCH   7  14
TORSDOF 6
