REMARK  2 active torsions:
REMARK  status: ('A' for Active; 'I' for Inactive)
REMARK    1  A    between atoms: C3_6  and  C4_7 
REMARK       I    between atoms: C4_7  and  N2_9 
REMARK    2  A    between atoms: N2_9  and  N3_10 
REMARK       I    between atoms: N3_10  and  C5_12 
ROOT
HETATM    1  N1  UNL     1      -2.298   2.422   0.834  1.00  0.00    -0.385 N 
ATOM      2  H11 UNL     1      -3.200   2.776   1.151  1.00  0.00     0.157 HD
ATOM      3  H12 UNL     1      -1.486   3.039   0.809  1.00  0.00     0.157 HD
HETATM    4  C1  UNL     1      -2.154   1.201   0.473  1.00  0.00     0.103 A 
HETATM    5  C2  UNL     1      -0.923   0.718   0.040  1.00  0.00     0.084 A 
HETATM    6  C3  UNL     1      -0.880  -0.592  -0.336  1.00  0.00     0.123 A 
HETATM    7  N5  UNL     1      -1.954  -1.390  -0.299  1.00  0.00    -0.325 N 
ATOM      8  H5  UNL     1      -1.870  -2.363  -0.593  1.00  0.00     0.169 HD
HETATM    9  C6  UNL     1      -3.162  -0.915   0.128  1.00  0.00     0.194 A 
HETATM   10  N6  UNL     1      -4.295  -1.749   0.197  1.00  0.00    -0.063 NA
HETATM   11  N7  UNL     1      -3.238   0.377   0.507  1.00  0.00    -0.317 N 
ATOM     12  H7  UNL     1      -4.132   0.748   0.828  1.00  0.00     0.170 HD
ENDROOT
BRANCH   6  13
HETATM   13  C4  UNL     1       0.476  -1.125  -0.735  1.00  0.00     0.362 C 
HETATM   14  O1  UNL     1       0.412  -2.166  -1.459  1.00  0.00    -0.247 OA
HETATM   15  N2  UNL     1       1.606  -0.490  -0.307  1.00  0.00    -0.276 NA
BRANCH  15  16
HETATM   16  N3  UNL     1       2.689   0.111   0.099  1.00  0.00    -0.183 N 
HETATM   17  C5  UNL     1       3.937   0.237  -0.550  1.00  0.00     0.357 C 
HETATM   18  N4  UNL     1       4.988   0.945   0.090  1.00  0.00    -0.038 NA
HETATM   19  O2  UNL     1       4.180  -0.257  -1.690  1.00  0.00    -0.248 OA
ATOM     20  H3  UNL     1       2.626   0.553   1.016  1.00  0.00     0.206 HD
ENDBRANCH  15  16
ENDBRANCH   6  13
TORSDOF 2
