REMARK  3 active torsions:
REMARK  status: ('A' for Active; 'I' for Inactive)
REMARK    1  A    between atoms: C2_2  and  N2_5 
REMARK       I    between atoms: N2_5  and  C4_7 
REMARK    2  A    between atoms: C4_7  and  C5_9 
REMARK       I    between atoms: C5_9  and  N3_11 
REMARK    3  A    between atoms: N3_11  and  N4_13 
ROOT
HETATM    1  C1  UNL     1      -2.702   1.212   0.718  1.00  0.00     0.048 C 
HETATM    2  C2  UNL     1      -2.113   0.042   0.001  1.00  0.00     0.188 C 
HETATM    3  C3  UNL     1      -2.802  -0.156  -1.278  1.00  0.00     0.084 C 
HETATM    4  N1  UNL     1      -3.362  -0.296  -2.295  1.00  0.00    -0.195 NA
ENDROOT
BRANCH   2   5
HETATM    5  N2  UNL     1      -0.700   0.295  -0.189  1.00  0.00    -0.336 N 
HETATM    6  C4  UNL     1       0.322  -0.494   0.362  1.00  0.00     0.312 C 
HETATM    7  O1  UNL     1       0.027  -1.479   1.063  1.00  0.00    -0.262 OA
ATOM      8  H2  UNL     1      -0.430   1.097  -0.759  1.00  0.00     0.164 HD
BRANCH   6   9
HETATM    9  C5  UNL     1       1.711  -0.164   0.119  1.00  0.00     0.327 C 
HETATM   10  O2  UNL     1       1.991   0.852  -0.603  1.00  0.00    -0.261 OA
HETATM   11  N3  UNL     1       2.791  -0.912   0.641  1.00  0.00    -0.268 N 
ATOM     12  H3  UNL     1       2.613  -1.731   1.222  1.00  0.00     0.190 HD
BRANCH  11  13
HETATM   13  N4  UNL     1       4.094  -0.527   0.359  1.00  0.00    -0.342 N 
ATOM     14  H42 UNL     1       4.255   0.294  -0.224  1.00  0.00     0.176 HD
ATOM     15  H41 UNL     1       4.873  -1.067   0.736  1.00  0.00     0.176 HD
ENDBRANCH  11  13
ENDBRANCH   6   9
ENDBRANCH   2   5
TORSDOF 3
