REMARK  13 active torsions:
REMARK  status: ('A' for Active; 'I' for Inactive)
REMARK    1  A    between atoms: N5_15  and  C6_16 
REMARK    2  A    between atoms: C7_18  and  O1_19 
REMARK    3  A    between atoms: O1_19  and  N6_20 
REMARK    4  A    between atoms: N6_20  and  S2_22 
REMARK    5  A    between atoms: S2_22  and  C8_25 
REMARK    6  A    between atoms: C8_25  and  C9_26 
REMARK    7  A    between atoms: C9_26  and  O4_27 
REMARK    8  A    between atoms: C9_26  and  C10_29 
REMARK       I    between atoms: C10_29  and  N7_31 
REMARK    9  A    between atoms: N7_31  and  N8_33 
REMARK       I    between atoms: N8_33  and  C11_35 
REMARK   10  A    between atoms: C11_35  and  C12_37 
REMARK   11  A    between atoms: N10_40  and  O8_41 
REMARK   12  A    between atoms: C13_43  and  O9_44 
REMARK   13  A    between atoms: C14_46  and  O10_47 
ROOT
HETATM    1  C6  UNL     1      -3.898   0.250  -0.834  1.00  0.00     0.188 C 
HETATM    2  S1  UNL     1      -2.602  -0.585   0.164  1.00  0.00    -0.103 SA
HETATM    3  C7  UNL     1      -1.774   0.945   0.665  1.00  0.00     0.247 C 
HETATM    4  C13 UNL     1      -2.987   1.845   0.811  1.00  0.00     0.191 C 
HETATM    5  C14 UNL     1      -3.963   1.616  -0.251  1.00  0.00     0.183 C 
ENDROOT
BRANCH   3   6
HETATM    6  O1  UNL     1      -0.956   1.379  -0.377  1.00  0.00    -0.252 OA
BRANCH   6   7
HETATM    7  N6  UNL     1       0.121   2.017   0.054  1.00  0.00    -0.191 N 
ATOM      8  H6  UNL     1       0.129   2.498   0.953  1.00  0.00     0.207 HD
BRANCH   7   9
HETATM    9  S2  UNL     1       1.486   2.001  -0.951  1.00  0.00     0.251 S 
HETATM   10  O2  UNL     1       1.204   1.575  -2.354  1.00  0.00    -0.204 OA
HETATM   11  O3  UNL     1       2.127   3.379  -1.059  1.00  0.00    -0.204 OA
BRANCH   9  12
HETATM   12  C8  UNL     1       2.742   0.953  -0.261  1.00  0.00     0.206 C 
BRANCH  12  13
HETATM   13  C9  UNL     1       3.964   0.931  -1.177  1.00  0.00     0.227 C 
BRANCH  13  14
HETATM   14  O4  UNL     1       3.642   0.425  -2.406  1.00  0.00    -0.385 OA
ATOM     15  H4  UNL     1       4.402   0.411  -2.976  1.00  0.00     0.210 HD
ENDBRANCH  13  14
BRANCH  13  16
HETATM   16  C10 UNL     1       5.100   0.233  -0.565  1.00  0.00     0.265 C 
HETATM   17  O5  UNL     1       5.535   0.724   0.548  1.00  0.00    -0.269 OA
HETATM   18  N7  UNL     1       5.754  -0.914  -1.076  1.00  0.00    -0.265 N 
ATOM     19  H7  UNL     1       5.448  -1.352  -1.945  1.00  0.00     0.190 HD
BRANCH  18  20
HETATM   20  N8  UNL     1       6.854  -1.436  -0.336  1.00  0.00    -0.260 N 
HETATM   21  C11 UNL     1       8.061  -0.715  -0.282  1.00  0.00     0.316 C 
HETATM   22  O6  UNL     1       8.149   0.399  -0.904  1.00  0.00    -0.262 OA
ATOM     23  H8  UNL     1       6.767  -2.327   0.152  1.00  0.00     0.190 HD
BRANCH  21  24
HETATM   24  C12 UNL     1       9.198  -1.199   0.455  1.00  0.00     0.279 A 
HETATM   25  O7  UNL     1      10.441  -0.803   0.650  1.00  0.00    -0.194 OA
HETATM   26  N9  UNL     1      10.766  -1.781   1.419  1.00  0.00     0.060 NA
HETATM   27  N10 UNL     1       9.526  -2.242   1.268  1.00  0.00    -0.109 N 
BRANCH  27  28
HETATM   28  O8  UNL     1       8.785  -3.312   1.708  1.00  0.00    -0.267 OA
ATOM     29  H8  UNL     1       9.014  -4.039   2.275  1.00  0.00     0.246 HD
ENDBRANCH  27  28
ENDBRANCH  21  24
ENDBRANCH  18  20
ENDBRANCH  13  16
ENDBRANCH  12  13
ENDBRANCH   9  12
ENDBRANCH   7   9
ENDBRANCH   6   7
ENDBRANCH   3   6
BRANCH   4  30
HETATM   30  O9  UNL     1      -3.445   1.700   2.119  1.00  0.00    -0.389 OA
ATOM     31  H9  UNL     1      -4.204   2.263   2.210  1.00  0.00     0.210 HD
ENDBRANCH   4  30
BRANCH   1  32
HETATM   32  N5  UNL     1      -5.102  -0.480  -0.949  1.00  0.00    -0.310 N 
HETATM   33  C3  UNL     1      -5.908  -0.916   0.049  1.00  0.00     0.141 A 
HETATM   34  N3  UNL     1      -5.828  -0.807   1.393  1.00  0.00    -0.336 N 
HETATM   35  C4  UNL     1      -6.968  -1.571  -0.523  1.00  0.00     0.122 A 
HETATM   36  C2  UNL     1      -6.790  -1.344   2.144  1.00  0.00     0.183 A 
ATOM     37  H3  UNL     1      -5.043  -0.321   1.827  1.00  0.00     0.168 HD
HETATM   38  N2  UNL     1      -7.848  -1.995   1.615  1.00  0.00    -0.337 N 
HETATM   39  C1  UNL     1      -7.960  -2.121   0.293  1.00  0.00     0.131 A 
ATOM     40  H2  UNL     1      -8.562  -2.390   2.227  1.00  0.00     0.168 HD
HETATM   41  N1  UNL     1      -8.969  -2.730  -0.265  1.00  0.00    -0.383 N 
ATOM     42  H12 UNL     1      -9.693  -3.131   0.331  1.00  0.00     0.157 HD
ATOM     43  H11 UNL     1      -9.055  -2.826  -1.277  1.00  0.00     0.157 HD
HETATM   44  N4  UNL     1      -6.801  -1.529  -1.848  1.00  0.00    -0.346 N 
HETATM   45  C5  UNL     1      -5.671  -0.868  -2.097  1.00  0.00     0.186 A 
ATOM     46  H4  UNL     1      -7.427  -1.931  -2.545  1.00  0.00     0.167 HD
ENDBRANCH   1  32
BRANCH   5  47
HETATM   47  O10 UNL     1      -5.244   1.944   0.259  1.00  0.00    -0.390 OA
ATOM     48  H10 UNL     1      -5.286   2.817   0.632  1.00  0.00     0.210 HD
ENDBRANCH   5  47
TORSDOF 13
