REMARK  4 active torsions:
REMARK  status: ('A' for Active; 'I' for Inactive)
REMARK    1  A    between atoms: C2_2  and  C4_4 
REMARK    2  A    between atoms: C11_12  and  O2_13 
REMARK    3  A    between atoms: C16_20  and  O4_21 
REMARK    4  A    between atoms: C19_25  and  O5_26 
ROOT
HETATM    1  C4  UNL     1      -1.499   0.482   0.378  1.00  0.00     0.171 C 
HETATM    2  O1  UNL     1      -1.599   1.632  -0.416  1.00  0.00    -0.353 OA
HETATM    3  C5  UNL     1      -2.747   1.458  -1.187  1.00  0.00     0.180 C 
HETATM    4  C6  UNL     1      -2.859  -0.016  -1.463  1.00  0.00    -0.017 C 
HETATM    5  C7  UNL     1      -2.683  -0.237  -2.924  1.00  0.00     0.018 C 
HETATM    6  C8  UNL     1      -4.262  -0.541  -1.136  1.00  0.00     0.018 C 
HETATM    7  C9  UNL     1      -1.799  -0.611  -0.587  1.00  0.00     0.061 C 
HETATM    8  C10 UNL     1      -0.685  -1.268  -1.253  1.00  0.00     0.043 C 
HETATM    9  C11 UNL     1       0.649  -0.616  -1.296  1.00  0.00     0.132 C 
HETATM   10  C12 UNL     1       1.399  -0.646   0.009  1.00  0.00     0.045 A 
HETATM   11  C13 UNL     1       0.339  -0.742   1.098  1.00  0.00     0.187 C 
HETATM   12  O3  UNL     1      -0.336   0.427   1.053  1.00  0.00    -0.353 OA
HETATM   13  C14 UNL     1       2.663  -1.216   0.238  1.00  0.00     0.039 A 
HETATM   14  C15 UNL     1       3.931  -1.247  -0.531  1.00  0.00     0.040 C 
HETATM   15  C16 UNL     1       4.948  -0.486   0.256  1.00  0.00     0.118 C 
HETATM   16  C17 UNL     1       4.492   0.182   1.491  1.00  0.00     0.034 C 
HETATM   17  C18 UNL     1       3.098   0.745   1.492  1.00  0.00     0.042 C 
HETATM   18  C19 UNL     1       2.412   0.321   0.266  1.00  0.00     0.075 A 
ENDROOT
BRANCH   9  19
HETATM   19  O2  UNL     1       0.660   0.637  -1.902  1.00  0.00    -0.395 OA
ATOM     20  H2  UNL     1       1.513   1.054  -1.930  1.00  0.00     0.210 HD
ENDBRANCH   9  19
BRANCH  18  21
HETATM   21  O5  UNL     1       2.815   1.068  -0.855  1.00  0.00    -0.388 OA
ATOM     22  H5  UNL     1       3.491   1.713  -0.684  1.00  0.00     0.210 HD
ENDBRANCH  18  21
BRANCH   1  23
HETATM   23  C2  UNL     1      -2.574   0.655   1.443  1.00  0.00     0.040 C 
HETATM   24  C1  UNL     1      -2.656  -0.459   2.414  1.00  0.00     0.015 C 
HETATM   25  C3  UNL     1      -2.157   1.912   2.217  1.00  0.00     0.015 C 
ENDBRANCH   1  23
BRANCH  15  26
HETATM   26  O4  UNL     1       5.609   0.381  -0.614  1.00  0.00    -0.396 OA
ATOM     27  H4  UNL     1       6.256   0.865  -0.114  1.00  0.00     0.210 HD
ENDBRANCH  15  26
TORSDOF 4
