REMARK  11 active torsions:
REMARK  status: ('A' for Active; 'I' for Inactive)
REMARK    1  A    between atoms: C2_2  and  N1_3 
REMARK       I    between atoms: C3_5  and  N2_6 
REMARK       I    between atoms: C3_5  and  N9_31 
REMARK    2  A    between atoms: N2_6  and  C4_8 
REMARK    3  A    between atoms: C4_8  and  C5_9 
REMARK    4  A    between atoms: C5_9  and  C6_10 
REMARK       I    between atoms: C6_10  and  N3_12 
REMARK    5  A    between atoms: N4_15  and  C9_16 
REMARK    6  A    between atoms: C9_16  and  O2_17 
REMARK    7  A    between atoms: C9_16  and  C10_19 
REMARK    8  A    between atoms: C10_19  and  C11_21 
REMARK    9  A    between atoms: C11_21  and  C12_22 
REMARK   10  A    between atoms: C12_22  and  C13_23 
REMARK   11  A    between atoms: C13_23  and  N6_24 
ROOT
HETATM    1  C6  UNL     1      -0.990   0.965   0.161  1.00  0.00     0.221 C 
HETATM    2  O1  UNL     1      -1.339   1.649   1.174  1.00  0.00    -0.273 OA
HETATM    3  N3  UNL     1       0.374   0.971  -0.221  1.00  0.00    -0.349 N 
HETATM    4  C7  UNL     1       0.769   0.199  -1.366  1.00  0.00     0.145 C 
HETATM    5  C8  UNL     1       2.250   0.406  -1.594  1.00  0.00     0.145 C 
HETATM    6  N4  UNL     1       2.876   0.051  -0.295  1.00  0.00    -0.358 N 
HETATM    7  C15 UNL     1       2.612   0.954   0.796  1.00  0.00     0.145 C 
HETATM    8  C16 UNL     1       1.332   1.734   0.520  1.00  0.00     0.145 C 
ENDROOT
BRANCH   1   9
HETATM    9  C5  UNL     1      -2.021   0.188  -0.580  1.00  0.00     0.123 C 
BRANCH   9  10
HETATM   10  C4  UNL     1      -3.340   0.402   0.078  1.00  0.00     0.147 C 
BRANCH  10  11
HETATM   11  N2  UNL     1      -4.434  -0.287  -0.528  1.00  0.00    -0.226 N 
HETATM   12  C3  UNL     1      -5.723  -0.140   0.031  1.00  0.00     0.671 C 
HETATM   13  N1  UNL     1      -6.155  -1.013   0.855  1.00  0.00    -0.227 N 
HETATM   14  N9  UNL     1      -6.543   0.961  -0.304  1.00  0.00    -0.218 N 
ATOM     15  H1  UNL     1      -7.084  -0.910   1.262  1.00  0.00     0.177 HD
HETATM   16  C17 UNL     1      -7.893   0.868  -0.798  1.00  0.00     0.141 C 
HETATM   17  C20 UNL     1      -6.183   2.370  -0.213  1.00  0.00     0.141 C 
HETATM   18  C18 UNL     1      -8.533   2.081  -0.110  1.00  0.00     0.022 C 
HETATM   19  C19 UNL     1      -7.476   3.137  -0.351  1.00  0.00     0.022 C 
ATOM     20  H2  UNL     1      -4.288  -0.874  -1.349  1.00  0.00     0.177 HD
BRANCH  13  21
HETATM   21  C2  UNL     1      -5.343  -2.137   1.211  1.00  0.00     0.133 C 
HETATM   22  C1  UNL     1      -6.122  -3.400   0.897  1.00  0.00     0.027 C 
ENDBRANCH  13  21
ENDBRANCH  10  11
ENDBRANCH   9  10
ENDBRANCH   1   9
BRANCH   6  23
HETATM   23  C9  UNL     1       3.625  -1.110  -0.221  1.00  0.00     0.158 C 
BRANCH  23  24
HETATM   24  O2  UNL     1       3.696  -1.831  -1.309  1.00  0.00    -0.345 OA
ATOM     25  H2  UNL     1       4.210  -2.628  -1.258  1.00  0.00     0.219 HD
ENDBRANCH  23  24
BRANCH  23  26
HETATM   26  C10 UNL     1       4.365  -1.680   0.899  1.00  0.00     0.074 C 
HETATM   27  N5  UNL     1       4.668  -0.845   1.974  1.00  0.00    -0.103 NA
BRANCH  26  28
HETATM   28  C11 UNL     1       5.349  -2.743   0.539  1.00  0.00     0.060 C 
BRANCH  28  29
HETATM   29  C12 UNL     1       6.440  -2.497  -0.404  1.00  0.00     0.025 C 
BRANCH  29  30
HETATM   30  C13 UNL     1       7.410  -1.427  -0.054  1.00  0.00     0.122 C 
BRANCH  30  31
HETATM   31  N6  UNL     1       6.880  -0.116   0.003  1.00  0.00    -0.367 N 
HETATM   32  C14 UNL     1       7.636   0.907  -0.148  1.00  0.00     0.196 C 
HETATM   33  N7  UNL     1       7.141   2.242  -0.097  1.00  0.00    -0.067 NA
HETATM   34  N8  UNL     1       9.022   0.713  -0.376  1.00  0.00    -0.067 NA
ATOM     35  H6  UNL     1       5.882   0.016   0.167  1.00  0.00     0.161 HD
ENDBRANCH  30  31
ENDBRANCH  29  30
ENDBRANCH  28  29
ENDBRANCH  26  28
ENDBRANCH  23  26
ENDBRANCH   6  23
TORSDOF 11
