REMARK  9 active torsions:
REMARK  status: ('A' for Active; 'I' for Inactive)
REMARK    1  A    between atoms: C2_2  and  C3_4 
REMARK    2  A    between atoms: C3_4  and  N1_5 
REMARK    3  A    between atoms: C8_11  and  N2_12 
REMARK       I    between atoms: N2_12  and  C9_13 
REMARK       I    between atoms: N2_12  and  C10_16 
REMARK    4  A    between atoms: C10_16  and  C11_18 
REMARK    5  A    between atoms: C11_18  and  C12_19 
REMARK    6  A    between atoms: C12_19  and  C13_20 
REMARK    7  A    between atoms: C13_20  and  N4_21 
REMARK    8  A    between atoms: C17_28  and  C18_29 
REMARK    9  A    between atoms: C18_29  and  C19_30 
ROOT
HETATM    1  N1  UNL     1      -4.032   0.066   0.018  1.00  0.00    -0.340 N 
HETATM    2  C4  UNL     1      -3.871   0.639  -1.281  1.00  0.00     0.225 C 
HETATM    3  O2  UNL     1      -4.848   0.719  -2.091  1.00  0.00    -0.273 OA
HETATM    4  C5  UNL     1      -2.536   1.138  -1.663  1.00  0.00     0.084 C 
HETATM    5  C6  UNL     1      -2.239   1.207  -3.126  1.00  0.00     0.016 C 
HETATM    6  C7  UNL     1      -0.695   1.060  -3.133  1.00  0.00     0.027 C 
HETATM    7  C8  UNL     1      -0.387   0.113  -2.019  1.00  0.00     0.102 C 
HETATM    8  C15 UNL     1      -1.590   0.065  -1.235  1.00  0.00     0.024 C 
HETATM    9  C16 UNL     1      -1.591  -0.062   0.252  1.00  0.00     0.033 C 
HETATM   10  C17 UNL     1      -2.928  -0.703   0.584  1.00  0.00     0.098 C 
ENDROOT
BRANCH   7  11
HETATM   11  N2  UNL     1       0.880   0.393  -1.368  1.00  0.00    -0.267 N 
HETATM   12  C9  UNL     1       1.151   1.593  -0.700  1.00  0.00     0.338 C 
HETATM   13  N3  UNL     1       2.335   1.952  -0.014  1.00  0.00    -0.039 NA
HETATM   14  O3  UNL     1       0.257   2.504  -0.679  1.00  0.00    -0.250 OA
HETATM   15  C10 UNL     1       1.903  -0.622  -1.410  1.00  0.00     0.227 C 
HETATM   16  O4  UNL     1       1.616  -1.715  -2.024  1.00  0.00    -0.273 OA
BRANCH  15  17
HETATM   17  C11 UNL     1       3.237  -0.545  -0.830  1.00  0.00     0.105 C 
BRANCH  17  18
HETATM   18  C12 UNL     1       3.944  -1.872  -1.045  1.00  0.00     0.029 C 
BRANCH  18  19
HETATM   19  C13 UNL     1       5.336  -1.861  -0.459  1.00  0.00     0.122 C 
BRANCH  19  20
HETATM   20  N4  UNL     1       5.188  -1.598   0.956  1.00  0.00    -0.367 N 
HETATM   21  C14 UNL     1       6.051  -0.858   1.542  1.00  0.00     0.196 C 
HETATM   22  N5  UNL     1       7.127  -0.314   0.801  1.00  0.00    -0.067 NA
HETATM   23  N6  UNL     1       5.896  -0.608   2.918  1.00  0.00    -0.067 NA
ATOM     24  H4  UNL     1       4.408  -1.997   1.478  1.00  0.00     0.161 HD
ENDBRANCH  19  20
ENDBRANCH  18  19
ENDBRANCH  17  18
ENDBRANCH  15  17
ENDBRANCH   7  11
BRANCH  10  25
HETATM   25  C18 UNL     1      -3.131  -1.065   1.992  1.00  0.00     0.138 C 
BRANCH  25  26
HETATM   26  C19 UNL     1      -2.065  -1.881   2.588  1.00  0.00     0.174 C 
HETATM   27  O5  UNL     1      -1.118  -2.391   1.964  1.00  0.00    -0.648 OA
HETATM   28  O6  UNL     1      -2.054  -2.145   3.974  1.00  0.00    -0.648 OA
ENDBRANCH  25  26
ENDBRANCH  10  25
BRANCH   1  29
HETATM   29  C3  UNL     1      -5.301   0.225   0.696  1.00  0.00     0.204 C 
BRANCH  29  30
HETATM   30  C2  UNL     1      -5.390   1.465   1.496  1.00  0.00     0.140 C 
HETATM   31  C1  UNL     1      -4.329   2.488   1.400  1.00  0.00     0.092 C 
HETATM   32  O1  UNL     1      -6.337   1.681   2.250  1.00  0.00    -0.297 OA
ENDBRANCH  29  30
ENDBRANCH   1  29
TORSDOF 9
