REMARK  2 active torsions:
REMARK  status: ('A' for Active; 'I' for Inactive)
REMARK    1  A    between atoms: C5_7  and  C6_8 
REMARK    2  A    between atoms: C7_9  and  C8_10 
ROOT
HETATM    1  C8  UNL     1      -0.485  -0.362   0.775  1.00  0.00     0.019 A 
HETATM    2  C9  UNL     1      -0.711  -0.884   2.023  1.00  0.00     0.023 A 
HETATM    3  C10 UNL     1      -1.992  -1.050   2.501  1.00  0.00     0.032 A 
HETATM    4  C11 UNL     1      -3.048  -0.669   1.674  1.00  0.00     0.045 A 
HETATM    5  N2  UNL     1      -4.385  -0.692   1.819  1.00  0.00    -0.341 N 
ATOM      6  H2  UNL     1      -4.872  -1.030   2.649  1.00  0.00     0.167 HD
HETATM    7  C12 UNL     1      -4.996  -0.206   0.714  1.00  0.00     0.116 A 
HETATM    8  N3  UNL     1      -6.280  -0.017   0.353  1.00  0.00    -0.352 N 
ATOM      9  H3  UNL     1      -7.010  -0.278   1.016  1.00  0.00     0.166 HD
HETATM   10  C13 UNL     1      -6.652   0.493  -0.824  1.00  0.00     0.090 A 
HETATM   11  C14 UNL     1      -5.679   0.849  -1.730  1.00  0.00     0.018 A 
HETATM   12  C15 UNL     1      -4.338   0.686  -1.436  1.00  0.00     0.017 A 
HETATM   13  C16 UNL     1      -4.023   0.150  -0.194  1.00  0.00     0.021 A 
HETATM   14  C17 UNL     1      -2.822  -0.143   0.418  1.00  0.00     0.006 A 
HETATM   15  C18 UNL     1      -1.536   0.006  -0.022  1.00  0.00     0.035 A 
ENDROOT
BRANCH   1  16
HETATM   16  C7  UNL     1       0.852  -0.177   0.249  1.00  0.00    -0.061 C 
HETATM   17  C6  UNL     1       1.973  -0.043  -0.184  1.00  0.00    -0.060 C 
BRANCH  17  18
HETATM   18  C5  UNL     1       3.321   0.100  -0.685  1.00  0.00     0.034 A 
HETATM   19  C4  UNL     1       3.535   0.313  -2.029  1.00  0.00     0.108 A 
HETATM   20  N1  UNL     1       4.785   0.450  -2.529  1.00  0.00    -0.373 N 
HETATM   21  C3  UNL     1       5.842   0.381  -1.711  1.00  0.00     0.094 A 
ATOM     22  H1  UNL     1       4.921   0.606  -3.528  1.00  0.00     0.164 HD
HETATM   23  C2  UNL     1       5.664   0.168  -0.350  1.00  0.00    -0.045 A 
HETATM   24  C1  UNL     1       6.850   0.090   0.564  1.00  0.00     0.049 C 
HETATM   25  C19 UNL     1       4.394   0.026   0.170  1.00  0.00     0.030 A 
ENDBRANCH  17  18
ENDBRANCH   1  16
TORSDOF 2
