REMARK  14 active torsions:
REMARK  status: ('A' for Active; 'I' for Inactive)
REMARK    1  A    between atoms: C3_3  and  C4_4 
REMARK    2  A    between atoms: C4_4  and  C5_5 
REMARK    3  A    between atoms: C5_5  and  C6_6 
REMARK    4  A    between atoms: C6_6  and  C7_7 
REMARK    5  A    between atoms: C7_7  and  C8_8 
REMARK    6  A    between atoms: C8_8  and  C9_9 
REMARK    7  A    between atoms: C9_9  and  C10_10 
REMARK    8  A    between atoms: C10_10  and  C11_11 
REMARK    9  A    between atoms: C11_11  and  C12_12 
REMARK   10  A    between atoms: C12_12  and  C13_13 
REMARK   11  A    between atoms: C13_13  and  C14_14 
REMARK   12  A    between atoms: C14_14  and  C15_15 
REMARK   13  A    between atoms: C15_15  and  N1_16 
REMARK   14  A    between atoms: N1_16  and  C16_18 
ROOT
HETATM    1  C1  UNL     1      -5.849   3.696  -0.507  1.00  0.00     0.012 C 
HETATM    2  C2  UNL     1      -6.294   2.886   0.274  1.00  0.00    -0.117 C 
HETATM    3  C3  UNL     1      -6.820   1.901   1.240  1.00  0.00     0.093 C 
ENDROOT
BRANCH   3   4
HETATM    4  C4  UNL     1      -5.983   0.618   1.072  1.00  0.00     0.012 C 
BRANCH   4   5
HETATM    5  C5  UNL     1      -6.189   0.194  -0.358  1.00  0.00     0.001 C 
BRANCH   5   6
HETATM    6  C6  UNL     1      -5.459  -1.067  -0.728  1.00  0.00     0.000 C 
BRANCH   6   7
HETATM    7  C7  UNL     1      -3.967  -0.847  -0.529  1.00  0.00     0.000 C 
BRANCH   7   8
HETATM    8  C8  UNL     1      -3.177  -2.064  -0.895  1.00  0.00     0.000 C 
BRANCH   8   9
HETATM    9  C9  UNL     1      -1.711  -1.811  -0.710  1.00  0.00     0.000 C 
BRANCH   9  10
HETATM   10  C10 UNL     1      -1.408  -1.481   0.708  1.00  0.00     0.000 C 
BRANCH  10  11
HETATM   11  C11 UNL     1       0.099  -1.256   0.913  1.00  0.00     0.000 C 
BRANCH  11  12
HETATM   12  C12 UNL     1       0.601  -0.121   0.065  1.00  0.00     0.000 C 
BRANCH  12  13
HETATM   13  C13 UNL     1       2.071   0.086   0.326  1.00  0.00     0.002 C 
BRANCH  13  14
HETATM   14  C14 UNL     1       2.832  -1.148  -0.018  1.00  0.00     0.020 C 
BRANCH  14  15
HETATM   15  C15 UNL     1       4.328  -0.905   0.231  1.00  0.00     0.119 C 
BRANCH  15  16
HETATM   16  N1  UNL     1       4.774   0.167  -0.598  1.00  0.00    -0.390 N 
ATOM     17  H1  UNL     1       4.102   0.603  -1.230  1.00  0.00     0.159 HD
BRANCH  16  18
HETATM   18  C16 UNL     1       6.114   0.661  -0.588  1.00  0.00     0.027 A 
HETATM   19  C17 UNL     1       6.494   1.686  -1.396  1.00  0.00     0.029 A 
HETATM   20  C18 UNL     1       7.785   2.189  -1.412  1.00  0.00     0.002 A 
HETATM   21  C19 UNL     1       8.710   1.603  -0.556  1.00  0.00     0.000 A 
HETATM   22  C20 UNL     1       8.362   0.560   0.280  1.00  0.00     0.002 A 
HETATM   23  C21 UNL     1       7.060   0.105   0.248  1.00  0.00     0.029 A 
ENDBRANCH  16  18
ENDBRANCH  15  16
ENDBRANCH  14  15
ENDBRANCH  13  14
ENDBRANCH  12  13
ENDBRANCH  11  12
ENDBRANCH  10  11
ENDBRANCH   9  10
ENDBRANCH   8   9
ENDBRANCH   7   8
ENDBRANCH   6   7
ENDBRANCH   5   6
ENDBRANCH   4   5
ENDBRANCH   3   4
TORSDOF 14
