REMARK  7 active torsions:
REMARK  status: ('A' for Active; 'I' for Inactive)
REMARK    1  A    between atoms: N1_1  and  C1_4 
REMARK    2  A    between atoms: C2_9  and  N4_10 
REMARK    3  A    between atoms: N4_10  and  C3_12 
REMARK    4  A    between atoms: N6_17  and  C5_18 
REMARK    5  A    between atoms: C5_18  and  C6_19 
REMARK    6  A    between atoms: C6_19  and  C7_20 
REMARK    7  A    between atoms: C7_20  and  C8_21 
ROOT
HETATM    1  C3  UNL     1       1.797  -1.441  -0.212  1.00  0.00     0.705 A 
HETATM    2  N5  UNL     1       1.144  -1.183   0.935  1.00  0.00    -0.140 N 
ATOM      3  H5  UNL     1       1.651  -0.823   1.744  1.00  0.00     0.189 HD
HETATM    4  C4  UNL     1      -0.202  -1.405   1.012  1.00  0.00     0.344 A 
HETATM    5  O1  UNL     1      -0.707  -1.126   2.146  1.00  0.00    -0.246 OA
HETATM    6  N6  UNL     1      -0.906  -1.875  -0.026  1.00  0.00    -0.250 N 
HETATM    7  C9  UNL     1      -0.261  -2.135  -1.174  1.00  0.00     0.344 A 
HETATM    8  O3  UNL     1      -0.893  -2.587  -2.194  1.00  0.00    -0.246 OA
HETATM    9  N8  UNL     1       1.064  -1.912  -1.231  1.00  0.00    -0.140 N 
ATOM     10  H8  UNL     1       1.543  -2.115  -2.108  1.00  0.00     0.189 HD
ENDROOT
BRANCH   1  11
HETATM   11  N4  UNL     1       3.189  -1.211  -0.287  1.00  0.00    -0.020 N 
ATOM     12  H4  UNL     1       3.802  -2.008  -0.458  1.00  0.00     0.203 HD
BRANCH  11  13
HETATM   13  C2  UNL     1       3.723  -0.054  -0.152  1.00  0.00     0.726 A 
HETATM   14  N3  UNL     1       5.027   0.242  -0.210  1.00  0.00    -0.117 N 
HETATM   15  N2  UNL     1       5.187   1.560  -0.020  1.00  0.00    -0.118 N 
ATOM     16  H3  UNL     1       5.779  -0.428  -0.373  1.00  0.00     0.206 HD
HETATM   17  C1  UNL     1       3.965   2.093   0.159  1.00  0.00     0.705 A 
ATOM     18  H2  UNL     1       6.073   2.066  -0.013  1.00  0.00     0.206 HD
HETATM   19  N9  UNL     1       3.048   1.083   0.076  1.00  0.00    -0.019 N 
ATOM     20  H9  UNL     1       2.037   1.176   0.170  1.00  0.00     0.203 HD
BRANCH  17  21
HETATM   21  N1  UNL     1       3.708   3.339   0.370  1.00  0.00    -0.233 N 
ATOM     22  H12 UNL     1       4.392   4.093   0.432  1.00  0.00     0.174 HD
ATOM     23  H11 UNL     1       2.781   3.743   0.506  1.00  0.00     0.174 HD
ENDBRANCH  17  21
ENDBRANCH  11  13
ENDBRANCH   1  11
BRANCH   6  24
HETATM   24  C5  UNL     1      -2.310  -2.081   0.099  1.00  0.00     0.139 C 
BRANCH  24  25
HETATM   25  C6  UNL     1      -3.192  -0.957  -0.293  1.00  0.00     0.029 C 
BRANCH  25  26
HETATM   26  C7  UNL     1      -3.013   0.325   0.443  1.00  0.00     0.101 C 
BRANCH  26  27
HETATM   27  C8  UNL     1      -3.975   1.341  -0.055  1.00  0.00     0.231 C 
HETATM   28  N7  UNL     1      -4.036   2.655   0.460  1.00  0.00    -0.062 NA
HETATM   29  O2  UNL     1      -4.768   1.026  -0.971  1.00  0.00    -0.277 OA
ENDBRANCH  26  27
ENDBRANCH  25  26
ENDBRANCH  24  25
ENDBRANCH   6  24
TORSDOF 7
