REMARK  12 active torsions:
REMARK  status: ('A' for Active; 'I' for Inactive)
REMARK    1  A    between atoms: C2_2  and  C3_3 
REMARK    2  A    between atoms: C3_3  and  C5_5 
REMARK    3  A    between atoms: C3_3  and  C7_7 
REMARK    4  A    between atoms: C8_10  and  O1_11 
REMARK    5  A    between atoms: C9_15  and  C10_16 
REMARK    6  A    between atoms: C10_16  and  C11_17 
REMARK    7  A    between atoms: C11_17  and  C12_18 
REMARK    8  A    between atoms: C12_18  and  N3_19 
REMARK    9  A    between atoms: C15_28  and  C16_29 
REMARK   10  A    between atoms: C16_29  and  C17_30 
REMARK   11  A    between atoms: C17_30  and  C18_31 
REMARK   12  A    between atoms: C18_31  and  N7_32 
ROOT
HETATM    1  C7  UNL     1      -1.645  -1.720   0.163  1.00  0.00     0.101 C 
HETATM    2  N1  UNL     1      -0.587  -1.613   1.155  1.00  0.00    -0.311 N 
ATOM      3  H1  UNL     1      -0.934  -1.447   2.100  1.00  0.00     0.170 HD
HETATM    4  C8  UNL     1       0.797  -1.690   1.082  1.00  0.00     0.218 C 
HETATM    5  N2  UNL     1       1.730  -1.363   0.071  1.00  0.00    -0.343 N 
ATOM      6  H2  UNL     1       2.396  -2.095  -0.175  1.00  0.00     0.164 HD
HETATM    7  C9  UNL     1       1.859  -0.122  -0.658  1.00  0.00     0.177 C 
HETATM    8  C14 UNL     1       1.769   1.069   0.201  1.00  0.00     0.241 C 
HETATM    9  O2  UNL     1       2.817   1.412   0.863  1.00  0.00    -0.271 OA
HETATM   10  N6  UNL     1       0.638   1.895   0.382  1.00  0.00    -0.346 N 
ATOM     11  H6  UNL     1       0.784   2.896   0.249  1.00  0.00     0.163 HD
HETATM   12  C15 UNL     1      -0.689   1.489   0.730  1.00  0.00     0.177 C 
HETATM   13  C20 UNL     1      -1.447   0.782  -0.325  1.00  0.00     0.247 C 
HETATM   14  O3  UNL     1      -1.449   1.332  -1.477  1.00  0.00    -0.271 OA
HETATM   15  N10 UNL     1      -2.187  -0.439  -0.236  1.00  0.00    -0.309 N 
HETATM   16  C21 UNL     1      -3.627  -0.307  -0.576  1.00  0.00     0.160 C 
ENDROOT
BRANCH   7  17
HETATM   17  C10 UNL     1       3.049  -0.025  -1.553  1.00  0.00     0.036 C 
BRANCH  17  18
HETATM   18  C11 UNL     1       4.416  -0.077  -1.055  1.00  0.00     0.022 C 
BRANCH  18  19
HETATM   19  C12 UNL     1       4.871  -1.279  -0.286  1.00  0.00     0.122 C 
BRANCH  19  20
HETATM   20  N3  UNL     1       6.283  -1.207   0.044  1.00  0.00    -0.367 N 
HETATM   21  C13 UNL     1       6.820  -0.860   1.118  1.00  0.00     0.196 C 
HETATM   22  N4  UNL     1       8.244  -0.868   1.220  1.00  0.00    -0.067 NA
HETATM   23  N5  UNL     1       6.101  -0.431   2.262  1.00  0.00    -0.067 NA
ATOM     24  H3  UNL     1       6.924  -1.476  -0.702  1.00  0.00     0.161 HD
ENDBRANCH  19  20
ENDBRANCH  18  19
ENDBRANCH  17  18
ENDBRANCH   7  17
BRANCH   4  25
HETATM   25  O1  UNL     1       1.376  -2.158   2.153  1.00  0.00    -0.332 OA
ATOM     26  H1  UNL     1       2.323  -2.211   2.103  1.00  0.00     0.220 HD
ENDBRANCH   4  25
BRANCH  12  27
HETATM   27  C16 UNL     1      -1.455   2.741   1.178  1.00  0.00     0.036 C 
BRANCH  27  28
HETATM   28  C17 UNL     1      -1.574   3.809   0.166  1.00  0.00     0.022 C 
BRANCH  28  29
HETATM   29  C18 UNL     1      -2.349   5.016   0.710  1.00  0.00     0.122 C 
BRANCH  29  30
HETATM   30  N7  UNL     1      -3.680   4.698   1.117  1.00  0.00    -0.367 N 
HETATM   31  C19 UNL     1      -4.766   4.900   0.490  1.00  0.00     0.196 C 
HETATM   32  N8  UNL     1      -5.984   4.484   1.128  1.00  0.00    -0.067 NA
HETATM   33  N9  UNL     1      -4.850   5.502  -0.786  1.00  0.00    -0.067 NA
ATOM     34  H7  UNL     1      -3.771   4.251   2.029  1.00  0.00     0.161 HD
ENDBRANCH  29  30
ENDBRANCH  28  29
ENDBRANCH  27  28
ENDBRANCH  12  27
BRANCH   1  35
HETATM   35  C3  UNL     1      -1.609  -2.858  -0.763  1.00  0.00     0.032 C 
HETATM   36  C4  UNL     1      -2.789  -2.874  -1.784  1.00  0.00     0.028 C 
BRANCH  35  37
HETATM   37  C2  UNL     1      -0.419  -3.060  -1.609  1.00  0.00    -0.020 C 
HETATM   38  C1  UNL     1      -0.250  -2.585  -2.838  1.00  0.00     0.008 C 
ENDBRANCH  35  37
BRANCH  35  39
HETATM   39  C5  UNL     1      -1.856  -4.205  -0.067  1.00  0.00     0.016 C 
HETATM   40  C6  UNL     1      -0.796  -4.709   0.814  1.00  0.00     0.006 C 
ENDBRANCH  35  39
ENDBRANCH   1  35
TORSDOF 12
