REMARK  8 active torsions:
REMARK  status: ('A' for Active; 'I' for Inactive)
REMARK    1  A    between atoms: N1_1  and  C1_4 
REMARK    2  A    between atoms: C4_10  and  N3_11 
REMARK    3  A    between atoms: N3_11  and  N4_13 
REMARK    4  A    between atoms: N6_20  and  C6_21 
REMARK    5  A    between atoms: C6_21  and  C7_22 
REMARK    6  A    between atoms: C7_22  and  C8_24 
REMARK    7  A    between atoms: C8_24  and  O4_25 
REMARK    8  A    between atoms: C8_24  and  C9_27 
ROOT
HETATM    1  C1  UNL     1      -2.105  -2.108   1.374  1.00  0.00     0.680 A 
HETATM    2  N2  UNL     1      -3.318  -1.868   0.857  1.00  0.00    -0.155 N 
ATOM      3  H2  UNL     1      -4.095  -2.505   1.033  1.00  0.00     0.187 HD
HETATM    4  C2  UNL     1      -3.486  -0.774   0.105  1.00  0.00     0.277 A 
HETATM    5  O1  UNL     1      -4.606  -0.479  -0.420  1.00  0.00    -0.266 OA
HETATM    6  C3  UNL     1      -2.420   0.078  -0.121  1.00  0.00     0.123 A 
HETATM    7  C4  UNL     1      -2.581   1.209  -0.895  1.00  0.00     0.143 A 
HETATM    8  N5  UNL     1      -1.503   1.992  -1.075  1.00  0.00    -0.292 N 
ATOM      9  H5  UNL     1      -1.590   2.835  -1.643  1.00  0.00     0.172 HD
HETATM   10  C5  UNL     1      -0.313   1.693  -0.526  1.00  0.00     0.330 A 
HETATM   11  O2  UNL     1       0.673   2.474  -0.732  1.00  0.00    -0.246 OA
HETATM   12  N6  UNL     1      -0.108   0.592   0.243  1.00  0.00    -0.277 N 
HETATM   13  C10 UNL     1      -1.168  -0.195   0.430  1.00  0.00     0.147 A 
HETATM   14  N8  UNL     1      -1.047  -1.304   1.177  1.00  0.00    -0.175 N 
ATOM     15  H8  UNL     1      -0.147  -1.537   1.597  1.00  0.00     0.186 HD
ENDROOT
BRANCH  12  16
HETATM   16  C6  UNL     1       1.201   0.350   0.789  1.00  0.00     0.217 C 
BRANCH  16  17
HETATM   17  C7  UNL     1       2.044  -0.471  -0.122  1.00  0.00     0.182 C 
HETATM   18  O3  UNL     1       1.578  -0.841  -1.211  1.00  0.00    -0.293 OA
BRANCH  17  19
HETATM   19  C8  UNL     1       3.420  -0.854   0.238  1.00  0.00     0.278 C 
BRANCH  19  20
HETATM   20  O4  UNL     1       4.001  -1.626  -0.780  1.00  0.00    -0.379 OA
ATOM     21  H4  UNL     1       4.888  -1.873  -0.548  1.00  0.00     0.211 HD
ENDBRANCH  19  20
BRANCH  19  22
HETATM   22  C9  UNL     1       4.311   0.257   0.586  1.00  0.00     0.267 C 
HETATM   23  N7  UNL     1       5.541   0.406  -0.110  1.00  0.00    -0.059 NA
HETATM   24  O5  UNL     1       4.073   1.114   1.473  1.00  0.00    -0.274 OA
ENDBRANCH  19  22
ENDBRANCH  17  19
ENDBRANCH  16  17
ENDBRANCH  12  16
BRANCH   7  25
HETATM   25  N3  UNL     1      -3.743   1.486  -1.422  1.00  0.00    -0.291 N 
ATOM     26  H3  UNL     1      -4.533   0.861  -1.259  1.00  0.00     0.188 HD
BRANCH  25  27
HETATM   27  N4  UNL     1      -3.916   2.621  -2.202  1.00  0.00    -0.344 N 
ATOM     28  H42 UNL     1      -3.116   3.235  -2.355  1.00  0.00     0.176 HD
ATOM     29  H41 UNL     1      -4.824   2.837  -2.614  1.00  0.00     0.176 HD
ENDBRANCH  25  27
ENDBRANCH   7  25
BRANCH   1  30
HETATM   30  N1  UNL     1      -1.961  -3.170   2.098  1.00  0.00    -0.234 N 
ATOM     31  H12 UNL     1      -2.764  -3.780   2.248  1.00  0.00     0.174 HD
ATOM     32  H11 UNL     1      -1.038  -3.353   2.491  1.00  0.00     0.174 HD
ENDBRANCH   1  30
TORSDOF 8
