REMARK  8 active torsions:
REMARK  status: ('A' for Active; 'I' for Inactive)
REMARK    1  A    between atoms: N2_4  and  C1_5 
REMARK    2  A    between atoms: N2_4  and  N8_20 
REMARK    3  A    between atoms: N5_10  and  N6_11 
REMARK    4  A    between atoms: C4_21  and  O3_22 
REMARK    5  A    between atoms: C5_24  and  C6_25 
REMARK    6  A    between atoms: C8_29  and  O6_30 
REMARK    7  A    between atoms: C8_29  and  C9_32 
REMARK    8  A    between atoms: C9_32  and  O7_33 
ROOT
HETATM    1  N1  UNL     1       0.082  -2.686  -0.203  1.00  0.00    -0.322 N 
ATOM      2  H11 UNL     1      -0.835  -3.107  -0.349  1.00  0.00     0.179 HD
ATOM      3  H12 UNL     1       0.957  -3.208  -0.156  1.00  0.00     0.179 HD
HETATM    4  N2  UNL     1       0.115  -1.423  -0.075  1.00  0.00    -0.176 N 
ENDROOT
BRANCH   4   5
HETATM    5  C1  UNL     1       1.397  -0.834   0.129  1.00  0.00     0.229 C 
HETATM    6  N3  UNL     1       1.557  -0.073   1.153  1.00  0.00    -0.262 N 
HETATM    7  N4  UNL     1       2.643   0.650   1.650  1.00  0.00    -0.216 N 
ATOM      8  H3  UNL     1       0.715   0.022   1.721  1.00  0.00     0.190 HD
HETATM    9  N5  UNL     1       3.841   0.946   0.984  1.00  0.00    -0.134 N 
ATOM     10  H4  UNL     1       2.555   1.002   2.603  1.00  0.00     0.210 HD
HETATM   11  C2  UNL     1       4.304   0.477  -0.274  1.00  0.00     0.364 C 
HETATM   12  O1  UNL     1       5.388   0.997  -0.643  1.00  0.00    -0.243 OA
HETATM   13  N7  UNL     1       3.669  -0.485  -1.104  1.00  0.00    -0.269 N 
HETATM   14  C3  UNL     1       2.422  -1.159  -0.866  1.00  0.00     0.298 C 
ATOM     15  H7  UNL     1       4.154  -0.725  -1.969  1.00  0.00     0.174 HD
HETATM   16  O2  UNL     1       2.198  -2.142  -1.607  1.00  0.00    -0.264 OA
BRANCH   9  17
HETATM   17  N6  UNL     1       4.710   1.823   1.636  1.00  0.00    -0.319 N 
ATOM     18  H62 UNL     1       4.377   2.160   2.540  1.00  0.00     0.179 HD
ATOM     19  H61 UNL     1       5.581   2.038   1.152  1.00  0.00     0.179 HD
ENDBRANCH   9  17
ENDBRANCH   4   5
BRANCH   4  20
HETATM   20  N8  UNL     1      -1.069  -0.716  -0.138  1.00  0.00    -0.232 N 
HETATM   21  C4  UNL     1      -1.935  -0.398   0.961  1.00  0.00     0.282 C 
HETATM   22  C5  UNL     1      -3.285  -0.443   0.302  1.00  0.00     0.069 C 
HETATM   23  C7  UNL     1      -3.112  -0.303  -1.026  1.00  0.00     0.056 C 
HETATM   24  C8  UNL     1      -1.667  -0.160  -1.321  1.00  0.00     0.193 C 
BRANCH  21  25
HETATM   25  O3  UNL     1      -1.690   0.853   1.512  1.00  0.00    -0.371 OA
ATOM     26  H3  UNL     1      -2.263   1.064   2.240  1.00  0.00     0.212 HD
ENDBRANCH  21  25
BRANCH  22  27
HETATM   27  C6  UNL     1      -4.539  -0.611   1.009  1.00  0.00     0.209 C 
HETATM   28  O4  UNL     1      -4.535  -0.728   2.252  1.00  0.00    -0.644 OA
HETATM   29  O5  UNL     1      -5.729  -0.639   0.306  1.00  0.00    -0.644 OA
ENDBRANCH  22  27
BRANCH  24  30
HETATM   30  O6  UNL     1      -1.385  -0.886  -2.466  1.00  0.00    -0.364 OA
ATOM     31  H6  UNL     1      -1.780  -0.519  -3.248  1.00  0.00     0.213 HD
ENDBRANCH  24  30
BRANCH  24  32
HETATM   32  C9  UNL     1      -1.307   1.289  -1.531  1.00  0.00     0.231 C 
BRANCH  32  33
HETATM   33  O7  UNL     1       0.044   1.496  -1.663  1.00  0.00    -0.396 OA
ATOM     34  H7  UNL     1       0.271   2.409  -1.795  1.00  0.00     0.209 HD
ENDBRANCH  32  33
ENDBRANCH  24  32
ENDBRANCH   4  20
TORSDOF 8
