REMARK  10 active torsions:
REMARK  status: ('A' for Active; 'I' for Inactive)
REMARK    1  A    between atoms: C3_3  and  O1_4 
REMARK    2  A    between atoms: C5_11  and  O2_12 
REMARK    3  A    between atoms: C6_14  and  N4_15 
REMARK    4  A    between atoms: N4_15  and  N5_17 
REMARK    5  A    between atoms: C7_19  and  C8_20 
REMARK    6  A    between atoms: C8_20  and  O3_21 
REMARK    7  A    between atoms: C8_20  and  C9_23 
REMARK    8  A    between atoms: C9_23  and  N6_25 
REMARK    9  A    between atoms: C12_32  and  O4_33 
REMARK   10  A    between atoms: C12_32  and  O5_35 
ROOT
HETATM    1  C1  UNL     1      -5.775  -2.122   1.734  1.00  0.00     0.017 C 
HETATM    2  C2  UNL     1      -5.334  -1.278   0.995  1.00  0.00    -0.051 C 
HETATM    3  C3  UNL     1      -4.796  -0.239   0.079  1.00  0.00     0.262 C 
HETATM    4  N1  UNL     1      -4.238  -0.921  -1.027  1.00  0.00    -0.318 N 
ATOM      5  H1  UNL     1      -4.854  -1.351  -1.717  1.00  0.00     0.166 HD
HETATM    6  C4  UNL     1      -2.963  -1.005  -1.172  1.00  0.00     0.193 C 
HETATM    7  N2  UNL     1      -2.467  -1.720  -2.330  1.00  0.00    -0.063 NA
HETATM    8  N3  UNL     1      -2.042  -0.442  -0.273  1.00  0.00    -0.295 N 
HETATM    9  C5  UNL     1      -0.613  -0.334  -0.260  1.00  0.00     0.294 C 
HETATM   10  C6  UNL     1      -0.458   1.002   0.393  1.00  0.00     0.143 C 
HETATM   11  N7  UNL     1      -1.521   1.285   1.061  1.00  0.00    -0.349 N 
ATOM     12  H7  UNL     1      -1.665   2.141   1.597  1.00  0.00     0.163 HD
HETATM   13  C11 UNL     1      -2.482   0.210   0.940  1.00  0.00     0.260 C 
HETATM   14  C12 UNL     1      -3.910   0.651   0.868  1.00  0.00     0.264 C 
ENDROOT
BRANCH   3  15
HETATM   15  O1  UNL     1      -5.905   0.513  -0.331  1.00  0.00    -0.356 OA
ATOM     16  H1  UNL     1      -5.561   1.177  -0.917  1.00  0.00     0.213 HD
ENDBRANCH   3  15
BRANCH  14  17
HETATM   17  O4  UNL     1      -3.935   1.982   0.441  1.00  0.00    -0.358 OA
ATOM     18  H4  UNL     1      -3.367   2.552   0.946  1.00  0.00     0.213 HD
ENDBRANCH  14  17
BRANCH  14  19
HETATM   19  O5  UNL     1      -4.400   0.669   2.194  1.00  0.00    -0.358 OA
ATOM     20  H5  UNL     1      -3.832   1.239   2.699  1.00  0.00     0.213 HD
ENDBRANCH  14  19
BRANCH   9  21
HETATM   21  O2  UNL     1      -0.047  -0.348  -1.529  1.00  0.00    -0.369 OA
ATOM     22  H2  UNL     1       0.900  -0.276  -1.520  1.00  0.00     0.212 HD
ENDBRANCH   9  21
BRANCH  10  23
HETATM   23  N4  UNL     1       0.685   1.822   0.289  1.00  0.00    -0.286 N 
ATOM     24  H4  UNL     1       0.688   2.711   0.788  1.00  0.00     0.188 HD
BRANCH  23  25
HETATM   25  N5  UNL     1       1.812   1.482  -0.460  1.00  0.00    -0.312 N 
HETATM   26  C7  UNL     1       2.803   0.812   0.042  1.00  0.00     0.113 C 
ATOM     27  H5  UNL     1       1.858   1.771  -1.437  1.00  0.00     0.185 HD
BRANCH  26  28
HETATM   28  C8  UNL     1       3.980   0.465  -0.767  1.00  0.00     0.188 C 
BRANCH  28  29
HETATM   29  O3  UNL     1       4.514   1.586  -1.368  1.00  0.00    -0.388 OA
ATOM     30  H3  UNL     1       5.275   1.362  -1.891  1.00  0.00     0.210 HD
ENDBRANCH  28  29
BRANCH  28  31
HETATM   31  C9  UNL     1       4.971  -0.267   0.093  1.00  0.00     0.213 C 
HETATM   32  C10 UNL     1       6.125  -0.820  -0.687  1.00  0.00     0.043 C 
BRANCH  31  33
HETATM   33  N6  UNL     1       5.466   0.565   1.149  1.00  0.00    -0.073 N 
ATOM     34  H63 UNL     1       5.857   1.435   0.787  1.00  0.00     0.274 HD
ATOM     35  H62 UNL     1       4.705   0.954   1.705  1.00  0.00     0.274 HD
ATOM     36  H61 UNL     1       6.139   0.068   1.733  1.00  0.00     0.274 HD
ENDBRANCH  31  33
ENDBRANCH  28  31
ENDBRANCH  26  28
ENDBRANCH  23  25
ENDBRANCH  10  23
TORSDOF 10
