REMARK  4 active torsions:
REMARK  status: ('A' for Active; 'I' for Inactive)
REMARK       I    between atoms: N1_2  and  C2_4 
REMARK    1  A    between atoms: C2_4  and  C3_6 
REMARK    2  A    between atoms: C11_17  and  C12_18 
REMARK    3  A    between atoms: C15_25  and  N4_26 
REMARK       I    between atoms: N4_26  and  C16_28 
REMARK    4  A    between atoms: C16_28  and  C17_30 
ROOT
HETATM    1  C12 UNL     1       0.630  -1.363   1.855  1.00  0.00     0.063 A 
HETATM    2  N2  UNL     1       0.666  -2.090   2.996  1.00  0.00    -0.350 N 
ATOM      3  H2  UNL     1      -0.176  -2.427   3.463  1.00  0.00     0.166 HD
HETATM    4  C13 UNL     1       1.907  -2.332   3.463  1.00  0.00     0.181 A 
HETATM    5  N3  UNL     1       3.036  -1.917   2.894  1.00  0.00    -0.349 N 
ATOM      6  H3  UNL     1       3.928  -2.154   3.328  1.00  0.00     0.166 HD
HETATM    7  C14 UNL     1       3.030  -1.175   1.732  1.00  0.00     0.080 A 
HETATM    8  C15 UNL     1       4.114  -0.694   1.052  1.00  0.00     0.070 A 
HETATM    9  C22 UNL     1       3.841   0.017  -0.084  1.00  0.00     0.082 A 
HETATM   10  S2  UNL     1       2.126  -0.006  -0.169  1.00  0.00    -0.095 SA
HETATM   11  C23 UNL     1       1.804  -0.909   1.229  1.00  0.00     0.061 A 
ENDROOT
BRANCH   1  12
HETATM   12  C11 UNL     1      -0.618  -1.009   1.200  1.00  0.00    -0.006 A 
HETATM   13  C10 UNL     1      -0.863   0.268   0.755  1.00  0.00     0.038 A 
HETATM   14  C9  UNL     1      -2.061   0.575   0.129  1.00  0.00     0.076 A 
HETATM   15  S1  UNL     1      -2.601   2.109  -0.520  1.00  0.00     0.208 S 
HETATM   16  C26 UNL     1      -3.072  -0.319  -0.098  1.00  0.00    -0.003 A 
HETATM   17  C7  UNL     1      -4.163   1.542  -1.076  1.00  0.00     0.076 A 
HETATM   18  O2  UNL     1      -2.710   3.074   0.606  1.00  0.00    -0.217 OA
HETATM   19  O3  UNL     1      -1.752   2.578  -1.641  1.00  0.00    -0.217 OA
HETATM   20  C6  UNL     1      -4.223   0.216  -0.760  1.00  0.00    -0.003 A 
HETATM   21  C8  UNL     1      -5.172   2.236  -1.711  1.00  0.00     0.041 A 
HETATM   22  C5  UNL     1      -5.417  -0.414  -1.136  1.00  0.00     0.015 A 
HETATM   23  C4  UNL     1      -6.425   0.265  -1.766  1.00  0.00     0.018 A 
HETATM   24  C3  UNL     1      -6.335   1.603  -2.072  1.00  0.00     0.033 A 
HETATM   25  C25 UNL     1      -2.812  -1.622   0.360  1.00  0.00     0.015 A 
HETATM   26  C24 UNL     1      -1.624  -1.929   0.981  1.00  0.00     0.014 A 
BRANCH  24  27
HETATM   27  C2  UNL     1      -7.411   2.337  -2.747  1.00  0.00     0.251 C 
HETATM   28  N1  UNL     1      -8.624   1.758  -3.174  1.00  0.00    -0.361 N 
HETATM   29  C1  UNL     1      -9.621   2.569  -3.830  1.00  0.00     0.149 C 
ATOM     30  H1  UNL     1      -8.797   0.765  -3.019  1.00  0.00     0.162 HD
HETATM   31  O1  UNL     1      -7.222   3.578  -2.953  1.00  0.00    -0.268 OA
ENDBRANCH  24  27
ENDBRANCH   1  12
BRANCH   8  32
HETATM   32  N4  UNL     1       5.467  -0.909   1.483  1.00  0.00    -0.320 N 
HETATM   33  C16 UNL     1       6.613  -0.459   0.839  1.00  0.00     0.256 C 
HETATM   34  O4  UNL     1       6.623   0.202  -0.219  1.00  0.00    -0.267 OA
ATOM     35  H4  UNL     1       5.599  -1.442   2.343  1.00  0.00     0.169 HD
BRANCH  33  36
HETATM   36  C17 UNL     1       7.965  -0.752   1.397  1.00  0.00     0.035 A 
HETATM   37  C18 UNL     1       8.127  -1.100   2.710  1.00  0.00     0.034 A 
HETATM   38  C19 UNL     1       9.424  -1.372   3.163  1.00  0.00     0.088 A 
HETATM   39  N5  UNL     1      10.491  -1.308   2.379  1.00  0.00    -0.375 N 
HETATM   40  C20 UNL     1      10.296  -0.965   1.100  1.00  0.00     0.088 A 
ATOM     41  H5  UNL     1      11.424  -1.512   2.736  1.00  0.00     0.164 HD
HETATM   42  C21 UNL     1       9.062  -0.684   0.581  1.00  0.00     0.034 A 
ENDBRANCH  33  36
ENDBRANCH   8  32
TORSDOF 4
