REMARK  6 active torsions:
REMARK  status: ('A' for Active; 'I' for Inactive)
REMARK       I    between atoms: C1_4  and  N2_5 
REMARK       I    between atoms: C1_4  and  N4_11 
REMARK    1  A    between atoms: N2_5  and  C2_7 
REMARK    2  A    between atoms: C2_7  and  C3_8 
REMARK    3  A    between atoms: N4_11  and  C4_13 
REMARK    4  A    between atoms: C4_13  and  C5_14 
REMARK       I    between atoms: C5_14  and  N5_16 
REMARK    5  A    between atoms: N5_16  and  N6_18 
REMARK       I    between atoms: N6_18  and  C6_20 
REMARK    6  A    between atoms: C6_20  and  C7_22 
ROOT
HETATM    1  C5  UNL     1       0.560   0.605   0.072  1.00  0.00     0.254 C 
HETATM    2  O2  UNL     1       0.400  -0.379   0.813  1.00  0.00    -0.270 OA
HETATM    3  N5  UNL     1       1.849   0.980  -0.450  1.00  0.00    -0.266 N 
ATOM      4  H5  UNL     1       1.975   1.790  -1.057  1.00  0.00     0.190 HD
ENDROOT
BRANCH   1   5
HETATM    5  C4  UNL     1      -0.599   1.454  -0.313  1.00  0.00     0.242 C 
BRANCH   5   6
HETATM    6  N4  UNL     1      -1.793   0.941   0.296  1.00  0.00    -0.218 N 
HETATM    7  C1  UNL     1      -2.364  -0.309  -0.083  1.00  0.00     0.668 C 
HETATM    8  N1  UNL     1      -1.943  -0.882  -1.123  1.00  0.00    -0.235 N 
HETATM    9  N2  UNL     1      -3.394  -0.847   0.756  1.00  0.00    -0.218 N 
ATOM     10  H12 UNL     1      -2.352  -1.776  -1.394  1.00  0.00     0.174 HD
ATOM     11  H11 UNL     1      -1.210  -0.499  -1.720  1.00  0.00     0.174 HD
ATOM     12  H2  UNL     1      -3.344  -0.735   1.769  1.00  0.00     0.178 HD
ATOM     13  H4  UNL     1      -2.249   1.490   1.025  1.00  0.00     0.178 HD
BRANCH   9  14
HETATM   14  C2  UNL     1      -4.505  -1.550   0.152  1.00  0.00     0.237 C 
BRANCH  14  15
HETATM   15  C3  UNL     1      -5.360  -0.627  -0.617  1.00  0.00     0.249 C 
HETATM   16  N3  UNL     1      -5.013   0.742  -0.668  1.00  0.00    -0.061 NA
HETATM   17  O1  UNL     1      -6.376  -1.038  -1.218  1.00  0.00    -0.275 OA
ENDBRANCH  14  15
ENDBRANCH   9  14
ENDBRANCH   5   6
ENDBRANCH   1   5
BRANCH   3  18
HETATM   18  N6  UNL     1       2.908   0.167  -0.072  1.00  0.00    -0.261 N 
HETATM   19  C6  UNL     1       4.222   0.679  -0.111  1.00  0.00     0.306 C 
HETATM   20  O3  UNL     1       4.396   1.864  -0.496  1.00  0.00    -0.262 OA
ATOM     21  H6  UNL     1       2.738  -0.792   0.231  1.00  0.00     0.190 HD
BRANCH  19  22
HETATM   22  C7  UNL     1       5.393  -0.094   0.272  1.00  0.00     0.208 A 
HETATM   23  N7  UNL     1       5.460  -1.361   0.718  1.00  0.00    -0.264 N 
HETATM   24  N8  UNL     1       6.727  -1.646   0.949  1.00  0.00    -0.226 N 
ATOM     25  H7  UNL     1       4.670  -1.991   0.854  1.00  0.00     0.190 HD
HETATM   26  N9  UNL     1       7.465  -0.606   0.665  1.00  0.00    -0.226 N 
ATOM     27  H8  UNL     1       7.076  -2.539   1.296  1.00  0.00     0.210 HD
HETATM   28  N10 UNL     1       6.645   0.351   0.248  1.00  0.00    -0.264 N 
ATOM     29  H9  UNL     1       8.480  -0.542   0.748  1.00  0.00     0.210 HD
ATOM     30  H10 UNL     1       6.932   1.285  -0.046  1.00  0.00     0.190 HD
ENDBRANCH  19  22
ENDBRANCH   3  18
TORSDOF 6
