REMARK  13 active torsions:
REMARK  status: ('A' for Active; 'I' for Inactive)
REMARK       I    between atoms: C1_4  and  N2_5 
REMARK       I    between atoms: C1_4  and  N9_30 
REMARK    1  A    between atoms: N2_5  and  C2_7 
REMARK    2  A    between atoms: C3_10  and  N4_11 
REMARK    3  A    between atoms: N4_11  and  C4_13 
REMARK    4  A    between atoms: C4_13  and  C5_14 
REMARK    5  A    between atoms: C5_14  and  C6_15 
REMARK    6  A    between atoms: C6_15  and  C7_16 
REMARK    7  A    between atoms: C7_16  and  C8_17 
REMARK    8  A    between atoms: C8_17  and  O1_18 
REMARK    9  A    between atoms: C9_22  and  N6_23 
REMARK   10  A    between atoms: N6_23  and  N7_25 
REMARK   11  A    between atoms: N9_30  and  N10_32 
REMARK   12  A    between atoms: N10_32  and  N11_33 
REMARK   13  A    between atoms: N10_32  and  O2_36 
ROOT
HETATM    1  C2  UNL     1       2.407  -0.964   0.485  1.00  0.00     0.726 A 
HETATM    2  N3  UNL     1       1.352  -0.281   0.006  1.00  0.00    -0.021 N 
ATOM      3  H3  UNL     1       1.450   0.704  -0.240  1.00  0.00     0.203 HD
HETATM    4  C3  UNL     1       0.161  -0.903  -0.149  1.00  0.00     0.707 A 
HETATM    5  N5  UNL     1       0.103  -2.201   0.195  1.00  0.00    -0.020 N 
ATOM      6  H5  UNL     1      -0.786  -2.690   0.086  1.00  0.00     0.203 HD
HETATM    7  C9  UNL     1       1.159  -2.894   0.678  1.00  0.00     0.725 A 
HETATM    8  N8  UNL     1       2.338  -2.265   0.827  1.00  0.00    -0.019 N 
ATOM      9  H8  UNL     1       3.155  -2.758   1.188  1.00  0.00     0.203 HD
ENDROOT
BRANCH   1  10
HETATM   10  N2  UNL     1       3.572  -0.385   0.644  1.00  0.00    -0.020 N 
HETATM   11  C1  UNL     1       3.728   0.982   0.308  1.00  0.00     0.704 C 
HETATM   12  N1  UNL     1       3.425   1.866   1.174  1.00  0.00    -0.233 N 
HETATM   13  N9  UNL     1       4.208   1.371  -0.955  1.00  0.00    -0.110 N 
ATOM     14  H12 UNL     1       3.077   1.584   2.090  1.00  0.00     0.174 HD
ATOM     15  H11 UNL     1       3.537   2.850   0.932  1.00  0.00     0.174 HD
ATOM     16  H9  UNL     1       5.138   1.047  -1.219  1.00  0.00     0.203 HD
ATOM     17  H2  UNL     1       4.363  -0.917   1.008  1.00  0.00     0.203 HD
BRANCH  13  18
HETATM   18  N10 UNL     1       3.529   2.154  -1.870  1.00  0.00     0.004 NA
BRANCH  18  19
HETATM   19  N11 UNL     1       4.391   2.983  -2.591  1.00  0.00    -0.322 NA
ATOM     20 2H11 UNL     1       5.157   2.481  -3.040  1.00  0.00     0.175 HD
ATOM     21 1H11 UNL     1       3.890   3.561  -3.266  1.00  0.00     0.175 HD
ENDBRANCH  18  19
BRANCH  18  22
HETATM   22  O2  UNL     1       2.529   2.809  -1.284  1.00  0.00    -0.276 OA
ATOM     23  H2  UNL     1       2.062   3.347  -1.913  1.00  0.00     0.241 HD
ENDBRANCH  18  22
ENDBRANCH  13  18
ENDBRANCH   1  10
BRANCH   4  24
HETATM   24  N4  UNL     1      -0.875  -0.259  -0.612  1.00  0.00    -0.225 N 
ATOM     25  H4  UNL     1      -0.815   0.726  -0.869  1.00  0.00     0.177 HD
BRANCH  24  26
HETATM   26  C4  UNL     1      -2.103  -0.990  -0.746  1.00  0.00     0.138 C 
BRANCH  26  27
HETATM   27  C5  UNL     1      -3.188  -0.174  -1.399  1.00  0.00     0.020 C 
BRANCH  27  28
HETATM   28  C6  UNL     1      -3.480   1.064  -0.580  1.00  0.00     0.004 C 
BRANCH  28  29
HETATM   29  C7  UNL     1      -3.935   0.682   0.805  1.00  0.00     0.026 C 
BRANCH  29  30
HETATM   30  C8  UNL     1      -4.235   1.906   1.644  1.00  0.00     0.164 C 
BRANCH  30  31
HETATM   31  O1  UNL     1      -5.222   2.703   1.121  1.00  0.00    -0.401 OA
ATOM     32  H1  UNL     1      -5.410   3.471   1.647  1.00  0.00     0.209 HD
ENDBRANCH  30  31
ENDBRANCH  29  30
ENDBRANCH  28  29
ENDBRANCH  27  28
ENDBRANCH  26  27
ENDBRANCH  24  26
ENDBRANCH   4  24
BRANCH   7  33
HETATM   33  N6  UNL     1       1.002  -4.155   0.984  1.00  0.00    -0.138 N 
ATOM     34  H6  UNL     1       0.105  -4.626   0.867  1.00  0.00     0.205 HD
BRANCH  33  35
HETATM   35  N7  UNL     1       2.115  -4.822   1.475  1.00  0.00    -0.331 N 
ATOM     36  H72 UNL     1       3.006  -4.337   1.586  1.00  0.00     0.177 HD
ATOM     37  H71 UNL     1       1.992  -5.806   1.714  1.00  0.00     0.177 HD
ENDBRANCH  33  35
ENDBRANCH   7  33
TORSDOF 13
