REMARK  2 active torsions:
REMARK  status: ('A' for Active; 'I' for Inactive)
REMARK    1  A    between atoms: C3_3  and  O1_4 
REMARK    2  A    between atoms: O1_4  and  C4_5 
ROOT
HETATM    1  C1  UNL     1       5.813  -0.311  -0.278  1.00  0.00     0.014 C 
HETATM    2  C2  UNL     1       4.660  -0.136  -0.598  1.00  0.00    -0.091 C 
HETATM    3  C3  UNL     1       3.249   0.063  -0.965  1.00  0.00     0.268 C 
ENDROOT
BRANCH   3   4
HETATM    4  O1  UNL     1       2.398  -0.193   0.135  1.00  0.00    -0.340 OA
BRANCH   4   5
HETATM    5  C4  UNL     1       1.036  -0.040  -0.080  1.00  0.00     0.070 A 
HETATM    6  C5  UNL     1       0.491   0.340  -1.285  1.00  0.00     0.038 A 
HETATM    7  C6  UNL     1      -0.873   0.473  -1.433  1.00  0.00     0.019 A 
HETATM    8  C7  UNL     1      -1.729   0.230  -0.375  1.00  0.00     0.036 A 
HETATM    9  C8  UNL     1      -1.187  -0.151   0.834  1.00  0.00     0.049 A 
HETATM   10  C12 UNL     1      -3.177   0.363  -0.501  1.00  0.00     0.250 A 
HETATM   11  C9  UNL     1       0.184  -0.282   0.971  1.00  0.00     0.054 A 
HETATM   12  C10 UNL     1      -2.047  -0.420   1.984  1.00  0.00     0.259 A 
HETATM   13  O2  UNL     1      -1.547  -0.766   3.081  1.00  0.00    -0.267 OA
HETATM   14  N1  UNL     1      -3.455  -0.288   1.854  1.00  0.00    -0.286 N 
HETATM   15  C11 UNL     1      -4.062   0.101   0.628  1.00  0.00     0.299 A 
ATOM     16  H1  UNL     1      -4.047  -0.477   2.662  1.00  0.00     0.172 HD
HETATM   17  O3  UNL     1      -5.307   0.223   0.497  1.00  0.00    -0.264 OA
HETATM   18  O4  UNL     1      -3.656   0.715  -1.625  1.00  0.00    -0.281 OA
ENDBRANCH   4   5
ENDBRANCH   3   4
TORSDOF 2
