REMARK  2 active torsions:
REMARK  status: ('A' for Active; 'I' for Inactive)
REMARK    1  A    between atoms: N2_5  and  C4_6 
REMARK    2  A    between atoms: C4_6  and  C5_7 
ROOT
HETATM    1  N1  UNL     1      -4.136  -3.111   0.459  1.00  0.00    -0.191 NA
HETATM    2  C1  UNL     1      -3.577  -2.110   0.371  1.00  0.00     0.106 C 
HETATM    3  C2  UNL     1      -2.876  -0.865   0.243  1.00  0.00     0.128 A 
HETATM    4  C3  UNL     1      -1.649  -0.802  -0.380  1.00  0.00     0.124 A 
HETATM    5  N2  UNL     1      -0.983   0.385  -0.501  1.00  0.00    -0.304 N 
HETATM    6  C11 UNL     1      -1.584   1.463   0.013  1.00  0.00     0.329 A 
HETATM    7  O1  UNL     1      -0.986   2.570  -0.089  1.00  0.00    -0.246 OA
HETATM    8  N3  UNL     1      -2.793   1.422   0.630  1.00  0.00    -0.274 N 
ATOM      9  H3  UNL     1      -3.200   2.280   1.002  1.00  0.00     0.173 HD
HETATM   10  C12 UNL     1      -3.454   0.270   0.755  1.00  0.00     0.271 A 
HETATM   11  O2  UNL     1      -4.579   0.176   1.319  1.00  0.00    -0.266 OA
ENDROOT
BRANCH   5  12
HETATM   12  C4  UNL     1       0.307   0.415  -1.159  1.00  0.00     0.171 C 
BRANCH  12  13
HETATM   13  C5  UNL     1       1.450   0.191  -0.254  1.00  0.00    -0.040 A 
HETATM   14  C6  UNL     1       1.878  -1.108   0.008  1.00  0.00     0.009 A 
HETATM   15  C7  UNL     1       2.928  -1.399   0.831  1.00  0.00     0.001 A 
HETATM   16  C8  UNL     1       3.615  -0.364   1.445  1.00  0.00     0.000 A 
HETATM   17  C9  UNL     1       3.225   0.932   1.213  1.00  0.00     0.001 A 
HETATM   18  C10 UNL     1       2.149   1.202   0.368  1.00  0.00     0.009 A 
ENDBRANCH  12  13
ENDBRANCH   5  12
TORSDOF 2
