REMARK  2 active torsions:
REMARK  status: ('A' for Active; 'I' for Inactive)
REMARK    1  A    between atoms: C5_7  and  C6_8 
REMARK    2  A    between atoms: C6_8  and  N2_9 
ROOT
HETATM    1  N1  UNL     1       2.197   1.306   2.485  1.00  0.00    -0.191 NA
HETATM    2  C1  UNL     1       2.243   0.816   1.420  1.00  0.00     0.100 C 
HETATM    3  C2  UNL     1       2.303   0.228   0.075  1.00  0.00     0.059 A 
HETATM    4  C3  UNL     1       3.320  -0.561  -0.304  1.00  0.00     0.031 A 
HETATM    5  C4  UNL     1       3.297  -1.045  -1.584  1.00  0.00     0.052 A 
HETATM    6  S1  UNL     1       1.866  -0.389  -2.221  1.00  0.00    -0.103 SA
HETATM    7  C5  UNL     1       1.325   0.494  -0.826  1.00  0.00     0.021 A 
ENDROOT
BRANCH   7   8
HETATM    8  C6  UNL     1       0.054   1.283  -0.748  1.00  0.00     0.180 C 
BRANCH   8   9
HETATM    9  N2  UNL     1      -1.019   0.552  -0.115  1.00  0.00    -0.305 N 
HETATM   10  C7  UNL     1      -1.338   0.622   1.177  1.00  0.00     0.101 A 
HETATM   11  C8  UNL     1      -2.383  -0.090   1.743  1.00  0.00     0.092 A 
HETATM   12  C9  UNL     1      -3.139  -0.917   0.941  1.00  0.00     0.250 A 
HETATM   13  O1  UNL     1      -4.106  -1.584   1.431  1.00  0.00    -0.268 OA
HETATM   14  N3  UNL     1      -2.811  -0.982  -0.362  1.00  0.00    -0.275 N 
HETATM   15  C10 UNL     1      -1.792  -0.278  -0.877  1.00  0.00     0.329 A 
ATOM     16  H3  UNL     1      -3.355  -1.586  -0.978  1.00  0.00     0.173 HD
HETATM   17  O2  UNL     1      -1.493  -0.351  -2.117  1.00  0.00    -0.246 OA
ENDBRANCH   8   9
ENDBRANCH   7   8
TORSDOF 2
