REMARK  15 active torsions:
REMARK  status: ('A' for Active; 'I' for Inactive)
REMARK    1  A    between atoms: C2_2  and  N1_3 
REMARK    2  A    between atoms: N1_3  and  C3_5 
REMARK    3  A    between atoms: C3_5  and  C4_9 
REMARK    4  A    between atoms: C4_9  and  C5_10 
REMARK    5  A    between atoms: C5_10  and  C6_11 
REMARK    6  A    between atoms: C6_11  and  N3_12 
REMARK    7  A    between atoms: N3_12  and  C7_14 
REMARK    8  A    between atoms: C8_17  and  N5_18 
REMARK    9  A    between atoms: N5_18  and  C9_20 
REMARK   10  A    between atoms: C9_20  and  C10_21 
REMARK   11  A    between atoms: C10_21  and  C11_22 
REMARK   12  A    between atoms: C11_22  and  C12_23 
REMARK   13  A    between atoms: C12_23  and  N6_24 
REMARK   14  A    between atoms: N8_32  and  C14_33 
REMARK   15  A    between atoms: C14_33  and  C15_34 
ROOT
HETATM    1  C7  UNL     1       0.148  -0.642  -0.300  1.00  0.00     0.703 A 
HETATM    2  N4  UNL     1       0.375   0.647  -0.084  1.00  0.00    -0.022 N 
ATOM      3  H4  UNL     1      -0.418   1.278   0.034  1.00  0.00     0.203 HD
HETATM    4  C8  UNL     1       1.639   1.151  -0.015  1.00  0.00     0.696 A 
HETATM    5  N7  UNL     1       2.660   0.304  -0.173  1.00  0.00    -0.140 N 
ATOM      6  H7  UNL     1       3.618   0.651  -0.127  1.00  0.00     0.189 HD
HETATM    7  C13 UNL     1       2.430  -1.014  -0.394  1.00  0.00     0.359 A 
HETATM    8  O1  UNL     1       3.474  -1.725  -0.534  1.00  0.00    -0.245 OA
HETATM    9  N8  UNL     1       1.185  -1.520  -0.462  1.00  0.00    -0.105 N 
ENDROOT
BRANCH   1  10
HETATM   10  N3  UNL     1      -1.018  -1.159  -0.389  1.00  0.00    -0.225 N 
ATOM     11  H3  UNL     1      -1.051  -2.165  -0.556  1.00  0.00     0.177 HD
BRANCH  10  12
HETATM   12  C6  UNL     1      -2.289  -0.494  -0.282  1.00  0.00     0.138 C 
BRANCH  12  13
HETATM   13  C5  UNL     1      -2.908  -0.522  -1.652  1.00  0.00     0.027 C 
BRANCH  13  14
HETATM   14  C4  UNL     1      -4.225   0.155  -1.771  1.00  0.00     0.077 C 
BRANCH  14  15
HETATM   15  C3  UNL     1      -5.236  -0.449  -0.892  1.00  0.00     0.070 C 
HETATM   16  N2  UNL     1      -6.029  -1.362  -1.420  1.00  0.00    -0.389 N 
ATOM     17  H22 UNL     1      -6.731  -1.781  -0.810  1.00  0.00     0.157 HD
ATOM     18  H21 UNL     1      -5.889  -1.589  -2.404  1.00  0.00     0.157 HD
BRANCH  15  19
HETATM   19  N1  UNL     1      -5.431  -0.133   0.476  1.00  0.00    -0.380 N 
ATOM     20  H1  UNL     1      -4.976  -0.708   1.185  1.00  0.00     0.160 HD
BRANCH  19  21
HETATM   21  C2  UNL     1      -6.247   0.968   0.895  1.00  0.00     0.116 C 
HETATM   22  C1  UNL     1      -5.640   2.285   0.531  1.00  0.00     0.026 C 
ENDBRANCH  19  21
ENDBRANCH  15  19
ENDBRANCH  14  15
ENDBRANCH  13  14
ENDBRANCH  12  13
ENDBRANCH  10  12
ENDBRANCH   1  10
BRANCH   9  23
HETATM   23  C14 UNL     1       0.981  -2.933  -0.717  1.00  0.00     0.131 C 
BRANCH  23  24
HETATM   24  C15 UNL     1       0.822  -3.801   0.429  1.00  0.00    -0.019 A 
HETATM   25  C16 UNL     1      -0.431  -4.227   0.838  1.00  0.00     0.013 A 
HETATM   26  C17 UNL     1      -0.612  -5.062   1.950  1.00  0.00     0.001 A 
HETATM   27  C18 UNL     1       0.468  -5.478   2.662  1.00  0.00     0.000 A 
HETATM   28  C19 UNL     1       1.710  -5.066   2.269  1.00  0.00     0.001 A 
HETATM   29  C20 UNL     1       1.885  -4.241   1.169  1.00  0.00     0.013 A 
ENDBRANCH  23  24
ENDBRANCH   9  23
BRANCH   4  30
HETATM   30  N5  UNL     1       1.797   2.393   0.199  1.00  0.00    -0.225 N 
ATOM     31  H5  UNL     1       0.951   2.953   0.310  1.00  0.00     0.177 HD
BRANCH  30  32
HETATM   32  C9  UNL     1       3.073   3.098   0.302  1.00  0.00     0.138 C 
BRANCH  32  33
HETATM   33  C10 UNL     1       3.639   3.442  -1.014  1.00  0.00     0.022 C 
BRANCH  33  34
HETATM   34  C11 UNL     1       4.902   4.217  -0.961  1.00  0.00     0.029 C 
BRANCH  34  35
HETATM   35  C12 UNL     1       6.078   3.591  -0.291  1.00  0.00     0.229 C 
BRANCH  35  36
HETATM   36  N6  UNL     1       5.926   3.326   1.101  1.00  0.00    -0.079 N 
ATOM     37  H63 UNL     1       5.660   4.180   1.591  1.00  0.00     0.274 HD
ATOM     38  H62 UNL     1       5.093   2.759   1.259  1.00  0.00     0.274 HD
ATOM     39  H61 UNL     1       6.730   2.898   1.559  1.00  0.00     0.274 HD
ENDBRANCH  35  36
ENDBRANCH  34  35
ENDBRANCH  33  34
ENDBRANCH  32  33
ENDBRANCH  30  32
ENDBRANCH   4  30
TORSDOF 15
