REMARK  2 active torsions:
REMARK  status: ('A' for Active; 'I' for Inactive)
REMARK    1  A    between atoms: C3_6  and  N2_7 
REMARK    2  A    between atoms: N2_7  and  C4_9 
ROOT
HETATM    1  N2  UNL     1       0.872  -0.750   0.931  1.00  0.00    -0.182 N 
ATOM      2  H2  UNL     1       1.124  -1.427   1.651  1.00  0.00     0.184 HD
ENDROOT
BRANCH   1   3
HETATM    3  C3  UNL     1      -0.491  -0.459   0.648  1.00  0.00     0.132 A 
HETATM    4  C2  UNL     1      -1.288  -1.283  -0.111  1.00  0.00     0.128 A 
HETATM    5  N1  UNL     1      -2.572  -0.975  -0.357  1.00  0.00    -0.316 N 
HETATM    6  C1  UNL     1      -3.136   0.154   0.127  1.00  0.00     0.327 A 
ATOM      7  H1  UNL     1      -3.136  -1.609  -0.923  1.00  0.00     0.170 HD
HETATM    8  O1  UNL     1      -4.336   0.468  -0.087  1.00  0.00    -0.247 OA
HETATM    9  N7  UNL     1      -2.367   0.968   0.871  1.00  0.00    -0.274 N 
HETATM   10  C5  UNL     1      -1.066   0.693   1.143  1.00  0.00     0.278 A 
ATOM     11  H7  UNL     1      -2.777   1.824   1.245  1.00  0.00     0.173 HD
HETATM   12  O2  UNL     1      -0.367   1.461   1.836  1.00  0.00    -0.265 OA
ENDBRANCH   1   3
BRANCH   1  13
HETATM   13  C4  UNL     1       1.794  -0.127   0.244  1.00  0.00     0.714 A 
HETATM   14  N3  UNL     1       1.629   0.787  -0.730  1.00  0.00    -0.115 N 
HETATM   15  N4  UNL     1       2.836   1.148  -1.142  1.00  0.00    -0.213 N 
ATOM     16  H3  UNL     1       0.739   1.137  -1.085  1.00  0.00     0.207 HD
HETATM   17  N5  UNL     1       3.754   0.508  -0.477  1.00  0.00    -0.213 N 
ATOM     18  H4  UNL     1       3.020   1.831  -1.877  1.00  0.00     0.210 HD
HETATM   19  N6  UNL     1       3.124  -0.280   0.379  1.00  0.00    -0.115 N 
ATOM     20  H5  UNL     1       4.763   0.597  -0.593  1.00  0.00     0.210 HD
ATOM     21  H6  UNL     1       3.578  -0.909   1.041  1.00  0.00     0.207 HD
ENDBRANCH   1  13
TORSDOF 2
