REMARK  16 active torsions:
REMARK  status: ('A' for Active; 'I' for Inactive)
REMARK    1  A    between atoms: N1_1  and  C1_5 
REMARK    2  A    between atoms: C2_7  and  S1_8 
REMARK    3  A    between atoms: S1_8  and  S2_9 
REMARK    4  A    between atoms: S2_9  and  C3_10 
REMARK    5  A    between atoms: C3_10  and  C4_11 
REMARK    6  A    between atoms: C5_15  and  O2_16 
REMARK    7  A    between atoms: O2_16  and  C6_17 
REMARK    8  A    between atoms: C8_19  and  O3_20 
REMARK    9  A    between atoms: C8_19  and  C9_22 
REMARK   10  A    between atoms: C9_22  and  O4_23 
REMARK   11  A    between atoms: C10_25  and  O5_26 
REMARK   12  A    between atoms: C11_28  and  C12_29 
REMARK   13  A    between atoms: C12_29  and  O6_30 
REMARK   14  A    between atoms: C16_40  and  O9_41 
REMARK   15  A    between atoms: C17_43  and  N4_44 
REMARK   16  A    between atoms: C18_48  and  O10_49 
ROOT
HETATM    1  C4  UNL     1      -0.616   0.099   0.762  1.00  0.00     0.334 C 
HETATM    2  N2  UNL     1       0.358   0.618  -0.165  1.00  0.00    -0.020 N 
ATOM      3  H21 UNL     1       0.620   1.587   0.014  1.00  0.00     0.283 HD
ATOM      4  H22 UNL     1      -0.007   0.765  -1.106  1.00  0.00     0.283 HD
HETATM    5  C5  UNL     1       1.490  -0.324  -0.108  1.00  0.00     0.359 C 
HETATM    6  C13 UNL     1       1.058  -1.553  -0.844  1.00  0.00     0.272 C 
HETATM    7  N3  UNL     1       1.217  -2.784  -0.068  1.00  0.00    -0.062 N 
ATOM      8  H31 UNL     1       1.426  -2.759   0.930  1.00  0.00     0.277 HD
ATOM      9  H32 UNL     1       2.028  -3.390  -0.194  1.00  0.00     0.277 HD
HETATM   10  C14 UNL     1      -0.109  -3.171  -0.561  1.00  0.00     0.267 C 
HETATM   11  C15 UNL     1      -0.441  -1.697  -0.707  1.00  0.00     0.184 C 
HETATM   12  O8  UNL     1      -0.896  -1.215   0.495  1.00  0.00    -0.349 OA
ENDROOT
BRANCH   1  13
HETATM   13  C3  UNL     1      -1.888   0.879   0.832  1.00  0.00     0.147 C 
BRANCH  13  14
HETATM   14  S2  UNL     1      -2.953   0.032   2.064  1.00  0.00    -0.091 SA
BRANCH  14  15
HETATM   15  S1  UNL     1      -3.497  -1.906   1.310  1.00  0.00    -0.062 SA
BRANCH  15  16
HETATM   16  C2  UNL     1      -5.053  -1.666   0.377  1.00  0.00     0.227 C 
HETATM   17  O1  UNL     1      -4.744  -0.872  -0.721  1.00  0.00    -0.338 OA
HETATM   18  C1  UNL     1      -5.828  -0.227  -1.263  1.00  0.00     0.350 C 
HETATM   19  C18 UNL     1      -6.293   0.839  -0.297  1.00  0.00     0.207 C 
HETATM   20  C17 UNL     1      -6.253   0.405   1.131  1.00  0.00     0.248 C 
HETATM   21  C16 UNL     1      -6.046  -1.065   1.314  1.00  0.00     0.191 C 
BRANCH  18  22
HETATM   22  N1  UNL     1      -5.374   0.454  -2.467  1.00  0.00    -0.050 N 
ATOM     23  H13 UNL     1      -4.584   1.077  -2.298  1.00  0.00     0.277 HD
ATOM     24  H12 UNL     1      -4.912  -0.171  -3.127  1.00  0.00     0.277 HD
ATOM     25  H11 UNL     1      -6.179   0.933  -2.870  1.00  0.00     0.277 HD
ENDBRANCH  18  22
BRANCH  19  26
HETATM   26  O10 UNL     1      -7.595   1.221  -0.692  1.00  0.00    -0.389 OA
ATOM     27  H10 UNL     1      -7.887   1.891  -0.085  1.00  0.00     0.210 HD
ENDBRANCH  19  26
BRANCH  20  28
HETATM   28  N4  UNL     1      -7.554   0.730   1.729  1.00  0.00    -0.070 N 
ATOM     29  H43 UNL     1      -8.319   0.167   1.356  1.00  0.00     0.274 HD
ATOM     30  H42 UNL     1      -7.635   0.431   2.701  1.00  0.00     0.274 HD
ATOM     31  H41 UNL     1      -7.695   1.732   1.604  1.00  0.00     0.274 HD
ENDBRANCH  20  28
BRANCH  21  32
HETATM   32  O9  UNL     1      -7.285  -1.737   1.217  1.00  0.00    -0.390 OA
ATOM     33  H9  UNL     1      -7.917  -1.354   1.814  1.00  0.00     0.210 HD
ENDBRANCH  21  32
ENDBRANCH  15  16
ENDBRANCH  14  15
ENDBRANCH  13  14
ENDBRANCH   1  13
BRANCH   5  34
HETATM   34  O2  UNL     1       2.632   0.257  -0.653  1.00  0.00    -0.327 OA
BRANCH  34  35
HETATM   35  C6  UNL     1       3.579   0.349   0.362  1.00  0.00     0.266 C 
HETATM   36  C7  UNL     1       4.012   1.765   0.588  1.00  0.00     0.103 C 
HETATM   37  C8  UNL     1       5.357   2.100   0.006  1.00  0.00     0.111 C 
HETATM   38  C10 UNL     1       5.738   1.268  -1.175  1.00  0.00     0.185 C 
HETATM   39  C11 UNL     1       5.272  -0.146  -1.132  1.00  0.00     0.180 C 
HETATM   40  O7  UNL     1       4.631  -0.499   0.028  1.00  0.00    -0.351 OA
BRANCH  37  41
HETATM   41  O3  UNL     1       5.273   3.434  -0.459  1.00  0.00    -0.385 OA
ATOM     42  H3  UNL     1       6.123   3.646  -0.827  1.00  0.00     0.210 HD
ENDBRANCH  37  41
BRANCH  37  43
HETATM   43  C9  UNL     1       6.437   2.122   1.076  1.00  0.00     0.204 C 
BRANCH  43  44
HETATM   44  O4  UNL     1       6.646   0.878   1.641  1.00  0.00    -0.398 OA
ATOM     45  H4  UNL     1       7.321   0.892   2.310  1.00  0.00     0.209 HD
ENDBRANCH  43  44
ENDBRANCH  37  43
BRANCH  38  46
HETATM   46  O5  UNL     1       5.267   1.837  -2.380  1.00  0.00    -0.390 OA
ATOM     47  H5  UNL     1       5.509   1.308  -3.131  1.00  0.00     0.210 HD
ENDBRANCH  38  46
BRANCH  39  48
HETATM   48  C12 UNL     1       6.454  -1.103  -1.294  1.00  0.00     0.198 C 
BRANCH  48  49
HETATM   49  O6  UNL     1       5.979  -2.418  -1.366  1.00  0.00    -0.398 OA
ATOM     50  H6  UNL     1       6.713  -3.012  -1.467  1.00  0.00     0.209 HD
ENDBRANCH  48  49
ENDBRANCH  39  48
ENDBRANCH  34  35
ENDBRANCH   5  34
TORSDOF 16
