REMARK  4 active torsions:
REMARK  status: ('A' for Active; 'I' for Inactive)
REMARK    1  A    between atoms: N4_14  and  C8_15 
REMARK    2  A    between atoms: C8_15  and  C9_16 
REMARK    3  A    between atoms: C9_16  and  C10_17 
REMARK    4  A    between atoms: C10_17  and  N5_18 
ROOT
HETATM    1  N1  UNL     1      -2.925  -0.202   2.612  1.00  0.00    -0.389 N 
ATOM      2  H11 UNL     1      -2.469  -0.958   3.123  1.00  0.00     0.157 HD
ATOM      3  H12 UNL     1      -3.731   0.350   2.905  1.00  0.00     0.157 HD
HETATM    4  C1  UNL     1      -2.440   0.116   1.444  1.00  0.00     0.079 C 
HETATM    5  N2  UNL     1      -3.073   1.164   0.735  1.00  0.00    -0.378 N 
ATOM      6  H2  UNL     1      -4.070   1.284   0.916  1.00  0.00     0.160 HD
HETATM    7  C2  UNL     1      -2.497   2.073  -0.199  1.00  0.00     0.151 C 
HETATM    8  C3  UNL     1      -1.757   1.460  -1.333  1.00  0.00     0.294 C 
HETATM    9  N3  UNL     1      -1.159   0.207  -1.089  1.00  0.00     0.114 N 
HETATM   10  C4  UNL     1      -1.971  -0.948  -1.199  1.00  0.00     0.280 C 
HETATM   11  C5  UNL     1      -1.706  -1.786   0.050  1.00  0.00     0.031 C 
HETATM   12  C6  UNL     1      -0.526  -2.697  -0.111  1.00  0.00     0.027 C 
HETATM   13  C7  UNL     1       0.788  -2.008   0.289  1.00  0.00     0.124 C 
HETATM   14  N4  UNL     1       0.774  -0.687  -0.197  1.00  0.00    -0.363 N 
HETATM   15  C11 UNL     1      -0.357   0.122   0.099  1.00  0.00     0.335 C 
HETATM   16  C12 UNL     1      -1.279  -0.680   1.022  1.00  0.00     0.111 C 
ENDROOT
BRANCH  14  17
HETATM   17  C8  UNL     1       1.979  -0.054  -0.529  1.00  0.00     0.062 C 
BRANCH  17  18
HETATM   18  C9  UNL     1       2.904   0.268   0.607  1.00  0.00     0.071 C 
BRANCH  18  19
HETATM   19  C10 UNL     1       4.133   0.945  -0.019  1.00  0.00     0.234 C 
BRANCH  19  20
HETATM   20  N5  UNL     1       3.743   2.151  -0.718  1.00  0.00    -0.079 N 
ATOM     21  H53 UNL     1       3.015   1.971  -1.409  1.00  0.00     0.274 HD
ATOM     22  H52 UNL     1       3.224   2.789  -0.115  1.00  0.00     0.274 HD
ATOM     23  H51 UNL     1       4.559   2.600  -1.134  1.00  0.00     0.274 HD
ENDBRANCH  19  20
ENDBRANCH  18  19
ENDBRANCH  17  18
ENDBRANCH  14  17
TORSDOF 4
