REMARK  3 active torsions:
REMARK  status: ('A' for Active; 'I' for Inactive)
REMARK    1  A    between atoms: N2_4  and  N3_6 
REMARK       I    between atoms: C3_8  and  N5_10 
REMARK    2  A    between atoms: N5_10  and  C4_12 
REMARK    3  A    between atoms: N6_14  and  C6_15 
ROOT
HETATM    1  N3  UNL     1      -1.916  -1.112   2.345  1.00  0.00    -0.273 N 
ATOM      2  H3  UNL     1      -1.823  -1.532   3.270  1.00  0.00     0.189 HD
HETATM    3  C3  UNL     1      -1.549  -1.765   1.284  1.00  0.00     0.203 C 
HETATM    4  N4  UNL     1      -1.012  -3.070   1.348  1.00  0.00    -0.062 NA
HETATM    5  N5  UNL     1      -1.685  -1.143   0.027  1.00  0.00    -0.355 N 
ATOM      6  H5  UNL     1      -2.366  -0.396  -0.110  1.00  0.00     0.162 HD
ENDROOT
BRANCH   5   7
HETATM    7  C4  UNL     1      -0.841  -1.581  -1.070  1.00  0.00     0.141 C 
HETATM    8  C5  UNL     1       0.639  -1.500  -0.837  1.00  0.00     0.299 C 
HETATM    9  N6  UNL     1       0.739  -0.565  -1.945  1.00  0.00     0.097 N 
HETATM   10  C11 UNL     1      -0.668  -0.405  -2.042  1.00  0.00     0.299 C 
BRANCH   9  11
HETATM   11  C6  UNL     1       1.565   0.586  -1.691  1.00  0.00     0.223 C 
HETATM   12  C7  UNL     1       2.295   1.130  -2.869  1.00  0.00     0.036 C 
HETATM   13  C8  UNL     1       3.553   1.735  -2.252  1.00  0.00     0.002 C 
HETATM   14  C9  UNL     1       3.932   0.718  -1.212  1.00  0.00     0.002 C 
HETATM   15  C10 UNL     1       2.639   0.125  -0.696  1.00  0.00     0.036 C 
ENDBRANCH   9  11
ENDBRANCH   5   7
BRANCH   1  16
HETATM   16  N2  UNL     1      -2.425   0.138   2.202  1.00  0.00    -0.289 N 
HETATM   17  C2  UNL     1      -3.018   0.981   2.846  1.00  0.00     0.103 C 
HETATM   18  C1  UNL     1      -3.422   0.811   4.281  1.00  0.00     0.086 C 
HETATM   19  N1  UNL     1      -3.377   2.240   2.233  1.00  0.00    -0.087 NA
ATOM     20  H2  UNL     1      -2.257   0.477   1.255  1.00  0.00     0.188 HD
ENDBRANCH   1  16
TORSDOF 3
