REMARK  6 active torsions:
REMARK  status: ('A' for Active; 'I' for Inactive)
REMARK    1  A    between atoms: C6_14  and  N5_15 
REMARK    2  A    between atoms: N5_15  and  C7_17 
REMARK    3  A    between atoms: C7_17  and  C8_18 
REMARK    4  A    between atoms: C7_17  and  C13_30 
REMARK    5  A    between atoms: C8_18  and  C9_19 
REMARK    6  A    between atoms: C9_19  and  N6_20 
ROOT
HETATM    1  N5  UNL     1      -1.061  -0.763   0.414  1.00  0.00    -0.360 N 
ATOM      2  H5  UNL     1      -0.737  -1.469   1.075  1.00  0.00     0.162 HD
ENDROOT
BRANCH   1   3
HETATM    3  C6  UNL     1      -2.420  -0.672   0.111  1.00  0.00     0.143 A 
HETATM    4  C1  UNL     1      -2.855  -1.113  -1.229  1.00  0.00     0.144 A 
HETATM    5  N1  UNL     1      -2.000  -1.572  -2.104  1.00  0.00    -0.382 N 
HETATM    6  N2  UNL     1      -4.235  -1.019  -1.504  1.00  0.00    -0.330 N 
ATOM      7  H12 UNL     1      -2.301  -1.877  -3.030  1.00  0.00     0.157 HD
ATOM      8  H11 UNL     1      -1.002  -1.640  -1.905  1.00  0.00     0.157 HD
HETATM    9  C2  UNL     1      -5.091  -0.584  -0.671  1.00  0.00     0.123 A 
ATOM     10  H2  UNL     1      -4.565  -1.317  -2.422  1.00  0.00     0.168 HD
HETATM   11  N3  UNL     1      -6.495  -0.526  -1.052  1.00  0.00    -0.085 NA
HETATM   12  C3  UNL     1      -4.705  -0.139   0.663  1.00  0.00     0.088 A 
HETATM   13  C4  UNL     1      -5.651  -0.716   1.762  1.00  0.00     0.041 A 
HETATM   14  C5  UNL     1      -5.588   0.729   1.479  1.00  0.00     0.041 A 
HETATM   15  N4  UNL     1      -3.322  -0.245   0.906  1.00  0.00    -0.357 N 
ATOM     16  H4  UNL     1      -3.003   0.055   1.827  1.00  0.00     0.162 HD
ENDBRANCH   1   3
BRANCH   1  17
HETATM   17  C7  UNL     1      -0.096   0.146  -0.209  1.00  0.00     0.177 C 
BRANCH  17  18
HETATM   18  C8  UNL     1       1.311  -0.313   0.235  1.00  0.00     0.079 C 
BRANCH  18  19
HETATM   19  C9  UNL     1       2.331   0.523  -0.331  1.00  0.00     0.071 C 
BRANCH  19  20
HETATM   20  N6  UNL     1       3.717   0.252  -0.107  1.00  0.00    -0.318 N 
HETATM   21  C10 UNL     1       4.609   1.196  -0.795  1.00  0.00     0.256 A 
HETATM   22  N7  UNL     1       5.989   0.908  -0.575  1.00  0.00    -0.348 N 
HETATM   23  C11 UNL     1       6.478  -0.032   0.134  1.00  0.00     0.191 A 
ATOM     24  H7  UNL     1       6.659   1.523  -1.037  1.00  0.00     0.163 HD
HETATM   25  N8  UNL     1       7.905  -0.199   0.264  1.00  0.00    -0.063 NA
HETATM   26  N9  UNL     1       5.605  -0.919   0.791  1.00  0.00    -0.304 N 
HETATM   27  C12 UNL     1       4.308  -0.756   0.656  1.00  0.00     0.198 A 
ATOM     28  H9  UNL     1       5.974  -1.678   1.364  1.00  0.00     0.171 HD
HETATM   29  N10 UNL     1       3.429  -1.651   1.327  1.00  0.00    -0.063 NA
ENDBRANCH  19  20
ENDBRANCH  18  19
ENDBRANCH  17  18
BRANCH  17  30
HETATM   30  C13 UNL     1      -0.408   1.534   0.128  1.00  0.00     0.254 C 
HETATM   31  N11 UNL     1       0.188   2.608  -0.555  1.00  0.00    -0.060 NA
HETATM   32  O1  UNL     1      -1.227   1.792   1.039  1.00  0.00    -0.275 OA
ENDBRANCH  17  30
ENDBRANCH   1  17
TORSDOF 6
