REMARK  6 active torsions:
REMARK  status: ('A' for Active; 'I' for Inactive)
REMARK    1  A    between atoms: C7_8  and  O1_9 
REMARK    2  A    between atoms: C8_11  and  C9_12 
REMARK       I    between atoms: C9_12  and  N2_14 
REMARK    3  A    between atoms: N2_14  and  C10_16 
REMARK    4  A    between atoms: C10_16  and  O3_17 
REMARK    5  A    between atoms: C10_16  and  N3_19 
REMARK    6  A    between atoms: N3_19  and  N4_21 
ROOT
HETATM    1  C1  UNL     1      -0.332  -2.352  -0.070  1.00  0.00     0.052 C 
HETATM    2  C2  UNL     1      -0.809  -0.946   0.069  1.00  0.00    -0.009 A 
HETATM    3  C3  UNL     1      -2.168  -0.756   0.201  1.00  0.00     0.083 A 
HETATM    4  C4  UNL     1      -2.661   0.513   0.335  1.00  0.00     0.001 A 
HETATM    5  C5  UNL     1      -1.802   1.574   0.335  1.00  0.00     0.087 A 
HETATM    6  C6  UNL     1      -2.297   2.938   0.475  1.00  0.00     0.103 C 
HETATM    7  N1  UNL     1      -2.702   4.015   0.591  1.00  0.00    -0.191 NA
HETATM    8  C7  UNL     1      -0.419   1.374   0.200  1.00  0.00     0.103 A 
HETATM    9  C8  UNL     1       0.122   0.109   0.063  1.00  0.00     0.075 A 
HETATM   10  C11 UNL     1      -4.135   0.392   0.458  1.00  0.00     0.070 C 
HETATM   11  C12 UNL     1      -4.392  -0.925  -0.241  1.00  0.00     0.180 C 
HETATM   12  O4  UNL     1      -3.254  -1.667   0.231  1.00  0.00    -0.350 OA
ENDROOT
BRANCH   8  13
HETATM   13  O1  UNL     1       0.370   2.498   0.211  1.00  0.00    -0.358 OA
ATOM     14  H1  UNL     1       1.306   2.363   0.120  1.00  0.00     0.217 HD
ENDBRANCH   8  13
BRANCH   9  15
HETATM   15  C9  UNL     1       1.536  -0.161  -0.080  1.00  0.00     0.262 C 
HETATM   16  O2  UNL     1       1.882  -1.362  -0.196  1.00  0.00    -0.267 OA
HETATM   17  N2  UNL     1       2.568   0.785  -0.104  1.00  0.00    -0.287 N 
ATOM     18  H2  UNL     1       2.287   1.761  -0.010  1.00  0.00     0.172 HD
BRANCH  17  19
HETATM   19  C10 UNL     1       3.948   0.545  -0.243  1.00  0.00     0.238 C 
BRANCH  19  20
HETATM   20  O3  UNL     1       4.701   1.611  -0.234  1.00  0.00    -0.331 OA
ATOM     21  H3  UNL     1       5.632   1.449  -0.328  1.00  0.00     0.221 HD
ENDBRANCH  19  20
BRANCH  19  22
HETATM   22  N3  UNL     1       4.559  -0.706  -0.385  1.00  0.00    -0.272 N 
ATOM     23  H3  UNL     1       4.003  -1.561  -0.396  1.00  0.00     0.190 HD
BRANCH  22  24
HETATM   24  N4  UNL     1       5.985  -0.755  -0.515  1.00  0.00    -0.342 N 
ATOM     25  H42 UNL     1       6.527   0.109  -0.502  1.00  0.00     0.176 HD
ATOM     26  H41 UNL     1       6.430  -1.667  -0.618  1.00  0.00     0.176 HD
ENDBRANCH  22  24
ENDBRANCH  19  22
ENDBRANCH  17  19
ENDBRANCH   9  15
TORSDOF 6
