REMARK  4 active torsions:
REMARK  status: ('A' for Active; 'I' for Inactive)
REMARK    1  A    between atoms: C2_2  and  C3_3 
REMARK    2  A    between atoms: C6_12  and  N3_13 
REMARK    3  A    between atoms: N3_13  and  N4_15 
REMARK    4  A    between atoms: C8_19  and  C9_20 
ROOT
HETATM    1  C3  UNL     1       1.311   1.369   0.315  1.00  0.00     0.091 A 
HETATM    2  O1  UNL     1       0.479   2.346   0.465  1.00  0.00    -0.292 OA
HETATM    3  C4  UNL     1      -0.756   1.961   0.387  1.00  0.00     0.167 A 
HETATM    4  N1  UNL     1      -1.934   2.593   0.474  1.00  0.00    -0.288 N 
ATOM      5  H1  UNL     1      -1.961   3.599   0.642  1.00  0.00     0.172 HD
HETATM    6  C5  UNL     1      -3.078   1.906   0.340  1.00  0.00     0.327 A 
HETATM    7  O2  UNL     1      -4.217   2.479   0.418  1.00  0.00    -0.247 OA
HETATM    8  N2  UNL     1      -3.092   0.592   0.119  1.00  0.00    -0.293 N 
ATOM      9  H2  UNL     1      -3.982   0.103   0.021  1.00  0.00     0.172 HD
HETATM   10  C6  UNL     1      -1.924  -0.101   0.023  1.00  0.00     0.139 A 
HETATM   11  C7  UNL     1      -0.734   0.567   0.158  1.00  0.00     0.077 A 
HETATM   12  C8  UNL     1       0.588   0.170   0.110  1.00  0.00     0.052 A 
ENDROOT
BRANCH  12  13
HETATM   13  C9  UNL     1       1.200  -1.115  -0.168  1.00  0.00     0.118 A 
HETATM   14  C10 UNL     1       0.932  -2.416   0.083  1.00  0.00     0.116 A 
HETATM   15  C11 UNL     1       1.938  -3.232  -0.449  1.00  0.00     0.268 A 
HETATM   16  O3  UNL     1       2.003  -4.487  -0.399  1.00  0.00    -0.266 OA
HETATM   17  N5  UNL     1       2.784  -2.353  -1.006  1.00  0.00    -0.225 N 
HETATM   18  O4  UNL     1       2.360  -1.163  -0.842  1.00  0.00    -0.234 OA
ATOM     19  H5  UNL     1       3.645  -2.602  -1.492  1.00  0.00     0.198 HD
ENDBRANCH  12  13
BRANCH   1  20
HETATM   20  C2  UNL     1       2.765   1.418   0.342  1.00  0.00     0.028 C 
HETATM   21  C1  UNL     1       3.353   2.622   0.359  1.00  0.00     0.014 C 
ENDBRANCH   1  20
BRANCH  10  22
HETATM   22  N3  UNL     1      -1.950  -1.349  -0.234  1.00  0.00    -0.291 N 
ATOM     23  H3  UNL     1      -1.068  -1.857  -0.302  1.00  0.00     0.188 HD
BRANCH  22  24
HETATM   24  N4  UNL     1      -3.144  -2.043  -0.425  1.00  0.00    -0.344 N 
ATOM     25  H42 UNL     1      -4.017  -1.520  -0.353  1.00  0.00     0.176 HD
ATOM     26  H41 UNL     1      -3.165  -3.042  -0.631  1.00  0.00     0.176 HD
ENDBRANCH  22  24
ENDBRANCH  10  22
TORSDOF 4
