REMARK  8 active torsions:
REMARK  status: ('A' for Active; 'I' for Inactive)
REMARK    1  A    between atoms: N1_2  and  C2_4 
REMARK    2  A    between atoms: C4_8  and  N3_9 
REMARK    3  A    between atoms: C5_12  and  N4_13 
REMARK    4  A    between atoms: N4_13  and  C7_15 
REMARK    5  A    between atoms: C8_17  and  C9_18 
REMARK    6  A    between atoms: C9_18  and  C10_19 
REMARK    7  A    between atoms: C10_19  and  O2_20 
REMARK    8  A    between atoms: N5_22  and  O3_24 
ROOT
HETATM    1  C2  UNL     1       3.634   0.883  -0.673  1.00  0.00     0.146 A 
HETATM    2  N2  UNL     1       2.853  -0.158  -0.936  1.00  0.00    -0.333 N 
ATOM      3  H2  UNL     1       3.198  -0.937  -1.497  1.00  0.00     0.168 HD
HETATM    4  C3  UNL     1       1.633  -0.166  -0.463  1.00  0.00     0.097 A 
HETATM    5  C4  UNL     1       0.658  -1.142  -0.616  1.00  0.00     0.085 A 
HETATM    6  C5  UNL     1      -0.618  -0.993  -0.038  1.00  0.00     0.088 A 
HETATM    7  C8  UNL     1      -0.964   0.085   0.684  1.00  0.00     0.047 A 
HETATM    8  N6  UNL     1       0.008   1.043   0.829  1.00  0.00    -0.350 N 
ATOM      9  H6  UNL     1      -0.199   1.884   1.368  1.00  0.00     0.166 HD
HETATM   10  C11 UNL     1       1.221   0.901   0.280  1.00  0.00     0.107 A 
HETATM   11  S1  UNL     1       2.637   1.896   0.269  1.00  0.00    -0.034 SA
ENDROOT
BRANCH   7  12
HETATM   12  C9  UNL     1      -2.253   0.418   1.315  1.00  0.00     0.145 C 
BRANCH  12  13
HETATM   13  C10 UNL     1      -3.203   1.062   0.391  1.00  0.00     0.141 C 
HETATM   14  N5  UNL     1      -3.624   2.298   0.641  1.00  0.00    -0.251 N 
ATOM     15  H5  UNL     1      -4.281   2.760   0.012  1.00  0.00     0.196 HD
BRANCH  13  16
HETATM   16  O2  UNL     1      -3.663   0.418  -0.720  1.00  0.00    -0.348 OA
ATOM     17  H2  UNL     1      -4.276   0.833  -1.316  1.00  0.00     0.219 HD
ENDBRANCH  13  16
BRANCH  14  18
HETATM   18  O3  UNL     1      -3.154   2.946   1.771  1.00  0.00    -0.288 OA
ATOM     19  H3  UNL     1      -3.455   3.829   1.950  1.00  0.00     0.244 HD
ENDBRANCH  14  18
ENDBRANCH  12  13
ENDBRANCH   7  12
BRANCH   6  20
HETATM   20  N4  UNL     1      -1.543  -2.069  -0.224  1.00  0.00    -0.326 N 
HETATM   21  C6  UNL     1      -2.112  -2.789   0.880  1.00  0.00     0.159 C 
BRANCH  20  22
HETATM   22  C7  UNL     1      -1.868  -2.454  -1.544  1.00  0.00     0.355 C 
HETATM   23  O1  UNL     1      -2.679  -3.405  -1.763  1.00  0.00    -0.283 OA
ENDBRANCH  20  22
ENDBRANCH   6  20
BRANCH   5  24
HETATM   24  N3  UNL     1       0.880  -2.233  -1.293  1.00  0.00    -0.395 N 
ATOM     25  H32 UNL     1       1.804  -2.341  -1.712  1.00  0.00     0.156 HD
ATOM     26  H31 UNL     1       0.164  -2.950  -1.405  1.00  0.00     0.156 HD
ENDBRANCH   5  24
BRANCH   1  27
HETATM   27  N1  UNL     1       4.857   1.127  -1.016  1.00  0.00    -0.375 N 
HETATM   28  C1  UNL     1       5.530   2.350  -0.612  1.00  0.00     0.148 C 
ATOM     29  H1  UNL     1       5.361   0.445  -1.583  1.00  0.00     0.161 HD
ENDBRANCH   1  27
TORSDOF 8
