REMARK  11 active torsions:
REMARK  status: ('A' for Active; 'I' for Inactive)
REMARK    1  A    between atoms: N2_3  and  O1_5 
REMARK    2  A    between atoms: O1_5  and  C2_6 
REMARK    3  A    between atoms: C3_9  and  N4_10 
REMARK    4  A    between atoms: C6_18  and  C7_19 
REMARK    5  A    between atoms: C7_19  and  C8_20 
REMARK    6  A    between atoms: C7_19  and  C14_37 
REMARK    7  A    between atoms: C8_20  and  N7_21 
REMARK    8  A    between atoms: C11_26  and  N9_27 
REMARK    9  A    between atoms: C14_37  and  O3_38 
REMARK   10  A    between atoms: C14_37  and  C15_40 
REMARK   11  A    between atoms: C15_40  and  O4_41 
ROOT
HETATM    1  N1  UNL     1      -4.519  -4.582   0.343  1.00  0.00    -0.170 NA
HETATM    2  C1  UNL     1      -4.356  -3.611  -0.280  1.00  0.00     0.203 C 
HETATM    3  N2  UNL     1      -4.146  -2.465  -1.029  1.00  0.00    -0.194 N 
ATOM      4  H2  UNL     1      -4.810  -2.200  -1.757  1.00  0.00     0.207 HD
ENDROOT
BRANCH   3   5
HETATM    5  O1  UNL     1      -3.049  -1.693  -0.790  1.00  0.00    -0.208 OA
BRANCH   5   6
HETATM    6  C2  UNL     1      -3.200  -0.351  -0.511  1.00  0.00     0.196 A 
HETATM    7  N3  UNL     1      -4.441   0.221  -0.475  1.00  0.00    -0.318 N 
HETATM    8  C3  UNL     1      -4.639   1.513  -0.215  1.00  0.00     0.139 A 
ATOM      9  H3  UNL     1      -5.253  -0.369  -0.656  1.00  0.00     0.169 HD
HETATM   10  C4  UNL     1      -3.559   2.321   0.030  1.00  0.00     0.158 A 
HETATM   11  C5  UNL     1      -3.689   3.736   0.320  1.00  0.00     0.121 C 
HETATM   12  N6  UNL     1      -2.340   1.764  -0.004  1.00  0.00    -0.344 N 
HETATM   13  N5  UNL     1      -3.785   4.865   0.534  1.00  0.00    -0.190 NA
HETATM   14  C6  UNL     1      -2.130   0.450  -0.267  1.00  0.00     0.076 A 
ATOM     15  H6  UNL     1      -1.531   2.358   0.177  1.00  0.00     0.167 HD
BRANCH   8  16
HETATM   16  N4  UNL     1      -5.806   2.063  -0.178  1.00  0.00    -0.383 N 
ATOM     17  H42 UNL     1      -6.610   1.462  -0.360  1.00  0.00     0.157 HD
ATOM     18  H41 UNL     1      -5.958   3.052   0.021  1.00  0.00     0.157 HD
ENDBRANCH   8  16
BRANCH  14  19
HETATM   19  C7  UNL     1      -0.710  -0.115  -0.250  1.00  0.00     0.111 C 
BRANCH  19  20
HETATM   20  C8  UNL     1       0.174   1.092  -0.386  1.00  0.00     0.102 C 
BRANCH  20  21
HETATM   21  N7  UNL     1       1.564   0.942  -0.411  1.00  0.00    -0.279 N 
HETATM   22  C9  UNL     1       2.454   0.993   0.587  1.00  0.00     0.148 A 
HETATM   23  C10 UNL     1       3.729   0.791   0.111  1.00  0.00     0.100 A 
HETATM   24  N8  UNL     1       4.954   0.743   0.664  1.00  0.00    -0.188 N 
HETATM   25  C13 UNL     1       3.575   0.609  -1.261  1.00  0.00     0.146 A 
HETATM   26  C11 UNL     1       6.060   0.521  -0.066  1.00  0.00     0.679 A 
ATOM     27  H8  UNL     1       5.047   0.880   1.671  1.00  0.00     0.184 HD
HETATM   28  N10 UNL     1       5.910   0.346  -1.389  1.00  0.00    -0.154 N 
HETATM   29  C12 UNL     1       4.708   0.387  -1.979  1.00  0.00     0.290 A 
ATOM     30  H10 UNL     1       6.737   0.177  -1.962  1.00  0.00     0.187 HD
HETATM   31  O2  UNL     1       4.592   0.220  -3.221  1.00  0.00    -0.265 OA
HETATM   32  N11 UNL     1       2.274   0.708  -1.519  1.00  0.00    -0.288 N 
ATOM     33  H11 UNL     1       1.867   0.616  -2.450  1.00  0.00     0.188 HD
BRANCH  26  34
HETATM   34  N9  UNL     1       7.240   0.477   0.479  1.00  0.00    -0.234 N 
ATOM     35  H92 UNL     1       7.354   0.610   1.484  1.00  0.00     0.174 HD
ATOM     36  H91 UNL     1       8.080   0.308  -0.075  1.00  0.00     0.174 HD
ENDBRANCH  26  34
ENDBRANCH  20  21
ENDBRANCH  19  20
BRANCH  19  37
HETATM   37  C14 UNL     1      -0.592  -0.882   1.009  1.00  0.00     0.156 C 
BRANCH  37  38
HETATM   38  O3  UNL     1      -0.732  -0.184   2.184  1.00  0.00    -0.392 OA
ATOM     39  H3  UNL     1      -0.656  -0.677   2.993  1.00  0.00     0.210 HD
ENDBRANCH  37  38
BRANCH  37  40
HETATM   40  C15 UNL     1       0.417  -1.990   1.060  1.00  0.00     0.196 C 
BRANCH  40  41
HETATM   41  O4  UNL     1       0.011  -2.960   2.033  1.00  0.00    -0.398 OA
ATOM     42  H4  UNL     1       0.650  -3.662   2.065  1.00  0.00     0.209 HD
ENDBRANCH  40  41
ENDBRANCH  37  40
ENDBRANCH  19  37
ENDBRANCH  14  19
ENDBRANCH   5   6
ENDBRANCH   3   5
TORSDOF 11
