REMARK  9 active torsions:
REMARK  status: ('A' for Active; 'I' for Inactive)
REMARK    1  A    between atoms: C2_2  and  C3_3 
REMARK    2  A    between atoms: C3_3  and  C5_5 
REMARK    3  A    between atoms: C7_10  and  C8_11 
REMARK    4  A    between atoms: C12_18  and  C13_19 
REMARK    5  A    between atoms: C16_26  and  C17_27 
REMARK    6  A    between atoms: C17_27  and  C18_28 
REMARK    7  A    between atoms: C21_33  and  O4_34 
REMARK    8  A    between atoms: C22_36  and  C23_37 
REMARK    9  A    between atoms: C29_45  and  O5_46 
ROOT
HETATM    1  C5  UNL     1       1.771  -2.948  -0.949  1.00  0.00     0.163 C 
HETATM    2  N1  UNL     1       2.080  -2.600   0.386  1.00  0.00    -0.347 N 
ATOM      3  H1  UNL     1       2.366  -3.419   0.923  1.00  0.00     0.163 HD
HETATM    4  C6  UNL     1       2.102  -1.462   1.164  1.00  0.00     0.241 C 
HETATM    5  O1  UNL     1       1.520  -1.555   2.314  1.00  0.00    -0.271 OA
HETATM    6  C7  UNL     1       2.684  -0.121   0.924  1.00  0.00     0.180 C 
HETATM    7  N2  UNL     1       2.188   0.864   1.866  1.00  0.00    -0.346 N 
ATOM      8  H2  UNL     1       2.034   0.506   2.809  1.00  0.00     0.163 HD
HETATM    9  C11 UNL     1       1.886   2.211   1.707  1.00  0.00     0.242 C 
HETATM   10  O2  UNL     1       2.571   3.073   2.387  1.00  0.00    -0.271 OA
HETATM   11  C12 UNL     1       0.835   2.839   0.825  1.00  0.00     0.194 C 
HETATM   12  N3  UNL     1      -0.484   2.404   1.205  1.00  0.00    -0.345 N 
ATOM     13  H3  UNL     1      -0.533   2.062   2.165  1.00  0.00     0.163 HD
HETATM   14  C15 UNL     1      -1.690   2.351   0.551  1.00  0.00     0.241 C 
HETATM   15  O3  UNL     1      -2.663   2.956   1.165  1.00  0.00    -0.271 OA
HETATM   16  C16 UNL     1      -2.071   1.718  -0.735  1.00  0.00     0.176 C 
HETATM   17  N4  UNL     1      -1.222   0.621  -1.139  1.00  0.00    -0.356 N 
ATOM     18  H4  UNL     1      -0.231   0.862  -1.128  1.00  0.00     0.162 HD
HETATM   19  C21 UNL     1      -1.453  -0.683  -1.537  1.00  0.00     0.160 C 
HETATM   20  C22 UNL     1      -1.664  -1.941  -0.776  1.00  0.00     0.066 C 
HETATM   21  N5  UNL     1      -0.835  -2.976  -1.317  1.00  0.00    -0.338 N 
ATOM     22  H5  UNL     1      -1.270  -3.428  -2.121  1.00  0.00     0.167 HD
HETATM   23  C29 UNL     1       0.398  -3.518  -1.031  1.00  0.00     0.139 C 
ENDROOT
BRANCH  20  24
HETATM   24  C23 UNL     1      -1.826  -1.825   0.680  1.00  0.00     0.040 C 
HETATM   25  C24 UNL     1      -1.855  -3.134   1.422  1.00  0.00     0.011 C 
HETATM   26  C25 UNL     1      -2.179  -2.832   2.898  1.00  0.00     0.001 C 
HETATM   27  C26 UNL     1      -3.645  -2.512   3.050  1.00  0.00     0.000 C 
HETATM   28  C27 UNL     1      -4.139  -2.122   1.674  1.00  0.00     0.001 C 
HETATM   29  C28 UNL     1      -3.170  -1.180   1.054  1.00  0.00     0.011 C 
ENDBRANCH  20  24
BRANCH  19  30
HETATM   30  O4  UNL     1      -1.511  -0.969  -2.822  1.00  0.00    -0.345 OA
ATOM     31  H4  UNL     1      -1.670  -1.865  -3.095  1.00  0.00     0.219 HD
ENDBRANCH  19  30
BRANCH  23  32
HETATM   32  O5  UNL     1       0.372  -4.793  -0.778  1.00  0.00    -0.348 OA
ATOM     33  H5  UNL     1      -0.504  -5.157  -0.830  1.00  0.00     0.219 HD
ENDBRANCH  23  32
BRANCH  16  34
HETATM   34  C17 UNL     1      -2.172   2.691  -1.895  1.00  0.00     0.038 C 
BRANCH  34  35
HETATM   35  C18 UNL     1      -3.218   3.710  -1.647  1.00  0.00    -0.020 C 
HETATM   36  C19 UNL     1      -4.598   3.137  -1.480  1.00  0.00     0.009 C 
HETATM   37  C20 UNL     1      -3.275   4.705  -2.816  1.00  0.00     0.009 C 
ENDBRANCH  34  35
ENDBRANCH  16  34
BRANCH   1  38
HETATM   38  C3  UNL     1       2.115  -1.997  -2.051  1.00  0.00     0.012 C 
HETATM   39  C4  UNL     1       3.622  -1.901  -2.218  1.00  0.00     0.012 C 
BRANCH  38  40
HETATM   40  C2  UNL     1       1.699  -2.602  -3.396  1.00  0.00     0.002 C 
HETATM   41  C1  UNL     1       2.379  -3.956  -3.588  1.00  0.00     0.005 C 
ENDBRANCH  38  40
ENDBRANCH   1  38
BRANCH  11  42
HETATM   42  C13 UNL     1       0.908   4.362   1.048  1.00  0.00     0.110 C 
HETATM   43  C14 UNL     1       0.635   4.723   2.492  1.00  0.00     0.029 C 
HETATM   44 CL1  UNL     1      -0.081   5.313   0.009  1.00  0.00    -0.123 Cl
ENDBRANCH  11  42
BRANCH   6  45
HETATM   45  C8  UNL     1       4.213  -0.177   1.184  1.00  0.00     0.009 C 
HETATM   46  C9  UNL     1       4.864   1.133   0.958  1.00  0.00     0.012 C 
HETATM   47  C10 UNL     1       4.440  -0.555   2.646  1.00  0.00     0.012 C 
ENDBRANCH   6  45
TORSDOF 9
