REMARK  9 active torsions:
REMARK  status: ('A' for Active; 'I' for Inactive)
REMARK    1  A    between atoms: C2_2  and  C3_3 
REMARK    2  A    between atoms: C3_3  and  C4_4 
REMARK    3  A    between atoms: C4_4  and  N1_5 
REMARK       I    between atoms: N1_5  and  C5_7 
REMARK    4  A    between atoms: C5_7  and  C6_9 
REMARK    5  A    between atoms: C8_11  and  N2_12 
REMARK       I    between atoms: N2_12  and  C9_14 
REMARK    6  A    between atoms: C9_14  and  C10_16 
REMARK    7  A    between atoms: C10_16  and  N3_19 
REMARK       I    between atoms: N3_19  and  C13_21 
REMARK       I    between atoms: C13_21  and  N4_23 
REMARK    8  A    between atoms: N4_23  and  C14_25 
REMARK    9  A    between atoms: C14_25  and  C15_26 
ROOT
HETATM    1  N2  UNL     1       1.132  -1.393   0.850  1.00  0.00    -0.354 N 
ATOM      2  H2  UNL     1       1.443  -0.929   1.704  1.00  0.00     0.162 HD
HETATM    3  C9  UNL     1      -0.250  -1.543   0.583  1.00  0.00     0.245 C 
HETATM    4  O2  UNL     1      -0.645  -2.108  -0.454  1.00  0.00    -0.271 OA
ENDROOT
BRANCH   3   5
HETATM    5  C10 UNL     1      -1.231  -1.016   1.559  1.00  0.00     0.108 C 
HETATM    6  C11 UNL     1      -0.986  -1.743   2.870  1.00  0.00     0.049 C 
HETATM    7  C12 UNL     1      -0.954   0.468   1.701  1.00  0.00     0.049 C 
BRANCH   5   8
HETATM    8  N3  UNL     1      -2.597  -1.190   1.192  1.00  0.00    -0.326 N 
HETATM    9  C13 UNL     1      -3.101  -0.582   0.013  1.00  0.00     0.317 C 
HETATM   10  O3  UNL     1      -2.392   0.124  -0.743  1.00  0.00    -0.247 OA
HETATM   11  N4  UNL     1      -4.465  -0.776  -0.334  1.00  0.00    -0.343 N 
ATOM     12  H4  UNL     1      -5.041  -1.360   0.272  1.00  0.00     0.164 HD
ATOM     13  H3  UNL     1      -3.214  -1.753   1.778  1.00  0.00     0.165 HD
BRANCH  11  14
HETATM   14  C14 UNL     1      -5.070  -0.192  -1.492  1.00  0.00     0.129 C 
BRANCH  14  15
HETATM   15  C15 UNL     1      -5.059   1.294  -1.442  1.00  0.00     0.003 C 
HETATM   16  C16 UNL     1      -5.821   1.814  -0.227  1.00  0.00     0.006 C 
HETATM   17  C17 UNL     1      -7.239   1.277  -0.232  1.00  0.00     0.000 C 
HETATM   18  C18 UNL     1      -7.941   1.574  -1.516  1.00  0.00     0.000 C 
HETATM   19  C19 UNL     1      -7.134   1.299  -2.748  1.00  0.00     0.000 C 
HETATM   20  C20 UNL     1      -5.745   1.832  -2.687  1.00  0.00     0.006 C 
ENDBRANCH  14  15
ENDBRANCH  11  14
ENDBRANCH   5   8
ENDBRANCH   3   5
BRANCH   1  21
HETATM   21  C8  UNL     1       2.100  -1.902  -0.096  1.00  0.00     0.086 C 
HETATM   22  C7  UNL     1       3.173  -0.907  -0.489  1.00  0.00     0.039 C 
HETATM   23  C6  UNL     1       4.157  -2.057  -0.439  1.00  0.00     0.081 C 
HETATM   24  C21 UNL     1       3.203  -2.736   0.522  1.00  0.00     0.039 C 
BRANCH  23  25
HETATM   25  C5  UNL     1       5.451  -1.731   0.209  1.00  0.00     0.222 C 
HETATM   26  N1  UNL     1       6.313  -0.715  -0.258  1.00  0.00    -0.361 N 
ATOM     27  H1  UNL     1       6.062  -0.162  -1.078  1.00  0.00     0.162 HD
HETATM   28  O1  UNL     1       5.781  -2.397   1.217  1.00  0.00    -0.273 OA
BRANCH  26  29
HETATM   29  C4  UNL     1       7.551  -0.467   0.435  1.00  0.00     0.122 C 
BRANCH  29  30
HETATM   30  C3  UNL     1       8.353   0.646  -0.183  1.00  0.00     0.019 C 
BRANCH  30  31
HETATM   31  C2  UNL     1       7.548   1.926  -0.154  1.00  0.00    -0.003 C 
HETATM   32  C1  UNL     1       7.223   2.265   1.287  1.00  0.00     0.005 C 
ENDBRANCH  30  31
ENDBRANCH  29  30
ENDBRANCH  26  29
ENDBRANCH  23  25
ENDBRANCH   1  21
TORSDOF 9
