REMARK  9 active torsions:
REMARK  status: ('A' for Active; 'I' for Inactive)
REMARK    1  A    between atoms: C2_2  and  C4_4 
REMARK    2  A    between atoms: C4_4  and  C5_5 
REMARK    3  A    between atoms: C5_5  and  N1_6 
REMARK    4  A    between atoms: C5_5  and  C13_18 
REMARK       I    between atoms: N1_6  and  C6_8 
REMARK       I    between atoms: C6_8  and  N2_10 
REMARK    5  A    between atoms: N2_10  and  C7_12 
REMARK       I    between atoms: C13_18  and  N3_20 
REMARK    6  A    between atoms: N3_20  and  C14_22 
REMARK    7  A    between atoms: C14_22  and  C16_24 
REMARK       I    between atoms: C16_24  and  N4_26 
REMARK    8  A    between atoms: N4_26  and  C17_28 
REMARK    9  A    between atoms: C17_28  and  C18_29 
ROOT
HETATM    1  C5  UNL     1      -0.834  -0.757  -0.042  1.00  0.00     0.178 C 
ENDROOT
BRANCH   1   2
HETATM    2  C4  UNL     1      -0.662  -1.533   1.206  1.00  0.00     0.038 C 
BRANCH   2   3
HETATM    3  C2  UNL     1      -0.468  -0.810   2.481  1.00  0.00    -0.020 C 
HETATM    4  C1  UNL     1      -1.587   0.103   2.908  1.00  0.00     0.009 C 
HETATM    5  C3  UNL     1      -0.378  -1.898   3.571  1.00  0.00     0.009 C 
ENDBRANCH   2   3
ENDBRANCH   1   2
BRANCH   1   6
HETATM    6  N1  UNL     1      -1.956   0.141  -0.106  1.00  0.00    -0.330 N 
HETATM    7  C6  UNL     1      -3.095  -0.074  -0.904  1.00  0.00     0.317 C 
HETATM    8  O1  UNL     1      -3.152  -1.104  -1.607  1.00  0.00    -0.247 OA
HETATM    9  N2  UNL     1      -4.155   0.842  -0.921  1.00  0.00    -0.339 N 
ATOM     10  H2  UNL     1      -4.070   1.668  -0.329  1.00  0.00     0.164 HD
ATOM     11  H1  UNL     1      -1.924   0.987   0.463  1.00  0.00     0.165 HD
BRANCH   9  12
HETATM   12  C7  UNL     1      -5.358   0.710  -1.709  1.00  0.00     0.086 C 
HETATM   13  C8  UNL     1      -5.412   1.850  -2.667  1.00  0.00     0.025 C 
HETATM   14  C9  UNL     1      -6.734   2.044  -3.347  1.00  0.00     0.002 C 
HETATM   15  C10 UNL     1      -7.771   2.261  -2.250  1.00  0.00     0.000 C 
HETATM   16  C11 UNL     1      -7.855   0.943  -1.493  1.00  0.00     0.002 C 
HETATM   17  C12 UNL     1      -6.575   0.574  -0.835  1.00  0.00     0.025 C 
ENDBRANCH   9  12
ENDBRANCH   1   6
BRANCH   1  18
HETATM   18  C13 UNL     1       0.419  -0.120  -0.529  1.00  0.00     0.241 C 
HETATM   19  O2  UNL     1       0.372   1.074  -0.931  1.00  0.00    -0.271 OA
HETATM   20  N3  UNL     1       1.659  -0.808  -0.558  1.00  0.00    -0.346 N 
ATOM     21  H3  UNL     1       1.706  -1.773  -0.232  1.00  0.00     0.163 HD
BRANCH  20  22
HETATM   22  C14 UNL     1       2.859  -0.161  -1.043  1.00  0.00     0.172 C 
HETATM   23  C15 UNL     1       3.399  -0.835  -2.285  1.00  0.00     0.042 C 
BRANCH  22  24
HETATM   24  C16 UNL     1       3.860  -0.041   0.037  1.00  0.00     0.240 C 
HETATM   25  O3  UNL     1       3.566  -0.453   1.181  1.00  0.00    -0.271 OA
HETATM   26  N4  UNL     1       5.151   0.524  -0.162  1.00  0.00    -0.359 N 
ATOM     27  H4  UNL     1       5.390   0.858  -1.096  1.00  0.00     0.162 HD
BRANCH  26  28
HETATM   28  C17 UNL     1       6.142   0.653   0.879  1.00  0.00     0.127 C 
BRANCH  28  29
HETATM   29  C18 UNL     1       6.543  -0.664   1.466  1.00  0.00     0.003 C 
HETATM   30  C19 UNL     1       7.600  -0.415   2.556  1.00  0.00     0.006 C 
HETATM   31  C20 UNL     1       8.648  -0.539   1.453  1.00  0.00     0.001 C 
HETATM   32  C21 UNL     1       7.636  -1.325   0.652  1.00  0.00     0.006 C 
ENDBRANCH  28  29
ENDBRANCH  26  28
ENDBRANCH  22  24
ENDBRANCH  20  22
ENDBRANCH   1  18
TORSDOF 9
