REMARK  9 active torsions:
REMARK  status: ('A' for Active; 'I' for Inactive)
REMARK    1  A    between atoms: C6_6  and  C7_7 
REMARK    2  A    between atoms: C8_8  and  C9_9 
REMARK    3  A    between atoms: C9_9  and  C10_10 
REMARK    4  A    between atoms: C10_10  and  C11_11 
REMARK    5  A    between atoms: C15_19  and  C16_20 
REMARK    6  A    between atoms: C16_20  and  O1_21 
REMARK    7  A    between atoms: N2_23  and  C17_24 
REMARK    8  A    between atoms: C17_24  and  C18_25 
REMARK    9  A    between atoms: C18_25  and  C19_26 
ROOT
HETATM    1  C1  UNL     1      -3.446   2.087   0.287  1.00  0.00     0.042 C 
HETATM    2  C2  UNL     1      -2.146   1.625  -0.356  1.00  0.00     0.039 C 
HETATM    3  C3  UNL     1      -2.218   1.998  -1.811  1.00  0.00     0.042 C 
HETATM    4  C4  UNL     1      -1.071   2.505   0.237  1.00  0.00    -0.000 C 
HETATM    5  C5  UNL     1      -0.043   2.092   0.914  1.00  0.00    -0.018 C 
HETATM    6  C6  UNL     1       0.128   0.608   1.148  1.00  0.00     0.055 C 
HETATM    7  C15 UNL     1      -1.311   0.048   1.175  1.00  0.00     0.114 C 
HETATM    8  N2  UNL     1      -1.947   0.271  -0.073  1.00  0.00    -0.394 N 
ENDROOT
BRANCH   6   9
HETATM    9  C7  UNL     1       0.882   0.082   0.017  1.00  0.00    -0.014 C 
HETATM   10  C8  UNL     1       1.985  -0.598  -0.033  1.00  0.00     0.024 C 
BRANCH  10  11
HETATM   11  C9  UNL     1       2.820  -1.046   1.055  1.00  0.00     0.041 C 
HETATM   12  N1  UNL     1       2.631  -0.843   2.296  1.00  0.00    -0.228 N 
HETATM   13  F1  UNL     1       3.449  -1.291   3.245  1.00  0.00    -0.102 F 
ATOM     14  H1  UNL     1       1.809  -0.309   2.579  1.00  0.00     0.199 HD
BRANCH  11  15
HETATM   15  C10 UNL     1       4.053  -1.846   0.704  1.00  0.00     0.105 C 
BRANCH  15  16
HETATM   16  C11 UNL     1       4.945  -1.008  -0.180  1.00  0.00    -0.012 A 
HETATM   17  C12 UNL     1       5.925  -0.130   0.191  1.00  0.00     0.015 A 
HETATM   18  C13 UNL     1       6.588   0.502  -0.783  1.00  0.00     0.008 A 
HETATM   19  C14 UNL     1       6.233   0.220  -2.073  1.00  0.00     0.050 A 
HETATM   20  S1  UNL     1       4.980  -0.923  -1.882  1.00  0.00    -0.106 SA
ENDBRANCH  15  16
ENDBRANCH  11  15
ENDBRANCH  10  11
ENDBRANCH   6   9
BRANCH   7  21
HETATM   21  C16 UNL     1      -1.371  -1.343   1.696  1.00  0.00     0.190 C 
BRANCH  21  22
HETATM   22  O1  UNL     1      -0.739  -1.389   2.946  1.00  0.00    -0.399 OA
ATOM     23  H1  UNL     1      -0.777  -2.278   3.279  1.00  0.00     0.209 HD
ENDBRANCH  21  22
ENDBRANCH   7  21
BRANCH   8  24
HETATM   24  C17 UNL     1      -2.392  -0.759  -0.866  1.00  0.00     0.127 C 
BRANCH  24  25
HETATM   25  C18 UNL     1      -3.924  -0.864  -0.839  1.00  0.00     0.137 C 
BRANCH  25  26
HETATM   26  C19 UNL     1      -4.388  -2.005  -1.724  1.00  0.00     0.389 C 
HETATM   27  F2  UNL     1      -5.767  -2.040  -1.649  1.00  0.00    -0.171 F 
HETATM   28  F3  UNL     1      -4.036  -1.827  -3.034  1.00  0.00    -0.171 F 
HETATM   29  F4  UNL     1      -3.920  -3.230  -1.276  1.00  0.00    -0.171 F 
ENDBRANCH  25  26
ENDBRANCH  24  25
ENDBRANCH   8  24
TORSDOF 9
