REMARK  4 active torsions:
REMARK  status: ('A' for Active; 'I' for Inactive)
REMARK    1  A    between atoms: C5_6  and  C6_7 
REMARK    2  A    between atoms: C6_7  and  C7_9 
REMARK    3  A    between atoms: C8_10  and  C9_11 
REMARK    4  A    between atoms: C8_10  and  C10_14 
ROOT
HETATM    1  N1  UNL     1       5.617  -1.169   4.707  1.00  0.00    -0.191 NA
HETATM    2  C1  UNL     1       4.837  -1.197   3.854  1.00  0.00     0.099 C 
HETATM    3  C2  UNL     1       3.852  -1.218   2.802  1.00  0.00     0.044 A 
HETATM    4  C3  UNL     1       2.820  -0.310   2.773  1.00  0.00     0.023 A 
HETATM    5  C4  UNL     1       1.857  -0.319   1.758  1.00  0.00     0.017 A 
HETATM    6  C5  UNL     1       1.909  -1.237   0.749  1.00  0.00     0.014 A 
HETATM    7  C16 UNL     1       2.954  -2.146   0.788  1.00  0.00     0.017 A 
HETATM    8  C17 UNL     1       3.904  -2.143   1.785  1.00  0.00     0.023 A 
ENDROOT
BRANCH   6   9
HETATM    9  C6  UNL     1       0.931  -1.319  -0.366  1.00  0.00     0.183 C 
HETATM   10  O1  UNL     1       1.145  -2.228  -1.202  1.00  0.00    -0.288 OA
BRANCH   9  11
HETATM   11  C7  UNL     1      -0.158  -0.427  -0.461  1.00  0.00     0.074 C 
HETATM   12  C8  UNL     1      -1.135  -0.280  -1.305  1.00  0.00     0.054 C 
BRANCH  12  13
HETATM   13  C9  UNL     1      -1.379  -1.080  -2.483  1.00  0.00     0.210 C 
HETATM   14  O2  UNL     1      -0.696  -2.076  -2.856  1.00  0.00    -0.644 OA
HETATM   15  O3  UNL     1      -2.438  -0.839  -3.397  1.00  0.00    -0.644 OA
ENDBRANCH  12  13
BRANCH  12  16
HETATM   16  C10 UNL     1      -2.068   0.884  -1.101  1.00  0.00    -0.019 A 
HETATM   17  C11 UNL     1      -3.328   0.938  -1.612  1.00  0.00     0.012 A 
HETATM   18  C12 UNL     1      -4.137   2.079  -1.481  1.00  0.00     0.001 A 
HETATM   19  C13 UNL     1      -3.688   3.196  -0.825  1.00  0.00     0.000 A 
HETATM   20  C14 UNL     1      -2.419   3.141  -0.308  1.00  0.00     0.001 A 
HETATM   21  C15 UNL     1      -1.606   2.009  -0.436  1.00  0.00     0.012 A 
ENDBRANCH  12  16
ENDBRANCH   9  11
ENDBRANCH   6   9
TORSDOF 4
