REMARK  7 active torsions:
REMARK  status: ('A' for Active; 'I' for Inactive)
REMARK    1  A    between atoms: S1_2  and  C2_3 
REMARK    2  A    between atoms: C6_7  and  O1_8 
REMARK    3  A    between atoms: C6_7  and  C7_10 
REMARK    4  A    between atoms: C7_10  and  C8_11 
REMARK    5  A    between atoms: C8_11  and  C9_12 
REMARK    6  A    between atoms: C9_12  and  C11_14 
REMARK    7  A    between atoms: C11_14  and  N1_15 
ROOT
HETATM    1  C9  UNL     1      -1.074   0.197   0.160  1.00  0.00     0.000 C 
HETATM    2  C10 UNL     1      -1.275  -0.539  -1.115  1.00  0.00     0.011 C 
ENDROOT
BRANCH   1   3
HETATM    3  C8  UNL     1       0.266  -0.132   0.827  1.00  0.00     0.009 C 
BRANCH   3   4
HETATM    4  C7  UNL     1       1.420   0.211  -0.043  1.00  0.00     0.038 C 
BRANCH   4   5
HETATM    5  C6  UNL     1       2.703  -0.129   0.664  1.00  0.00     0.059 C 
HETATM    6  C5  UNL     1       2.853  -1.565   1.010  1.00  0.00     0.038 C 
HETATM    7  C4  UNL     1       3.911  -2.294   0.214  1.00  0.00     0.004 C 
HETATM    8  C3  UNL     1       5.238  -1.621   0.163  1.00  0.00     0.015 C 
HETATM    9  C2  UNL     1       5.114  -0.203   0.610  1.00  0.00     0.049 C 
HETATM   10  C17 UNL     1       3.918   0.401  -0.110  1.00  0.00     0.053 C 
BRANCH   9  11
HETATM   11  S1  UNL     1       6.613   0.769   0.351  1.00  0.00    -0.169 SA
HETATM   12  C1  UNL     1       6.988   0.996  -1.393  1.00  0.00     0.090 C 
ENDBRANCH   9  11
BRANCH   5  13
HETATM   13  O1  UNL     1       2.694   0.657   1.845  1.00  0.00    -0.390 OA
ATOM     14  H1  UNL     1       2.598   1.576   1.624  1.00  0.00     0.210 HD
ENDBRANCH   5  13
ENDBRANCH   4   5
ENDBRANCH   3   4
ENDBRANCH   1   3
BRANCH   1  15
HETATM   15  C11 UNL     1      -2.137   0.038   1.184  1.00  0.00     0.143 C 
BRANCH  15  16
HETATM   16  N1  UNL     1      -3.471   0.310   0.710  1.00  0.00    -0.250 N 
HETATM   17  C12 UNL     1      -4.022   1.531   0.741  1.00  0.00     0.336 A 
HETATM   18  O2  UNL     1      -3.353   2.470   1.193  1.00  0.00    -0.246 OA
HETATM   19  N2  UNL     1      -5.279   1.775   0.298  1.00  0.00    -0.255 N 
HETATM   20  C13 UNL     1      -5.865   3.099   0.335  1.00  0.00     0.166 C 
HETATM   21  C14 UNL     1      -6.020   0.768  -0.197  1.00  0.00     0.336 A 
HETATM   22  O3  UNL     1      -7.205   0.987  -0.617  1.00  0.00    -0.246 OA
HETATM   23  N3  UNL     1      -5.486  -0.463  -0.236  1.00  0.00    -0.255 N 
HETATM   24  C15 UNL     1      -6.296  -1.536  -0.768  1.00  0.00     0.166 C 
HETATM   25  C16 UNL     1      -4.231  -0.682   0.212  1.00  0.00     0.336 A 
HETATM   26  O4  UNL     1      -3.813  -1.889   0.132  1.00  0.00    -0.246 OA
ENDBRANCH  15  16
ENDBRANCH   1  15
TORSDOF 7
