REMARK  14 active torsions:
REMARK  status: ('A' for Active; 'I' for Inactive)
REMARK    1  A    between atoms: C3_5  and  N2_6 
REMARK    2  A    between atoms: N2_6  and  C4_8 
REMARK    3  A    between atoms: C4_8  and  C5_9 
REMARK    4  A    between atoms: C5_9  and  O1_10 
REMARK    5  A    between atoms: C6_14  and  N4_15 
REMARK    6  A    between atoms: N4_15  and  C7_17 
REMARK    7  A    between atoms: C7_17  and  C8_18 
REMARK    8  A    between atoms: C8_18  and  N5_19 
REMARK    9  A    between atoms: N5_19  and  C9_22 
REMARK   10  A    between atoms: C9_22  and  C10_23 
REMARK   11  A    between atoms: C10_23  and  O2_24 
REMARK   12  A    between atoms: C11_26  and  C12_27 
REMARK   13  A    between atoms: C12_27  and  C13_28 
REMARK   14  A    between atoms: C13_28  and  O3_29 
ROOT
HETATM    1  C1  UNL     1      -3.204   3.163  -0.646  1.00  0.00     0.069 C 
HETATM    2  C2  UNL     1      -2.470   1.873  -0.529  1.00  0.00     0.033 A 
HETATM    3  N1  UNL     1      -3.184   0.747  -0.516  1.00  0.00    -0.195 N 
ATOM      4  H1  UNL     1      -4.201   0.816  -0.561  1.00  0.00     0.184 HD
HETATM    5  C3  UNL     1      -2.621  -0.489  -0.445  1.00  0.00     0.683 A 
HETATM    6  N3  UNL     1      -1.287  -0.571  -0.385  1.00  0.00    -0.176 N 
ATOM      7  H3  UNL     1      -0.861  -1.496  -0.331  1.00  0.00     0.186 HD
HETATM    8  C6  UNL     1      -0.476   0.507  -0.392  1.00  0.00     0.125 A 
HETATM    9  C11 UNL     1      -1.107   1.760  -0.466  1.00  0.00     0.011 A 
ENDROOT
BRANCH   8  10
HETATM   10  N4  UNL     1       0.774   0.538  -0.322  1.00  0.00    -0.374 N 
ATOM     11  H4  UNL     1       1.142   1.489  -0.350  1.00  0.00     0.161 HD
BRANCH  10  12
HETATM   12  C7  UNL     1       1.788  -0.426  -0.214  1.00  0.00     0.148 C 
BRANCH  12  13
HETATM   13  C8  UNL     1       2.996  -0.017  -1.082  1.00  0.00     0.251 C 
BRANCH  13  14
HETATM   14  N5  UNL     1       4.047  -0.991  -0.969  1.00  0.00    -0.072 N 
ATOM     15  H52 UNL     1       3.698  -1.921  -1.201  1.00  0.00     0.277 HD
ATOM     16  H51 UNL     1       4.728  -0.869  -1.718  1.00  0.00     0.277 HD
BRANCH  14  17
HETATM   17  C9  UNL     1       4.704  -1.006   0.309  1.00  0.00     0.258 C 
BRANCH  17  18
HETATM   18  C10 UNL     1       5.711  -2.149   0.432  1.00  0.00     0.191 C 
BRANCH  18  19
HETATM   19  O2  UNL     1       6.294  -2.085   1.685  1.00  0.00    -0.399 OA
ATOM     20  H2  UNL     1       6.920  -2.796   1.761  1.00  0.00     0.209 HD
ENDBRANCH  18  19
ENDBRANCH  17  18
ENDBRANCH  14  17
ENDBRANCH  13  14
ENDBRANCH  12  13
ENDBRANCH  10  12
ENDBRANCH   8  10
BRANCH   9  21
HETATM   21  C12 UNL     1      -0.271   2.971  -0.418  1.00  0.00     0.070 C 
BRANCH  21  22
HETATM   22  C13 UNL     1      -0.134   3.582   0.947  1.00  0.00     0.169 C 
BRANCH  22  23
HETATM   23  O3  UNL     1      -1.280   3.991   1.553  1.00  0.00    -0.401 OA
ATOM     24  H3  UNL     1      -1.193   4.378   2.416  1.00  0.00     0.209 HD
ENDBRANCH  22  23
ENDBRANCH  21  22
ENDBRANCH   9  21
BRANCH   5  25
HETATM   25  N2  UNL     1      -3.422  -1.459  -0.436  1.00  0.00    -0.203 N 
ATOM     26  H2  UNL     1      -4.397  -1.163  -0.487  1.00  0.00     0.183 HD
BRANCH  25  27
HETATM   27  C4  UNL     1      -3.286  -2.846  -0.372  1.00  0.00     0.105 C 
BRANCH  27  28
HETATM   28  C5  UNL     1      -4.476  -3.565   0.240  1.00  0.00     0.209 C 
BRANCH  28  29
HETATM   29  O1  UNL     1      -4.710  -3.155   1.538  1.00  0.00    -0.396 OA
ATOM     30  H1  UNL     1      -5.454  -3.605   1.921  1.00  0.00     0.209 HD
ENDBRANCH  28  29
ENDBRANCH  27  28
ENDBRANCH  25  27
ENDBRANCH   5  25
TORSDOF 14
