REMARK  2 active torsions:
REMARK  status: ('A' for Active; 'I' for Inactive)
REMARK    1  A    between atoms: C4_7  and  C5_8 
REMARK    2  A    between atoms: C5_8  and  N3_9 
ROOT
HETATM    1  C1  UNL     1      -0.739   1.744   0.471  1.00  0.00     0.157 C 
HETATM    2  N1  UNL     1      -0.861   0.309   0.182  1.00  0.00    -0.348 N 
HETATM    3  C2  UNL     1      -1.901  -0.493   0.400  1.00  0.00     0.182 A 
HETATM    4  N2  UNL     1      -1.606  -1.738  -0.007  1.00  0.00    -0.360 N 
ATOM      5  H2  UNL     1      -2.222  -2.550   0.043  1.00  0.00     0.166 HD
HETATM    6  C3  UNL     1      -0.353  -1.722  -0.492  1.00  0.00     0.115 A 
HETATM    7  C4  UNL     1       0.111  -0.433  -0.370  1.00  0.00     0.053 A 
ENDROOT
BRANCH   7   8
HETATM    8  C5  UNL     1       1.448   0.047  -0.779  1.00  0.00     0.288 C 
BRANCH   8   9
HETATM    9  N3  UNL     1       2.415  -0.072   0.319  1.00  0.00    -0.074 N 
ATOM     10  H33 UNL     1       2.087   0.403   1.160  1.00  0.00     0.274 HD
ATOM     11  H32 UNL     1       2.454  -1.024   0.682  1.00  0.00     0.274 HD
ATOM     12  H31 UNL     1       3.338   0.259   0.037  1.00  0.00     0.274 HD
ENDBRANCH   8   9
ENDBRANCH   7   8
TORSDOF 2
