REMARK  2 active torsions:
REMARK  status: ('A' for Active; 'I' for Inactive)
REMARK    1  A    between atoms: C3_8  and  C4_9 
REMARK    2  A    between atoms: C4_9  and  N4_10 
ROOT
HETATM    1  C1  UNL     1       0.336   2.050   0.005  1.00  0.00     0.179 C 
HETATM    2  N1  UNL     1       0.790   0.674  -0.023  1.00  0.00    -0.282 N 
HETATM    3  N2  UNL     1       2.023   0.322  -0.345  1.00  0.00    -0.293 N 
ATOM      4  H2  UNL     1       2.774   0.962  -0.603  1.00  0.00     0.188 HD
HETATM    5  C2  UNL     1       2.129  -1.037  -0.276  1.00  0.00     0.199 A 
HETATM    6  N3  UNL     1       0.906  -1.458   0.100  1.00  0.00    -0.338 N 
ATOM      7  H3  UNL     1       0.650  -2.435   0.243  1.00  0.00     0.168 HD
HETATM    8  C3  UNL     1       0.068  -0.422   0.261  1.00  0.00     0.124 A 
ENDROOT
BRANCH   8   9
HETATM    9  C4  UNL     1      -1.373  -0.493   0.673  1.00  0.00     0.307 C 
BRANCH   9  10
HETATM   10  N4  UNL     1      -2.167  -0.611  -0.536  1.00  0.00    -0.073 N 
ATOM     11  H43 UNL     1      -1.982   0.134  -1.208  1.00  0.00     0.274 HD
ATOM     12  H42 UNL     1      -1.882  -1.394  -1.124  1.00  0.00     0.274 HD
ATOM     13  H41 UNL     1      -3.147  -0.659  -0.256  1.00  0.00     0.274 HD
ENDBRANCH   9  10
ENDBRANCH   8   9
TORSDOF 2
