REMARK  2 active torsions:
REMARK  status: ('A' for Active; 'I' for Inactive)
REMARK    1  A    between atoms: O1_1  and  C1_3 
REMARK    2  A    between atoms: C1_3  and  C2_4 
ROOT
HETATM    1  C1  UNL     1       2.094  -0.307   0.080  1.00  0.00     0.186 C 
HETATM    2  C3  UNL     1       1.562   1.069   0.319  1.00  0.00     0.050 C 
HETATM    3  C4  UNL     1       0.915   1.807  -0.767  1.00  0.00     0.003 C 
HETATM    4  C5  UNL     1      -0.478   2.406  -0.433  1.00  0.00     0.000 C 
HETATM    5  C6  UNL     1      -1.283   1.206  -0.143  1.00  0.00     0.000 C 
HETATM    6  C7  UNL     1      -2.723   1.189   0.096  1.00  0.00     0.000 C 
HETATM    7  C8  UNL     1      -3.083  -0.315   0.082  1.00  0.00     0.000 C 
HETATM    8  C9  UNL     1      -2.141  -1.193   0.826  1.00  0.00     0.000 C 
HETATM    9  C10 UNL     1      -1.191  -2.025   0.028  1.00  0.00     0.003 C 
HETATM   10  C11 UNL     1       0.258  -2.002   0.537  1.00  0.00     0.041 C 
HETATM   11  C12 UNL     1       1.204  -1.358  -0.417  1.00  0.00     0.213 C 
HETATM   12  F4  UNL     1       1.989  -2.406  -0.912  1.00  0.00    -0.246 F 
ENDROOT
BRANCH   1  13
HETATM   13  O1  UNL     1       2.527  -0.756   1.362  1.00  0.00    -0.378 OA
ATOM     14  H1  UNL     1       1.724  -0.851   1.861  1.00  0.00     0.211 HD
ENDBRANCH   1  13
BRANCH   1  15
HETATM   15  C2  UNL     1       3.373  -0.155  -0.714  1.00  0.00     0.421 C 
HETATM   16  F1  UNL     1       4.216   0.781  -0.093  1.00  0.00    -0.168 F 
HETATM   17  F2  UNL     1       4.110  -1.280  -0.854  1.00  0.00    -0.168 F 
HETATM   18  F3  UNL     1       3.153   0.346  -1.984  1.00  0.00    -0.168 F 
ENDBRANCH   1  15
TORSDOF 2
