REMARK  6 active torsions:
REMARK  status: ('A' for Active; 'I' for Inactive)
REMARK    1  A    between atoms: C4_6  and  C5_7 
REMARK    2  A    between atoms: C5_7  and  O1_8 
REMARK    3  A    between atoms: C5_7  and  C6_10 
REMARK    4  A    between atoms: C6_10  and  N2_11 
REMARK    5  A    between atoms: C10_15  and  C11_16 
REMARK    6  A    between atoms: C11_16  and  N3_17 
ROOT
HETATM    1  N3  UNL     1       5.319   1.539   1.293  1.00  0.00    -0.296 NA
HETATM    2  O2  UNL     1       6.558   1.477   1.521  1.00  0.00    -0.219 OA
ATOM      3  H2  UNL     1       7.491   1.429   1.692  1.00  0.00     0.261 HD
ENDROOT
BRANCH   1   4
HETATM    4  C11 UNL     1       4.168   1.598   1.082  1.00  0.00     0.230 C 
BRANCH   4   5
HETATM    5  C10 UNL     1       3.386   0.681   0.201  1.00  0.00     0.011 A 
HETATM    6  C9  UNL     1       3.991  -0.365  -0.460  1.00  0.00     0.017 A 
HETATM    7  C8  UNL     1       3.285  -1.229  -1.265  1.00  0.00     0.018 A 
HETATM    8  C7  UNL     1       1.934  -1.036  -1.412  1.00  0.00     0.090 A 
HETATM    9  N2  UNL     1       1.317  -0.003  -0.765  1.00  0.00    -0.363 N 
HETATM   10  C12 UNL     1       2.020   0.836   0.023  1.00  0.00     0.104 A 
BRANCH   9  11
HETATM   11  C6  UNL     1      -0.112   0.128  -0.967  1.00  0.00     0.165 C 
BRANCH  11  12
HETATM   12  C5  UNL     1      -0.813  -0.652   0.115  1.00  0.00     0.186 C 
BRANCH  12  13
HETATM   13  C4  UNL     1      -2.308  -0.575  -0.020  1.00  0.00     0.040 A 
HETATM   14  N1  UNL     1      -3.085  -1.325  -0.802  1.00  0.00    -0.366 N 
HETATM   15  C3  UNL     1      -4.386  -0.944  -0.660  1.00  0.00     0.095 A 
ATOM     16  H1  UNL     1      -2.756  -2.071  -1.414  1.00  0.00     0.165 HD
HETATM   17  C2  UNL     1      -4.392   0.076   0.241  1.00  0.00    -0.045 A 
HETATM   18  C1  UNL     1      -5.623   0.808   0.693  1.00  0.00     0.049 C 
HETATM   19  C13 UNL     1      -3.107   0.317   0.649  1.00  0.00     0.035 A 
ENDBRANCH  12  13
BRANCH  12  20
HETATM   20  O1  UNL     1      -0.462  -1.987   0.144  1.00  0.00    -0.388 OA
ATOM     21  H1  UNL     1       0.483  -2.036   0.229  1.00  0.00     0.210 HD
ENDBRANCH  12  20
ENDBRANCH  11  12
ENDBRANCH   9  11
ENDBRANCH   4   5
ENDBRANCH   1   4
TORSDOF 6
