REMARK  6 active torsions:
REMARK  status: ('A' for Active; 'I' for Inactive)
REMARK       I    between atoms: N1_2  and  C2_4 
REMARK    1  A    between atoms: C2_4  and  C3_6 
REMARK    2  A    between atoms: C4_7  and  C5_8 
REMARK    3  A    between atoms: C6_10  and  N2_11 
REMARK    4  A    between atoms: N2_11  and  N3_13 
REMARK    5  A    between atoms: N3_13  and  S2_15 
REMARK    6  A    between atoms: S2_15  and  N4_17 
ROOT
HETATM    1  C5  UNL     1       1.106  -0.661   0.023  1.00  0.00     0.030 A 
HETATM    2  S1  UNL     1       0.126   0.187  -1.086  1.00  0.00    -0.051 SA
HETATM    3  C6  UNL     1      -1.345  -0.603  -0.772  1.00  0.00     0.164 A 
HETATM    4  N5  UNL     1      -1.027  -1.485   0.169  1.00  0.00    -0.338 N 
ATOM      5  H5  UNL     1      -1.733  -2.112   0.556  1.00  0.00     0.168 HD
HETATM    6  C8  UNL     1       0.215  -1.532   0.589  1.00  0.00     0.024 A 
HETATM    7  C9  UNL     1       0.717  -2.495   1.662  1.00  0.00     0.069 C 
ENDROOT
BRANCH   3   8
HETATM    8  N2  UNL     1      -2.493  -0.367  -1.344  1.00  0.00    -0.271 N 
ATOM      9  H2  UNL     1      -2.537   0.363  -2.055  1.00  0.00     0.189 HD
BRANCH   8  10
HETATM   10  N3  UNL     1      -3.645  -1.049  -1.039  1.00  0.00    -0.242 N 
ATOM     11  H3  UNL     1      -3.780  -2.043  -1.223  1.00  0.00     0.198 HD
BRANCH  10  12
HETATM   12  S2  UNL     1      -5.030   0.122  -0.195  1.00  0.00     0.114 S 
HETATM   13  C7  UNL     1      -4.438   1.899   0.035  1.00  0.00     0.161 C 
HETATM   14  O2  UNL     1      -6.467  -0.549   0.473  1.00  0.00    -0.228 OA
BRANCH  12  15
HETATM   15  N4  UNL     1      -5.765   0.262  -1.764  1.00  0.00    -0.344 N 
ATOM     16  H42 UNL     1      -5.567  -0.100  -2.697  1.00  0.00     0.167 HD
ATOM     17  H41 UNL     1      -6.471   0.859  -1.334  1.00  0.00     0.167 HD
ENDBRANCH  12  15
ENDBRANCH  10  12
ENDBRANCH   8  10
ENDBRANCH   3   8
BRANCH   1  18
HETATM   18  C4  UNL     1       2.545  -0.493   0.295  1.00  0.00     0.026 C 
HETATM   19  C3  UNL     1       3.213   0.421  -0.379  1.00  0.00     0.075 C 
BRANCH  19  20
HETATM   20  C2  UNL     1       4.630   0.627  -0.148  1.00  0.00     0.240 C 
HETATM   21  N1  UNL     1       5.364   1.606  -0.864  1.00  0.00    -0.362 N 
HETATM   22  C1  UNL     1       6.776   1.810  -0.634  1.00  0.00     0.149 C 
ATOM     23  H1  UNL     1       4.884   2.180  -1.558  1.00  0.00     0.162 HD
HETATM   24  O1  UNL     1       5.219  -0.069   0.696  1.00  0.00    -0.269 OA
ENDBRANCH  19  20
ENDBRANCH   1  18
TORSDOF 6
