REMARK  8 active torsions:
REMARK  status: ('A' for Active; 'I' for Inactive)
REMARK    1  A    between atoms: O1_1  and  C1_3 
REMARK    2  A    between atoms: N1_5  and  C3_6 
REMARK    3  A    between atoms: C5_9  and  C6_10 
REMARK    4  A    between atoms: C8_14  and  O3_15 
REMARK    5  A    between atoms: O3_15  and  C9_16 
REMARK    6  A    between atoms: C9_16  and  C10_17 
REMARK    7  A    between atoms: C13_20  and  C14_21 
REMARK    8  A    between atoms: C20_31  and  O4_32 
ROOT
HETATM    1  C6  UNL     1       0.254   0.530   0.050  1.00  0.00    -0.013 A 
HETATM    2  C7  UNL     1       0.952   1.663   0.389  1.00  0.00     0.100 A 
HETATM    3  N2  UNL     1       2.315   1.684   0.371  1.00  0.00    -0.346 N 
ATOM      4  H2  UNL     1       2.806   2.541   0.628  1.00  0.00     0.167 HD
HETATM    5  C8  UNL     1       3.025   0.597   0.021  1.00  0.00     0.154 A 
HETATM    6  C13 UNL     1       2.354  -0.585  -0.334  1.00  0.00     0.037 A 
HETATM    7  C17 UNL     1       0.996  -0.602  -0.314  1.00  0.00     0.028 A 
ENDROOT
BRANCH   1   8
HETATM    8  C5  UNL     1      -1.216   0.527   0.072  1.00  0.00     0.158 C 
HETATM    9  O2  UNL     1      -1.738   1.182   1.182  1.00  0.00    -0.379 OA
HETATM   10  C4  UNL     1      -3.059   0.754   1.305  1.00  0.00     0.194 C 
HETATM   11  C3  UNL     1      -3.104  -0.658   0.808  1.00  0.00     0.110 C 
HETATM   12  C18 UNL     1      -1.817  -0.860   0.078  1.00  0.00     0.064 C 
BRANCH  11  13
HETATM   13  N1  UNL     1      -4.259  -1.050   0.103  1.00  0.00    -0.381 N 
HETATM   14  C2  UNL     1      -5.479  -1.015   0.833  1.00  0.00     0.157 C 
HETATM   15  C1  UNL     1      -6.561  -0.627  -0.167  1.00  0.00     0.169 C 
HETATM   16  C20 UNL     1      -5.743   0.209  -1.154  1.00  0.00     0.186 C 
HETATM   17  C19 UNL     1      -4.460  -0.552  -1.200  1.00  0.00     0.093 C 
BRANCH  15  18
HETATM   18  O1  UNL     1      -7.565   0.119   0.439  1.00  0.00    -0.391 OA
ATOM     19  H1  UNL     1      -8.240   0.361  -0.185  1.00  0.00     0.210 HD
ENDBRANCH  15  18
BRANCH  16  20
HETATM   20  O4  UNL     1      -6.398   0.282  -2.380  1.00  0.00    -0.388 OA
ATOM     21  H4  UNL     1      -5.890   0.801  -2.993  1.00  0.00     0.210 HD
ENDBRANCH  16  20
ENDBRANCH  11  13
ENDBRANCH   1   8
BRANCH   6  22
HETATM   22  C14 UNL     1       3.151  -1.745  -0.705  1.00  0.00     0.076 A 
HETATM   23  S1  UNL     1       4.888  -1.773  -0.735  1.00  0.00    -0.011 SA
HETATM   24  N3  UNL     1       5.128  -3.355  -1.232  1.00  0.00    -0.334 N 
HETATM   25  C15 UNL     1       3.894  -3.835  -1.366  1.00  0.00     0.139 A 
ATOM     26  H3  UNL     1       6.012  -3.837  -1.394  1.00  0.00     0.173 HD
HETATM   27  C16 UNL     1       2.866  -3.010  -1.095  1.00  0.00     0.151 A 
HETATM   28  F1  UNL     1       1.558  -3.465  -1.221  1.00  0.00    -0.203 F 
ENDBRANCH   6  22
BRANCH   5  29
HETATM   29  O3  UNL     1       4.428   0.617   0.001  1.00  0.00    -0.335 OA
BRANCH  29  30
HETATM   30  C9  UNL     1       5.055   1.831   0.368  1.00  0.00     0.182 C 
BRANCH  30  31
HETATM   31  C10 UNL     1       6.563   1.748   0.311  1.00  0.00     0.010 A 
HETATM   32  C11 UNL     1       7.184   1.414  -1.054  1.00  0.00     0.007 A 
HETATM   33  C12 UNL     1       7.308   2.784  -0.403  1.00  0.00     0.007 A 
ENDBRANCH  30  31
ENDBRANCH  29  30
ENDBRANCH   5  29
TORSDOF 8
