REMARK  17 active torsions:
REMARK  status: ('A' for Active; 'I' for Inactive)
REMARK    1  A    between atoms: N1_2  and  C3_4 
REMARK    2  A    between atoms: N1_2  and  C9_14 
REMARK    3  A    between atoms: C3_4  and  C4_5 
REMARK    4  A    between atoms: C4_5  and  C5_6 
REMARK    5  A    between atoms: C5_6  and  C6_7 
REMARK    6  A    between atoms: C6_7  and  C7_8 
REMARK    7  A    between atoms: C7_8  and  C8_9 
REMARK    8  A    between atoms: C8_9  and  N2_10 
REMARK    9  A    between atoms: C9_14  and  C10_15 
REMARK   10  A    between atoms: C10_15  and  C11_16 
REMARK   11  A    between atoms: C11_16  and  C12_17 
REMARK   12  A    between atoms: C12_17  and  C13_18 
REMARK   13  A    between atoms: C13_18  and  C14_19 
REMARK   14  A    between atoms: C14_19  and  N3_20 
REMARK   15  A    between atoms: C16_22  and  C17_23 
REMARK   16  A    between atoms: C17_23  and  N4_24 
REMARK       I    between atoms: N5_29  and  C19_30 
REMARK       I    between atoms: C19_30  and  N6_32 
REMARK   17  A    between atoms: N6_32  and  N7_34 
ROOT
HETATM    1  N3  UNL     1      -4.150  -1.194  -0.045  1.00  0.00    -0.288 N 
HETATM    2  C15 UNL     1      -5.305  -1.775  -0.457  1.00  0.00     0.121 A 
HETATM    3  C16 UNL     1      -6.411  -0.990  -0.607  1.00  0.00     0.002 A 
HETATM    4  C18 UNL     1      -6.306   0.351  -0.335  1.00  0.00     0.133 A 
HETATM    5  N5  UNL     1      -5.139   0.912   0.077  1.00  0.00    -0.200 N 
HETATM    6  C19 UNL     1      -5.071   2.305   0.349  1.00  0.00     0.360 C 
HETATM    7  O1  UNL     1      -6.094   3.012   0.207  1.00  0.00    -0.243 OA
HETATM    8  N6  UNL     1      -3.876   2.899   0.774  1.00  0.00    -0.256 N 
ATOM      9  H6  UNL     1      -3.044   2.321   0.889  1.00  0.00     0.191 HD
HETATM   10  N8  UNL     1      -4.115   0.102   0.200  1.00  0.00    -0.231 N 
ATOM     11  H8  UNL     1      -3.228   0.502   0.507  1.00  0.00     0.209 HD
ENDROOT
BRANCH   1  12
HETATM   12  C14 UNL     1      -3.008  -2.071   0.097  1.00  0.00     0.150 C 
BRANCH  12  13
HETATM   13  C13 UNL     1      -2.216  -2.158  -1.198  1.00  0.00     0.022 C 
BRANCH  13  14
HETATM   14  C12 UNL     1      -1.032  -3.069  -1.043  1.00  0.00     0.002 C 
BRANCH  14  15
HETATM   15  C11 UNL     1      -0.071  -2.611   0.031  1.00  0.00     0.002 C 
BRANCH  15  16
HETATM   16  C10 UNL     1       0.432  -1.254  -0.328  1.00  0.00     0.028 C 
BRANCH  16  17
HETATM   17  C9  UNL     1       1.396  -0.784   0.739  1.00  0.00     0.236 C 
BRANCH  17  18
HETATM   18  N1  UNL     1       1.924   0.550   0.439  1.00  0.00    -0.075 N 
HETATM   19  C1  UNL     1       0.747   1.425   0.412  1.00  0.00     0.272 C 
HETATM   20  C2  UNL     1       2.662   0.949   1.605  1.00  0.00     0.272 C 
BRANCH  18  21
HETATM   21  C3  UNL     1       2.590   0.486  -0.793  1.00  0.00     0.236 C 
BRANCH  21  22
HETATM   22  C4  UNL     1       3.670   1.414  -1.146  1.00  0.00     0.028 C 
BRANCH  22  23
HETATM   23  C5  UNL     1       4.923   1.420  -0.363  1.00  0.00     0.002 C 
BRANCH  23  24
HETATM   24  C6  UNL     1       5.653   0.092  -0.377  1.00  0.00     0.002 C 
BRANCH  24  25
HETATM   25  C7  UNL     1       6.895   0.234   0.461  1.00  0.00     0.027 C 
BRANCH  25  26
HETATM   26  C8  UNL     1       7.824   1.291  -0.051  1.00  0.00     0.229 C 
BRANCH  26  27
HETATM   27  N2  UNL     1       9.002   1.361   0.804  1.00  0.00    -0.079 N 
ATOM     28  H23 UNL     1       8.758   1.504   1.784  1.00  0.00     0.274 HD
ATOM     29  H22 UNL     1       9.463   0.456   0.899  1.00  0.00     0.274 HD
ATOM     30  H21 UNL     1       9.635   2.081   0.455  1.00  0.00     0.274 HD
ENDBRANCH  26  27
ENDBRANCH  25  26
ENDBRANCH  24  25
ENDBRANCH  23  24
ENDBRANCH  22  23
ENDBRANCH  21  22
ENDBRANCH  18  21
ENDBRANCH  17  18
ENDBRANCH  16  17
ENDBRANCH  15  16
ENDBRANCH  14  15
ENDBRANCH  13  14
ENDBRANCH  12  13
ENDBRANCH   1  12
BRANCH   3  31
HETATM   31  C17 UNL     1      -7.699  -1.618  -1.062  1.00  0.00     0.271 C 
BRANCH  31  32
HETATM   32  N4  UNL     1      -8.407  -2.033   0.133  1.00  0.00    -0.075 N 
ATOM     33  H43 UNL     1      -7.854  -2.641   0.737  1.00  0.00     0.274 HD
ATOM     34  H42 UNL     1      -8.543  -1.276   0.803  1.00  0.00     0.274 HD
ATOM     35  H41 UNL     1      -9.281  -2.459  -0.176  1.00  0.00     0.274 HD
ENDBRANCH  31  32
ENDBRANCH   3  31
BRANCH   8  36
HETATM   36  N7  UNL     1      -3.802   4.274   1.044  1.00  0.00    -0.341 N 
ATOM     37  H72 UNL     1      -4.644   4.837   0.923  1.00  0.00     0.177 HD
ATOM     38  H71 UNL     1      -2.932   4.707   1.354  1.00  0.00     0.177 HD
ENDBRANCH   8  36
TORSDOF 17
