REMARK  18 active torsions:
REMARK  status: ('A' for Active; 'I' for Inactive)
REMARK    1  A    between atoms: N1_2  and  C2_3 
REMARK    2  A    between atoms: N1_2  and  C4_9 
REMARK    3  A    between atoms: N1_2  and  C6_13 
REMARK    4  A    between atoms: C2_3  and  C3_4 
REMARK    5  A    between atoms: C3_4  and  N2_5 
REMARK    6  A    between atoms: C4_9  and  C5_10 
REMARK    7  A    between atoms: C6_13  and  C7_14 
REMARK    8  A    between atoms: N4_16  and  C9_17 
REMARK    9  A    between atoms: C9_17  and  C10_18 
REMARK   10  A    between atoms: C10_18  and  C11_19 
REMARK   11  A    between atoms: C11_19  and  O2_20 
REMARK   12  A    between atoms: C12_22  and  C13_23 
REMARK   13  A    between atoms: C13_23  and  C14_24 
REMARK   14  A    between atoms: C14_24  and  C15_25 
REMARK   15  A    between atoms: C15_25  and  C16_26 
REMARK   16  A    between atoms: C16_26  and  C17_27 
REMARK   17  A    between atoms: C17_27  and  C18_28 
REMARK   18  A    between atoms: C18_28  and  C19_29 
ROOT
HETATM    1  C7  UNL     1      -1.349  -0.088  -0.797  1.00  0.00     0.051 A 
HETATM    2  C8  UNL     1      -1.252   1.282  -0.834  1.00  0.00     0.117 A 
HETATM    3  N4  UNL     1      -0.133   1.943  -0.397  1.00  0.00    -0.357 N 
HETATM    4  C12 UNL     1       0.913   1.266   0.084  1.00  0.00     0.026 A 
HETATM    5  C20 UNL     1       0.822  -0.113   0.126  1.00  0.00     0.113 A 
HETATM    6  N6  UNL     1      -0.276  -0.731  -0.304  1.00  0.00    -0.365 N 
ATOM      7  H6  UNL     1      -0.305  -1.749  -0.257  1.00  0.00     0.165 HD
ENDROOT
BRANCH   1   8
HETATM    8  C6  UNL     1      -2.556  -0.755  -1.270  1.00  0.00     0.295 C 
BRANCH   8   9
HETATM    9  N1  UNL     1      -3.393  -1.337  -0.239  1.00  0.00    -0.056 N 
HETATM   10  C1  UNL     1      -3.511  -0.491   0.927  1.00  0.00     0.273 C 
BRANCH   9  11
HETATM   11  C2  UNL     1      -2.757  -2.557   0.172  1.00  0.00     0.265 C 
BRANCH  11  12
HETATM   12  C3  UNL     1      -3.653  -3.578   0.770  1.00  0.00     0.257 C 
BRANCH  12  13
HETATM   13  N2  UNL     1      -4.335  -3.121   1.968  1.00  0.00    -0.078 N 
ATOM     14  H23 UNL     1      -3.665  -2.781   2.657  1.00  0.00     0.274 HD
ATOM     15  H22 UNL     1      -4.844  -2.256   1.786  1.00  0.00     0.274 HD
ATOM     16  H21 UNL     1      -4.951  -3.823   2.379  1.00  0.00     0.274 HD
ENDBRANCH  12  13
ENDBRANCH  11  12
ENDBRANCH   9  11
BRANCH   9  17
HETATM   17  C4  UNL     1      -4.698  -1.539  -0.817  1.00  0.00     0.336 C 
BRANCH  17  18
HETATM   18  C5  UNL     1      -5.464  -0.309  -1.052  1.00  0.00     0.257 C 
HETATM   19  N3  UNL     1      -6.758  -0.457  -1.621  1.00  0.00    -0.061 NA
HETATM   20  O1  UNL     1      -5.107   0.864  -0.806  1.00  0.00    -0.275 OA
ENDBRANCH  17  18
ENDBRANCH   9  17
ENDBRANCH   8   9
ENDBRANCH   1   8
BRANCH   3  21
HETATM   21  C9  UNL     1      -0.115   3.379  -0.452  1.00  0.00     0.130 C 
BRANCH  21  22
HETATM   22  C10 UNL     1      -0.699   3.959   0.817  1.00  0.00     0.046 C 
BRANCH  22  23
HETATM   23  C11 UNL     1      -0.687   5.475   0.775  1.00  0.00     0.165 C 
BRANCH  23  24
HETATM   24  O2  UNL     1       0.637   5.938   0.638  1.00  0.00    -0.401 OA
ATOM     25  H2  UNL     1       0.645   6.888   0.612  1.00  0.00     0.209 HD
ENDBRANCH  23  24
ENDBRANCH  22  23
ENDBRANCH  21  22
ENDBRANCH   3  21
BRANCH   4  26
HETATM   26  C13 UNL     1       2.135   1.925   0.602  1.00  0.00     0.058 C 
BRANCH  26  27
HETATM   27  C14 UNL     1       3.297   1.026   0.851  1.00  0.00     0.006 C 
BRANCH  27  28
HETATM   28  C15 UNL     1       3.893   0.374  -0.351  1.00  0.00     0.000 C 
BRANCH  28  29
HETATM   29  C16 UNL     1       5.048  -0.528   0.069  1.00  0.00     0.000 C 
BRANCH  29  30
HETATM   30  C17 UNL     1       5.632  -1.172  -1.150  1.00  0.00     0.005 C 
BRANCH  30  31
HETATM   31  C18 UNL     1       6.779  -2.078  -0.800  1.00  0.00     0.044 C 
BRANCH  31  32
HETATM   32  C19 UNL     1       6.367  -3.178   0.115  1.00  0.00     0.052 C 
HETATM   33  N5  UNL     1       7.088  -4.212   0.308  1.00  0.00    -0.411 N 
ATOM     34  H52 UNL     1       7.976  -4.272  -0.190  1.00  0.00     0.155 HD
ATOM     35  H51 UNL     1       6.806  -4.966   0.935  1.00  0.00     0.155 HD
ENDBRANCH  31  32
ENDBRANCH  30  31
ENDBRANCH  29  30
ENDBRANCH  28  29
ENDBRANCH  27  28
ENDBRANCH  26  27
ENDBRANCH   4  26
TORSDOF 18
