REMARK  16 active torsions:
REMARK  status: ('A' for Active; 'I' for Inactive)
REMARK    1  A    between atoms: C2_2  and  C3_3 
REMARK    2  A    between atoms: C3_3  and  C4_4 
REMARK    3  A    between atoms: C4_4  and  C5_5 
REMARK    4  A    between atoms: C4_4  and  N1_9 
REMARK    5  A    between atoms: C5_5  and  C6_6 
REMARK    6  A    between atoms: C6_6  and  S1_7 
REMARK    7  A    between atoms: N1_9  and  C8_11 
REMARK    8  A    between atoms: C9_12  and  O1_13 
REMARK    9  A    between atoms: O1_13  and  C10_14 
REMARK   10  A    between atoms: C12_17  and  C13_18 
REMARK   11  A    between atoms: C13_18  and  O3_19 
REMARK   12  A    between atoms: O3_19  and  C14_20 
REMARK   13  A    between atoms: C14_20  and  C15_21 
REMARK   14  A    between atoms: C15_21  and  C16_22 
REMARK   15  A    between atoms: C19_25  and  O4_26 
REMARK   16  A    between atoms: C20_28  and  O5_29 
ROOT
HETATM    1  C8  UNL     1       0.812  -0.189  -0.942  1.00  0.00     0.073 C 
HETATM    2  C9  UNL     1       0.314  -1.191  -0.042  1.00  0.00     0.309 C 
HETATM    3  O2  UNL     1      -1.151  -1.021   0.177  1.00  0.00    -0.346 OA
HETATM    4  C12 UNL     1      -1.669  -1.186  -1.115  1.00  0.00     0.180 C 
HETATM    5  C19 UNL     1      -1.607   0.223  -1.644  1.00  0.00     0.183 C 
HETATM    6  C20 UNL     1      -0.133   0.455  -1.937  1.00  0.00     0.200 C 
ENDROOT
BRANCH   1   7
HETATM    7  N1  UNL     1       1.840   0.698  -0.567  1.00  0.00    -0.360 N 
ATOM      8  H1  UNL     1       1.567   1.650  -0.323  1.00  0.00     0.165 HD
BRANCH   7   9
HETATM    9  C4  UNL     1       3.188   0.392  -0.500  1.00  0.00     0.006 C 
BRANCH   9  10
HETATM   10  C3  UNL     1       4.007   1.700  -0.396  1.00  0.00     0.056 C 
BRANCH  10  11
HETATM   11  C2  UNL     1       3.376   2.831  -1.175  1.00  0.00     0.002 C 
HETATM   12  C1  UNL     1       4.299   4.035  -1.002  1.00  0.00     0.005 C 
ENDBRANCH  10  11
ENDBRANCH   9  10
BRANCH   9  13
HETATM   13  C5  UNL     1       3.812  -0.706   0.211  1.00  0.00     0.008 C 
BRANCH  13  14
HETATM   14  C6  UNL     1       4.148  -0.684   1.642  1.00  0.00     0.102 C 
BRANCH  14  15
HETATM   15  S1  UNL     1       5.408   0.526   2.132  1.00  0.00    -0.170 SA
HETATM   16  C7  UNL     1       6.994   0.030   1.381  1.00  0.00     0.090 C 
ENDBRANCH  14  15
ENDBRANCH  13  14
ENDBRANCH   9  13
ENDBRANCH   7   9
ENDBRANCH   1   7
BRANCH   2  17
HETATM   17  O1  UNL     1       0.710  -1.168   1.267  1.00  0.00    -0.356 OA
BRANCH  17  18
HETATM   18  C10 UNL     1       0.673  -2.358   1.933  1.00  0.00     0.167 C 
HETATM   19  C11 UNL     1       1.447  -3.498   1.390  1.00  0.00     0.033 C 
ENDBRANCH  17  18
ENDBRANCH   2  17
BRANCH   6  20
HETATM   20  O5  UNL     1       0.072   1.818  -1.934  1.00  0.00    -0.387 OA
ATOM     21  H5  UNL     1      -0.520   2.222  -2.558  1.00  0.00     0.210 HD
ENDBRANCH   6  20
BRANCH   5  22
HETATM   22  O4  UNL     1      -1.874   1.156  -0.616  1.00  0.00    -0.390 OA
ATOM     23  H4  UNL     1      -1.835   2.045  -0.950  1.00  0.00     0.210 HD
ENDBRANCH   5  22
BRANCH   4  24
HETATM   24  C13 UNL     1      -2.933  -1.924  -1.207  1.00  0.00     0.202 C 
BRANCH  24  25
HETATM   25  O3  UNL     1      -4.095  -1.510  -0.712  1.00  0.00    -0.389 OA
BRANCH  25  26
HETATM   26  C14 UNL     1      -4.787  -0.485  -1.261  1.00  0.00     0.168 C 
BRANCH  26  27
HETATM   27  C15 UNL     1      -6.107  -0.228  -0.518  1.00  0.00     0.030 C 
BRANCH  27  28
HETATM   28  C16 UNL     1      -5.921   0.144   0.914  1.00  0.00    -0.021 C 
HETATM   29  C17 UNL     1      -5.124   1.412   1.077  1.00  0.00     0.009 C 
HETATM   30  C18 UNL     1      -7.277   0.318   1.574  1.00  0.00     0.009 C 
ENDBRANCH  27  28
ENDBRANCH  26  27
ENDBRANCH  25  26
ENDBRANCH  24  25
ENDBRANCH   4  24
TORSDOF 16
