REMARK  8 active torsions:
REMARK  status: ('A' for Active; 'I' for Inactive)
REMARK    1  A    between atoms: C2_2  and  N1_3 
REMARK    2  A    between atoms: C2_2  and  C8_20 
REMARK    3  A    between atoms: N1_3  and  C3_5 
REMARK    4  A    between atoms: C5_12  and  N4_13 
REMARK    5  A    between atoms: C7_17  and  O3_18 
REMARK    6  A    between atoms: C8_20  and  C9_22 
REMARK    7  A    between atoms: C9_22  and  N5_23 
REMARK    8  A    between atoms: N7_28  and  N8_29 
ROOT
HETATM    1  C1  UNL     1      -0.618  -1.956   1.425  1.00  0.00     0.072 C 
HETATM    2  C2  UNL     1      -0.140  -0.862   0.551  1.00  0.00     0.055 C 
ENDROOT
BRANCH   2   3
HETATM    3  N1  UNL     1      -0.939  -0.061  -0.046  1.00  0.00    -0.341 N 
ATOM      4  H1  UNL     1      -0.514   0.660  -0.629  1.00  0.00     0.167 HD
BRANCH   3   5
HETATM    5  C3  UNL     1      -2.335  -0.074   0.019  1.00  0.00     0.141 A 
HETATM    6  N2  UNL     1      -2.985   0.725   0.867  1.00  0.00    -0.325 N 
HETATM    7  C4  UNL     1      -4.332   0.747   0.964  1.00  0.00     0.134 A 
ATOM      8  H2  UNL     1      -2.442   1.345   1.467  1.00  0.00     0.169 HD
HETATM    9  N3  UNL     1      -4.972   1.514   1.778  1.00  0.00    -0.383 N 
HETATM   10  C5  UNL     1      -5.069  -0.086   0.157  1.00  0.00     0.149 A 
ATOM     11  H32 UNL     1      -4.425   2.132   2.377  1.00  0.00     0.157 HD
ATOM     12  H31 UNL     1      -5.989   1.531   1.851  1.00  0.00     0.157 HD
HETATM   13  C6  UNL     1      -4.442  -0.915  -0.720  1.00  0.00     0.080 A 
HETATM   14  C7  UNL     1      -3.055  -0.910  -0.792  1.00  0.00     0.112 A 
BRANCH  10  15
HETATM   15  N4  UNL     1      -6.490  -0.117   0.204  1.00  0.00    -0.112 N 
HETATM   16  O1  UNL     1      -7.127   0.104   1.252  1.00  0.00    -0.532 OA
HETATM   17  O2  UNL     1      -7.182  -0.401  -0.950  1.00  0.00    -0.532 OA
ENDBRANCH  10  15
BRANCH  14  18
HETATM   18  O3  UNL     1      -2.417  -1.757  -1.689  1.00  0.00    -0.357 OA
ATOM     19  H3  UNL     1      -2.917  -2.337  -2.252  1.00  0.00     0.218 HD
ENDBRANCH  14  18
ENDBRANCH   3   5
ENDBRANCH   2   3
BRANCH   2  20
HETATM   20  C8  UNL     1       1.283  -0.699   0.369  1.00  0.00     0.191 C 
HETATM   21  O4  UNL     1       2.128  -1.466   0.937  1.00  0.00    -0.289 OA
BRANCH  20  22
HETATM   22  C9  UNL     1       1.776   0.390  -0.501  1.00  0.00     0.253 C 
BRANCH  22  23
HETATM   23  N5  UNL     1       3.216   0.434  -0.591  1.00  0.00    -0.111 N 
HETATM   24  N6  UNL     1       3.998  -0.187  -1.467  1.00  0.00    -0.232 N 
HETATM   25  C10 UNL     1       5.291   0.121  -1.203  1.00  0.00     0.375 A 
ATOM     26  H6  UNL     1       3.677  -0.798  -2.218  1.00  0.00     0.192 HD
HETATM   27  O5  UNL     1       6.323  -0.282  -1.825  1.00  0.00    -0.243 OA
HETATM   28  N7  UNL     1       5.308   0.947  -0.144  1.00  0.00    -0.036 N 
HETATM   29  C11 UNL     1       4.037   1.133   0.224  1.00  0.00     0.718 A 
HETATM   30  N9  UNL     1       3.615   1.864   1.206  1.00  0.00    -0.231 N 
ATOM     31  H92 UNL     1       2.645   2.006   1.487  1.00  0.00     0.174 HD
ATOM     32  H91 UNL     1       4.235   2.392   1.821  1.00  0.00     0.174 HD
BRANCH  28  33
HETATM   33  N8  UNL     1       6.423   1.526   0.485  1.00  0.00    -0.320 N 
ATOM     34  H82 UNL     1       7.393   1.384   0.204  1.00  0.00     0.178 HD
ATOM     35  H81 UNL     1       6.436   2.153   1.289  1.00  0.00     0.178 HD
ENDBRANCH  28  33
ENDBRANCH  22  23
ENDBRANCH  20  22
ENDBRANCH   2  20
TORSDOF 8
