REMARK  5 active torsions:
REMARK  status: ('A' for Active; 'I' for Inactive)
REMARK    1  A    between atoms: C2_2  and  C4_4 
REMARK       I    between atoms: N2_12  and  C9_13 
REMARK    2  A    between atoms: C9_13  and  C10_15 
REMARK    3  A    between atoms: N3_17  and  N4_19 
REMARK    4  A    between atoms: N4_19  and  C12_21 
REMARK    5  A    between atoms: C20_29  and  C21_30 
REMARK       I    between atoms: C21_30  and  N5_32 
ROOT
HETATM    1  C10 UNL     1      -0.411   0.583   0.353  1.00  0.00     0.138 C 
HETATM    2  C11 UNL     1       0.535  -0.469  -0.117  1.00  0.00     0.017 C 
HETATM    3  N3  UNL     1       1.294  -1.295   0.471  1.00  0.00    -0.312 N 
ATOM      4  H3  UNL     1       1.314  -1.297   1.491  1.00  0.00     0.186 HD
HETATM    5  C18 UNL     1       0.454  -0.354  -1.630  1.00  0.00     0.056 C 
HETATM    6  C19 UNL     1       0.645   1.132  -1.779  1.00  0.00     0.021 C 
HETATM    7  C20 UNL     1      -0.088   1.727  -0.610  1.00  0.00     0.097 C 
ENDROOT
BRANCH   1   8
HETATM    8  C9  UNL     1      -1.820   0.186   0.123  1.00  0.00     0.235 C 
HETATM    9  N2  UNL     1      -2.531  -0.669   0.983  1.00  0.00    -0.314 N 
HETATM   10  C4  UNL     1      -3.887  -1.145   0.874  1.00  0.00     0.018 C 
HETATM   11  C8  UNL     1      -1.844  -1.132   2.220  1.00  0.00     0.234 C 
HETATM   12  C5  UNL     1      -3.963  -2.598   1.086  1.00  0.00     0.127 C 
HETATM   13  C6  UNL     1      -4.770  -3.424   0.125  1.00  0.00     0.038 C 
HETATM   14  N1  UNL     1      -2.656  -3.232   1.223  1.00  0.00    -0.350 N 
HETATM   15  C7  UNL     1      -1.741  -2.602   2.096  1.00  0.00     0.236 C 
ATOM     16  H1  UNL     1      -2.416  -4.084   0.716  1.00  0.00     0.163 HD
HETATM   17  O1  UNL     1      -0.870  -3.271   2.744  1.00  0.00    -0.272 OA
HETATM   18  O2  UNL     1      -2.316   0.704  -0.939  1.00  0.00    -0.272 OA
BRANCH  10  19
HETATM   19  C2  UNL     1      -4.755  -0.541  -0.140  1.00  0.00     0.025 C 
HETATM   20  C1  UNL     1      -4.667  -0.996  -1.545  1.00  0.00     0.016 C 
HETATM   21  C3  UNL     1      -6.215  -0.564   0.365  1.00  0.00     0.016 C 
ENDBRANCH  10  19
ENDBRANCH   1   8
BRANCH   7  22
HETATM   22  C21 UNL     1       0.722   2.764   0.086  1.00  0.00     0.225 C 
HETATM   23  O3  UNL     1       1.026   2.583   1.289  1.00  0.00    -0.273 OA
HETATM   24  N5  UNL     1       1.160   3.944  -0.558  1.00  0.00    -0.352 N 
HETATM   25  C22 UNL     1       0.859   4.243  -1.946  1.00  0.00     0.126 C 
HETATM   26  C25 UNL     1       1.940   4.984   0.046  1.00  0.00     0.126 C 
HETATM   27  C23 UNL     1       1.091   5.740  -2.012  1.00  0.00     0.021 C 
HETATM   28  C24 UNL     1       2.256   5.910  -1.086  1.00  0.00     0.021 C 
ENDBRANCH   7  22
BRANCH   3  29
HETATM   29  N4  UNL     1       2.096  -2.194  -0.206  1.00  0.00    -0.332 N 
ATOM     30  H4  UNL     1       1.686  -2.816  -0.903  1.00  0.00     0.180 HD
BRANCH  29  31
HETATM   31  C12 UNL     1       3.509  -2.256   0.070  1.00  0.00     0.099 C 
HETATM   32  C13 UNL     1       3.714  -2.590   1.534  1.00  0.00     0.026 C 
HETATM   33  C14 UNL     1       5.181  -2.615   1.820  1.00  0.00     0.002 C 
HETATM   34  C15 UNL     1       5.783  -1.262   1.517  1.00  0.00     0.000 C 
HETATM   35  C16 UNL     1       4.726  -0.317   0.951  1.00  0.00     0.002 C 
HETATM   36  C17 UNL     1       4.199  -0.963  -0.302  1.00  0.00     0.026 C 
ENDBRANCH  29  31
ENDBRANCH   3  29
TORSDOF 5
