REMARK  6 active torsions:
REMARK  status: ('A' for Active; 'I' for Inactive)
REMARK    1  A    between atoms: C5_7  and  C6_8 
REMARK    2  A    between atoms: C6_8  and  C7_9 
REMARK    3  A    between atoms: C9_13  and  C10_14 
REMARK    4  A    between atoms: C13_20  and  O1_21 
REMARK    5  A    between atoms: O1_21  and  C14_22 
REMARK    6  A    between atoms: C14_22  and  C15_23 
ROOT
HETATM    1  C7  UNL     1      -0.785   0.160  -0.598  1.00  0.00     0.086 A 
HETATM    2  N2  UNL     1      -1.909   0.879  -0.903  1.00  0.00    -0.339 N 
ATOM      3  H2  UNL     1      -2.869   0.553  -0.790  1.00  0.00     0.167 HD
HETATM    4  C8  UNL     1      -1.554   2.056  -1.364  1.00  0.00     0.108 A 
HETATM    5  C9  UNL     1      -2.189   3.115  -1.785  1.00  0.00     0.065 C 
HETATM    6  N4  UNL     1      -0.157   2.066  -1.344  1.00  0.00    -0.321 N 
ATOM      7  H4  UNL     1       0.423   2.850  -1.645  1.00  0.00     0.169 HD
HETATM    8  C13 UNL     1       0.308   0.921  -0.882  1.00  0.00     0.171 A 
ENDROOT
BRANCH   8   9
HETATM    9  O1  UNL     1       1.655   0.621  -0.737  1.00  0.00    -0.327 OA
BRANCH   9  10
HETATM   10  C14 UNL     1       2.661   1.531  -1.075  1.00  0.00     0.254 C 
BRANCH  10  11
HETATM   11  C15 UNL     1       3.998   0.910  -0.792  1.00  0.00     0.108 A 
HETATM   12  N5  UNL     1       5.016   0.760  -1.654  1.00  0.00    -0.346 N 
HETATM   13  C16 UNL     1       6.049   0.155  -1.002  1.00  0.00     0.036 A 
ATOM     14  H5  UNL     1       5.017   1.050  -2.632  1.00  0.00     0.167 HD
HETATM   15  C17 UNL     1       5.637  -0.062   0.282  1.00  0.00     0.061 A 
HETATM   16  C21 UNL     1       7.409  -0.261  -1.412  1.00  0.00     0.086 C 
HETATM   17  N6  UNL     1       4.370   0.409   0.398  1.00  0.00    -0.340 N 
HETATM   18  C19 UNL     1       6.562  -0.715   1.232  1.00  0.00     0.291 C 
HETATM   19  C18 UNL     1       3.623   0.342   1.635  1.00  0.00     0.157 C 
HETATM   20  N7  UNL     1       7.902  -0.223   1.017  1.00  0.00    -0.070 N 
HETATM   21  C20 UNL     1       8.383  -0.439  -0.304  1.00  0.00     0.238 C 
ATOM     22  H72 UNL     1       7.968   0.763   1.268  1.00  0.00     0.277 HD
ATOM     23  H71 UNL     1       8.545  -0.617   1.704  1.00  0.00     0.277 HD
ENDBRANCH  10  11
ENDBRANCH   9  10
ENDBRANCH   8   9
BRANCH   1  24
HETATM   24  C6  UNL     1      -0.760  -1.067  -0.094  1.00  0.00     0.048 C 
BRANCH  24  25
HETATM   25  C5  UNL     1      -1.984  -1.817   0.207  1.00  0.00    -0.004 A 
HETATM   26  C2  UNL     1      -2.643  -2.707  -0.599  1.00  0.00     0.016 A 
HETATM   27  C1  UNL     1      -2.248  -3.128  -1.993  1.00  0.00     0.069 C 
HETATM   28  N1  UNL     1      -3.707  -3.137   0.098  1.00  0.00    -0.362 N 
HETATM   29  C3  UNL     1      -3.776  -2.582   1.300  1.00  0.00     0.016 A 
ATOM     30  H1  UNL     1      -4.384  -3.813  -0.256  1.00  0.00     0.165 HD
HETATM   31  C4  UNL     1      -2.682  -1.722   1.410  1.00  0.00    -0.023 A 
HETATM   32  C25 UNL     1      -4.697  -2.675   2.502  1.00  0.00     0.057 C 
HETATM   33  C22 UNL     1      -2.400  -0.911   2.586  1.00  0.00     0.041 C 
HETATM   34  C23 UNL     1      -3.069  -1.359   3.828  1.00  0.00     0.005 C 
HETATM   35  C24 UNL     1      -3.742  -2.688   3.687  1.00  0.00     0.006 C 
ENDBRANCH  24  25
ENDBRANCH   1  24
BRANCH   5  36
HETATM   36  C10 UNL     1      -3.528   3.468  -1.932  1.00  0.00     0.088 C 
HETATM   37  N3  UNL     1      -4.696   3.062  -1.778  1.00  0.00    -0.398 N 
HETATM   38  C11 UNL     1      -5.174   1.809  -1.287  1.00  0.00     0.148 C 
HETATM   39  C12 UNL     1      -5.787   4.048  -2.173  1.00  0.00     0.148 C 
ENDBRANCH   5  36
TORSDOF 6
