REMARK  10 active torsions:
REMARK  status: ('A' for Active; 'I' for Inactive)
REMARK    1  A    between atoms: N1_2  and  C4_5 
REMARK    2  A    between atoms: C4_5  and  C5_6 
REMARK    3  A    between atoms: C5_6  and  C6_7 
REMARK    4  A    between atoms: C6_7  and  C7_8 
REMARK    5  A    between atoms: C7_8  and  N3_12 
REMARK    6  A    between atoms: N3_12  and  C8_14 
REMARK    7  A    between atoms: C8_14  and  N4_15 
REMARK       I    between atoms: N5_21  and  C11_22 
REMARK       I    between atoms: C11_22  and  N6_24 
REMARK    8  A    between atoms: N7_27  and  C14_28 
REMARK    9  A    between atoms: C14_28  and  O2_29 
REMARK   10  A    between atoms: C14_28  and  N8_31 
ROOT
HETATM    1  C8  UNL     1      -1.792  -1.101   0.744  1.00  0.00     0.214 C 
HETATM    2  C9  UNL     1      -1.874  -2.398  -0.049  1.00  0.00     0.083 C 
HETATM    3  C10 UNL     1      -1.030  -2.089  -1.230  1.00  0.00     0.132 C 
HETATM    4  N5  UNL     1      -0.039  -1.109  -0.800  1.00  0.00    -0.330 N 
HETATM    5  C11 UNL     1       1.093  -0.723  -1.595  1.00  0.00     0.322 C 
HETATM    6  O1  UNL     1       1.250  -1.256  -2.745  1.00  0.00    -0.247 OA
HETATM    7  N6  UNL     1       2.031   0.218  -1.152  1.00  0.00    -0.316 N 
HETATM    8  C12 UNL     1       2.153   0.978   0.053  1.00  0.00     0.149 C 
HETATM    9  C13 UNL     1       3.616   1.460   0.040  1.00  0.00     0.148 C 
HETATM   10  N7  UNL     1       4.243   0.709  -0.970  1.00  0.00    -0.329 N 
HETATM   11  C21 UNL     1       3.176   0.594  -2.019  1.00  0.00     0.257 C 
HETATM   12  C22 UNL     1      -0.367  -0.616   0.487  1.00  0.00     0.189 C 
ENDROOT
BRANCH   1  13
HETATM   13  N3  UNL     1      -2.738  -0.179   0.167  1.00  0.00    -0.346 N 
ATOM     14  H3  UNL     1      -2.438   0.715  -0.222  1.00  0.00     0.163 HD
BRANCH  13  15
HETATM   15  C7  UNL     1      -4.123  -0.570   0.162  1.00  0.00     0.072 C 
HETATM   16  N2  UNL     1      -4.580  -1.017   1.254  1.00  0.00    -0.389 N 
ATOM     17  H22 UNL     1      -5.562  -1.294   1.250  1.00  0.00     0.157 HD
ATOM     18  H21 UNL     1      -4.018  -1.074   2.103  1.00  0.00     0.157 HD
BRANCH  15  19
HETATM   19  C6  UNL     1      -4.934  -0.488  -1.063  1.00  0.00     0.077 C 
BRANCH  19  20
HETATM   20  C5  UNL     1      -6.397  -0.497  -0.750  1.00  0.00     0.035 C 
BRANCH  20  21
HETATM   21  C4  UNL     1      -6.766   0.698   0.057  1.00  0.00     0.236 C 
BRANCH  21  22
HETATM   22  N1  UNL     1      -8.178   0.733   0.398  1.00  0.00    -0.079 N 
HETATM   23  C1  UNL     1      -8.752  -0.574   0.530  1.00  0.00     0.271 C 
HETATM   24  C2  UNL     1      -8.388   1.441   1.660  1.00  0.00     0.271 C 
HETATM   25  C3  UNL     1      -8.864   1.433  -0.669  1.00  0.00     0.271 C 
ENDBRANCH  21  22
ENDBRANCH  20  21
ENDBRANCH  19  20
ENDBRANCH  15  19
ENDBRANCH  13  15
ENDBRANCH   1  13
BRANCH   1  26
HETATM   26  N4  UNL     1      -1.998  -1.350   2.140  1.00  0.00    -0.051 N 
ATOM     27  H43 UNL     1      -2.008  -0.474   2.662  1.00  0.00     0.277 HD
ATOM     28  H42 UNL     1      -2.953  -1.664   2.311  1.00  0.00     0.277 HD
ATOM     29  H41 UNL     1      -1.329  -2.002   2.548  1.00  0.00     0.277 HD
ENDBRANCH   1  26
BRANCH  10  30
HETATM   30  C14 UNL     1       5.508   0.162  -1.184  1.00  0.00     0.222 C 
BRANCH  30  31
HETATM   31  O2  UNL     1       5.618  -0.548  -2.291  1.00  0.00    -0.332 OA
ATOM     32  H2  UNL     1       6.480  -0.921  -2.437  1.00  0.00     0.221 HD
ENDBRANCH  30  31
BRANCH  30  33
HETATM   33  N8  UNL     1       6.631   0.282  -0.381  1.00  0.00    -0.327 N 
HETATM   34  C15 UNL     1       6.602   1.052   0.792  1.00  0.00     0.067 C 
HETATM   35  C16 UNL     1       7.966   1.254   1.440  1.00  0.00     0.045 C 
HETATM   36  C17 UNL     1       9.104   1.305   0.487  1.00  0.00     0.005 C 
HETATM   37  C18 UNL     1       9.775  -0.058   0.409  1.00  0.00     0.002 C 
HETATM   38  C19 UNL     1       8.648  -1.045   0.171  1.00  0.00     0.020 C 
HETATM   39  C20 UNL     1       7.785  -0.484  -0.931  1.00  0.00     0.131 C 
ENDBRANCH  30  33
ENDBRANCH  10  30
TORSDOF 10
