REMARK  8 active torsions:
REMARK  status: ('A' for Active; 'I' for Inactive)
REMARK    1  A    between atoms: C2_2  and  N1_3 
REMARK    2  A    between atoms: C2_2  and  N2_6 
REMARK    3  A    between atoms: N2_6  and  N3_8 
REMARK    4  A    between atoms: N3_8  and  C3_10 
REMARK    5  A    between atoms: C3_10  and  C10_28 
REMARK    6  A    between atoms: C4_11  and  N4_12 
REMARK    7  A    between atoms: C4_11  and  C5_15 
REMARK    8  A    between atoms: C7_20  and  N7_21 
ROOT
HETATM    1  C3  UNL     1       1.182   0.289  -0.922  1.00  0.00     0.142 C 
HETATM    2  C4  UNL     1      -0.149   0.754  -0.757  1.00  0.00     0.088 C 
ENDROOT
BRANCH   2   3
HETATM    3  N4  UNL     1      -0.626   1.374  -1.890  1.00  0.00    -0.395 N 
ATOM      4  H42 UNL     1       0.097   1.360  -2.609  1.00  0.00     0.156 HD
ATOM      5  H41 UNL     1      -1.582   1.708  -1.771  1.00  0.00     0.156 HD
ENDBRANCH   2   3
BRANCH   2   6
HETATM    6  C5  UNL     1      -1.159   0.774   0.248  1.00  0.00     0.085 A 
HETATM    7  N5  UNL     1      -2.364   1.399  -0.133  1.00  0.00    -0.338 N 
HETATM    8  C6  UNL     1      -3.399   1.506   0.672  1.00  0.00     0.161 A 
ATOM      9  H5  UNL     1      -2.436   1.785  -1.074  1.00  0.00     0.167 HD
HETATM   10  N6  UNL     1      -4.580   2.154   0.206  1.00  0.00    -0.079 NA
HETATM   11  C7  UNL     1      -3.379   1.012   1.951  1.00  0.00     0.141 A 
HETATM   12  N8  UNL     1      -2.254   0.416   2.337  1.00  0.00    -0.342 N 
HETATM   13  C8  UNL     1      -1.156   0.298   1.496  1.00  0.00     0.036 A 
ATOM     14  H8  UNL     1      -2.196   0.034   3.281  1.00  0.00     0.167 HD
HETATM   15  C9  UNL     1      -0.016  -0.394   2.111  1.00  0.00     0.070 C 
BRANCH  11  16
HETATM   16  N7  UNL     1      -4.400   1.134   2.702  1.00  0.00    -0.383 N 
ATOM     17  H72 UNL     1      -5.263   1.591   2.406  1.00  0.00     0.157 HD
ATOM     18  H71 UNL     1      -4.385   0.767   3.653  1.00  0.00     0.157 HD
ENDBRANCH  11  16
ENDBRANCH   2   6
BRANCH   1  19
HETATM   19  N3  UNL     1       1.909  -0.309  -0.106  1.00  0.00    -0.293 N 
ATOM     20  H3  UNL     1       1.486  -0.487   0.805  1.00  0.00     0.187 HD
BRANCH  19  21
HETATM   21  N2  UNL     1       3.178  -0.757  -0.250  1.00  0.00    -0.289 N 
ATOM     22  H2  UNL     1       3.936  -0.075  -0.224  1.00  0.00     0.188 HD
BRANCH  21  23
HETATM   23  C2  UNL     1       3.513  -2.134  -0.436  1.00  0.00     0.085 C 
HETATM   24  C1  UNL     1       2.509  -3.130  -0.880  1.00  0.00     0.090 C 
BRANCH  23  25
HETATM   25  N1  UNL     1       4.713  -2.552  -0.219  1.00  0.00    -0.388 N 
ATOM     26  H12 UNL     1       4.952  -3.535  -0.352  1.00  0.00     0.157 HD
ATOM     27  H11 UNL     1       5.404  -1.867   0.087  1.00  0.00     0.157 HD
ENDBRANCH  23  25
ENDBRANCH  21  23
ENDBRANCH  19  21
ENDBRANCH   1  19
BRANCH   1  28
HETATM   28  C10 UNL     1       1.828   0.534  -2.243  1.00  0.00     0.285 C 
HETATM   29  N9  UNL     1       1.183   1.183  -3.280  1.00  0.00    -0.056 NA
HETATM   30  O1  UNL     1       2.990   0.141  -2.423  1.00  0.00    -0.269 OA
ENDBRANCH   1  28
TORSDOF 8
