REMARK  4 active torsions:
REMARK  status: ('A' for Active; 'I' for Inactive)
REMARK    1  A    between atoms: N1_1  and  N2_4 
REMARK    2  A    between atoms: N2_4  and  N3_5 
REMARK    3  A    between atoms: N3_5  and  C1_7 
REMARK    4  A    between atoms: C9_15  and  O1_16 
ROOT
HETATM    1  C1  UNL     1       0.082   0.733   0.289  1.00  0.00     0.167 C 
HETATM    2  C2  UNL     1      -1.189   0.799   1.081  1.00  0.00     0.064 C 
HETATM    3  C3  UNL     1      -1.989  -0.472   1.042  1.00  0.00     0.005 C 
HETATM    4  C4  UNL     1      -2.339  -0.925  -0.342  1.00  0.00     0.001 C 
HETATM    5  C5  UNL     1      -1.277  -0.456  -1.337  1.00  0.00     0.009 C 
HETATM    6  C6  UNL     1       0.031  -0.527  -0.554  1.00  0.00     0.044 C 
HETATM    7  C7  UNL     1       1.222  -0.704  -1.429  1.00  0.00     0.014 C 
HETATM    8  C8  UNL     1       2.461  -0.368  -0.600  1.00  0.00     0.061 C 
HETATM    9  C9  UNL     1       2.086  -0.263   0.876  1.00  0.00     0.260 C 
HETATM   10  O2  UNL     1       1.200   0.774   1.089  1.00  0.00    -0.329 OA
ENDROOT
BRANCH   1  11
HETATM   11  N3  UNL     1       0.050   1.863  -0.651  1.00  0.00    -0.216 N 
ATOM     12  H3  UNL     1       0.410   1.754  -1.599  1.00  0.00     0.200 HD
BRANCH  11  13
HETATM   13  N2  UNL     1      -0.421   2.954  -0.279  1.00  0.00    -0.246 NA
BRANCH  13  14
HETATM   14  N1  UNL     1      -1.171   3.936  -0.167  1.00  0.00    -0.261 N 
ATOM     15  H12 UNL     1      -1.862   3.613  -0.844  1.00  0.00     0.193 HD
ATOM     16  H11 UNL     1      -1.557   4.830   0.138  1.00  0.00     0.193 HD
ENDBRANCH  13  14
ENDBRANCH  11  13
ENDBRANCH   1  11
BRANCH   9  17
HETATM   17  O1  UNL     1       3.281   0.077   1.543  1.00  0.00    -0.371 OA
ATOM     18  H1  UNL     1       3.048   0.142   2.462  1.00  0.00     0.212 HD
ENDBRANCH   9  17
TORSDOF 4
