REMARK  13 active torsions:
REMARK  status: ('A' for Active; 'I' for Inactive)
REMARK    1  A    between atoms: C4_4  and  C5_5 
REMARK    2  A    between atoms: C5_5  and  O1_6 
REMARK    3  A    between atoms: C5_5  and  N1_8 
REMARK    4  A    between atoms: N1_8  and  C6_9 
REMARK    5  A    between atoms: N1_8  and  C16_27 
REMARK    6  A    between atoms: C6_9  and  O2_10 
REMARK    7  A    between atoms: C7_12  and  O3_13 
REMARK    8  A    between atoms: O3_13  and  C8_14 
REMARK    9  A    between atoms: C8_14  and  C9_16 
REMARK   10  A    between atoms: C11_18  and  C12_19 
REMARK   11  A    between atoms: C22_34  and  C23_35 
REMARK   12  A    between atoms: C23_35  and  C24_36 
REMARK   13  A    between atoms: C24_36  and  O5_37 
ROOT
HETATM    1  N1  UNL     1      -1.801  -2.210   0.085  1.00  0.00    -0.297 N 
ENDROOT
BRANCH   1   2
HETATM    2  C5  UNL     1      -2.837  -1.376  -0.296  1.00  0.00     0.155 C 
BRANCH   2   3
HETATM    3  C4  UNL     1      -3.176   0.013  -0.185  1.00  0.00     0.017 A 
HETATM    4  C3  UNL     1      -4.157   0.518  -1.063  1.00  0.00     0.023 A 
HETATM    5  C2  UNL     1      -4.665   1.801  -0.976  1.00  0.00    -0.053 A 
HETATM    6  C1  UNL     1      -5.650   2.214  -2.025  1.00  0.00     0.049 C 
HETATM    7  C22 UNL     1      -4.257   2.683  -0.024  1.00  0.00    -0.028 A 
HETATM    8  C21 UNL     1      -3.282   2.200   0.857  1.00  0.00     0.041 A 
HETATM    9  C20 UNL     1      -2.778   0.908   0.758  1.00  0.00     0.040 A 
HETATM   10 CL1  UNL     1      -2.670   3.271   2.072  1.00  0.00    -0.084 Cl
BRANCH   7  11
HETATM   11  C23 UNL     1      -4.779   4.038   0.216  1.00  0.00     0.067 C 
BRANCH  11  12
HETATM   12  C24 UNL     1      -5.952   4.174   1.096  1.00  0.00     0.168 C 
BRANCH  12  13
HETATM   13  O5  UNL     1      -7.118   3.560   0.756  1.00  0.00    -0.401 OA
ATOM     14  H5  UNL     1      -7.875   3.648   1.324  1.00  0.00     0.209 HD
ENDBRANCH  12  13
ENDBRANCH  11  12
ENDBRANCH   7  11
ENDBRANCH   2   3
BRANCH   2  15
HETATM   15  O1  UNL     1      -3.793  -2.096  -0.950  1.00  0.00    -0.345 OA
ATOM     16  H1  UNL     1      -3.568  -3.016  -1.024  1.00  0.00     0.219 HD
ENDBRANCH   2  15
ENDBRANCH   1   2
BRANCH   1  17
HETATM   17  C6  UNL     1      -0.447  -1.932   0.102  1.00  0.00     0.168 C 
HETATM   18  C7  UNL     1       0.309  -0.721   0.328  1.00  0.00     0.202 C 
BRANCH  17  19
HETATM   19  O2  UNL     1       0.310  -2.983  -0.124  1.00  0.00    -0.344 OA
ATOM     20  H2  UNL     1       1.241  -2.792  -0.112  1.00  0.00     0.219 HD
ENDBRANCH  17  19
BRANCH  18  21
HETATM   21  O3  UNL     1       1.650  -0.604   0.047  1.00  0.00    -0.282 OA
BRANCH  21  22
HETATM   22  C8  UNL     1       2.703  -1.386   0.166  1.00  0.00     0.316 C 
HETATM   23  O4  UNL     1       2.624  -2.570   0.577  1.00  0.00    -0.257 OA
BRANCH  22  24
HETATM   24  C9  UNL     1       4.081  -0.945  -0.166  1.00  0.00     0.125 A 
HETATM   25  C10 UNL     1       4.637   0.314  -0.170  1.00  0.00     0.064 A 
HETATM   26  C11 UNL     1       6.010   0.252  -0.283  1.00  0.00     0.035 A 
HETATM   27  N2  UNL     1       6.279  -1.095  -0.351  1.00  0.00    -0.303 N 
HETATM   28  N3  UNL     1       5.165  -1.777  -0.282  1.00  0.00    -0.295 N 
ATOM     29  H2  UNL     1       7.210  -1.502  -0.442  1.00  0.00     0.186 HD
ATOM     30  H3  UNL     1       5.110  -2.795  -0.311  1.00  0.00     0.187 HD
BRANCH  26  31
HETATM   31  C12 UNL     1       7.039   1.317  -0.216  1.00  0.00    -0.007 C 
HETATM   32  C13 UNL     1       6.724   2.513  -1.022  1.00  0.00     0.021 C 
HETATM   33  C14 UNL     1       8.383   0.712  -0.580  1.00  0.00     0.021 C 
HETATM   34  C15 UNL     1       7.212   1.760   1.255  1.00  0.00     0.021 C 
ENDBRANCH  26  31
ENDBRANCH  22  24
ENDBRANCH  21  22
ENDBRANCH  18  21
ENDBRANCH   1  17
BRANCH   1  35
HETATM   35  C16 UNL     1      -2.198  -3.658   0.127  1.00  0.00     0.030 C 
HETATM   36  C17 UNL     1      -3.435  -3.704   1.041  1.00  0.00     0.038 C 
HETATM   37  C18 UNL     1      -2.369  -4.263  -1.196  1.00  0.00     0.038 C 
HETATM   38  C19 UNL     1      -1.196  -4.497   0.935  1.00  0.00     0.038 C 
ENDBRANCH   1  35
TORSDOF 13
