REMARK  10 active torsions:
REMARK  status: ('A' for Active; 'I' for Inactive)
REMARK    1  A    between atoms: C2_2  and  C3_3 
REMARK    2  A    between atoms: C5_5  and  N1_6 
REMARK    3  A    between atoms: C5_5  and  C31_41 
REMARK       I    between atoms: N1_6  and  C6_8 
REMARK    4  A    between atoms: C6_8  and  C7_10 
REMARK       I    between atoms: N3_21  and  C17_22 
REMARK    5  A    between atoms: C17_22  and  C18_24 
REMARK    6  A    between atoms: C18_24  and  C19_25 
REMARK    7  A    between atoms: C18_24  and  N4_28 
REMARK    8  A    between atoms: C19_25  and  C20_26 
REMARK       I    between atoms: N4_28  and  C22_30 
REMARK    9  A    between atoms: C22_30  and  O4_32 
REMARK   10  A    between atoms: O4_32  and  C23_33 
ROOT
HETATM    1  C7  UNL     1      -1.888  -0.090  -1.753  1.00  0.00     0.183 C 
HETATM    2  C8  UNL     1      -3.111  -0.860  -2.145  1.00  0.00     0.026 C 
HETATM    3  C9  UNL     1      -4.387  -0.392  -1.513  1.00  0.00     0.038 C 
HETATM    4  C10 UNL     1      -5.502  -1.357  -1.514  1.00  0.00     0.273 C 
HETATM    5  N2  UNL     1      -5.294  -2.614  -2.133  1.00  0.00     0.089 N 
HETATM    6  C11 UNL     1      -6.377  -3.495  -1.755  1.00  0.00     0.310 C 
HETATM    7  C12 UNL     1      -4.021  -3.209  -2.053  1.00  0.00     0.227 C 
HETATM    8  C13 UNL     1      -3.879  -4.301  -1.028  1.00  0.00     0.036 C 
HETATM    9  C14 UNL     1      -2.742  -3.886  -0.091  1.00  0.00     0.009 C 
HETATM   10  C15 UNL     1      -2.782  -2.388  -0.272  1.00  0.00     0.010 C 
HETATM   11  C16 UNL     1      -1.555  -1.665   0.206  1.00  0.00     0.132 C 
HETATM   12  N3  UNL     1      -1.046  -0.807  -0.819  1.00  0.00    -0.336 N 
HETATM   13  C17 UNL     1       0.356  -0.619  -0.924  1.00  0.00     0.243 C 
HETATM   14  O2  UNL     1       0.822   0.217  -1.787  1.00  0.00    -0.271 OA
HETATM   15  C30 UNL     1      -2.877  -2.284  -1.762  1.00  0.00     0.031 C 
ENDROOT
BRANCH   1  16
HETATM   16  C6  UNL     1      -2.134   1.310  -1.350  1.00  0.00     0.242 C 
HETATM   17  N1  UNL     1      -1.705   1.842  -0.110  1.00  0.00    -0.340 N 
ATOM     18  H1  UNL     1      -1.206   1.194   0.499  1.00  0.00     0.163 HD
HETATM   19  O1  UNL     1      -2.751   2.076  -2.128  1.00  0.00    -0.271 OA
BRANCH  17  20
HETATM   20  C5  UNL     1      -1.876   3.158   0.400  1.00  0.00     0.129 A 
HETATM   21  C3  UNL     1      -3.241   3.745   0.546  1.00  0.00     0.049 A 
HETATM   22  C4  UNL     1      -2.259   4.349  -0.437  1.00  0.00     0.054 A 
BRANCH  21  23
HETATM   23  C2  UNL     1      -3.551   4.613   1.709  1.00  0.00    -0.029 C 
HETATM   24  C1  UNL     1      -3.936   5.871   1.525  1.00  0.00     0.007 C 
ENDBRANCH  21  23
BRANCH  20  25
HETATM   25  C31 UNL     1      -0.983   3.516   1.553  1.00  0.00     0.203 C 
HETATM   26  O5  UNL     1      -1.047   4.634   2.097  1.00  0.00    -0.646 OA
HETATM   27  O6  UNL     1      -0.075   2.590   2.018  1.00  0.00    -0.646 OA
ENDBRANCH  20  25
ENDBRANCH  17  20
ENDBRANCH   1  16
BRANCH  13  28
HETATM   28  C18 UNL     1       1.386  -1.313  -0.112  1.00  0.00     0.179 C 
BRANCH  28  29
HETATM   29  C19 UNL     1       1.534  -2.706  -0.682  1.00  0.00     0.034 C 
BRANCH  29  30
HETATM   30  C20 UNL     1       2.543  -3.527   0.064  1.00  0.00    -0.002 C 
HETATM   31  C21 UNL     1       2.180  -3.690   1.520  1.00  0.00     0.005 C 
ENDBRANCH  29  30
ENDBRANCH  28  29
BRANCH  28  32
HETATM   32  N4  UNL     1       2.684  -0.630  -0.359  1.00  0.00    -0.324 N 
HETATM   33  C22 UNL     1       3.363   0.081   0.638  1.00  0.00     0.361 C 
HETATM   34  O3  UNL     1       2.875   0.164   1.808  1.00  0.00    -0.238 OA
ATOM     35  H4  UNL     1       3.095  -0.682  -1.291  1.00  0.00     0.165 HD
BRANCH  33  36
HETATM   36  O4  UNL     1       4.565   0.704   0.381  1.00  0.00    -0.298 OA
BRANCH  36  37
HETATM   37  C23 UNL     1       5.252   1.425   1.365  1.00  0.00     0.138 C 
HETATM   38  C24 UNL     1       5.342   2.914   0.982  1.00  0.00     0.037 C 
HETATM   39  C25 UNL     1       6.820   3.233   0.925  1.00  0.00    -0.012 C 
HETATM   40  C26 UNL     1       7.411   2.544  -0.258  1.00  0.00     0.005 C 
HETATM   41  C29 UNL     1       7.298   2.319   2.065  1.00  0.00     0.012 C 
HETATM   42  C27 UNL     1       7.312   1.064   0.121  1.00  0.00     0.007 C 
HETATM   43  C28 UNL     1       6.682   1.038   1.496  1.00  0.00     0.016 C 
ENDBRANCH  36  37
ENDBRANCH  33  36
ENDBRANCH  28  32
ENDBRANCH  13  28
TORSDOF 10
