REMARK  8 active torsions:
REMARK  status: ('A' for Active; 'I' for Inactive)
REMARK    1  A    between atoms: C2_2  and  C7_28 
REMARK    2  A    between atoms: N1_3  and  N2_5 
REMARK    3  A    between atoms: N2_5  and  C3_7 
REMARK    4  A    between atoms: C4_10  and  N4_11 
REMARK    5  A    between atoms: N4_11  and  N5_12 
REMARK       I    between atoms: N4_11  and  C5_15 
REMARK    6  A    between atoms: C6_22  and  N9_23 
REMARK    7  A    between atoms: C7_28  and  N11_29 
REMARK    8  A    between atoms: C7_28  and  N12_33 
ROOT
HETATM    1  C3  UNL     1      -0.019  -0.222   0.393  1.00  0.00     0.726 A 
HETATM    2  N3  UNL     1      -1.028  -0.169  -0.463  1.00  0.00    -0.018 N 
ATOM      3  H3  UNL     1      -0.922  -0.579  -1.391  1.00  0.00     0.203 HD
HETATM    4  C4  UNL     1      -2.194   0.419  -0.125  1.00  0.00     0.734 A 
HETATM    5  N8  UNL     1      -2.321   0.953   1.097  1.00  0.00    -0.020 N 
ATOM      6  H8  UNL     1      -3.199   1.399   1.363  1.00  0.00     0.203 HD
HETATM    7  C6  UNL     1      -1.307   0.908   1.977  1.00  0.00     0.705 A 
HETATM    8  N10 UNL     1      -0.158   0.316   1.612  1.00  0.00    -0.020 N 
ATOM      9  H10 UNL     1       0.619   0.275   2.272  1.00  0.00     0.203 HD
ENDROOT
BRANCH   1  10
HETATM   10  N2  UNL     1       1.078  -0.797   0.021  1.00  0.00    -0.131 N 
ATOM     11  H2  UNL     1       1.165  -1.202  -0.911  1.00  0.00     0.205 HD
BRANCH  10  12
HETATM   12  N1  UNL     1       2.126  -0.850   0.912  1.00  0.00    -0.291 N 
HETATM   13  C2  UNL     1       3.333  -0.940   0.554  1.00  0.00     0.057 C 
HETATM   14  C1  UNL     1       4.358  -0.988   1.658  1.00  0.00     0.069 C 
ATOM     15  H1  UNL     1       1.917  -0.815   1.910  1.00  0.00     0.187 HD
BRANCH  13  16
HETATM   16  C7  UNL     1       3.813  -0.998  -0.816  1.00  0.00     0.424 C 
BRANCH  16  17
HETATM   17  N11 UNL     1       4.665   0.159  -1.035  1.00  0.00    -0.045 N 
ATOM     18 3H11 UNL     1       4.201   1.040  -0.814  1.00  0.00     0.277 HD
ATOM     19 2H11 UNL     1       5.420   0.230  -0.353  1.00  0.00     0.277 HD
ATOM     20 1H11 UNL     1       5.002   0.118  -1.997  1.00  0.00     0.277 HD
ENDBRANCH  16  17
BRANCH  16  21
HETATM   21  N12 UNL     1       2.788  -1.130  -1.792  1.00  0.00    -0.045 N 
ATOM     22 3H12 UNL     1       2.202  -1.939  -1.586  1.00  0.00     0.277 HD
ATOM     23 2H12 UNL     1       2.099  -0.385  -1.688  1.00  0.00     0.277 HD
ATOM     24 1H12 UNL     1       3.125  -1.171  -2.754  1.00  0.00     0.277 HD
ENDBRANCH  16  21
ENDBRANCH  13  16
ENDBRANCH  10  12
ENDBRANCH   1  10
BRANCH   4  25
HETATM   25  N4  UNL     1      -3.250   0.454  -1.072  1.00  0.00    -0.062 N 
HETATM   26  C5  UNL     1      -4.479   1.079  -0.703  1.00  0.00     0.224 C 
HETATM   27  N6  UNL     1      -4.736   2.231  -1.186  1.00  0.00    -0.372 N 
HETATM   28  N7  UNL     1      -5.389   0.444   0.172  1.00  0.00    -0.061 NA
ATOM     29  H62 UNL     1      -4.079   2.689  -1.818  1.00  0.00     0.158 HD
ATOM     30  H61 UNL     1      -5.614   2.678  -0.922  1.00  0.00     0.158 HD
BRANCH  25  31
HETATM   31  N5  UNL     1      -3.113  -0.098  -2.328  1.00  0.00    -0.322 N 
ATOM     32  H52 UNL     1      -2.235  -0.545  -2.592  1.00  0.00     0.178 HD
ATOM     33  H51 UNL     1      -3.872  -0.073  -3.009  1.00  0.00     0.178 HD
ENDBRANCH  25  31
ENDBRANCH   4  25
BRANCH   7  34
HETATM   34  N9  UNL     1      -1.424   1.429   3.176  1.00  0.00    -0.234 N 
ATOM     35  H92 UNL     1      -2.297   1.879   3.453  1.00  0.00     0.174 HD
ATOM     36  H91 UNL     1      -0.654   1.395   3.844  1.00  0.00     0.174 HD
ENDBRANCH   7  34
TORSDOF 8
