REMARK  7 active torsions:
REMARK  status: ('A' for Active; 'I' for Inactive)
REMARK    1  A    between atoms: C2_2  and  N1_3 
REMARK    2  A    between atoms: C2_2  and  C3_7 
REMARK    3  A    between atoms: C3_7  and  O2_9 
REMARK    4  A    between atoms: O2_9  and  N2_10 
REMARK    5  A    between atoms: N2_10  and  N3_12 
REMARK    6  A    between atoms: N3_12  and  C4_14 
REMARK    7  A    between atoms: C8_23  and  N7_24 
ROOT
HETATM    1  C4  UNL     1      -0.811  -0.683  -0.465  1.00  0.00     0.701 C 
HETATM    2  N4  UNL     1      -1.410   0.500  -0.607  1.00  0.00    -0.175 N 
ATOM      3  H4  UNL     1      -0.795   1.256  -0.908  1.00  0.00     0.185 HD
HETATM    4  C5  UNL     1      -2.695   0.859  -0.418  1.00  0.00     0.160 C 
HETATM    5  N5  UNL     1      -3.102   2.157  -0.812  1.00  0.00    -0.080 NA
HETATM    6  C6  UNL     1      -3.653   0.028   0.143  1.00  0.00     0.141 C 
HETATM    7  N6  UNL     1      -4.961   0.579   0.136  1.00  0.00    -0.094 NA
HETATM    8  C7  UNL     1      -3.546  -1.236   0.704  1.00  0.00     0.243 C 
HETATM    9  O3  UNL     1      -4.548  -1.731   1.269  1.00  0.00    -0.282 OA
HETATM   10  C8  UNL     1      -2.438  -2.060   0.725  1.00  0.00     0.167 C 
HETATM   11  N8  UNL     1      -1.271  -1.823   0.109  1.00  0.00    -0.172 N 
ATOM     12  H8  UNL     1      -0.634  -2.618   0.065  1.00  0.00     0.186 HD
ENDROOT
BRANCH   1  13
HETATM   13  N3  UNL     1       0.377  -0.783  -0.934  1.00  0.00    -0.112 N 
ATOM     14  H3  UNL     1       0.858  -1.678  -0.839  1.00  0.00     0.207 HD
BRANCH  13  15
HETATM   15  N2  UNL     1       1.051   0.261  -1.567  1.00  0.00    -0.184 N 
ATOM     16  H2  UNL     1       0.568   0.769  -2.308  1.00  0.00     0.217 HD
BRANCH  15  17
HETATM   17  O2  UNL     1       2.329   0.640  -1.245  1.00  0.00    -0.181 OA
BRANCH  17  18
HETATM   18  C3  UNL     1       2.807   0.461   0.041  1.00  0.00     0.312 C 
HETATM   19  O1  UNL     1       2.032  -0.056   0.886  1.00  0.00    -0.261 OA
BRANCH  18  20
HETATM   20  C2  UNL     1       4.159   0.832   0.492  1.00  0.00     0.280 C 
HETATM   21  C1  UNL     1       4.871  -0.456   0.911  1.00  0.00     0.051 C 
BRANCH  20  22
HETATM   22  N1  UNL     1       4.955   1.416  -0.569  1.00  0.00    -0.066 N 
ATOM     23  H13 UNL     1       5.931   1.560  -0.309  1.00  0.00     0.275 HD
ATOM     24  H12 UNL     1       5.124   0.777  -1.346  1.00  0.00     0.275 HD
ATOM     25  H11 UNL     1       4.480   2.275  -0.848  1.00  0.00     0.275 HD
ENDBRANCH  20  22
ENDBRANCH  18  20
ENDBRANCH  17  18
ENDBRANCH  15  17
ENDBRANCH  13  15
ENDBRANCH   1  13
BRANCH  10  26
HETATM   26  N7  UNL     1      -2.511  -3.174   1.398  1.00  0.00    -0.382 N 
ATOM     27  H72 UNL     1      -3.399  -3.354   1.867  1.00  0.00     0.157 HD
ATOM     28  H71 UNL     1      -1.693  -3.783   1.414  1.00  0.00     0.157 HD
ENDBRANCH  10  26
TORSDOF 7
