REMARK  7 active torsions:
REMARK  status: ('A' for Active; 'I' for Inactive)
REMARK    1  A    between atoms: N1_1  and  C1_5 
REMARK    2  A    between atoms: C1_5  and  C2_6 
REMARK    3  A    between atoms: C2_6  and  C3_7 
REMARK    4  A    between atoms: C3_7  and  C4_8 
REMARK    5  A    between atoms: C4_8  and  C5_9 
REMARK    6  A    between atoms: C5_9  and  C6_10 
REMARK    7  A    between atoms: C6_10  and  N2_11 
ROOT
HETATM    1  N2  UNL     1      -0.262  -0.661  -0.579  1.00  0.00     0.088 N 
HETATM    2  C7  UNL     1      -0.981   0.281  -1.400  1.00  0.00     0.273 C 
HETATM    3  C8  UNL     1      -1.774   1.314  -0.709  1.00  0.00     0.040 C 
HETATM    4  C9  UNL     1      -2.836   0.553   0.106  1.00  0.00    -0.034 C 
HETATM    5  C10 UNL     1      -3.569  -0.370  -0.827  1.00  0.00     0.037 C 
HETATM    6  C11 UNL     1      -4.945  -0.762  -0.337  1.00  0.00     0.233 C 
HETATM    7  N3  UNL     1      -5.183  -0.363   1.028  1.00  0.00    -0.075 N 
ATOM      8  H31 UNL     1      -4.563  -0.835   1.686  1.00  0.00     0.277 HD
ATOM      9  H32 UNL     1      -6.069  -0.717   1.390  1.00  0.00     0.277 HD
HETATM   10  C12 UNL     1      -5.087   1.080   1.113  1.00  0.00     0.233 C 
HETATM   11  C13 UNL     1      -3.737   1.585   0.685  1.00  0.00     0.037 C 
HETATM   12  C14 UNL     1      -2.016  -0.191   1.129  1.00  0.00     0.040 C 
HETATM   13  C15 UNL     1      -1.044  -1.151   0.523  1.00  0.00     0.273 C 
ENDROOT
BRANCH   1  14
HETATM   14  C6  UNL     1       1.017  -0.106  -0.145  1.00  0.00     0.272 C 
BRANCH  14  15
HETATM   15  C5  UNL     1       1.928  -1.192   0.329  1.00  0.00     0.030 C 
BRANCH  15  16
HETATM   16  C4  UNL     1       3.239  -0.565   0.796  1.00  0.00     0.002 C 
BRANCH  16  17
HETATM   17  C3  UNL     1       3.852   0.235  -0.327  1.00  0.00     0.002 C 
BRANCH  17  18
HETATM   18  C2  UNL     1       5.197   0.776   0.130  1.00  0.00     0.027 C 
BRANCH  18  19
HETATM   19  C1  UNL     1       6.179  -0.320   0.482  1.00  0.00     0.229 C 
BRANCH  19  20
HETATM   20  N1  UNL     1       6.382  -1.140  -0.693  1.00  0.00    -0.079 N 
ATOM     21  H13 UNL     1       5.509  -1.502  -1.075  1.00  0.00     0.274 HD
ATOM     22  H12 UNL     1       6.673  -0.597  -1.506  1.00  0.00     0.274 HD
ATOM     23  H11 UNL     1       7.044  -1.879  -0.456  1.00  0.00     0.274 HD
ENDBRANCH  19  20
ENDBRANCH  18  19
ENDBRANCH  17  18
ENDBRANCH  16  17
ENDBRANCH  15  16
ENDBRANCH  14  15
ENDBRANCH   1  14
TORSDOF 7
