REMARK  8 active torsions:
REMARK  status: ('A' for Active; 'I' for Inactive)
REMARK    1  A    between atoms: C2_2  and  C3_3 
REMARK    2  A    between atoms: C3_3  and  C4_4 
REMARK    3  A    between atoms: C4_4  and  C5_5 
REMARK    4  A    between atoms: C5_5  and  C6_6 
REMARK    5  A    between atoms: C6_6  and  C7_7 
REMARK    6  A    between atoms: C8_8  and  C9_9 
REMARK    7  A    between atoms: C9_9  and  O1_10 
REMARK    8  A    between atoms: C11_14  and  O3_15 
ROOT
HETATM    1  C7  UNL     1      -0.821  -0.234  -1.092  1.00  0.00     0.024 C 
HETATM    2  C8  UNL     1      -1.857  -1.204  -1.374  1.00  0.00     0.150 C 
HETATM    3  O2  UNL     1      -3.095  -0.590  -1.110  1.00  0.00    -0.375 OA
HETATM    4  C10 UNL     1      -2.903   0.764  -1.204  1.00  0.00     0.156 C 
HETATM    5  C11 UNL     1      -3.830   1.566  -0.331  1.00  0.00     0.152 C 
HETATM    6  C12 UNL     1      -3.448   1.085   1.058  1.00  0.00     0.022 A 
HETATM    7  C13 UNL     1      -2.379   1.825   1.790  1.00  0.00     0.013 A 
HETATM    8  C14 UNL     1      -1.963   0.691   0.947  1.00  0.00    -0.001 A 
HETATM    9  C15 UNL     1      -1.574   0.939  -0.465  1.00  0.00     0.028 C 
ENDROOT
BRANCH   1  10
HETATM   10  C6  UNL     1       0.362  -0.636  -0.284  1.00  0.00     0.007 C 
BRANCH  10  11
HETATM   11  C5  UNL     1       1.264   0.581  -0.157  1.00  0.00     0.000 C 
BRANCH  11  12
HETATM   12  C4  UNL     1       2.503   0.276   0.655  1.00  0.00     0.000 C 
BRANCH  12  13
HETATM   13  C3  UNL     1       3.336  -0.807   0.060  1.00  0.00    -0.000 C 
BRANCH  13  14
HETATM   14  C2  UNL     1       4.546  -1.033   0.943  1.00  0.00    -0.005 C 
HETATM   15  C1  UNL     1       5.371   0.212   1.056  1.00  0.00     0.005 C 
ENDBRANCH  13  14
ENDBRANCH  12  13
ENDBRANCH  11  12
ENDBRANCH  10  11
ENDBRANCH   1  10
BRANCH   2  16
HETATM   16  C9  UNL     1      -1.853  -2.513  -0.671  1.00  0.00     0.196 C 
BRANCH  16  17
HETATM   17  O1  UNL     1      -0.731  -3.275  -0.801  1.00  0.00    -0.398 OA
ATOM     18  H1  UNL     1      -0.728  -4.112  -0.352  1.00  0.00     0.209 HD
ENDBRANCH  16  17
ENDBRANCH   2  16
BRANCH   5  19
HETATM   19  O3  UNL     1      -3.435   2.912  -0.446  1.00  0.00    -0.393 OA
ATOM     20  H3  UNL     1      -4.020   3.418   0.105  1.00  0.00     0.210 HD
ENDBRANCH   5  19
TORSDOF 8
