REMARK  0 active torsions:
REMARK  status: ('A' for Active; 'I' for Inactive)
ROOT
HETATM    1  C1  UNL     1       0.341   0.506   0.888  1.00  0.00    -0.030 A 
HETATM    2  C2  UNL     1       1.052   0.241  -0.148  1.00  0.00    -0.030 A 
HETATM    3  C3  UNL     1      -0.038  -0.395  -0.839  1.00  0.00     0.030 A 
HETATM    4  C4  UNL     1      -0.849  -0.098   0.330  1.00  0.00     0.030 A 
ENDROOT
TORSDOF 0
