REMARK  7 active torsions:
REMARK  status: ('A' for Active; 'I' for Inactive)
REMARK    1  A    between atoms: C6_10  and  C7_11 
REMARK       I    between atoms: C7_11  and  N3_13 
REMARK    2  A    between atoms: N3_13  and  C8_15 
REMARK    3  A    between atoms: C11_20  and  C12_21 
REMARK    4  A    between atoms: C12_21  and  N4_23 
REMARK    5  A    between atoms: N4_23  and  C14_24 
REMARK    6  A    between atoms: N4_23  and  C17_27 
REMARK    7  A    between atoms: C17_27  and  C19_29 
ROOT
HETATM    1  C8  UNL     1       0.354  -1.498  -0.407  1.00  0.00     0.088 A 
HETATM    2  S1  UNL     1       0.501  -3.099  -0.968  1.00  0.00    -0.080 SA
HETATM    3  C9  UNL     1      -1.100  -3.385  -1.407  1.00  0.00     0.094 A 
HETATM    4  C10 UNL     1      -1.738  -2.202  -1.100  1.00  0.00     0.134 A 
HETATM    5  F1  UNL     1      -3.124  -2.210  -1.296  1.00  0.00    -0.205 F 
HETATM    6  C11 UNL     1      -0.996  -1.196  -0.576  1.00  0.00     0.048 A 
ENDROOT
BRANCH   1   7
HETATM    7  N3  UNL     1       1.427  -0.673   0.030  1.00  0.00    -0.316 N 
HETATM    8  C7  UNL     1       2.759  -1.183  -0.071  1.00  0.00     0.258 C 
HETATM    9  O2  UNL     1       2.939  -2.343  -0.512  1.00  0.00    -0.267 OA
ATOM     10  H3  UNL     1       1.251   0.259   0.406  1.00  0.00     0.169 HD
BRANCH   8  11
HETATM   11  C6  UNL     1       3.915  -0.401   0.312  1.00  0.00     0.061 A 
HETATM   12  C2  UNL     1       5.152  -0.636  -0.217  1.00  0.00     0.038 A 
HETATM   13  C1  UNL     1       5.384  -1.744  -1.179  1.00  0.00     0.070 C 
HETATM   14  N1  UNL     1       6.191   0.154   0.142  1.00  0.00    -0.300 N 
HETATM   15  N2  UNL     1       6.052   1.145   0.988  1.00  0.00    -0.262 N 
ATOM     16  H1  UNL     1       7.111  -0.028  -0.259  1.00  0.00     0.187 HD
HETATM   17  C3  UNL     1       7.216   1.947   1.300  1.00  0.00     0.181 C 
HETATM   18  C4  UNL     1       4.847   1.405   1.531  1.00  0.00     0.262 A 
HETATM   19  O1  UNL     1       4.783   2.366   2.333  1.00  0.00    -0.267 OA
HETATM   20  C5  UNL     1       3.743   0.639   1.208  1.00  0.00     0.095 A 
ENDBRANCH   8  11
ENDBRANCH   1   7
BRANCH   6  21
HETATM   21  C12 UNL     1      -1.562   0.119  -0.056  1.00  0.00     0.259 C 
HETATM   22  C13 UNL     1      -1.161   1.283  -0.876  1.00  0.00     0.048 C 
BRANCH  21  23
HETATM   23  N4  UNL     1      -3.008  -0.018   0.071  1.00  0.00     0.115 N 
BRANCH  23  24
HETATM   24  C14 UNL     1      -3.805   0.854  -0.699  1.00  0.00     0.217 C 
HETATM   25  C15 UNL     1      -3.654   0.960  -2.176  1.00  0.00     0.042 C 
HETATM   26  C16 UNL     1      -4.256   2.147  -0.083  1.00  0.00     0.042 C 
ENDBRANCH  23  24
BRANCH  23  27
HETATM   27  C17 UNL     1      -3.395   0.053   1.467  1.00  0.00     0.320 C 
HETATM   28  C18 UNL     1      -2.730  -1.093   2.255  1.00  0.00     0.055 C 
BRANCH  27  29
HETATM   29  C19 UNL     1      -4.823  -0.199   1.714  1.00  0.00     0.207 C 
HETATM   30  O3  UNL     1      -5.436   0.352   2.698  1.00  0.00    -0.646 OA
HETATM   31  O4  UNL     1      -5.612  -1.027   0.951  1.00  0.00    -0.646 OA
ENDBRANCH  27  29
ENDBRANCH  23  27
ENDBRANCH  21  23
ENDBRANCH   6  21
TORSDOF 7
