REMARK  4 active torsions:
REMARK  status: ('A' for Active; 'I' for Inactive)
REMARK    1  A    between atoms: C7_7  and  C8_8 
REMARK    2  A    between atoms: C10_10  and  C11_11 
REMARK    3  A    between atoms: C12_12  and  C13_13 
REMARK    4  A    between atoms: C20_20  and  C21_21 
ROOT
HETATM    1  C8  UNL     1       0.009   1.583   0.705  1.00  0.00     0.044 A 
HETATM    2  C9  UNL     1       1.163   0.828   0.513  1.00  0.00     0.042 A 
HETATM    3  C10 UNL     1       1.142  -0.436  -0.052  1.00  0.00    -0.032 A 
HETATM    4  C19 UNL     1      -0.112  -0.931  -0.428  1.00  0.00     0.043 A 
HETATM    5  C20 UNL     1      -1.258  -0.195  -0.244  1.00  0.00     0.060 A 
HETATM    6  N2  UNL     1      -1.126   1.008   0.307  1.00  0.00    -0.354 N 
ATOM      7  H2  UNL     1      -1.982   1.547   0.439  1.00  0.00     0.166 HD
ENDROOT
BRANCH   5   8
HETATM    8  C21 UNL     1      -2.553  -0.761  -0.657  1.00  0.00     0.060 A 
HETATM    9  C22 UNL     1      -3.774  -0.151  -0.538  1.00  0.00     0.045 A 
HETATM   10  C23 UNL     1      -4.710  -1.050  -1.055  1.00  0.00    -0.007 A 
HETATM   11  C24 UNL     1      -6.081  -1.027  -1.215  1.00  0.00     0.014 A 
HETATM   12  C28 UNL     1      -4.025  -2.165  -1.465  1.00  0.00     0.043 A 
HETATM   13  C25 UNL     1      -6.774  -2.089  -1.774  1.00  0.00     0.001 A 
HETATM   14  C26 UNL     1      -6.094  -3.213  -2.189  1.00  0.00     0.002 A 
HETATM   15  C27 UNL     1      -4.724  -3.231  -2.026  1.00  0.00     0.030 A 
HETATM   16  N1  UNL     1      -2.722  -1.962  -1.212  1.00  0.00    -0.354 N 
ATOM     17  H1  UNL     1      -1.974  -2.626  -1.414  1.00  0.00     0.166 HD
ENDBRANCH   5   8
BRANCH   3  18
HETATM   18  C11 UNL     1       2.318  -1.244  -0.264  1.00  0.00     0.012 C 
HETATM   19  C12 UNL     1       3.511  -0.828   0.070  1.00  0.00     0.012 C 
BRANCH  19  20
HETATM   20  C13 UNL     1       4.723  -1.623  -0.132  1.00  0.00    -0.036 A 
HETATM   21  C14 UNL     1       5.934  -1.086   0.258  1.00  0.00     0.011 A 
HETATM   22  C15 UNL     1       7.112  -1.799   0.088  1.00  0.00     0.001 A 
HETATM   23  C16 UNL     1       7.110  -3.058  -0.472  1.00  0.00     0.000 A 
HETATM   24  C17 UNL     1       5.907  -3.605  -0.866  1.00  0.00     0.001 A 
HETATM   25  C18 UNL     1       4.732  -2.877  -0.688  1.00  0.00     0.011 A 
ENDBRANCH  19  20
ENDBRANCH   3  18
BRANCH   1  26
HETATM   26  C7  UNL     1       0.026   2.921   1.302  1.00  0.00    -0.004 A 
HETATM   27  C2  UNL     1      -1.117   3.665   1.490  1.00  0.00    -0.050 A 
HETATM   28  C1  UNL     1      -2.450   3.154   1.097  1.00  0.00     0.049 C 
HETATM   29  C3  UNL     1      -1.048   4.940   2.066  1.00  0.00     0.007 A 
HETATM   30  C4  UNL     1       0.138   5.498   2.462  1.00  0.00     0.001 A 
HETATM   31  C5  UNL     1       1.279   4.776   2.283  1.00  0.00     0.001 A 
HETATM   32  C6  UNL     1       1.221   3.501   1.709  1.00  0.00     0.014 A 
ENDBRANCH   1  26
TORSDOF 4
