REMARK  5 active torsions:
REMARK  status: ('A' for Active; 'I' for Inactive)
REMARK    1  A    between atoms: C2_2  and  C3_3 
REMARK    2  A    between atoms: C11_11  and  N1_12 
REMARK    3  A    between atoms: N1_12  and  C12_14 
REMARK    4  A    between atoms: C12_14  and  N2_16 
REMARK       I    between atoms: N3_19  and  C15_20 
REMARK    5  A    between atoms: C15_20  and  C16_22 
ROOT
HETATM    1  N1  UNL     1       1.406  -0.702   0.722  1.00  0.00    -0.362 N 
ATOM      2  H1  UNL     1       2.013  -1.253   1.329  1.00  0.00     0.162 HD
ENDROOT
BRANCH   1   3
HETATM    3  C11 UNL     1      -0.000  -0.826   0.970  1.00  0.00     0.083 C 
HETATM    4  C10 UNL     1      -0.704  -1.487  -0.188  1.00  0.00     0.026 C 
HETATM    5  C9  UNL     1      -2.205  -1.428   0.011  1.00  0.00     0.011 C 
HETATM    6  C2  UNL     1      -2.681   0.018  -0.055  1.00  0.00    -0.040 C 
HETATM    7  C1  UNL     1      -2.672   0.406  -1.540  1.00  0.00     0.015 C 
HETATM    8  C20 UNL     1      -1.819   0.945   0.707  1.00  0.00     0.011 C 
HETATM    9  C19 UNL     1      -0.651   0.423   1.432  1.00  0.00     0.026 C 
BRANCH   6  10
HETATM   10  C3  UNL     1      -4.124  -0.033   0.443  1.00  0.00    -0.006 C 
HETATM   11  C4  UNL     1      -4.915  -1.125  -0.246  1.00  0.00     0.005 C 
HETATM   12  C5  UNL     1      -6.318  -1.102   0.327  1.00  0.00     0.000 C 
HETATM   13  C6  UNL     1      -6.991   0.231   0.188  1.00  0.00     0.000 C 
HETATM   14  C7  UNL     1      -6.157   1.356   0.766  1.00  0.00     0.000 C 
HETATM   15  C8  UNL     1      -4.749   1.324   0.201  1.00  0.00     0.005 C 
ENDBRANCH   6  10
ENDBRANCH   1   3
BRANCH   1  16
HETATM   16  C12 UNL     1       2.054   0.071  -0.238  1.00  0.00     0.170 C 
HETATM   17  S1  UNL     1       1.211   1.015  -1.252  1.00  0.00    -0.041 SA
BRANCH  16  18
HETATM   18  N2  UNL     1       3.466   0.078  -0.360  1.00  0.00    -0.355 N 
HETATM   19  C13 UNL     1       4.172   0.867  -1.344  1.00  0.00     0.145 C 
HETATM   20  C14 UNL     1       5.323   1.543  -0.633  1.00  0.00     0.145 C 
HETATM   21  N3  UNL     1       6.233   0.503  -0.201  1.00  0.00    -0.345 N 
HETATM   22  C15 UNL     1       7.599   0.789  -0.083  1.00  0.00     0.274 C 
HETATM   23  C17 UNL     1       5.700  -0.791   0.077  1.00  0.00     0.145 C 
HETATM   24  O1  UNL     1       8.005   1.968  -0.382  1.00  0.00    -0.268 OA
HETATM   25  C18 UNL     1       4.256  -0.742   0.539  1.00  0.00     0.145 C 
BRANCH  22  26
HETATM   26  C16 UNL     1       8.616  -0.170   0.366  1.00  0.00     0.269 C 
HETATM   27 CL1  UNL     1      10.257   0.500   0.114  1.00  0.00    -0.073 Cl
HETATM   28 CL2  UNL     1       8.479  -1.652  -0.590  1.00  0.00    -0.073 Cl
HETATM   29 CL3  UNL     1       8.475  -0.538   2.119  1.00  0.00    -0.073 Cl
ENDBRANCH  22  26
ENDBRANCH  16  18
ENDBRANCH   1  16
TORSDOF 5
