REMARK  1 active torsions:
REMARK  status: ('A' for Active; 'I' for Inactive)
REMARK    1  A    between atoms: C26_32  and  O2_33 
ROOT
HETATM    1  C1  UNL     1      -5.851  -0.051   1.840  1.00  0.00     0.314 C 
HETATM    2  N1  UNL     1      -4.902  -0.297   0.791  1.00  0.00     0.120 N 
HETATM    3  C2  UNL     1      -4.847  -1.662   0.370  1.00  0.00     0.277 C 
HETATM    4  C3  UNL     1      -3.505  -1.719  -0.332  1.00  0.00     0.044 C 
HETATM    5  C4  UNL     1      -2.610  -0.843   0.535  1.00  0.00     0.083 C 
HETATM    6  C5  UNL     1      -1.444  -0.271  -0.295  1.00  0.00    -0.063 C 
HETATM    7  C6  UNL     1      -0.719  -1.262  -0.769  1.00  0.00    -0.022 C 
HETATM    8  C7  UNL     1       0.509  -1.336  -1.621  1.00  0.00     0.034 C 
HETATM    9  C8  UNL     1       1.721  -0.909  -0.958  1.00  0.00     0.025 C 
HETATM   10  C9  UNL     1       2.173   0.361  -1.537  1.00  0.00     0.023 C 
HETATM   11  C10 UNL     1       3.356   0.556  -2.392  1.00  0.00     0.009 C 
HETATM   12  C11 UNL     1       4.466   1.202  -1.507  1.00  0.00     0.020 C 
HETATM   13  C12 UNL     1       3.980   0.544  -0.289  1.00  0.00     0.043 C 
HETATM   14  C13 UNL     1       4.103  -0.941  -0.672  1.00  0.00     0.052 C 
HETATM   15  C14 UNL     1       2.836  -1.733  -0.467  1.00  0.00     0.112 C 
HETATM   16 CL1  UNL     1       2.972  -3.144  -1.564  1.00  0.00    -0.112 Cl
HETATM   17  C15 UNL     1       2.809  -2.126   0.987  1.00  0.00     0.283 C 
HETATM   18  F1  UNL     1       1.488  -2.085   1.486  1.00  0.00    -0.200 F 
HETATM   19  F2  UNL     1       3.013  -3.531   0.970  1.00  0.00    -0.200 F 
HETATM   20  C16 UNL     1       3.783  -1.632   1.938  1.00  0.00     0.055 C 
HETATM   21  C17 UNL     1       4.379  -0.306   1.925  1.00  0.00     0.040 C 
HETATM   22  C18 UNL     1       4.511   0.683   1.033  1.00  0.00     0.105 C 
HETATM   23  F3  UNL     1       5.161   1.805   1.427  1.00  0.00    -0.210 F 
HETATM   24  C19 UNL     1       2.606   1.071  -0.266  1.00  0.00     0.147 C 
HETATM   25  O1  UNL     1       2.114   2.254  -0.388  1.00  0.00    -0.356 OA
HETATM   26  C20 UNL     1       0.814   2.253   0.201  1.00  0.00     0.132 C 
HETATM   27  C21 UNL     1      -0.351   2.103  -0.649  1.00  0.00     0.011 C 
HETATM   28  C22 UNL     1      -1.444   1.163  -0.350  1.00  0.00    -0.001 C 
HETATM   29  C23 UNL     1      -2.546   1.688  -1.330  1.00  0.00     0.024 C 
HETATM   30  C24 UNL     1      -1.876   1.648   1.062  1.00  0.00     0.023 C 
HETATM   31  C25 UNL     1      -3.356   1.488   1.121  1.00  0.00     0.073 C 
HETATM   32  C26 UNL     1      -3.528   0.002   1.214  1.00  0.00     0.265 C 
ENDROOT
BRANCH  32  33
HETATM   33  O2  UNL     1      -3.587  -0.252   2.616  1.00  0.00    -0.362 OA
ATOM     34  H2  UNL     1      -2.698  -0.059   2.890  1.00  0.00     0.212 HD
ENDBRANCH  32  33
TORSDOF 1
