REMARK  10 active torsions:
REMARK  status: ('A' for Active; 'I' for Inactive)
REMARK    1  A    between atoms: C7_7  and  O1_8 
REMARK    2  A    between atoms: O1_8  and  C8_9 
REMARK    3  A    between atoms: C8_9  and  C9_10 
REMARK    4  A    between atoms: C9_10  and  O2_11 
REMARK    5  A    between atoms: O2_11  and  C10_12 
REMARK    6  A    between atoms: C10_12  and  C11_13 
REMARK    7  A    between atoms: C11_13  and  N1_14 
REMARK    8  A    between atoms: C15_21  and  O3_22 
REMARK    9  A    between atoms: C17_25  and  O4_26 
REMARK   10  A    between atoms: C23_33  and  O5_34 
ROOT
HETATM    1  C1  UNL     1      -1.716   2.839  -1.640  1.00  0.00     0.018 C 
HETATM    2  C2  UNL     1      -2.044   2.658  -0.207  1.00  0.00    -0.014 C 
HETATM    3  C3  UNL     1      -3.267   1.888   0.085  1.00  0.00     0.012 C 
HETATM    4  C4  UNL     1      -3.025   0.446  -0.353  1.00  0.00     0.007 C 
HETATM    5  C5  UNL     1      -1.843  -0.133   0.380  1.00  0.00     0.003 C 
HETATM    6  C6  UNL     1      -0.586   0.686   0.083  1.00  0.00     0.024 C 
HETATM    7  C7  UNL     1       0.653   0.078   0.669  1.00  0.00     0.126 C 
HETATM    8  C12 UNL     1       0.285  -1.141   1.534  1.00  0.00     0.038 C 
HETATM    9  C13 UNL     1      -0.335  -2.090   0.565  1.00  0.00     0.001 C 
HETATM   10  C14 UNL     1      -0.267  -3.529   0.912  1.00  0.00     0.037 C 
HETATM   11  C15 UNL     1      -0.890  -4.321  -0.214  1.00  0.00     0.121 C 
HETATM   12  C16 UNL     1      -2.067  -3.734  -0.858  1.00  0.00     0.064 C 
HETATM   13  C17 UNL     1      -2.099  -2.236  -1.029  1.00  0.00     0.129 C 
HETATM   14  C18 UNL     1      -1.735  -1.588   0.279  1.00  0.00    -0.010 C 
HETATM   15  C19 UNL     1      -2.733  -2.174   1.295  1.00  0.00     0.018 C 
HETATM   16  C20 UNL     1      -0.888   2.058   0.609  1.00  0.00     0.003 C 
HETATM   17  C21 UNL     1       0.143   3.099   0.418  1.00  0.00     0.008 C 
HETATM   18  C22 UNL     1      -0.617   4.430   0.286  1.00  0.00     0.033 C 
HETATM   19  C23 UNL     1      -2.079   4.061   0.421  1.00  0.00     0.126 C 
ENDROOT
BRANCH   7  20
HETATM   20  O1  UNL     1       1.490   0.856   1.360  1.00  0.00    -0.383 OA
BRANCH  20  21
HETATM   21  C8  UNL     1       2.782   0.912   0.879  1.00  0.00     0.194 C 
BRANCH  21  22
HETATM   22  C9  UNL     1       3.440  -0.420   0.962  1.00  0.00     0.193 C 
BRANCH  22  23
HETATM   23  O2  UNL     1       4.737  -0.454   0.509  1.00  0.00    -0.387 OA
BRANCH  23  24
HETATM   24  C10 UNL     1       4.825  -0.106  -0.804  1.00  0.00     0.195 C 
BRANCH  24  25
HETATM   25  C11 UNL     1       6.320  -0.240  -1.176  1.00  0.00     0.255 C 
BRANCH  25  26
HETATM   26  N1  UNL     1       6.419   0.132  -2.580  1.00  0.00    -0.077 N 
ATOM     27  H13 UNL     1       5.799  -0.403  -3.188  1.00  0.00     0.274 HD
ATOM     28  H12 UNL     1       6.029   1.052  -2.786  1.00  0.00     0.274 HD
ATOM     29  H11 UNL     1       7.405   0.044  -2.825  1.00  0.00     0.274 HD
ENDBRANCH  25  26
ENDBRANCH  24  25
ENDBRANCH  23  24
ENDBRANCH  22  23
ENDBRANCH  21  22
ENDBRANCH  20  21
ENDBRANCH   7  20
BRANCH  13  30
HETATM   30  O4  UNL     1      -3.402  -1.973  -1.447  1.00  0.00    -0.395 OA
ATOM     31  H4  UNL     1      -3.422  -1.029  -1.555  1.00  0.00     0.210 HD
ENDBRANCH  13  30
BRANCH  19  32
HETATM   32  O5  UNL     1      -2.922   4.905  -0.258  1.00  0.00    -0.395 OA
ATOM     33  H5  UNL     1      -2.944   5.772   0.130  1.00  0.00     0.210 HD
ENDBRANCH  19  32
BRANCH  11  34
HETATM   34  O3  UNL     1       0.062  -4.645  -1.204  1.00  0.00    -0.395 OA
ATOM     35  H3  UNL     1      -0.330  -5.143  -1.912  1.00  0.00     0.210 HD
ENDBRANCH  11  34
TORSDOF 10
