REMARK  8 active torsions:
REMARK  status: ('A' for Active; 'I' for Inactive)
REMARK       I    between atoms: C1_4  and  N3_6 
REMARK       I    between atoms: N3_6  and  C2_8 
REMARK    1  A    between atoms: C2_8  and  C3_10 
REMARK    2  A    between atoms: C8_17  and  C9_18 
REMARK    3  A    between atoms: C9_18  and  N5_19 
REMARK    4  A    between atoms: C17_29  and  C18_30 
REMARK    5  A    between atoms: C18_30  and  C19_31 
REMARK    6  A    between atoms: C19_31  and  C20_32 
REMARK    7  A    between atoms: C20_32  and  C21_33 
REMARK    8  A    between atoms: C21_33  and  O2_34 
ROOT
HETATM    1  C3  UNL     1      -2.438   1.281  -0.210  1.00  0.00     0.055 A 
HETATM    2  C4  UNL     1      -1.800   2.469  -0.597  1.00  0.00     0.034 A 
HETATM    3  C5  UNL     1      -0.442   2.514  -0.574  1.00  0.00     0.008 A 
HETATM    4  C6  UNL     1       0.239   3.671  -0.949  1.00  0.00     0.101 A 
HETATM    5  N4  UNL     1       1.564   3.709  -0.924  1.00  0.00    -0.373 N 
ATOM      6  H4  UNL     1       2.044   4.565  -1.202  1.00  0.00     0.164 HD
HETATM    7  C7  UNL     1       2.298   2.632  -0.536  1.00  0.00     0.102 A 
HETATM    8  C8  UNL     1       1.655   1.483  -0.164  1.00  0.00     0.022 A 
HETATM    9  C16 UNL     1       0.255   1.398  -0.175  1.00  0.00     0.057 A 
HETATM   10  N6  UNL     1      -0.363   0.263   0.193  1.00  0.00    -0.357 N 
ATOM     11  H6  UNL     1       0.190  -0.544   0.483  1.00  0.00     0.166 HD
HETATM   12  C17 UNL     1      -1.736   0.182   0.181  1.00  0.00     0.025 A 
ENDROOT
BRANCH   1  13
HETATM   13  C2  UNL     1      -3.880   1.367  -0.200  1.00  0.00     0.260 C 
HETATM   14  N3  UNL     1      -4.523   2.584   0.215  1.00  0.00    -0.297 N 
HETATM   15  C1  UNL     1      -5.921   2.749   0.252  1.00  0.00     0.188 C 
ATOM     16  H3  UNL     1      -3.936   3.369   0.497  1.00  0.00     0.171 HD
HETATM   17  N1  UNL     1      -6.469   3.861   0.632  1.00  0.00    -0.373 N 
HETATM   18  N2  UNL     1      -6.789   1.688  -0.130  1.00  0.00    -0.064 NA
ATOM     19  H12 UNL     1      -7.482   3.981   0.659  1.00  0.00     0.158 HD
ATOM     20  H11 UNL     1      -5.847   4.621   0.906  1.00  0.00     0.158 HD
HETATM   21  O1  UNL     1      -4.601   0.422  -0.540  1.00  0.00    -0.267 OA
ENDBRANCH   1  13
BRANCH  12  22
HETATM   22  C18 UNL     1      -2.371  -1.106   0.530  1.00  0.00     0.058 C 
BRANCH  22  23
HETATM   23  C19 UNL     1      -2.619  -2.030  -0.607  1.00  0.00     0.008 C 
BRANCH  23  24
HETATM   24  C20 UNL     1      -3.268  -3.297  -0.106  1.00  0.00     0.026 C 
BRANCH  24  25
HETATM   25  C21 UNL     1      -4.573  -3.054   0.554  1.00  0.00     0.164 C 
BRANCH  25  26
HETATM   26  O2  UNL     1      -5.109  -4.298   0.971  1.00  0.00    -0.401 OA
ATOM     27  H2  UNL     1      -5.945  -4.142   1.394  1.00  0.00     0.209 HD
ENDBRANCH  25  26
ENDBRANCH  24  25
ENDBRANCH  23  24
ENDBRANCH  22  23
ENDBRANCH  12  22
BRANCH   8  28
HETATM   28  C9  UNL     1       2.386   0.290   0.280  1.00  0.00     0.105 C 
BRANCH  28  29
HETATM   29  N5  UNL     1       3.775   0.305   0.287  1.00  0.00    -0.369 N 
HETATM   30  C10 UNL     1       4.501   0.429  -0.919  1.00  0.00     0.127 C 
HETATM   31  C11 UNL     1       5.087  -0.958  -1.229  1.00  0.00     0.020 C 
HETATM   32  C12 UNL     1       6.338  -1.080  -0.387  1.00  0.00     0.002 C 
HETATM   33  C13 UNL     1       6.122  -1.793   0.907  1.00  0.00     0.005 C 
HETATM   34  C14 UNL     1       4.832  -1.442   1.597  1.00  0.00     0.044 C 
HETATM   35  C15 UNL     1       4.490   0.021   1.468  1.00  0.00     0.063 C 
ENDBRANCH  28  29
ENDBRANCH   8  28
TORSDOF 8
