REMARK  7 active torsions:
REMARK  status: ('A' for Active; 'I' for Inactive)
REMARK    1  A    between atoms: N1_2  and  C2_4 
REMARK    2  A    between atoms: C2_4  and  N2_6 
REMARK    3  A    between atoms: N2_6  and  C3_8 
REMARK    4  A    between atoms: C5_10  and  N3_11 
REMARK    5  A    between atoms: C8_18  and  O1_19 
REMARK    6  A    between atoms: C9_21  and  O2_22 
REMARK    7  A    between atoms: C10_24  and  O3_25 
ROOT
HETATM    1  C3  UNL     1       0.531   0.028   0.033  1.00  0.00     0.041 C 
HETATM    2  C4  UNL     1      -0.470   0.541  -0.674  1.00  0.00     0.029 C 
HETATM    3  C5  UNL     1      -1.798   0.805  -0.076  1.00  0.00     0.147 C 
HETATM    4  C8  UNL     1      -2.203  -0.199   0.957  1.00  0.00     0.176 C 
HETATM    5  C9  UNL     1      -1.097  -0.979   1.595  1.00  0.00     0.183 C 
HETATM    6  C10 UNL     1       0.259  -0.273   1.429  1.00  0.00     0.198 C 
ENDROOT
BRANCH   1   7
HETATM    7  N2  UNL     1       1.754  -0.194  -0.601  1.00  0.00    -0.335 N 
ATOM      8  H2  UNL     1       1.702  -0.541  -1.559  1.00  0.00     0.168 HD
BRANCH   7   9
HETATM    9  C2  UNL     1       3.047  -0.001  -0.089  1.00  0.00     0.171 C 
HETATM   10  S1  UNL     1       3.229   0.546   1.422  1.00  0.00    -0.041 SA
BRANCH   9  11
HETATM   11  N1  UNL     1       4.188  -0.276  -0.868  1.00  0.00    -0.371 N 
HETATM   12  C1  UNL     1       5.545  -0.090  -0.377  1.00  0.00     0.148 C 
ATOM     13  H1  UNL     1       4.057  -0.621  -1.819  1.00  0.00     0.161 HD
ENDBRANCH   9  11
ENDBRANCH   7   9
ENDBRANCH   1   7
BRANCH   6  14
HETATM   14  O3  UNL     1       0.267   0.875   2.220  1.00  0.00    -0.387 OA
ATOM     15  H3  UNL     1       0.089   0.678   3.132  1.00  0.00     0.210 HD
ENDBRANCH   6  14
BRANCH   3  16
HETATM   16  N3  UNL     1      -2.763   0.944  -1.139  1.00  0.00    -0.326 N 
HETATM   17  C6  UNL     1      -3.182   0.013  -2.012  1.00  0.00     0.201 A 
HETATM   18  N4  UNL     1      -4.094   0.544  -2.851  1.00  0.00    -0.295 N 
HETATM   19  N5  UNL     1      -4.234   1.800  -2.491  1.00  0.00    -0.295 N 
ATOM     20  H4  UNL     1      -4.578   0.067  -3.612  1.00  0.00     0.187 HD
HETATM   21  C7  UNL     1      -3.430   2.063  -1.449  1.00  0.00     0.201 A 
ATOM     22  H5  UNL     1      -4.859   2.473  -2.936  1.00  0.00     0.187 HD
ENDBRANCH   3  16
BRANCH   5  23
HETATM   23  O2  UNL     1      -1.027  -2.299   1.163  1.00  0.00    -0.390 OA
ATOM     24  H2  UNL     1      -0.325  -2.794   1.568  1.00  0.00     0.210 HD
ENDBRANCH   5  23
BRANCH   4  25
HETATM   25  O1  UNL     1      -3.098  -1.110   0.364  1.00  0.00    -0.390 OA
ATOM     26  H1  UNL     1      -3.355  -1.747   1.020  1.00  0.00     0.210 HD
ENDBRANCH   4  25
TORSDOF 7
