REMARK  7 active torsions:
REMARK  status: ('A' for Active; 'I' for Inactive)
REMARK    1  A    between atoms: C4_6  and  O3_7 
REMARK    2  A    between atoms: C5_9  and  C6_10 
REMARK    3  A    between atoms: C5_9  and  N1_13 
REMARK    4  A    between atoms: C6_10  and  O4_11 
REMARK    5  A    between atoms: N1_13  and  N2_15 
REMARK    6  A    between atoms: C7_21  and  O6_22 
REMARK    7  A    between atoms: C8_24  and  O7_25 
ROOT
HETATM    1  C1  UNL     1       3.651   0.488  -0.388  1.00  0.00     0.042 C 
HETATM    2  C2  UNL     1       2.305   0.561   0.344  1.00  0.00     0.155 C 
HETATM    3  O1  UNL     1       1.277   0.793  -0.526  1.00  0.00    -0.323 OA
HETATM    4  C3  UNL     1       0.260  -0.089  -0.290  1.00  0.00     0.317 C 
HETATM    5  O2  UNL     1      -0.557  -0.217  -1.382  1.00  0.00    -0.295 OA
HETATM    6  C4  UNL     1      -1.647   0.634  -1.078  1.00  0.00     0.322 C 
HETATM    7  C5  UNL     1      -1.841   0.285   0.381  1.00  0.00     0.225 C 
HETATM    8  O5  UNL     1      -0.508   0.209   0.813  1.00  0.00    -0.290 OA
HETATM    9  C7  UNL     1       1.021  -1.374   0.033  1.00  0.00     0.242 C 
HETATM   10  C8  UNL     1       2.096  -0.803   0.965  1.00  0.00     0.183 C 
ENDROOT
BRANCH   7  11
HETATM   11  C6  UNL     1      -2.412  -1.097   0.457  1.00  0.00     0.232 C 
BRANCH  11  12
HETATM   12  O4  UNL     1      -3.712  -1.177  -0.018  1.00  0.00    -0.396 OA
ATOM     13  H4  UNL     1      -4.074  -2.054   0.030  1.00  0.00     0.209 HD
ENDBRANCH  11  12
ENDBRANCH   7  11
BRANCH   7  14
HETATM   14  N1  UNL     1      -2.554   1.264   1.120  1.00  0.00    -0.281 N 
ATOM     15  H1  UNL     1      -2.153   1.629   1.984  1.00  0.00     0.185 HD
BRANCH  14  16
HETATM   16  N2  UNL     1      -3.651   1.683   0.737  1.00  0.00    -0.251 N 
HETATM   17  N3  UNL     1      -4.494   2.502   0.373  1.00  0.00    -0.331 N 
ATOM     18  H32 UNL     1      -3.915   3.340   0.427  1.00  0.00     0.178 HD
ATOM     19  H31 UNL     1      -5.400   2.848   0.057  1.00  0.00     0.178 HD
ATOM     20  H2  UNL     1      -4.189   0.817   0.699  1.00  0.00     0.207 HD
ENDBRANCH  14  16
ENDBRANCH   7  14
BRANCH   6  21
HETATM   21  O3  UNL     1      -1.155   1.934  -1.235  1.00  0.00    -0.366 OA
ATOM     22  H3  UNL     1      -1.886   2.505  -1.031  1.00  0.00     0.212 HD
ENDBRANCH   6  21
BRANCH   9  23
HETATM   23  O6  UNL     1       1.615  -1.925  -1.077  1.00  0.00    -0.385 OA
ATOM     24  H6  UNL     1       2.088  -2.724  -0.876  1.00  0.00     0.210 HD
ENDBRANCH   9  23
BRANCH  10  25
HETATM   25  O7  UNL     1       1.570  -0.596   2.238  1.00  0.00    -0.390 OA
ATOM     26  H7  UNL     1       1.439  -1.452   2.628  1.00  0.00     0.210 HD
ENDBRANCH  10  25
TORSDOF 7
