REMARK  1 active torsions:
REMARK  status: ('A' for Active; 'I' for Inactive)
REMARK       I    between atoms: C1_4  and  N3_6 
REMARK    1  A    between atoms: C4_14  and  N6_15 
ROOT
HETATM    1  N1  UNL     1      -2.343   0.249   1.281  1.00  0.00    -0.372 N 
ATOM      2  H11 UNL     1      -1.781   0.297   2.131  1.00  0.00     0.158 HD
ATOM      3  H12 UNL     1      -3.350   0.405   1.332  1.00  0.00     0.158 HD
HETATM    4  C1  UNL     1      -1.764  -0.008   0.171  1.00  0.00     0.209 C 
HETATM    5  N2  UNL     1      -2.542  -0.075  -1.005  1.00  0.00    -0.062 NA
HETATM    6  N3  UNL     1      -0.368  -0.224   0.100  1.00  0.00    -0.205 N 
HETATM    7  N4  UNL     1       0.085  -1.476   0.039  1.00  0.00    -0.285 N 
ATOM      8  H4  UNL     1      -0.582  -2.247   0.045  1.00  0.00     0.188 HD
HETATM    9  C2  UNL     1       1.385  -1.744  -0.030  1.00  0.00     0.201 A 
HETATM   10  N5  UNL     1       2.304  -0.763  -0.040  1.00  0.00    -0.315 N 
ATOM     11  H5  UNL     1       3.301  -0.970  -0.092  1.00  0.00     0.170 HD
HETATM   12  C3  UNL     1       1.854   0.502   0.022  1.00  0.00     0.292 A 
HETATM   13  O1  UNL     1       2.654   1.498   0.017  1.00  0.00    -0.264 OA
HETATM   14  C4  UNL     1       0.520   0.795   0.092  1.00  0.00     0.192 A 
ENDROOT
BRANCH  14  15
HETATM   15  N6  UNL     1       0.047   1.996   0.153  1.00  0.00    -0.379 N 
ATOM     16  H62 UNL     1      -0.948   2.215   0.205  1.00  0.00     0.158 HD
ATOM     17  H61 UNL     1       0.717   2.765   0.147  1.00  0.00     0.158 HD
ENDBRANCH  14  15
TORSDOF 1
