REMARK  2 active torsions:
REMARK  status: ('A' for Active; 'I' for Inactive)
REMARK    1  A    between atoms: N5_12  and  N6_14 
REMARK    2  A    between atoms: C3_16  and  C4_17 
ROOT
HETATM    1  N1  UNL     1       4.909   2.388  -0.131  1.00  0.00    -0.378 N 
ATOM      2  H11 UNL     1       4.596   3.291   0.226  1.00  0.00     0.158 HD
ATOM      3  H12 UNL     1       5.883   2.320  -0.428  1.00  0.00     0.158 HD
HETATM    4  C1  UNL     1       4.090   1.401  -0.191  1.00  0.00     0.161 C 
HETATM    5  N2  UNL     1       4.524   0.148  -0.687  1.00  0.00    -0.265 N 
ATOM      6  H2  UNL     1       5.394   0.135  -1.220  1.00  0.00     0.190 HD
HETATM    7  N3  UNL     1       3.881  -1.048  -0.516  1.00  0.00    -0.239 N 
ATOM      8  H3  UNL     1       4.377  -1.902  -0.261  1.00  0.00     0.208 HD
HETATM    9  N4  UNL     1       2.513  -1.019  -0.712  1.00  0.00    -0.264 N 
ATOM     10  H4  UNL     1       2.103  -1.749  -1.295  1.00  0.00     0.190 HD
HETATM   11  C2  UNL     1       1.642  -0.053  -0.164  1.00  0.00     0.182 C 
HETATM   12  N5  UNL     1       0.397  -0.271  -0.020  1.00  0.00    -0.279 N 
ATOM     13  H5  UNL     1      -0.189   0.461   0.382  1.00  0.00     0.189 HD
HETATM   14  S1  UNL     1       2.376   1.520   0.331  1.00  0.00    -0.014 SA
ENDROOT
BRANCH  12  15
HETATM   15  N6  UNL     1      -0.182  -1.455  -0.387  1.00  0.00    -0.307 N 
HETATM   16  C3  UNL     1      -1.428  -1.732  -0.394  1.00  0.00     0.143 C 
ATOM     17  H6  UNL     1       0.450  -2.197  -0.688  1.00  0.00     0.186 HD
BRANCH  16  18
HETATM   18  C4  UNL     1      -2.387  -0.729   0.019  1.00  0.00     0.133 A 
HETATM   19  N7  UNL     1      -1.977   0.509   0.417  1.00  0.00    -0.290 N 
HETATM   20  N8  UNL     1      -2.898   1.382   0.784  1.00  0.00    -0.251 N 
ATOM     21  H7  UNL     1      -0.987   0.754   0.431  1.00  0.00     0.187 HD
HETATM   22  C5  UNL     1      -4.195   1.071   0.768  1.00  0.00     0.341 A 
ATOM     23  H8  UNL     1      -2.611   2.313   1.086  1.00  0.00     0.191 HD
HETATM   24  O1  UNL     1      -5.026   1.940   1.127  1.00  0.00    -0.245 OA
HETATM   25  N9  UNL     1      -4.653  -0.141   0.383  1.00  0.00    -0.272 N 
HETATM   26  C6  UNL     1      -3.735  -1.043   0.007  1.00  0.00     0.279 A 
ATOM     27  H9  UNL     1      -5.649  -0.359   0.379  1.00  0.00     0.173 HD
HETATM   28  O2  UNL     1      -4.070  -2.192  -0.366  1.00  0.00    -0.265 OA
ENDBRANCH  16  18
ENDBRANCH  12  15
TORSDOF 2
