REMARK  11 active torsions:
REMARK  status: ('A' for Active; 'I' for Inactive)
REMARK    1  A    between atoms: C3_4  and  O1_5 
REMARK    2  A    between atoms: O1_5  and  C4_6 
REMARK    3  A    between atoms: C4_6  and  C5_8 
REMARK    4  A    between atoms: C5_8  and  C6_9 
REMARK    5  A    between atoms: C6_9  and  N1_10 
REMARK    6  A    between atoms: N1_10  and  C7_13 
REMARK    7  A    between atoms: C7_13  and  C8_14 
REMARK    8  A    between atoms: C8_14  and  C9_15 
REMARK    9  A    between atoms: C8_14  and  N6_28 
REMARK   10  A    between atoms: C11_20  and  N4_21 
REMARK   11  A    between atoms: C15_37  and  O4_38 
ROOT
HETATM    1  C8  UNL     1       2.771  -0.710  -1.040  1.00  0.00     0.179 C 
ENDROOT
BRANCH   1   2
HETATM    2  C7  UNL     1       1.299  -0.588  -1.204  1.00  0.00     0.264 C 
BRANCH   2   3
HETATM    3  N1  UNL     1       0.794   0.695  -0.684  1.00  0.00    -0.072 N 
ATOM      4  H12 UNL     1       1.295   1.495  -1.070  1.00  0.00     0.277 HD
ATOM      5  H11 UNL     1       1.033   0.838   0.297  1.00  0.00     0.277 HD
BRANCH   3   6
HETATM    6  C6  UNL     1      -0.634   0.769  -0.922  1.00  0.00     0.242 C 
BRANCH   6   7
HETATM    7  C5  UNL     1      -1.415  -0.224  -0.090  1.00  0.00     0.138 C 
BRANCH   7   8
HETATM    8  C4  UNL     1      -2.867  -0.075  -0.406  1.00  0.00     0.263 C 
HETATM    9  O2  UNL     1      -3.317  -0.571  -1.483  1.00  0.00    -0.265 OA
BRANCH   8  10
HETATM   10  O1  UNL     1      -3.781   0.574   0.398  1.00  0.00    -0.282 OA
BRANCH  10  11
HETATM   11  C3  UNL     1      -5.134   0.688   0.054  1.00  0.00     0.362 A 
HETATM   12  C2  UNL     1      -6.099   0.125   1.040  1.00  0.00     0.251 A 
HETATM   13  C1  UNL     1      -6.947  -0.966   0.387  1.00  0.00     0.084 C 
HETATM   14  F1  UNL     1      -5.518  -0.359   2.189  1.00  0.00    -0.212 F 
HETATM   15  N13 UNL     1      -6.970   1.248   1.332  1.00  0.00    -0.166 N 
HETATM   16  N11 UNL     1      -6.604   2.318   0.653  1.00  0.00    -0.092 N 
HETATM   17  C18 UNL     1      -8.037   1.560   2.075  1.00  0.00     0.350 A 
HETATM   18  O6  UNL     1      -5.509   2.051  -0.130  1.00  0.00    -0.215 OA
HETATM   19  C17 UNL     1      -7.418   3.362   0.930  1.00  0.00     0.370 A 
HETATM   20  O7  UNL     1      -7.347   4.526   0.454  1.00  0.00    -0.243 OA
HETATM   21  N12 UNL     1      -8.300   2.865   1.815  1.00  0.00    -0.256 N 
ATOM     22  H12 UNL     1      -9.063   3.397   2.234  1.00  0.00     0.175 HD
HETATM   23  O8  UNL     1      -8.720   0.878   2.867  1.00  0.00    -0.245 OA
ENDBRANCH  10  11
ENDBRANCH   8  10
ENDBRANCH   7   8
ENDBRANCH   6   7
ENDBRANCH   3   6
ENDBRANCH   2   3
ENDBRANCH   1   2
BRANCH   1  24
HETATM   24  C9  UNL     1       3.384  -1.936  -1.536  1.00  0.00     0.078 A 
HETATM   25  C10 UNL     1       4.774  -1.947  -1.686  1.00  0.00     0.145 A 
HETATM   26  N2  UNL     1       5.551  -0.806  -1.380  1.00  0.00    -0.081 NA
HETATM   27  N3  UNL     1       5.438  -3.025  -2.130  1.00  0.00    -0.178 N 
HETATM   28  C11 UNL     1       4.792  -4.140  -2.446  1.00  0.00     0.680 A 
ATOM     29  H3  UNL     1       6.453  -2.987  -2.226  1.00  0.00     0.185 HD
HETATM   30  N5  UNL     1       3.452  -4.170  -2.315  1.00  0.00    -0.156 N 
HETATM   31  C12 UNL     1       2.759  -3.105  -1.874  1.00  0.00     0.271 A 
ATOM     32  H5  UNL     1       2.949  -5.024  -2.557  1.00  0.00     0.187 HD
HETATM   33  O3  UNL     1       1.519  -3.226  -1.785  1.00  0.00    -0.267 OA
BRANCH  28  34
HETATM   34  N4  UNL     1       5.465  -5.155  -2.868  1.00  0.00    -0.234 N 
ATOM     35  H42 UNL     1       6.480  -5.132  -2.967  1.00  0.00     0.174 HD
ATOM     36  H41 UNL     1       4.968  -6.012  -3.111  1.00  0.00     0.174 HD
ENDBRANCH  28  34
ENDBRANCH   1  24
BRANCH   1  37
HETATM   37  N6  UNL     1       3.051  -0.514   0.390  1.00  0.00    -0.249 N 
HETATM   38  N7  UNL     1       2.917  -1.400   1.373  1.00  0.00    -0.237 N 
HETATM   39  N8  UNL     1       3.256  -0.879   2.519  1.00  0.00    -0.278 N 
ATOM     40  H7  UNL     1       2.592  -2.359   1.247  1.00  0.00     0.208 HD
HETATM   41  C13 UNL     1       3.633   0.404   2.307  1.00  0.00     0.163 A 
ATOM     42  H8  UNL     1       3.240  -1.356   3.420  1.00  0.00     0.189 HD
HETATM   43  C14 UNL     1       3.498   0.614   0.969  1.00  0.00     0.157 A 
HETATM   44  C16 UNL     1       4.100   1.469   3.175  1.00  0.00     0.276 A 
HETATM   45  N9  UNL     1       3.828   1.904   0.433  1.00  0.00    -0.330 N 
HETATM   46  C15 UNL     1       4.294   3.009   1.208  1.00  0.00     0.330 A 
ATOM     47  H9  UNL     1       3.722   2.041  -0.572  1.00  0.00     0.165 HD
HETATM   48  N10 UNL     1       4.410   2.721   2.610  1.00  0.00    -0.312 N 
ATOM     49  H10 UNL     1       4.734   3.463   3.230  1.00  0.00     0.167 HD
HETATM   50  O5  UNL     1       4.220   1.261   4.409  1.00  0.00    -0.266 OA
BRANCH  46  51
HETATM   51  O4  UNL     1       5.510   3.428   0.658  1.00  0.00    -0.359 OA
ATOM     52  H4  UNL     1       5.820   4.163   1.174  1.00  0.00     0.214 HD
ENDBRANCH  46  51
ENDBRANCH   1  37
TORSDOF 11
