REMARK  17 active torsions:
REMARK  status: ('A' for Active; 'I' for Inactive)
REMARK    1  A    between atoms: O1_2  and  C2_3 
REMARK    2  A    between atoms: C4_5  and  N1_6 
REMARK    3  A    between atoms: C5_11  and  C6_12 
REMARK    4  A    between atoms: C6_12  and  N4_13 
REMARK    5  A    between atoms: N4_13  and  C7_15 
REMARK    6  A    between atoms: C7_15  and  O2_16 
REMARK    7  A    between atoms: C7_15  and  C8_18 
REMARK    8  A    between atoms: C10_22  and  C11_23 
REMARK    9  A    between atoms: C11_23  and  N6_24 
REMARK   10  A    between atoms: N6_24  and  C12_26 
REMARK   11  A    between atoms: C16_33  and  N8_34 
REMARK   12  A    between atoms: C17_37  and  C18_38 
REMARK   13  A    between atoms: C18_38  and  N9_39 
REMARK   14  A    between atoms: C18_38  and  O5_43 
REMARK   15  A    between atoms: C18_38  and  C19_45 
REMARK       I    between atoms: C19_45  and  N10_47 
REMARK   16  A    between atoms: N10_47  and  N11_49 
REMARK   17  A    between atoms: C20_52  and  O7_53 
ROOT
HETATM    1  C2  UNL     1      -5.937  -1.817  -1.044  1.00  0.00     0.104 A 
HETATM    2  C3  UNL     1      -4.641  -1.914  -0.645  1.00  0.00     0.075 A 
HETATM    3  C4  UNL     1      -4.069  -1.020   0.245  1.00  0.00     0.113 A 
HETATM    4  C16 UNL     1      -4.878  -0.009   0.729  1.00  0.00     0.147 A 
HETATM    5  C17 UNL     1      -6.205   0.160   0.371  1.00  0.00     0.085 A 
HETATM    6  C20 UNL     1      -6.704  -0.789  -0.542  1.00  0.00     0.113 A 
ENDROOT
BRANCH   3   7
HETATM    7  N1  UNL     1      -2.683  -1.108   0.502  1.00  0.00    -0.178 N 
HETATM    8  N2  UNL     1      -2.014  -2.273   0.393  1.00  0.00    -0.219 N 
HETATM    9  N3  UNL     1      -0.740  -2.107   0.585  1.00  0.00    -0.270 N 
ATOM     10  H2  UNL     1      -2.452  -3.171   0.186  1.00  0.00     0.210 HD
HETATM   11  C5  UNL     1      -0.539  -0.774   0.831  1.00  0.00     0.131 A 
ATOM     12  H3  UNL     1      -0.024  -2.833   0.558  1.00  0.00     0.190 HD
HETATM   13  N7  UNL     1      -1.743  -0.228   0.773  1.00  0.00    -0.264 N 
ATOM     14  H7  UNL     1      -1.923   0.765   0.922  1.00  0.00     0.190 HD
BRANCH  11  15
HETATM   15  C6  UNL     1       0.848  -0.280   0.952  1.00  0.00     0.196 C 
BRANCH  15  16
HETATM   16  N4  UNL     1       1.025   0.931   0.167  1.00  0.00    -0.386 N 
ATOM     17  H4  UNL     1       0.459   1.766   0.317  1.00  0.00     0.156 HD
BRANCH  16  18
HETATM   18  C7  UNL     1       2.040   0.870  -0.821  1.00  0.00     0.256 C 
BRANCH  18  19
HETATM   19  O2  UNL     1       2.297   2.192  -1.278  1.00  0.00    -0.372 OA
ATOM     20  H2  UNL     1       2.977   2.151  -1.940  1.00  0.00     0.212 HD
ENDBRANCH  18  19
BRANCH  18  21
HETATM   21  C8  UNL     1       3.306   0.223  -0.521  1.00  0.00     0.047 A 
HETATM   22  C9  UNL     1       3.781  -0.904  -1.213  1.00  0.00     0.107 A 
HETATM   23  N5  UNL     1       4.949  -1.329  -0.908  1.00  0.00    -0.361 N 
HETATM   24  C10 UNL     1       5.680  -0.736   0.016  1.00  0.00     0.068 A 
ATOM     25  H5  UNL     1       5.323  -2.146  -1.391  1.00  0.00     0.165 HD
HETATM   26  S1  UNL     1       4.624   0.519   0.492  1.00  0.00    -0.074 SA
BRANCH  24  27
HETATM   27  C11 UNL     1       7.082  -1.099   0.460  1.00  0.00     0.179 C 
BRANCH  27  28
HETATM   28  N6  UNL     1       7.855   0.069   0.256  1.00  0.00    -0.408 N 
ATOM     29  H6  UNL     1       7.412   0.928  -0.069  1.00  0.00     0.154 HD
BRANCH  28  30
HETATM   30  C12 UNL     1       9.238   0.037   0.505  1.00  0.00     0.015 C 
HETATM   31  C13 UNL     1      10.048  -0.874  -0.390  1.00  0.00     0.037 C 
HETATM   32  C14 UNL     1       9.790   1.443   0.288  1.00  0.00     0.037 C 
HETATM   33  C15 UNL     1       9.489  -0.295   1.977  1.00  0.00     0.037 C 
ENDBRANCH  28  30
ENDBRANCH  27  28
ENDBRANCH  24  27
ENDBRANCH  18  21
ENDBRANCH  16  18
ENDBRANCH  15  16
ENDBRANCH  11  15
ENDBRANCH   3   7
BRANCH   4  34
HETATM   34  N8  UNL     1      -4.252   0.946   1.569  1.00  0.00    -0.112 N 
HETATM   35  O3  UNL     1      -4.186   0.897   2.798  1.00  0.00    -0.532 OA
HETATM   36  O4  UNL     1      -3.650   2.045   0.945  1.00  0.00    -0.532 OA
ENDBRANCH   4  34
BRANCH   1  37
HETATM   37  O1  UNL     1      -6.478  -2.748  -1.944  1.00  0.00    -0.353 OA
HETATM   38  C1  UNL     1      -5.691  -3.792  -2.433  1.00  0.00     0.210 C 
ENDBRANCH   1  37
BRANCH   5  39
HETATM   39  C18 UNL     1      -7.111   1.129   0.960  1.00  0.00     0.338 C 
BRANCH  39  40
HETATM   40  N9  UNL     1      -7.457   0.901   2.342  1.00  0.00    -0.033 N 
ATOM     41  H93 UNL     1      -7.832  -0.041   2.456  1.00  0.00     0.279 HD
ATOM     42  H92 UNL     1      -6.610   0.829   2.906  1.00  0.00     0.279 HD
ATOM     43  H91 UNL     1      -8.094   1.582   2.756  1.00  0.00     0.279 HD
ENDBRANCH  39  40
BRANCH  39  44
HETATM   44  O5  UNL     1      -6.244   2.341   1.206  1.00  0.00    -0.354 OA
ATOM     45  H5  UNL     1      -6.837   2.975   1.592  1.00  0.00     0.213 HD
ENDBRANCH  39  44
BRANCH  39  46
HETATM   46  C19 UNL     1      -8.173   1.714   0.182  1.00  0.00     0.304 C 
HETATM   47  O6  UNL     1      -9.252   1.321  -0.097  1.00  0.00    -0.266 OA
HETATM   48  N10 UNL     1      -7.859   3.072  -0.393  1.00  0.00    -0.272 N 
ATOM     49  H10 UNL     1      -6.944   3.474  -0.187  1.00  0.00     0.189 HD
BRANCH  48  50
HETATM   50  N11 UNL     1      -8.705   3.797  -1.164  1.00  0.00    -0.342 N 
ATOM     51 2H11 UNL     1      -9.615   3.380  -1.360  1.00  0.00     0.176 HD
ATOM     52 1H11 UNL     1      -8.493   4.716  -1.553  1.00  0.00     0.176 HD
ENDBRANCH  48  50
ENDBRANCH  39  46
ENDBRANCH   5  39
BRANCH   6  53
HETATM   53  O7  UNL     1      -7.999  -0.750  -0.985  1.00  0.00    -0.357 OA
ATOM     54  H7  UNL     1      -8.528  -0.041  -0.639  1.00  0.00     0.217 HD
ENDBRANCH   6  53
TORSDOF 17
