REMARK  15 active torsions:
REMARK  status: ('A' for Active; 'I' for Inactive)
REMARK    1  A    between atoms: C2_5  and  C3_6 
REMARK    2  A    between atoms: C5_18  and  C6_19 
REMARK    3  A    between atoms: C6_19  and  C7_20 
REMARK    4  A    between atoms: C7_20  and  C8_21 
REMARK    5  A    between atoms: C8_21  and  C9_22 
REMARK    6  A    between atoms: C9_22  and  C10_23 
REMARK    7  A    between atoms: C10_23  and  N7_24 
REMARK    8  A    between atoms: N8_28  and  C11_30 
REMARK    9  A    between atoms: C12_32  and  C13_33 
REMARK   10  A    between atoms: C13_33  and  C14_34 
REMARK   11  A    between atoms: C14_34  and  S1_35 
REMARK   12  A    between atoms: S1_35  and  C15_36 
REMARK   13  A    between atoms: C17_41  and  C18_42 
REMARK   14  A    between atoms: C20_49  and  O5_50 
REMARK   15  A    between atoms: N13_52  and  O6_53 
ROOT
HETATM    1  C6  UNL     1      -2.665  -0.872   0.080  1.00  0.00     0.058 C 
HETATM    2  N8  UNL     1      -1.695  -1.676   0.084  1.00  0.00    -0.320 N 
ATOM      3  H8  UNL     1      -1.913  -2.657   0.257  1.00  0.00     0.169 HD
ENDROOT
BRANCH   1   4
HETATM    4  C5  UNL     1      -4.044  -1.367   0.321  1.00  0.00     0.146 A 
HETATM    5  N1  UNL     1      -4.415  -2.642   0.488  1.00  0.00    -0.278 N 
HETATM    6  C1  UNL     1      -3.547  -3.799   0.430  1.00  0.00     0.179 C 
HETATM    7  N2  UNL     1      -5.737  -2.683   0.715  1.00  0.00    -0.280 N 
HETATM    8  C2  UNL     1      -6.216  -1.440   0.695  1.00  0.00     0.154 A 
ATOM      9  H2  UNL     1      -6.285  -3.528   0.876  1.00  0.00     0.189 HD
HETATM   10  N6  UNL     1      -5.159  -0.646   0.451  1.00  0.00    -0.323 N 
ATOM     11  H6  UNL     1      -5.203   0.370   0.375  1.00  0.00     0.169 HD
BRANCH   8  12
HETATM   12  C3  UNL     1      -7.576  -0.941   0.885  1.00  0.00     0.147 A 
HETATM   13  N3  UNL     1      -7.973   0.346   0.848  1.00  0.00    -0.234 N 
HETATM   14  O1  UNL     1      -9.251   0.419   1.057  1.00  0.00    -0.155 OA
ATOM     15  H3  UNL     1      -7.360   1.144   0.681  1.00  0.00     0.197 HD
HETATM   16  N4  UNL     1      -9.743  -0.760   1.234  1.00  0.00    -0.224 N 
HETATM   17  C4  UNL     1      -8.723  -1.663   1.136  1.00  0.00     0.154 A 
ATOM     18  H4  UNL     1     -10.722  -0.980   1.415  1.00  0.00     0.198 HD
HETATM   19  N5  UNL     1      -8.867  -2.915   1.260  1.00  0.00    -0.382 N 
ATOM     20  H52 UNL     1      -8.105  -3.589   1.187  1.00  0.00     0.157 HD
ATOM     21  H51 UNL     1      -9.716  -3.449   1.446  1.00  0.00     0.157 HD
ENDBRANCH   8  12
ENDBRANCH   1   4
BRANCH   1  22
HETATM   22  C7  UNL     1      -2.509   0.587  -0.189  1.00  0.00     0.061 C 
BRANCH  22  23
HETATM   23  C8  UNL     1      -3.190   0.974  -1.464  1.00  0.00     0.008 C 
BRANCH  23  24
HETATM   24  C9  UNL     1      -3.072   2.396  -1.872  1.00  0.00     0.027 C 
BRANCH  24  25
HETATM   25  C10 UNL     1      -3.608   3.436  -0.964  1.00  0.00     0.229 C 
BRANCH  25  26
HETATM   26  N7  UNL     1      -3.011   3.541   0.332  1.00  0.00    -0.079 N 
ATOM     27  H73 UNL     1      -3.046   2.634   0.797  1.00  0.00     0.274 HD
ATOM     28  H72 UNL     1      -2.003   3.664   0.233  1.00  0.00     0.274 HD
ATOM     29  H71 UNL     1      -3.380   4.257   0.957  1.00  0.00     0.274 HD
ENDBRANCH  25  26
ENDBRANCH  24  25
ENDBRANCH  23  24
ENDBRANCH  22  23
ENDBRANCH   1  22
BRANCH   2  30
HETATM   30  C11 UNL     1      -0.342  -1.357  -0.126  1.00  0.00     0.258 A 
HETATM   31  O2  UNL     1       0.368  -0.348   0.320  1.00  0.00    -0.278 OA
HETATM   32  C12 UNL     1       1.608  -0.370  -0.078  1.00  0.00     0.110 A 
HETATM   33  C20 UNL     1       1.708  -1.503  -0.857  1.00  0.00     0.201 A 
HETATM   34  N13 UNL     1       0.518  -2.104  -0.886  1.00  0.00    -0.160 N 
BRANCH  32  35
HETATM   35  C13 UNL     1       2.699   0.616   0.238  1.00  0.00     0.080 C 
BRANCH  35  36
HETATM   36  C14 UNL     1       2.928   1.432  -1.009  1.00  0.00     0.089 C 
BRANCH  36  37
HETATM   37  S1  UNL     1       4.221   2.679  -0.758  1.00  0.00    -0.093 SA
BRANCH  37  38
HETATM   38  C15 UNL     1       5.754   1.818  -0.465  1.00  0.00     0.148 A 
HETATM   39  N9  UNL     1       6.076   1.520   0.825  1.00  0.00    -0.324 N 
HETATM   40  C16 UNL     1       7.207   0.875   1.155  1.00  0.00     0.139 A 
ATOM     41  H9  UNL     1       5.434   1.797   1.568  1.00  0.00     0.169 HD
HETATM   42  N10 UNL     1       7.545   0.564   2.503  1.00  0.00    -0.081 NA
HETATM   43  C17 UNL     1       8.100   0.486   0.177  1.00  0.00     0.138 A 
HETATM   44  C19 UNL     1       7.770   0.790  -1.125  1.00  0.00     0.266 A 
HETATM   45  O4  UNL     1       8.572   0.443  -2.028  1.00  0.00    -0.267 OA
HETATM   46  N12 UNL     1       6.610   1.447  -1.428  1.00  0.00    -0.303 N 
ATOM     47  H12 UNL     1       6.392   1.658  -2.402  1.00  0.00     0.171 HD
BRANCH  43  48
HETATM   48  C18 UNL     1       9.335  -0.220   0.542  1.00  0.00     0.273 C 
HETATM   49  N11 UNL     1      10.275  -0.638  -0.436  1.00  0.00    -0.057 NA
HETATM   50  O3  UNL     1       9.562  -0.458   1.744  1.00  0.00    -0.271 OA
ENDBRANCH  43  48
ENDBRANCH  37  38
ENDBRANCH  36  37
ENDBRANCH  35  36
ENDBRANCH  32  35
BRANCH  33  51
HETATM   51  O5  UNL     1       2.899  -1.902  -1.487  1.00  0.00    -0.343 OA
ATOM     52  H5  UNL     1       2.968  -2.683  -2.024  1.00  0.00     0.219 HD
ENDBRANCH  33  51
BRANCH  34  53
HETATM   53  O6  UNL     1       0.166  -3.248  -1.532  1.00  0.00    -0.278 OA
ATOM     54  H6  UNL     1       0.763  -3.766  -2.059  1.00  0.00     0.245 HD
ENDBRANCH  34  53
ENDBRANCH   2  30
TORSDOF 15
