REMARK  16 active torsions:
REMARK  status: ('A' for Active; 'I' for Inactive)
REMARK    1  A    between atoms: C2_2  and  O1_3 
REMARK    2  A    between atoms: C2_2  and  C3_5 
REMARK    3  A    between atoms: C3_5  and  C4_6 
REMARK    4  A    between atoms: C3_5  and  N2_16 
REMARK    5  A    between atoms: C4_6  and  C5_7 
REMARK    6  A    between atoms: C5_7  and  N1_8 
REMARK    7  A    between atoms: N1_8  and  C6_10 
REMARK    8  A    between atoms: C6_10  and  O2_11 
REMARK    9  A    between atoms: N2_16  and  C10_18 
REMARK   10  A    between atoms: C10_18  and  O3_19 
REMARK   11  A    between atoms: C10_18  and  C11_21 
REMARK   12  A    between atoms: C12_27  and  C13_28 
REMARK   13  A    between atoms: C13_28  and  C14_29 
REMARK   14  A    between atoms: C13_28  and  N14_53 
REMARK   15  A    between atoms: C18_42  and  N10_43 
REMARK   16  A    between atoms: N12_48  and  O5_49 
ROOT
HETATM    1  C13 UNL     1       1.918   0.065  -0.537  1.00  0.00     0.213 C 
ENDROOT
BRANCH   1   2
HETATM    2  C12 UNL     1       1.264   1.351  -0.691  1.00  0.00     0.094 A 
HETATM    3  C11 UNL     1       0.160   1.848  -0.095  1.00  0.00     0.109 A 
HETATM    4  N3  UNL     1       0.048   3.122  -0.672  1.00  0.00    -0.239 N 
HETATM    5  O4  UNL     1       0.992   3.289  -1.488  1.00  0.00    -0.157 OA
ATOM      6  H3  UNL     1      -0.682   3.804  -0.464  1.00  0.00     0.196 HD
HETATM    7  N4  UNL     1       1.767   2.289  -1.568  1.00  0.00    -0.241 N 
ATOM      8  H4  UNL     1       2.593   2.197  -2.159  1.00  0.00     0.196 HD
BRANCH   3   9
HETATM    9  C10 UNL     1      -0.791   1.419   0.910  1.00  0.00     0.269 C 
BRANCH   9  10
HETATM   10  N2  UNL     1      -1.451   0.242   1.059  1.00  0.00    -0.385 N 
ATOM     11  H2  UNL     1      -1.219  -0.254   1.919  1.00  0.00     0.156 HD
BRANCH  10  12
HETATM   12  C3  UNL     1      -2.366  -0.405   0.278  1.00  0.00     0.109 C 
BRANCH  12  13
HETATM   13  C2  UNL     1      -1.783  -0.972  -0.999  1.00  0.00     0.136 C 
HETATM   14  C1  UNL     1      -1.076  -2.279  -0.560  1.00  0.00     0.041 C 
BRANCH  13  15
HETATM   15  O1  UNL     1      -2.912  -1.507  -1.726  1.00  0.00    -0.394 OA
ATOM     16  H1  UNL     1      -3.345  -0.706  -1.995  1.00  0.00     0.210 HD
ENDBRANCH  13  15
ENDBRANCH  12  13
BRANCH  12  17
HETATM   17  C4  UNL     1      -3.685   0.241  -0.078  1.00  0.00     0.046 C 
BRANCH  17  18
HETATM   18  C5  UNL     1      -4.374   0.814   1.124  1.00  0.00     0.119 C 
BRANCH  18  19
HETATM   19  N1  UNL     1      -5.653   1.403   0.878  1.00  0.00    -0.392 N 
ATOM     20  H1  UNL     1      -5.783   2.411   0.961  1.00  0.00     0.156 HD
BRANCH  19  21
HETATM   21  C6  UNL     1      -6.730   0.570   0.520  1.00  0.00     0.127 C 
HETATM   22  C7  UNL     1      -7.555   1.186  -0.618  1.00  0.00     0.060 C 
HETATM   23  C8  UNL     1      -8.790   0.573   0.072  1.00  0.00     0.010 C 
HETATM   24  C9  UNL     1      -7.990   0.688   1.374  1.00  0.00     0.060 C 
BRANCH  21  25
HETATM   25  O2  UNL     1      -6.487  -0.762   0.194  1.00  0.00    -0.371 OA
ATOM     26  H2  UNL     1      -7.214  -1.324  -0.048  1.00  0.00     0.212 HD
ENDBRANCH  21  25
ENDBRANCH  19  21
ENDBRANCH  18  19
ENDBRANCH  17  18
ENDBRANCH  12  17
ENDBRANCH  10  12
ENDBRANCH   9  10
BRANCH   9  27
HETATM   27  O3  UNL     1      -0.003   1.565   2.153  1.00  0.00    -0.371 OA
ATOM     28  H3  UNL     1       0.459   2.389   2.049  1.00  0.00     0.212 HD
ENDBRANCH   9  27
ENDBRANCH   3   9
ENDBRANCH   1   2
BRANCH   1  29
HETATM   29  C14 UNL     1       3.375   0.130  -0.156  1.00  0.00     0.128 A 
HETATM   30  N5  UNL     1       3.849  -0.793   0.694  1.00  0.00    -0.337 N 
HETATM   31  C15 UNL     1       5.148  -0.819   1.046  1.00  0.00     0.126 A 
ATOM     32  H5  UNL     1       3.212  -1.489   1.081  1.00  0.00     0.167 HD
HETATM   33  C16 UNL     1       5.613  -1.786   1.904  1.00  0.00     0.162 A 
HETATM   34  C19 UNL     1       5.983   0.158   0.491  1.00  0.00     0.223 A 
HETATM   35  N6  UNL     1       4.709  -2.758   2.436  1.00  0.00    -0.080 NA
HETATM   36  N7  UNL     1       6.909  -1.773   2.204  1.00  0.00    -0.174 N 
HETATM   37  C17 UNL     1       7.752  -0.854   1.695  1.00  0.00     0.721 A 
ATOM     38  H7  UNL     1       7.276  -2.481   2.840  1.00  0.00     0.185 HD
HETATM   39  N8  UNL     1       9.075  -0.648   1.844  1.00  0.00    -0.117 N 
HETATM   40  N11 UNL     1       7.297   0.116   0.838  1.00  0.00     0.047 N 
HETATM   41  N9  UNL     1       9.419   0.376   1.130  1.00  0.00    -0.117 N 
ATOM     42  H8  UNL     1       9.702  -1.206   2.423  1.00  0.00     0.206 HD
HETATM   43  C18 UNL     1       8.317   0.879   0.483  1.00  0.00     0.714 A 
ATOM     44  H9  UNL     1      10.365   0.752   1.059  1.00  0.00     0.206 HD
HETATM   45  N12 UNL     1       5.511   1.074  -0.350  1.00  0.00    -0.141 N 
HETATM   46  N13 UNL     1       4.195   1.041  -0.662  1.00  0.00    -0.259 N 
ATOM     47  H13 UNL     1       3.822   1.738  -1.306  1.00  0.00     0.191 HD
BRANCH  43  48
HETATM   48  N10 UNL     1       8.432   1.880  -0.258  1.00  0.00    -0.232 N 
ATOM     49 2H10 UNL     1       9.219   2.469  -0.532  1.00  0.00     0.174 HD
ATOM     50 1H10 UNL     1       7.614   2.254  -0.739  1.00  0.00     0.174 HD
ENDBRANCH  43  48
BRANCH  45  51
HETATM   51  O5  UNL     1       6.245   2.038  -0.928  1.00  0.00    -0.266 OA
ATOM     52  H5  UNL     1       5.908   2.692  -1.529  1.00  0.00     0.247 HD
ENDBRANCH  45  51
ENDBRANCH   1  29
BRANCH   1  53
HETATM   53  N14 UNL     1       1.962  -0.637  -1.839  1.00  0.00    -0.334 N 
HETATM   54  C20 UNL     1       1.436  -0.222  -2.999  1.00  0.00     0.110 A 
HETATM   55  C21 UNL     1       1.689  -1.162  -3.974  1.00  0.00     0.106 A 
HETATM   56  N15 UNL     1       2.385  -2.157  -3.370  1.00  0.00    -0.361 N 
HETATM   57  C22 UNL     1       2.538  -1.815  -2.070  1.00  0.00     0.183 A 
ATOM     58  H15 UNL     1       2.730  -3.008  -3.815  1.00  0.00     0.166 HD
ENDBRANCH   1  53
TORSDOF 16
