REMARK  5 active torsions:
REMARK  status: ('A' for Active; 'I' for Inactive)
REMARK    1  A    between atoms: C5_5  and  C6_6 
REMARK    2  A    between atoms: N3_19  and  C12_21 
REMARK    3  A    between atoms: C12_21  and  C13_22 
REMARK    4  A    between atoms: C13_22  and  O1_23 
REMARK    5  A    between atoms: O1_23  and  C14_24 
ROOT
HETATM    1  C1  UNL     1       0.285   1.482   1.610  1.00  0.00     0.045 C 
HETATM    2  C2  UNL     1      -0.580   0.323   1.384  1.00  0.00    -0.065 C 
HETATM    3  C3  UNL     1      -1.786   0.281   1.949  1.00  0.00    -0.021 C 
HETATM    4  C4  UNL     1      -2.603  -0.925   1.676  1.00  0.00     0.038 C 
HETATM    5  C5  UNL     1      -2.621  -1.295   0.219  1.00  0.00     0.051 C 
HETATM    6  C9  UNL     1      -1.358  -0.907  -0.505  1.00  0.00     0.033 C 
HETATM    7  C10 UNL     1      -1.425   0.375  -1.267  1.00  0.00     0.090 C 
HETATM    8  S1  UNL     1       0.109   0.454  -2.278  1.00  0.00    -0.094 SA
HETATM    9  C11 UNL     1       1.436  -0.014  -1.144  1.00  0.00     0.136 C 
HETATM   10  N3  UNL     1       2.606   0.384  -1.425  1.00  0.00    -0.369 N 
ATOM     11  H3  UNL     1       2.713   0.939  -2.274  1.00  0.00     0.161 HD
HETATM   12  N4  UNL     1       1.057  -0.792  -0.023  1.00  0.00    -0.362 N 
ATOM     13  H4  UNL     1       1.784  -1.353   0.421  1.00  0.00     0.162 HD
HETATM   14  C15 UNL     1      -0.245  -0.860   0.538  1.00  0.00     0.117 C 
ENDROOT
BRANCH   5  15
HETATM   15  C6  UNL     1      -3.850  -0.750  -0.395  1.00  0.00     0.074 A 
HETATM   16  N1  UNL     1      -4.669   0.164   0.120  1.00  0.00    -0.299 N 
HETATM   17  N2  UNL     1      -5.672   0.445  -0.685  1.00  0.00    -0.273 N 
ATOM     18  H1  UNL     1      -4.535   0.597   1.034  1.00  0.00     0.186 HD
HETATM   19  C7  UNL     1      -5.520  -0.309  -1.783  1.00  0.00     0.243 A 
ATOM     20  H2  UNL     1      -6.424   1.111  -0.507  1.00  0.00     0.189 HD
HETATM   21  F1  UNL     1      -6.367  -0.310  -2.866  1.00  0.00    -0.181 F 
HETATM   22  C8  UNL     1      -4.375  -1.074  -1.622  1.00  0.00     0.197 A 
HETATM   23  F2  UNL     1      -3.927  -1.957  -2.543  1.00  0.00    -0.199 F 
ENDBRANCH   5  15
BRANCH  10  24
HETATM   24  C12 UNL     1       3.800   0.126  -0.658  1.00  0.00     0.148 C 
BRANCH  24  25
HETATM   25  C13 UNL     1       4.609   1.377  -0.495  1.00  0.00     0.193 C 
BRANCH  25  26
HETATM   26  O1  UNL     1       5.732   1.138   0.233  1.00  0.00    -0.331 OA
BRANCH  26  27
HETATM   27  C14 UNL     1       6.642   0.251  -0.251  1.00  0.00     0.500 C 
HETATM   28  F3  UNL     1       7.923   0.764  -0.344  1.00  0.00    -0.185 F 
HETATM   29  F4  UNL     1       6.692  -0.827   0.640  1.00  0.00    -0.185 F 
ENDBRANCH  26  27
ENDBRANCH  25  26
ENDBRANCH  24  25
ENDBRANCH  10  24
TORSDOF 5
