REMARK  11 active torsions:
REMARK  status: ('A' for Active; 'I' for Inactive)
REMARK    1  A    between atoms: N1_2  and  C2_5 
REMARK    2  A    between atoms: C2_5  and  C3_6 
REMARK    3  A    between atoms: C3_6  and  C4_7 
REMARK    4  A    between atoms: C4_7  and  C5_8 
REMARK    5  A    between atoms: C5_8  and  C6_9 
REMARK    6  A    between atoms: C6_9  and  O1_10 
REMARK    7  A    between atoms: C20_37  and  N7_38 
REMARK    8  A    between atoms: N7_38  and  C21_40 
REMARK    9  A    between atoms: C22_42  and  C23_43 
REMARK   10  A    between atoms: C23_43  and  O4_44 
REMARK   11  A    between atoms: C24_46  and  C25_47 
ROOT
HETATM    1  C3  UNL     1      -2.047   0.505  -0.425  1.00  0.00     0.026 C 
HETATM    2  C7  UNL     1      -2.395   1.124  -1.750  1.00  0.00    -0.015 C 
HETATM    3  C8  UNL     1      -1.453   1.549  -2.728  1.00  0.00    -0.026 C 
HETATM    4  C9  UNL     1      -0.045   1.910  -2.382  1.00  0.00     0.054 C 
HETATM    5  C10 UNL     1       0.795   0.723  -2.394  1.00  0.00    -0.018 C 
HETATM    6  C11 UNL     1       1.005  -0.341  -1.478  1.00  0.00    -0.054 C 
HETATM    7  C12 UNL     1       2.369  -0.362  -0.771  1.00  0.00     0.069 C 
HETATM    8  C13 UNL     1       3.508   0.289  -1.336  1.00  0.00     0.212 C 
HETATM    9  N2  UNL     1       3.717   1.706  -1.099  1.00  0.00    -0.205 N 
ATOM     10  H2  UNL     1       4.183   2.167  -1.881  1.00  0.00     0.179 HD
HETATM   11  C14 UNL     1       3.420   2.622  -0.013  1.00  0.00     0.669 C 
HETATM   12  N3  UNL     1       3.719   3.840  -0.304  1.00  0.00    -0.235 N 
ATOM     13  H31 UNL     1       3.510   4.484   0.459  1.00  0.00     0.174 HD
ATOM     14  H32 UNL     1       4.112   3.972  -1.236  1.00  0.00     0.174 HD
HETATM   15  N4  UNL     1       2.862   2.435   1.309  1.00  0.00    -0.226 N 
ATOM     16  H4  UNL     1       2.303   3.234   1.608  1.00  0.00     0.177 HD
HETATM   17  C15 UNL     1       2.903   1.382   2.321  1.00  0.00     0.145 C 
HETATM   18  C16 UNL     1       3.086   0.077   1.518  1.00  0.00     0.032 C 
HETATM   19  C17 UNL     1       3.713  -1.040   2.205  1.00  0.00     0.131 C 
HETATM   20  N5  UNL     1       4.491  -1.819   1.207  1.00  0.00    -0.343 N 
ATOM     21  H5  UNL     1       4.677  -2.781   1.492  1.00  0.00     0.164 HD
HETATM   22  C18 UNL     1       5.035  -1.482  -0.085  1.00  0.00     0.317 C 
HETATM   23  O2  UNL     1       6.010  -2.230  -0.409  1.00  0.00    -0.247 OA
HETATM   24  N6  UNL     1       4.749  -0.505  -1.106  1.00  0.00    -0.321 N 
ATOM     25  H6  UNL     1       5.506  -0.332  -1.767  1.00  0.00     0.166 HD
HETATM   26  C19 UNL     1       1.952  -0.017   0.645  1.00  0.00     0.052 C 
HETATM   27  C20 UNL     1       0.921  -1.081   0.755  1.00  0.00     0.014 C 
HETATM   28  C22 UNL     1       0.088  -1.036  -0.566  1.00  0.00     0.068 C 
HETATM   29  C24 UNL     1      -1.360  -0.824  -0.435  1.00  0.00    -0.044 C 
ENDROOT
BRANCH   1  30
HETATM   30  C2  UNL     1      -1.521   1.587   0.433  1.00  0.00     0.249 C 
BRANCH  30  31
HETATM   31  N1  UNL     1      -2.223   2.859   0.381  1.00  0.00    -0.078 N 
HETATM   32  C1  UNL     1      -1.437   3.862   1.176  1.00  0.00     0.267 C 
ATOM     33  H12 UNL     1      -3.193   2.786   0.689  1.00  0.00     0.276 HD
ATOM     34  H11 UNL     1      -2.405   3.169  -0.574  1.00  0.00     0.276 HD
ENDBRANCH  30  31
ENDBRANCH   1  30
BRANCH   1  35
HETATM   35  C4  UNL     1      -3.463   0.422   0.163  1.00  0.00     0.022 C 
BRANCH  35  36
HETATM   36  C5  UNL     1      -3.632   0.110   1.572  1.00  0.00     0.027 C 
BRANCH  36  37
HETATM   37  C6  UNL     1      -5.126   0.034   1.972  1.00  0.00     0.164 C 
BRANCH  37  38
HETATM   38  O1  UNL     1      -5.255  -0.264   3.304  1.00  0.00    -0.401 OA
ATOM     39  H1  UNL     1      -6.172  -0.311   3.549  1.00  0.00     0.209 HD
ENDBRANCH  37  38
ENDBRANCH  36  37
ENDBRANCH  35  36
ENDBRANCH   1  35
BRANCH  29  40
HETATM   40  C25 UNL     1      -2.297  -1.882  -0.972  1.00  0.00    -0.083 C 
HETATM   41  C26 UNL     1      -2.866  -1.937  -2.304  1.00  0.00     0.043 C 
HETATM   42  C27 UNL     1      -2.381  -3.233  -0.296  1.00  0.00     0.043 C 
ENDBRANCH  29  40
BRANCH  28  43
HETATM   43  C23 UNL     1       0.266  -2.549  -0.931  1.00  0.00     0.189 C 
BRANCH  43  44
HETATM   44  O4  UNL     1      -0.013  -2.820  -2.241  1.00  0.00    -0.399 OA
ATOM     45  H4  UNL     1       0.095  -3.738  -2.462  1.00  0.00     0.209 HD
ENDBRANCH  43  44
ENDBRANCH  28  43
BRANCH  27  46
HETATM   46  N7  UNL     1       0.237  -1.331   1.918  1.00  0.00    -0.340 N 
ATOM     47  H7  UNL     1      -0.383  -0.584   2.230  1.00  0.00     0.167 HD
BRANCH  46  48
HETATM   48  C21 UNL     1       0.270  -2.483   2.749  1.00  0.00     0.353 C 
HETATM   49  O3  UNL     1       0.983  -3.480   2.505  1.00  0.00    -0.283 OA
ENDBRANCH  46  48
ENDBRANCH  27  46
TORSDOF 11
