REMARK  3 active torsions:
REMARK  status: ('A' for Active; 'I' for Inactive)
REMARK    1  A    between atoms: C2_2  and  N1_3 
REMARK    2  A    between atoms: C2_2  and  C3_8 
REMARK    3  A    between atoms: C4_9  and  C5_10 
ROOT
HETATM    1  C3  UNL     1       1.269  -0.443  -0.759  1.00  0.00     0.024 C 
HETATM    2  C4  UNL     1       0.628  -0.057   0.330  1.00  0.00    -0.018 C 
ENDROOT
BRANCH   2   3
HETATM    3  C5  UNL     1      -0.757  -0.494   0.645  1.00  0.00    -0.021 C 
HETATM    4  C6  UNL     1      -0.693  -1.787   1.406  1.00  0.00     0.020 C 
HETATM    5  C7  UNL     1      -1.452   0.567   1.523  1.00  0.00     0.039 C 
HETATM    6  C8  UNL     1      -2.583   0.924   0.592  1.00  0.00     0.039 C 
HETATM    7 CL2  UNL     1      -3.736   2.080   1.022  1.00  0.00    -0.119 Cl
HETATM    8  C9  UNL     1      -3.049  -0.470   0.147  1.00  0.00     0.031 C 
HETATM    9  C11 UNL     1      -1.909   0.984  -0.769  1.00  0.00     0.031 C 
HETATM   10  C10 UNL     1      -1.669  -0.510  -0.520  1.00  0.00     0.001 C 
ENDBRANCH   2   3
BRANCH   1  11
HETATM   11  C2  UNL     1       2.649   0.004  -1.056  1.00  0.00     0.212 C 
HETATM   12  C1  UNL     1       2.901   1.430  -0.595  1.00  0.00     0.068 C 
HETATM   13 CL1  UNL     1       3.005  -0.171  -2.785  1.00  0.00    -0.084 Cl
BRANCH  11  14
HETATM   14  N1  UNL     1       3.558  -0.859  -0.290  1.00  0.00    -0.054 N 
ATOM     15  H13 UNL     1       4.536  -0.579  -0.366  1.00  0.00     0.277 HD
ATOM     16  H12 UNL     1       3.468  -0.742   0.719  1.00  0.00     0.277 HD
ATOM     17  H11 UNL     1       3.389  -1.816  -0.599  1.00  0.00     0.277 HD
ENDBRANCH  11  14
ENDBRANCH   1  11
TORSDOF 3
