REMARK  5 active torsions:
REMARK  status: ('A' for Active; 'I' for Inactive)
REMARK    1  A    between atoms: C2_2  and  C3_3 
REMARK    2  A    between atoms: C3_3  and  C4_4 
REMARK    3  A    between atoms: C4_4  and  C5_5 
REMARK    4  A    between atoms: C8_8  and  O1_9 
REMARK    5  A    between atoms: C11_13  and  O2_14 
ROOT
HETATM    1  C5  UNL     1       1.924  -0.295  -0.049  1.00  0.00    -0.013 A 
HETATM    2  C6  UNL     1       1.479   0.882  -0.599  1.00  0.00    -0.019 A 
HETATM    3  C7  UNL     1       2.450   1.959  -0.940  1.00  0.00     0.052 C 
HETATM    4  C8  UNL     1       0.127   1.134  -0.880  1.00  0.00     0.082 A 
HETATM    5  C9  UNL     1      -0.835   0.190  -0.610  1.00  0.00     0.024 A 
HETATM    6  C10 UNL     1      -0.381  -0.992  -0.060  1.00  0.00     0.113 A 
HETATM    7  C11 UNL     1       0.965  -1.244   0.221  1.00  0.00     0.106 A 
HETATM    8  O3  UNL     1      -1.240  -2.066   0.265  1.00  0.00    -0.337 OA
HETATM    9  C12 UNL     1      -2.430  -2.068  -0.538  1.00  0.00     0.066 C 
HETATM   10  C13 UNL     1      -2.129  -2.408  -1.940  1.00  0.00     0.046 C 
HETATM   11  C14 UNL     1      -3.347  -3.108   0.058  1.00  0.00     0.046 C 
HETATM   12  C15 UNL     1      -3.047  -0.726  -0.273  1.00  0.00     0.040 C 
HETATM   13  C16 UNL     1      -3.183  -0.626   1.219  1.00  0.00     0.036 C 
HETATM   14  C17 UNL     1      -2.607   0.576   1.835  1.00  0.00    -0.021 C 
HETATM   15  C18 UNL     1      -2.445   1.708   1.149  1.00  0.00    -0.048 C 
HETATM   16  C19 UNL     1      -1.879   2.954   1.684  1.00  0.00     0.046 C 
HETATM   17  C20 UNL     1      -2.896   1.641  -0.253  1.00  0.00     0.148 C 
HETATM   18 CL1  UNL     1      -4.685   1.240  -0.123  1.00  0.00    -0.095 Cl
HETATM   19 CL2  UNL     1      -2.888   3.141  -1.132  1.00  0.00    -0.095 Cl
HETATM   20  C21 UNL     1      -2.270   0.444  -0.884  1.00  0.00     0.035 C 
HETATM   21  C22 UNL     1      -2.567   0.528  -2.374  1.00  0.00     0.025 C 
ENDROOT
BRANCH   1  22
HETATM   22  C4  UNL     1       3.358  -0.533   0.257  1.00  0.00     0.042 C 
BRANCH  22  23
HETATM   23  C3  UNL     1       3.824   0.115   1.528  1.00  0.00     0.004 C 
BRANCH  23  24
HETATM   24  C2  UNL     1       5.293  -0.215   1.705  1.00  0.00    -0.004 C 
HETATM   25  C1  UNL     1       6.135   0.283   0.575  1.00  0.00     0.005 C 
ENDBRANCH  23  24
ENDBRANCH  22  23
ENDBRANCH   1  22
BRANCH   7  26
HETATM   26  O2  UNL     1       1.355  -2.447   0.776  1.00  0.00    -0.357 OA
ATOM     27  H2  UNL     1       0.693  -3.102   0.962  1.00  0.00     0.217 HD
ENDBRANCH   7  26
BRANCH   4  28
HETATM   28  O1  UNL     1      -0.151   2.373  -1.439  1.00  0.00    -0.359 OA
ATOM     29  H1  UNL     1      -1.066   2.544  -1.629  1.00  0.00     0.217 HD
ENDBRANCH   4  28
TORSDOF 5
