REMARK  16 active torsions:
REMARK  status: ('A' for Active; 'I' for Inactive)
REMARK    1  A    between atoms: C2_2  and  C4_4 
REMARK    2  A    between atoms: C9_9  and  O1_10 
REMARK    3  A    between atoms: C10_12  and  O2_13 
REMARK    4  A    between atoms: C11_15  and  C12_16 
REMARK    5  A    between atoms: C12_16  and  O3_17 
REMARK    6  A    between atoms: C17_23  and  O4_24 
REMARK    7  A    between atoms: O4_24  and  C18_25 
REMARK    8  A    between atoms: C18_25  and  C19_27 
REMARK    9  A    between atoms: C19_27  and  C20_28 
REMARK   10  A    between atoms: C20_28  and  C21_29 
REMARK   11  A    between atoms: C25_33  and  O6_34 
REMARK   12  A    between atoms: O6_34  and  C26_35 
REMARK   13  A    between atoms: C26_35  and  C27_37 
REMARK   14  A    between atoms: C27_37  and  C28_39 
REMARK   15  A    between atoms: C28_39  and  O9_40 
REMARK   16  A    between atoms: C30_42  and  C31_43 
ROOT
HETATM    1  C4  UNL     1      -0.059  -1.041   2.697  1.00  0.00     0.014 C 
HETATM    2  C5  UNL     1      -1.413  -1.663   2.706  1.00  0.00     0.013 C 
HETATM    3  C6  UNL     1      -2.189  -1.691   1.407  1.00  0.00    -0.010 C 
HETATM    4  C7  UNL     1      -3.176  -2.856   1.607  1.00  0.00     0.010 C 
HETATM    5  C8  UNL     1      -1.388  -1.717   0.186  1.00  0.00     0.032 C 
HETATM    6  C9  UNL     1      -1.270  -2.990  -0.583  1.00  0.00     0.152 C 
HETATM    7  C10 UNL     1       0.169  -3.218  -1.083  1.00  0.00     0.154 C 
HETATM    8  C11 UNL     1       0.515  -2.514  -2.308  1.00  0.00     0.057 C 
HETATM    9  C13 UNL     1       0.479  -1.045  -2.357  1.00  0.00     0.010 A 
HETATM   10  C14 UNL     1       0.385  -0.553  -3.796  1.00  0.00    -0.015 A 
HETATM   11  C15 UNL     1       1.551  -0.419  -3.187  1.00  0.00    -0.015 A 
HETATM   12  C16 UNL     1      -0.010  -0.217  -1.301  1.00  0.00     0.044 C 
HETATM   13  C17 UNL     1       0.889   0.046  -0.123  1.00  0.00     0.144 C 
HETATM   14  C23 UNL     1       0.015   0.727   0.844  1.00  0.00     0.047 C 
HETATM   15  C24 UNL     1      -0.005   0.373   2.249  1.00  0.00     0.018 C 
HETATM   16  C25 UNL     1      -1.375   0.744   0.156  1.00  0.00     0.148 C 
HETATM   17  C30 UNL     1      -1.405  -0.463  -0.713  1.00  0.00     0.004 C 
ENDROOT
BRANCH  16  18
HETATM   18  O6  UNL     1      -1.504   1.927  -0.605  1.00  0.00    -0.308 OA
BRANCH  18  19
HETATM   19  C26 UNL     1      -2.344   2.978  -0.188  1.00  0.00     0.332 C 
HETATM   20  O7  UNL     1      -2.989   2.856   0.881  1.00  0.00    -0.256 OA
BRANCH  19  21
HETATM   21  C27 UNL     1      -2.478   4.196  -0.969  1.00  0.00     0.247 C 
HETATM   22  O8  UNL     1      -1.820   4.291  -2.034  1.00  0.00    -0.284 OA
BRANCH  21  23
HETATM   23  C28 UNL     1      -3.371   5.285  -0.508  1.00  0.00     0.256 C 
BRANCH  23  24
HETATM   24  O9  UNL     1      -3.334   6.348  -1.418  1.00  0.00    -0.388 OA
HETATM   25  C29 UNL     1      -4.154   7.385  -1.027  1.00  0.00     0.202 C 
ENDBRANCH  23  24
ENDBRANCH  21  23
ENDBRANCH  19  21
ENDBRANCH  18  19
ENDBRANCH  16  18
BRANCH  17  26
HETATM   26  C31 UNL     1      -2.458  -0.487  -1.716  1.00  0.00    -0.011 C 
HETATM   27  C32 UNL     1      -2.626   0.619  -2.697  1.00  0.00     0.010 C 
HETATM   28  C33 UNL     1      -3.861  -0.835  -1.269  1.00  0.00     0.010 C 
ENDBRANCH  17  26
BRANCH  13  29
HETATM   29  O4  UNL     1       1.929   0.954  -0.545  1.00  0.00    -0.315 OA
BRANCH  29  30
HETATM   30  C18 UNL     1       3.267   0.672  -0.393  1.00  0.00     0.259 C 
HETATM   31  O5  UNL     1       3.577  -0.416   0.131  1.00  0.00    -0.265 OA
BRANCH  30  32
HETATM   32  C19 UNL     1       4.269   1.649  -0.849  1.00  0.00     0.111 C 
BRANCH  32  33
HETATM   33  C20 UNL     1       5.691   1.259  -0.588  1.00  0.00     0.009 C 
BRANCH  33  34
HETATM   34  C21 UNL     1       6.050   1.082   0.847  1.00  0.00    -0.004 C 
HETATM   35  C22 UNL     1       7.507   0.691   1.018  1.00  0.00     0.005 C 
ENDBRANCH  33  34
ENDBRANCH  32  33
ENDBRANCH  30  32
ENDBRANCH  29  30
ENDBRANCH  13  29
BRANCH   1  36
HETATM   36  C2  UNL     1       0.312  -0.996   4.153  1.00  0.00    -0.089 C 
HETATM   37  C1  UNL     1       1.374  -1.662   4.565  1.00  0.00     0.014 C 
HETATM   38  C3  UNL     1      -0.489  -0.221   5.139  1.00  0.00     0.043 C 
ENDBRANCH   1  36
BRANCH   6  39
HETATM   39  O1  UNL     1      -1.323  -4.039   0.373  1.00  0.00    -0.393 OA
ATOM     40  H1  UNL     1      -1.248  -4.850  -0.117  1.00  0.00     0.210 HD
ENDBRANCH   6  39
BRANCH   7  41
HETATM   41  O2  UNL     1       0.235  -4.608  -1.373  1.00  0.00    -0.392 OA
ATOM     42  H2  UNL     1       1.122  -4.749  -1.681  1.00  0.00     0.210 HD
ENDBRANCH   7  41
BRANCH   8  43
HETATM   43  C12 UNL     1       1.913  -3.001  -2.727  1.00  0.00     0.172 C 
BRANCH  43  44
HETATM   44  O3  UNL     1       1.966  -4.348  -2.961  1.00  0.00    -0.400 OA
ATOM     45  H3  UNL     1       2.829  -4.649  -3.220  1.00  0.00     0.209 HD
ENDBRANCH  43  44
ENDBRANCH   8  43
TORSDOF 16
