REMARK  8 active torsions:
REMARK  status: ('A' for Active; 'I' for Inactive)
REMARK    1  A    between atoms: C2_2  and  C4_4 
REMARK    2  A    between atoms: C4_4  and  N1_5 
REMARK    3  A    between atoms: N1_5  and  C5_7 
REMARK    4  A    between atoms: C6_10  and  N3_11 
REMARK    5  A    between atoms: C10_15  and  C12_17 
REMARK    6  A    between atoms: C13_21  and  N5_22 
REMARK    7  A    between atoms: N5_22  and  C14_24 
REMARK    8  A    between atoms: C14_24  and  C15_25 
ROOT
HETATM    1  C5  UNL     1       0.148   1.111  -0.373  1.00  0.00     0.707 A 
HETATM    2  N2  UNL     1      -1.025   0.463  -0.347  1.00  0.00    -0.021 N 
ATOM      3  H2  UNL     1      -1.888   0.988  -0.205  1.00  0.00     0.203 HD
HETATM    4  C6  UNL     1      -1.077  -0.869  -0.506  1.00  0.00     0.710 A 
HETATM    5  N4  UNL     1       0.084  -1.516  -0.691  1.00  0.00    -0.021 N 
ATOM      6  H4  UNL     1       0.064  -2.528  -0.814  1.00  0.00     0.203 HD
HETATM    7  C13 UNL     1       1.293  -0.878  -0.722  1.00  0.00     0.707 A 
HETATM    8  N6  UNL     1       1.318   0.435  -0.563  1.00  0.00    -0.022 N 
ATOM      9  H6  UNL     1       2.205   0.938  -0.582  1.00  0.00     0.203 HD
ENDROOT
BRANCH   4  10
HETATM   10  N3  UNL     1      -2.307  -1.582  -0.482  1.00  0.00    -0.206 N 
HETATM   11  C7  UNL     1      -3.234  -1.931  -1.541  1.00  0.00     0.149 C 
HETATM   12  C8  UNL     1      -4.198  -2.401  -0.455  1.00  0.00     0.030 C 
HETATM   13  C9  UNL     1      -5.405  -1.525  -0.305  1.00  0.00     0.014 C 
HETATM   14  C10 UNL     1      -3.108  -2.225   0.546  1.00  0.00     0.063 C 
HETATM   15  C11 UNL     1      -3.360  -1.273   1.673  1.00  0.00     0.041 C 
BRANCH  14  16
HETATM   16  C12 UNL     1      -2.417  -3.475   1.021  1.00  0.00     0.146 C 
HETATM   17 CL1  UNL     1      -2.192  -4.608  -0.314  1.00  0.00    -0.128 Cl
ENDBRANCH  14  16
ENDBRANCH   4  10
BRANCH   1  18
HETATM   18  N1  UNL     1       0.255   2.380  -0.227  1.00  0.00    -0.225 N 
ATOM     19  H1  UNL     1       1.173   2.823  -0.257  1.00  0.00     0.177 HD
BRANCH  18  20
HETATM   20  C4  UNL     1      -0.926   3.177  -0.021  1.00  0.00     0.142 C 
BRANCH  20  21
HETATM   21  C2  UNL     1      -0.520   4.578   0.436  1.00  0.00    -0.004 C 
HETATM   22  C1  UNL     1       0.344   5.211  -0.628  1.00  0.00     0.011 C 
HETATM   23  C3  UNL     1      -1.804   5.383   0.517  1.00  0.00     0.011 C 
ENDBRANCH  20  21
ENDBRANCH  18  20
ENDBRANCH   1  18
BRANCH   7  24
HETATM   24  N5  UNL     1       2.297  -1.624  -0.905  1.00  0.00    -0.223 N 
ATOM     25  H5  UNL     1       2.164  -2.629  -1.017  1.00  0.00     0.177 HD
BRANCH  24  26
HETATM   26  C14 UNL     1       3.626  -1.073  -0.958  1.00  0.00     0.170 C 
BRANCH  26  27
HETATM   27  C15 UNL     1       4.118  -0.938   0.475  1.00  0.00     0.139 C 
HETATM   28  C16 UNL     1       5.553  -0.531   0.488  1.00  0.00     0.035 C 
HETATM   29  C17 UNL     1       6.256  -1.860   0.193  1.00  0.00     0.029 C 
HETATM   30  C18 UNL     1       5.215  -2.888   0.528  1.00  0.00     0.168 C 
HETATM   31  O1  UNL     1       4.102  -2.240   1.007  1.00  0.00    -0.384 OA
ENDBRANCH  26  27
ENDBRANCH  24  26
ENDBRANCH   7  24
TORSDOF 8
