REMARK  8 active torsions:
REMARK  status: ('A' for Active; 'I' for Inactive)
REMARK    1  A    between atoms: N1_1  and  C1_4 
REMARK    2  A    between atoms: C2_7  and  C3_8 
REMARK    3  A    between atoms: C3_8  and  N3_9 
REMARK    4  A    between atoms: N5_15  and  C4_16 
REMARK    5  A    between atoms: C5_17  and  O1_18 
REMARK    6  A    between atoms: C7_21  and  C8_22 
REMARK    7  A    between atoms: C8_22  and  N6_23 
REMARK    8  A    between atoms: N6_23  and  N7_24 
ROOT
HETATM    1  C1  UNL     1       0.830   0.787  -0.586  1.00  0.00     0.694 A 
HETATM    2  N2  UNL     1       2.169   1.117  -0.242  1.00  0.00    -0.176 N 
ATOM      3  H2  UNL     1       2.629   2.016  -0.388  1.00  0.00     0.185 HD
HETATM    4  C2  UNL     1       2.710   0.029   0.307  1.00  0.00     0.138 A 
HETATM    5  N4  UNL     1       1.715  -0.921   0.313  1.00  0.00    -0.270 N 
ATOM      6  H4  UNL     1       1.784  -1.862   0.699  1.00  0.00     0.189 HD
HETATM    7  N5  UNL     1       0.675  -0.405  -0.260  1.00  0.00    -0.115 N 
ENDROOT
BRANCH   7   8
HETATM    8  C4  UNL     1      -0.493  -1.157  -0.570  1.00  0.00     0.160 C 
HETATM    9  C5  UNL     1      -1.062  -2.229   0.313  1.00  0.00     0.144 C 
HETATM   10  C6  UNL     1      -2.420  -1.825  -0.189  1.00  0.00     0.042 C 
HETATM   11  C7  UNL     1      -1.838  -0.405  -0.438  1.00  0.00     0.032 C 
BRANCH   9  12
HETATM   12  O1  UNL     1      -0.705  -3.538   0.040  1.00  0.00    -0.393 OA
ATOM     13  H1  UNL     1      -1.065  -4.217   0.599  1.00  0.00     0.210 HD
ENDBRANCH   9  12
BRANCH  11  14
HETATM   14  C8  UNL     1      -2.003   0.405   0.778  1.00  0.00     0.141 C 
BRANCH  14  15
HETATM   15  N6  UNL     1      -3.362   0.965   0.655  1.00  0.00    -0.148 NA
BRANCH  15  16
HETATM   16  N7  UNL     1      -3.211   2.113  -0.149  1.00  0.00    -0.348 N 
ATOM     17  H72 UNL     1      -2.343   2.467  -0.551  1.00  0.00     0.172 HD
ATOM     18  H71 UNL     1      -4.151   2.500  -0.234  1.00  0.00     0.172 HD
ENDBRANCH  15  16
ENDBRANCH  14  15
ENDBRANCH  11  14
ENDBRANCH   7   8
BRANCH   1  19
HETATM   19  N1  UNL     1       0.142   1.698  -1.324  1.00  0.00    -0.233 N 
ATOM     20  H12 UNL     1       0.269   2.674  -1.591  1.00  0.00     0.174 HD
ATOM     21  H11 UNL     1      -0.819   1.461  -1.571  1.00  0.00     0.174 HD
ENDBRANCH   1  19
BRANCH   4  22
HETATM   22  C3  UNL     1       4.176  -0.106   0.649  1.00  0.00     0.307 C 
BRANCH  22  23
HETATM   23  N3  UNL     1       4.876   1.101   0.441  1.00  0.00    -0.073 N 
ATOM     24  H33 UNL     1       4.747   1.446  -0.510  1.00  0.00     0.274 HD
ATOM     25  H32 UNL     1       4.445   1.873   0.951  1.00  0.00     0.274 HD
ATOM     26  H31 UNL     1       5.865   1.010   0.672  1.00  0.00     0.274 HD
ENDBRANCH  22  23
ENDBRANCH   4  22
TORSDOF 8
