REMARK  4 active torsions:
REMARK  status: ('A' for Active; 'I' for Inactive)
REMARK    1  A    between atoms: C1_4  and  C2_6 
REMARK    2  A    between atoms: C3_9  and  C4_10 
REMARK    3  A    between atoms: C4_10  and  N4_11 
REMARK    4  A    between atoms: N4_11  and  C5_14 
ROOT
HETATM    1  C2  UNL     1       2.950  -0.585  -0.189  1.00  0.00     0.212 A 
HETATM    2  N3  UNL     1       1.970   0.104   0.417  1.00  0.00    -0.319 N 
ATOM      3  H3  UNL     1       2.061   1.041   0.809  1.00  0.00     0.169 HD
HETATM    4  C3  UNL     1       0.853  -0.637   0.424  1.00  0.00     0.130 A 
HETATM    5  N8  UNL     1       1.176  -1.789  -0.190  1.00  0.00    -0.245 N 
ATOM      6  H8  UNL     1       0.548  -2.576  -0.353  1.00  0.00     0.196 HD
HETATM    7  O1  UNL     1       2.424  -1.726  -0.540  1.00  0.00    -0.215 OA
ENDROOT
BRANCH   4   8
HETATM    8  C4  UNL     1      -0.488  -0.265   1.000  1.00  0.00     0.312 C 
BRANCH   8   9
HETATM    9  N4  UNL     1      -1.248   0.368  -0.029  1.00  0.00    -0.048 N 
ATOM     10  H42 UNL     1      -0.729   1.154  -0.419  1.00  0.00     0.279 HD
ATOM     11  H41 UNL     1      -1.301  -0.234  -0.851  1.00  0.00     0.279 HD
BRANCH   9  12
HETATM   12  C5  UNL     1      -2.560   0.786   0.365  1.00  0.00     0.311 C 
HETATM   13  C6  UNL     1      -3.473  -0.309   0.776  1.00  0.00     0.183 C 
HETATM   14  N5  UNL     1      -3.999  -0.801  -0.455  1.00  0.00    -0.127 NA
HETATM   15  N6  UNL     1      -3.520   0.015  -1.476  1.00  0.00    -0.038 NA
HETATM   16  N7  UNL     1      -3.225   1.253  -0.851  1.00  0.00    -0.095 NA
ENDBRANCH   9  12
ENDBRANCH   8   9
ENDBRANCH   4   8
BRANCH   1  17
HETATM   17  C1  UNL     1       4.329  -0.126  -0.402  1.00  0.00     0.163 C 
HETATM   18  N1  UNL     1       5.135  -0.923  -1.003  1.00  0.00    -0.384 N 
ATOM     19  H12 UNL     1       6.093  -0.604  -1.151  1.00  0.00     0.157 HD
ATOM     20  H11 UNL     1       4.844  -1.845  -1.327  1.00  0.00     0.157 HD
HETATM   21  N2  UNL     1       4.732   1.150   0.046  1.00  0.00    -0.079 NA
ENDBRANCH   1  17
TORSDOF 4
