REMARK  8 active torsions:
REMARK  status: ('A' for Active; 'I' for Inactive)
REMARK    1  A    between atoms: N1_2  and  N2_3 
REMARK    2  A    between atoms: N1_2  and  C2_6 
REMARK    3  A    between atoms: C2_6  and  C3_7 
REMARK    4  A    between atoms: C3_7  and  O1_8 
REMARK    5  A    between atoms: O1_8  and  C4_9 
REMARK    6  A    between atoms: C4_9  and  C5_10 
REMARK    7  A    between atoms: C6_13  and  N4_14 
REMARK    8  A    between atoms: C7_19  and  N6_20 
ROOT
HETATM    1  C5  UNL     1       1.999  -0.201   0.121  1.00  0.00     0.137 A 
HETATM    2  N3  UNL     1       3.203  -0.803   0.387  1.00  0.00    -0.178 N 
ATOM      3  H3  UNL     1       3.211  -1.788   0.651  1.00  0.00     0.185 HD
HETATM    4  C6  UNL     1       4.366  -0.148   0.313  1.00  0.00     0.691 A 
HETATM    5  N5  UNL     1       4.365   1.164  -0.036  1.00  0.00    -0.023 N 
ATOM      6  H5  UNL     1       5.239   1.686  -0.099  1.00  0.00     0.203 HD
HETATM    7  C7  UNL     1       3.187   1.764  -0.297  1.00  0.00     0.691 A 
HETATM    8  N7  UNL     1       2.013   1.086  -0.220  1.00  0.00    -0.178 N 
ATOM      9  H7  UNL     1       1.136   1.566  -0.425  1.00  0.00     0.185 HD
ENDROOT
BRANCH   1  10
HETATM   10  C4  UNL     1       0.832  -1.060   0.262  1.00  0.00     0.245 C 
BRANCH  10  11
HETATM   11  O1  UNL     1      -0.384  -0.499  -0.149  1.00  0.00    -0.383 OA
BRANCH  11  12
HETATM   12  C3  UNL     1      -1.335  -1.473   0.170  1.00  0.00     0.184 C 
BRANCH  12  13
HETATM   13  C2  UNL     1      -2.742  -1.154  -0.163  1.00  0.00     0.138 C 
BRANCH  13  14
HETATM   14  N1  UNL     1      -3.242   0.051   0.482  1.00  0.00    -0.240 NA
HETATM   15  C1  UNL     1      -4.687   0.173   0.290  1.00  0.00     0.135 C 
BRANCH  14  16
HETATM   16  N2  UNL     1      -2.610   1.108  -0.256  1.00  0.00    -0.364 NA
ATOM     17  H22 UNL     1      -2.960   1.953   0.196  1.00  0.00     0.171 HD
ATOM     18  H21 UNL     1      -1.602   1.023  -0.122  1.00  0.00     0.171 HD
ENDBRANCH  14  16
ENDBRANCH  13  14
ENDBRANCH  12  13
ENDBRANCH  11  12
ENDBRANCH  10  11
ENDBRANCH   1  10
BRANCH   4  19
HETATM   19  N4  UNL     1       5.501  -0.710   0.558  1.00  0.00    -0.234 N 
ATOM     20  H42 UNL     1       5.502  -1.696   0.820  1.00  0.00     0.174 HD
ATOM     21  H41 UNL     1       6.388  -0.210   0.502  1.00  0.00     0.174 HD
ENDBRANCH   4  19
BRANCH   7  22
HETATM   22  N6  UNL     1       3.174   3.011  -0.616  1.00  0.00    -0.234 N 
ATOM     23  H62 UNL     1       4.056   3.520  -0.674  1.00  0.00     0.174 HD
ATOM     24  H61 UNL     1       2.282   3.465  -0.814  1.00  0.00     0.174 HD
ENDBRANCH   7  22
TORSDOF 8
