REMARK  18 active torsions:
REMARK  status: ('A' for Active; 'I' for Inactive)
REMARK       I    between atoms: C1_4  and  N3_6 
REMARK    1  A    between atoms: N3_6  and  C2_8 
REMARK    2  A    between atoms: C2_8  and  O1_9 
REMARK    3  A    between atoms: C2_8  and  N4_11 
REMARK    4  A    between atoms: N4_11  and  C3_12 
REMARK    5  A    between atoms: C3_12  and  C4_13 
REMARK    6  A    between atoms: C5_14  and  O2_15 
REMARK    7  A    between atoms: C7_18  and  N5_19 
REMARK       I    between atoms: N5_19  and  C8_21 
REMARK    8  A    between atoms: C8_21  and  C9_23 
REMARK    9  A    between atoms: C9_23  and  N6_24 
REMARK   10  A    between atoms: C10_28  and  C11_29 
REMARK   11  A    between atoms: C11_29  and  C12_30 
REMARK   12  A    between atoms: C12_30  and  O4_31 
REMARK   13  A    between atoms: C12_30  and  C13_33 
REMARK   14  A    between atoms: C13_33  and  N9_34 
REMARK   15  A    between atoms: C15_39  and  N12_40 
REMARK   16  A    between atoms: C16_45  and  N14_46 
REMARK   17  A    between atoms: C18_54  and  O5_55 
REMARK   18  A    between atoms: C19_57  and  O6_58 
ROOT
HETATM    1  N6  UNL     1      -1.581   1.037   1.607  1.00  0.00    -0.208 N 
HETATM    2  N7  UNL     1      -1.617  -0.290   1.576  1.00  0.00    -0.003 NA
HETATM    3  N8  UNL     1      -2.554  -0.630   0.707  1.00  0.00    -0.270 N 
ATOM      4  H8  UNL     1      -2.810  -1.589   0.471  1.00  0.00     0.185 HD
HETATM    5  C10 UNL     1      -3.121   0.468   0.180  1.00  0.00     0.112 A 
HETATM    6  N16 UNL     1      -2.483   1.502   0.769  1.00  0.00    -0.272 N 
ATOM      7  H16 UNL     1      -2.671   2.489   0.592  1.00  0.00     0.189 HD
ENDROOT
BRANCH   1   8
HETATM    8  C9  UNL     1      -0.697   1.815   2.425  1.00  0.00     0.270 C 
BRANCH   8   9
HETATM    9  C8  UNL     1       0.575   2.075   1.646  1.00  0.00     0.243 C 
HETATM   10  N5  UNL     1       1.581   1.109   1.731  1.00  0.00    -0.323 N 
ATOM     11  H5  UNL     1       1.389   0.293   2.312  1.00  0.00     0.169 HD
HETATM   12  O3  UNL     1       0.636   3.126   0.986  1.00  0.00    -0.271 OA
BRANCH  10  13
HETATM   13  C7  UNL     1       2.836   1.153   1.091  1.00  0.00     0.073 A 
HETATM   14  C6  UNL     1       3.257   2.181   0.287  1.00  0.00     0.070 A 
HETATM   15  C5  UNL     1       4.530   2.136  -0.306  1.00  0.00     0.083 A 
HETATM   16  C4  UNL     1       5.391   1.094  -0.118  1.00  0.00     0.061 A 
HETATM   17  C19 UNL     1       4.973   0.059   0.689  1.00  0.00     0.116 A 
HETATM   18  C18 UNL     1       3.733   0.079   1.281  1.00  0.00     0.127 A 
BRANCH  15  19
HETATM   19  O2  UNL     1       4.928   3.190  -1.114  1.00  0.00    -0.360 OA
ATOM     20  H2  UNL     1       4.329   3.915  -1.245  1.00  0.00     0.217 HD
ENDBRANCH  15  19
BRANCH  16  21
HETATM   21  C3  UNL     1       6.726   1.089  -0.763  1.00  0.00     0.197 C 
BRANCH  21  22
HETATM   22  N4  UNL     1       7.561   0.248  -0.677  1.00  0.00    -0.408 NA
BRANCH  22  23
HETATM   23  C2  UNL     1       8.489  -0.706  -0.572  1.00  0.00     0.410 C 
BRANCH  23  24
HETATM   24  N3  UNL     1       9.542  -0.625  -1.601  1.00  0.00    -0.311 N 
HETATM   25  C1  UNL     1      10.566  -1.608  -1.655  1.00  0.00     0.185 C 
HETATM   26  N1  UNL     1      11.392  -1.700  -2.625  1.00  0.00    -0.374 N 
HETATM   27  N2  UNL     1      10.671  -2.528  -0.578  1.00  0.00    -0.064 NA
ATOM     28  H12 UNL     1      12.127  -2.406  -2.664  1.00  0.00     0.158 HD
ATOM     29  H11 UNL     1      11.317  -1.039  -3.398  1.00  0.00     0.158 HD
ATOM     30  H3  UNL     1       9.535   0.139  -2.276  1.00  0.00     0.167 HD
ENDBRANCH  23  24
BRANCH  23  31
HETATM   31  O1  UNL     1       9.150  -0.638   0.684  1.00  0.00    -0.349 OA
ATOM     32  H1  UNL     1       8.472  -0.690   1.347  1.00  0.00     0.215 HD
ENDBRANCH  23  31
ENDBRANCH  22  23
ENDBRANCH  21  22
ENDBRANCH  16  21
BRANCH  17  33
HETATM   33  O6  UNL     1       5.800  -1.025   0.917  1.00  0.00    -0.357 OA
ATOM     34  H6  UNL     1       5.512  -1.739   1.474  1.00  0.00     0.217 HD
ENDBRANCH  17  33
BRANCH  18  35
HETATM   35  O5  UNL     1       3.324  -0.953   2.081  1.00  0.00    -0.356 OA
ATOM     36  H5  UNL     1       3.927  -1.676   2.209  1.00  0.00     0.218 HD
ENDBRANCH  18  35
ENDBRANCH  10  13
ENDBRANCH   8   9
ENDBRANCH   1   8
BRANCH   5  37
HETATM   37  C11 UNL     1      -4.200   0.606  -0.816  1.00  0.00     0.112 C 
BRANCH  37  38
HETATM   38  C12 UNL     1      -4.698  -0.736  -1.231  1.00  0.00     0.144 C 
BRANCH  38  39
HETATM   39  O4  UNL     1      -3.715  -1.534  -1.803  1.00  0.00    -0.394 OA
ATOM     40  H4  UNL     1      -4.032  -2.389  -2.068  1.00  0.00     0.210 HD
ENDBRANCH  38  39
BRANCH  38  41
HETATM   41  C13 UNL     1      -5.479  -1.481  -0.177  1.00  0.00     0.180 C 
BRANCH  41  42
HETATM   42  N9  UNL     1      -6.665  -0.777   0.265  1.00  0.00    -0.173 N 
HETATM   43  C14 UNL     1      -6.715   0.089   1.306  1.00  0.00     0.219 A 
HETATM   44  N10 UNL     1      -7.977   0.534   1.414  1.00  0.00    -0.260 N 
HETATM   45  N11 UNL     1      -8.747  -0.014   0.479  1.00  0.00     0.092 N 
ATOM     46  H10 UNL     1      -8.300   1.200   2.116  1.00  0.00     0.189 HD
HETATM   47  C15 UNL     1     -10.049   0.102   0.172  1.00  0.00     0.727 A 
HETATM   48  C17 UNL     1      -7.919  -0.822  -0.223  1.00  0.00     0.736 A 
HETATM   49  N13 UNL     1     -10.525  -0.608  -0.859  1.00  0.00    -0.020 N 
HETATM   50  C16 UNL     1      -9.720  -1.419  -1.573  1.00  0.00     0.705 A 
ATOM     51  H13 UNL     1     -11.512  -0.534  -1.107  1.00  0.00     0.203 HD
HETATM   52  N15 UNL     1      -8.419  -1.528  -1.258  1.00  0.00    -0.019 N 
ATOM     53  H15 UNL     1      -7.811  -2.143  -1.800  1.00  0.00     0.203 HD
BRANCH  47  54
HETATM   54  N12 UNL     1     -10.819   0.876   0.852  1.00  0.00    -0.232 N 
ATOM     55 2H12 UNL     1     -10.456   1.417   1.637  1.00  0.00     0.174 HD
ATOM     56 1H12 UNL     1     -11.808   0.964   0.619  1.00  0.00     0.174 HD
ENDBRANCH  47  54
BRANCH  50  57
HETATM   57  N14 UNL     1     -10.230  -2.098  -2.577  1.00  0.00    -0.234 N 
ATOM     58 2H14 UNL     1     -11.218  -2.015  -2.816  1.00  0.00     0.174 HD
ATOM     59 1H14 UNL     1      -9.621  -2.712  -3.117  1.00  0.00     0.174 HD
ENDBRANCH  50  57
ENDBRANCH  41  42
ENDBRANCH  38  41
ENDBRANCH  37  38
ENDBRANCH   5  37
TORSDOF 18
