REMARK  9 active torsions:
REMARK  status: ('A' for Active; 'I' for Inactive)
REMARK    1  A    between atoms: C2_2  and  C3_4 
REMARK    2  A    between atoms: C3_4  and  N1_5 
REMARK    3  A    between atoms: C3_4  and  C4_9 
REMARK    4  A    between atoms: C5_14  and  C6_15 
REMARK    5  A    between atoms: C7_16  and  O2_17 
REMARK    6  A    between atoms: C8_19  and  O3_20 
REMARK    7  A    between atoms: C10_24  and  N5_25 
REMARK       I    between atoms: N5_25  and  C11_27 
REMARK       I    between atoms: C11_27  and  N6_28 
REMARK       I    between atoms: C11_27  and  N7_32 
REMARK    8  A    between atoms: N8_36  and  C12_37 
REMARK    9  A    between atoms: C13_43  and  N11_44 
ROOT
HETATM    1  C6  UNL     1      -0.070   0.705   0.397  1.00  0.00     0.113 A 
HETATM    2  C7  UNL     1       0.081   1.934   1.081  1.00  0.00     0.131 A 
HETATM    3  C8  UNL     1      -0.959   2.780   1.300  1.00  0.00     0.129 A 
HETATM    4  C9  UNL     1      -2.213   2.382   0.813  1.00  0.00     0.126 A 
HETATM    5  N4  UNL     1      -3.261   3.322   1.077  1.00  0.00    -0.095 NA
HETATM    6  C10 UNL     1      -2.380   1.198   0.149  1.00  0.00     0.140 A 
HETATM    7  N8  UNL     1      -1.274   0.396  -0.032  1.00  0.00    -0.272 N 
ENDROOT
BRANCH   1   8
HETATM    8  C5  UNL     1       1.150  -0.085   0.184  1.00  0.00     0.154 A 
HETATM    9  N3  UNL     1       2.148   0.416  -0.594  1.00  0.00    -0.291 N 
HETATM   10  N2  UNL     1       3.268  -0.258  -0.766  1.00  0.00    -0.280 N 
ATOM     11  H3  UNL     1       2.028   1.321  -1.048  1.00  0.00     0.187 HD
HETATM   12  C4  UNL     1       3.498  -1.453  -0.202  1.00  0.00     0.180 A 
ATOM     13  H2  UNL     1       3.994   0.149  -1.356  1.00  0.00     0.189 HD
HETATM   14  O6  UNL     1       2.551  -1.950   0.548  1.00  0.00    -0.256 OA
HETATM   15  C14 UNL     1       1.404  -1.302   0.749  1.00  0.00     0.320 A 
HETATM   16  O5  UNL     1       0.574  -1.869   1.486  1.00  0.00    -0.257 OA
BRANCH  12  17
HETATM   17  C3  UNL     1       4.790  -2.186  -0.428  1.00  0.00     0.327 C 
BRANCH  17  18
HETATM   18  C2  UNL     1       5.877  -1.606   0.384  1.00  0.00     0.161 C 
HETATM   19  C1  UNL     1       7.089  -1.067  -0.279  1.00  0.00     0.093 C 
HETATM   20  O1  UNL     1       5.825  -1.546   1.611  1.00  0.00    -0.296 OA
ENDBRANCH  17  18
BRANCH  17  21
HETATM   21  N1  UNL     1       5.153  -2.218  -1.800  1.00  0.00    -0.061 N 
ATOM     22  H13 UNL     1       5.429  -1.297  -2.140  1.00  0.00     0.275 HD
ATOM     23  H12 UNL     1       6.037  -2.706  -1.946  1.00  0.00     0.275 HD
ATOM     24  H11 UNL     1       4.402  -2.619  -2.361  1.00  0.00     0.275 HD
ENDBRANCH  17  21
ENDBRANCH  12  17
ENDBRANCH   1   8
BRANCH   2  25
HETATM   25  O2  UNL     1       1.357   2.235   1.522  1.00  0.00    -0.356 OA
ATOM     26  H2  UNL     1       1.458   3.060   1.981  1.00  0.00     0.218 HD
ENDBRANCH   2  25
BRANCH   7  27
HETATM   27  C12 UNL     1      -1.468  -0.819  -0.776  1.00  0.00     0.182 A 
HETATM   28  N9  UNL     1      -0.822  -1.129  -1.942  1.00  0.00    -0.221 N 
HETATM   29  O4  UNL     1      -1.249  -2.281  -2.328  1.00  0.00    -0.153 OA
ATOM     30  H9  UNL     1      -0.129  -0.553  -2.419  1.00  0.00     0.198 HD
HETATM   31  N10 UNL     1      -2.116  -2.759  -1.524  1.00  0.00    -0.222 N 
HETATM   32  C13 UNL     1      -2.292  -1.881  -0.531  1.00  0.00     0.168 A 
ATOM     33  H10 UNL     1      -2.593  -3.656  -1.622  1.00  0.00     0.198 HD
BRANCH  32  34
HETATM   34  N11 UNL     1      -3.093  -2.063   0.456  1.00  0.00    -0.381 N 
ATOM     35 2H11 UNL     1      -3.227  -1.393   1.213  1.00  0.00     0.157 HD
ATOM     36 1H11 UNL     1      -3.708  -2.856   0.639  1.00  0.00     0.157 HD
ENDBRANCH  32  34
ENDBRANCH   7  27
BRANCH   3  37
HETATM   37  O3  UNL     1      -0.816   3.981   1.968  1.00  0.00    -0.356 OA
ATOM     38  H3  UNL     1      -1.543   4.573   2.121  1.00  0.00     0.218 HD
ENDBRANCH   3  37
BRANCH   6  39
HETATM   39  N5  UNL     1      -3.495   0.842  -0.297  1.00  0.00    -0.325 N 
HETATM   40  C11 UNL     1      -4.790   1.343  -0.331  1.00  0.00     0.481 C 
HETATM   41  N6  UNL     1      -5.611   0.600  -1.324  1.00  0.00    -0.033 N 
HETATM   42  N7  UNL     1      -5.501   1.080   0.937  1.00  0.00    -0.033 N 
ATOM     43  H63 UNL     1      -5.180   0.601  -2.248  1.00  0.00     0.278 HD
ATOM     44  H62 UNL     1      -5.598  -0.405  -1.151  1.00  0.00     0.278 HD
ATOM     45  H61 UNL     1      -6.562   0.968  -1.349  1.00  0.00     0.278 HD
ATOM     46  H73 UNL     1      -5.490   0.088   1.174  1.00  0.00     0.278 HD
ATOM     47  H72 UNL     1      -4.982   1.439   1.739  1.00  0.00     0.278 HD
ATOM     48  H71 UNL     1      -6.452   1.448   0.912  1.00  0.00     0.278 HD
ATOM     49  H5  UNL     1      -3.436  -0.064  -0.763  1.00  0.00     0.165 HD
ENDBRANCH   6  39
TORSDOF 9
