REMARK  3 active torsions:
REMARK  status: ('A' for Active; 'I' for Inactive)
REMARK    1  A    between atoms: N1_1  and  C1_4 
REMARK    2  A    between atoms: C2_9  and  S1_10 
REMARK    3  A    between atoms: S1_10  and  C3_11 
ROOT
HETATM    1  C1  UNL     1       4.816   0.209  -0.027  1.00  0.00     0.159 A 
HETATM    2  N2  UNL     1       4.681  -0.848   0.780  1.00  0.00    -0.279 N 
ATOM      3  H2  UNL     1       5.435  -1.121   1.410  1.00  0.00     0.189 HD
HETATM    4  N3  UNL     1       3.596  -1.506   0.747  1.00  0.00    -0.286 N 
ATOM      5  H3  UNL     1       3.474  -2.314   1.357  1.00  0.00     0.188 HD
HETATM    6  C2  UNL     1       2.622  -1.149  -0.074  1.00  0.00     0.134 A 
HETATM    7  S2  UNL     1       3.311   0.214  -0.840  1.00  0.00    -0.026 SA
ENDROOT
BRANCH   6   8
HETATM    8  S1  UNL     1       1.021  -1.950  -0.266  1.00  0.00    -0.075 SA
BRANCH   8   9
HETATM    9  C3  UNL     1      -0.095  -1.183   0.895  1.00  0.00     0.058 C 
HETATM   10  C4  UNL     1      -0.899  -0.209   0.520  1.00  0.00    -0.040 C 
HETATM   11  C5  UNL     1      -0.929   0.307  -0.876  1.00  0.00     0.037 C 
HETATM   12  C9  UNL     1      -1.852   0.466   1.455  1.00  0.00     0.199 C 
HETATM   13  C6  UNL     1      -2.299   0.700  -1.324  1.00  0.00     0.004 C 
HETATM   14  C7  UNL     1      -3.424   0.244  -0.496  1.00  0.00     0.003 C 
HETATM   15  C8  UNL     1      -3.227   0.140   0.959  1.00  0.00     0.042 C 
HETATM   16  F1  UNL     1      -1.699  -0.081   2.716  1.00  0.00    -0.245 F 
ENDBRANCH   8   9
ENDBRANCH   6   8
BRANCH   1  17
HETATM   17  N1  UNL     1       5.849   1.009  -0.140  1.00  0.00    -0.379 N 
ATOM     18  H12 UNL     1       6.746   1.006   0.345  1.00  0.00     0.158 HD
ATOM     19  H11 UNL     1       5.952   1.816  -0.756  1.00  0.00     0.158 HD
ENDBRANCH   1  17
TORSDOF 3
