REMARK  13 active torsions:
REMARK  status: ('A' for Active; 'I' for Inactive)
REMARK    1  A    between atoms: N1_1  and  C1_5 
REMARK    2  A    between atoms: C1_5  and  C2_6 
REMARK    3  A    between atoms: C2_6  and  C3_7 
REMARK    4  A    between atoms: C3_7  and  C4_8 
REMARK    5  A    between atoms: C4_8  and  S1_9 
REMARK    6  A    between atoms: S1_9  and  C5_10 
REMARK    7  A    between atoms: C5_10  and  C6_11 
REMARK    8  A    between atoms: C6_11  and  N2_13 
REMARK    9  A    between atoms: N2_13  and  C7_15 
REMARK   10  A    between atoms: C9_17  and  N3_18 
REMARK   11  A    between atoms: C10_22  and  O1_23 
REMARK   12  A    between atoms: C11_25  and  O2_26 
REMARK   13  A    between atoms: C12_28  and  O3_29 
ROOT
HETATM    1  C7  UNL     1      -2.282   0.445   0.557  1.00  0.00     0.115 C 
HETATM    2  C8  UNL     1      -2.164  -0.746  -0.298  1.00  0.00     0.063 C 
HETATM    3  C9  UNL     1      -3.242  -0.931  -1.333  1.00  0.00     0.216 C 
HETATM    4  C10 UNL     1      -4.532  -0.294  -0.850  1.00  0.00     0.179 C 
HETATM    5  C11 UNL     1      -4.241   1.212  -0.854  1.00  0.00     0.179 C 
HETATM    6  C12 UNL     1      -3.119   1.564   0.045  1.00  0.00     0.172 C 
ENDROOT
BRANCH   1   7
HETATM    7  N2  UNL     1      -0.950   0.967   0.832  1.00  0.00    -0.376 N 
ATOM      8  H2  UNL     1      -0.730   1.915   0.527  1.00  0.00     0.160 HD
BRANCH   7   9
HETATM    9  C6  UNL     1       0.049   0.232   1.497  1.00  0.00     0.083 C 
HETATM   10  S2  UNL     1      -0.158  -1.292   2.044  1.00  0.00    -0.065 SA
BRANCH   9  11
HETATM   11  C5  UNL     1       1.391   0.841   1.740  1.00  0.00     0.143 C 
BRANCH  11  12
HETATM   12  S1  UNL     1       2.122   1.275   0.148  1.00  0.00    -0.162 SA
BRANCH  12  13
HETATM   13  C4  UNL     1       2.504  -0.149  -0.860  1.00  0.00     0.074 C 
BRANCH  13  14
HETATM   14  C3  UNL     1       3.584  -1.028  -0.318  1.00  0.00     0.012 C 
BRANCH  14  15
HETATM   15  C2  UNL     1       4.857  -0.214  -0.195  1.00  0.00     0.028 C 
BRANCH  15  16
HETATM   16  C1  UNL     1       5.989  -1.083   0.356  1.00  0.00     0.229 C 
BRANCH  16  17
HETATM   17  N1  UNL     1       7.160  -0.221   0.436  1.00  0.00    -0.079 N 
ATOM     18  H13 UNL     1       7.391   0.233  -0.448  1.00  0.00     0.274 HD
ATOM     19  H12 UNL     1       7.002   0.630   0.976  1.00  0.00     0.274 HD
ATOM     20  H11 UNL     1       7.915  -0.800   0.803  1.00  0.00     0.274 HD
ENDBRANCH  16  17
ENDBRANCH  15  16
ENDBRANCH  14  15
ENDBRANCH  13  14
ENDBRANCH  12  13
ENDBRANCH  11  12
ENDBRANCH   9  11
ENDBRANCH   7   9
ENDBRANCH   1   7
BRANCH   6  21
HETATM   21  O3  UNL     1      -2.293   2.518  -0.595  1.00  0.00    -0.391 OA
ATOM     22  H3  UNL     1      -2.827   3.232  -0.922  1.00  0.00     0.210 HD
ENDBRANCH   6  21
BRANCH   3  23
HETATM   23  N3  UNL     1      -3.518  -2.354  -1.551  1.00  0.00    -0.072 N 
ATOM     24  H33 UNL     1      -2.672  -2.870  -1.792  1.00  0.00     0.274 HD
ATOM     25  H32 UNL     1      -3.747  -2.832  -0.679  1.00  0.00     0.274 HD
ATOM     26  H31 UNL     1      -4.248  -2.479  -2.252  1.00  0.00     0.274 HD
ENDBRANCH   3  23
BRANCH   5  27
HETATM   27  O2  UNL     1      -5.396   1.953  -0.662  1.00  0.00    -0.390 OA
ATOM     28  H2  UNL     1      -5.216   2.886  -0.664  1.00  0.00     0.210 HD
ENDBRANCH   5  27
BRANCH   4  29
HETATM   29  O1  UNL     1      -4.882  -0.697   0.428  1.00  0.00    -0.391 OA
ATOM     30  H1  UNL     1      -5.690  -0.298   0.730  1.00  0.00     0.210 HD
ENDBRANCH   4  29
TORSDOF 13
