REMARK  7 active torsions:
REMARK  status: ('A' for Active; 'I' for Inactive)
REMARK    1  A    between atoms: C4_5  and  C5_6 
REMARK    2  A    between atoms: C5_6  and  O1_7 
REMARK    3  A    between atoms: O1_7  and  C6_8 
REMARK       I    between atoms: C6_8  and  N2_10 
REMARK    4  A    between atoms: N2_10  and  C7_11 
REMARK    5  A    between atoms: N2_10  and  C14_22 
REMARK    6  A    between atoms: C7_11  and  C8_12 
REMARK    7  A    between atoms: C17_25  and  C18_26 
ROOT
HETATM    1  C6  UNL     1       1.028  -1.428   1.473  1.00  0.00     0.363 C 
HETATM    2  O2  UNL     1       1.525  -2.396   2.085  1.00  0.00    -0.238 OA
HETATM    3  N2  UNL     1      -0.288  -1.614   0.902  1.00  0.00    -0.323 N 
ENDROOT
BRANCH   3   4
HETATM    4  C7  UNL     1      -0.901  -2.875   1.081  1.00  0.00     0.133 C 
BRANCH   4   5
HETATM    5  C8  UNL     1      -0.615  -4.011   0.193  1.00  0.00     0.005 C 
HETATM    6  C9  UNL     1      -0.936  -3.893  -1.241  1.00  0.00     0.034 C 
HETATM    7  C10 UNL     1      -0.962  -5.256  -1.941  1.00  0.00     0.236 C 
HETATM    8  N3  UNL     1       0.041  -6.152  -1.464  1.00  0.00    -0.044 N 
HETATM    9  C11 UNL     1      -0.440  -7.101  -0.497  1.00  0.00     0.367 C 
ATOM     10  H32 UNL     1       0.494  -6.631  -2.242  1.00  0.00     0.280 HD
ATOM     11  H31 UNL     1       0.838  -5.634  -1.093  1.00  0.00     0.280 HD
HETATM   12  F1  UNL     1      -1.559  -7.764  -0.905  1.00  0.00    -0.219 F 
HETATM   13  C12 UNL     1      -0.577  -6.435   0.834  1.00  0.00     0.067 C 
HETATM   14  C13 UNL     1      -1.445  -5.201   0.727  1.00  0.00     0.011 C 
ENDBRANCH   4   5
ENDBRANCH   3   4
BRANCH   3  15
HETATM   15  C14 UNL     1      -0.902  -0.467   0.323  1.00  0.00     0.089 C 
HETATM   16  C15 UNL     1      -1.097  -0.448  -1.159  1.00  0.00     0.026 C 
HETATM   17  C16 UNL     1      -1.158   1.030  -1.592  1.00  0.00     0.011 C 
HETATM   18  C17 UNL     1      -1.789   1.861  -0.490  1.00  0.00     0.019 C 
HETATM   19  C24 UNL     1      -2.794   1.081   0.297  1.00  0.00     0.011 C 
HETATM   20  C25 UNL     1      -2.144  -0.030   1.083  1.00  0.00     0.026 C 
BRANCH  18  21
HETATM   21  C18 UNL     1      -2.500   2.983  -1.135  1.00  0.00    -0.052 A 
HETATM   22  C19 UNL     1      -2.061   4.274  -0.945  1.00  0.00     0.007 A 
HETATM   23  C20 UNL     1      -2.713   5.358  -1.539  1.00  0.00     0.002 A 
HETATM   24  C21 UNL     1      -3.820   5.148  -2.336  1.00  0.00     0.026 A 
HETATM   25  C22 UNL     1      -4.268   3.861  -2.534  1.00  0.00     0.046 A 
HETATM   26  N4  UNL     1      -5.409   3.660  -3.355  1.00  0.00    -0.102 NA
HETATM   27  C23 UNL     1      -3.605   2.789  -1.932  1.00  0.00     0.034 A 
ENDBRANCH  18  21
ENDBRANCH   3  15
BRANCH   1  28
HETATM   28  O1  UNL     1       1.729  -0.261   1.371  1.00  0.00    -0.304 OA
BRANCH  28  29
HETATM   29  C5  UNL     1       3.006  -0.100   1.934  1.00  0.00     0.185 C 
BRANCH  29  30
HETATM   30  C4  UNL     1       3.581   1.259   1.692  1.00  0.00     0.013 C 
HETATM   31  C3  UNL     1       2.767   2.386   2.247  1.00  0.00     0.037 C 
HETATM   32  C2  UNL     1       3.576   3.637   2.167  1.00  0.00     0.272 C 
HETATM   33  N1  UNL     1       4.196   3.902   0.913  1.00  0.00     0.084 N 
HETATM   34  C1  UNL     1       5.263   4.874   1.149  1.00  0.00     0.309 C 
HETATM   35  C27 UNL     1       4.780   2.784   0.245  1.00  0.00     0.272 C 
HETATM   36  C26 UNL     1       3.859   1.557   0.250  1.00  0.00     0.037 C 
ENDBRANCH  29  30
ENDBRANCH  28  29
ENDBRANCH   1  28
TORSDOF 7
