REMARK  3 active torsions:
REMARK  status: ('A' for Active; 'I' for Inactive)
REMARK    1  A    between atoms: C3_3  and  C4_4 
REMARK    2  A    between atoms: N2_9  and  N3_10 
REMARK    3  A    between atoms: C6_13  and  N4_14 
ROOT
HETATM    1  C1  UNL     1      -3.714   0.862  -1.382  1.00  0.00     0.012 C 
HETATM    2  C2  UNL     1      -3.128   0.233  -0.535  1.00  0.00    -0.110 C 
HETATM    3  C3  UNL     1      -2.401  -0.513   0.506  1.00  0.00     0.170 C 
ENDROOT
BRANCH   3   4
HETATM    4  C4  UNL     1      -0.946  -0.205   0.461  1.00  0.00     0.112 A 
HETATM    5  N1  UNL     1      -0.389   0.800   1.163  1.00  0.00    -0.295 N 
HETATM    6  C5  UNL     1       0.937   1.042   1.091  1.00  0.00     0.361 A 
ATOM      7  H1  UNL     1      -0.976   1.386   1.757  1.00  0.00     0.172 HD
HETATM    8  O1  UNL     1       1.459   1.996   1.757  1.00  0.00    -0.244 OA
HETATM    9  N2  UNL     1       1.757   0.304   0.328  1.00  0.00    -0.038 N 
HETATM   10  C6  UNL     1       1.213  -0.699  -0.374  1.00  0.00     0.702 A 
HETATM   11  N5  UNL     1      -0.128  -0.948  -0.305  1.00  0.00    -0.178 N 
ATOM     12  H5  UNL     1      -0.519  -1.717  -0.849  1.00  0.00     0.185 HD
BRANCH   9  13
HETATM   13  N3  UNL     1       3.128   0.587   0.280  1.00  0.00    -0.320 N 
ATOM     14  H32 UNL     1       3.542   1.351   0.814  1.00  0.00     0.178 HD
ATOM     15  H31 UNL     1       3.752   0.026  -0.300  1.00  0.00     0.178 HD
ENDBRANCH   9  13
BRANCH  10  16
HETATM   16  N4  UNL     1       1.973  -1.420  -1.111  1.00  0.00    -0.233 N 
ATOM     17  H42 UNL     1       2.975  -1.234  -1.163  1.00  0.00     0.174 HD
ATOM     18  H41 UNL     1       1.559  -2.184  -1.645  1.00  0.00     0.174 HD
ENDBRANCH  10  16
ENDBRANCH   3   4
TORSDOF 3
