REMARK  13 active torsions:
REMARK  status: ('A' for Active; 'I' for Inactive)
REMARK    1  A    between atoms: C2_2  and  C3_3 
REMARK    2  A    between atoms: C3_3  and  C4_4 
REMARK    3  A    between atoms: C4_4  and  C5_5 
REMARK    4  A    between atoms: C10_16  and  C11_17 
REMARK    5  A    between atoms: C11_17  and  C12_18 
REMARK    6  A    between atoms: C12_18  and  C13_19 
REMARK    7  A    between atoms: C16_23  and  O3_24 
REMARK    8  A    between atoms: C17_26  and  C18_27 
REMARK    9  A    between atoms: C21_32  and  O4_33 
REMARK   10  A    between atoms: N5_39  and  C26_40 
REMARK   11  A    between atoms: C26_40  and  C27_41 
REMARK   12  A    between atoms: C27_41  and  C28_42 
REMARK   13  A    between atoms: C28_42  and  C29_43 
ROOT
HETATM    1  C5  UNL     1       0.902   1.909  -0.759  1.00  0.00     0.177 C 
HETATM    2  N1  UNL     1       0.484   1.677  -2.120  1.00  0.00    -0.346 N 
ATOM      3  H1  UNL     1       1.208   1.533  -2.824  1.00  0.00     0.163 HD
HETATM    4  C6  UNL     1      -0.864   1.637  -2.540  1.00  0.00     0.240 C 
HETATM    5  O1  UNL     1      -1.102   1.162  -3.678  1.00  0.00    -0.271 OA
HETATM    6  C7  UNL     1      -2.022   2.112  -1.740  1.00  0.00     0.172 C 
HETATM    7  C8  UNL     1      -2.431   3.448  -2.387  1.00  0.00     0.042 C 
HETATM    8  N2  UNL     1      -3.179   1.268  -1.820  1.00  0.00    -0.346 N 
ATOM      9  H2  UNL     1      -3.680   1.250  -2.708  1.00  0.00     0.163 HD
HETATM   10  C9  UNL     1      -3.693   0.449  -0.765  1.00  0.00     0.241 C 
HETATM   11  O2  UNL     1      -4.763  -0.162  -1.027  1.00  0.00    -0.271 OA
HETATM   12  C10 UNL     1      -3.077   0.281   0.553  1.00  0.00     0.177 C 
HETATM   13  N3  UNL     1      -2.995  -1.030   1.092  1.00  0.00    -0.355 N 
HETATM   14  C15 UNL     1      -3.661  -1.265   2.396  1.00  0.00     0.152 C 
HETATM   15  C16 UNL     1      -2.345  -2.166   0.575  1.00  0.00     0.137 C 
HETATM   16  C17 UNL     1      -2.273  -2.693  -0.799  1.00  0.00     0.161 C 
HETATM   17  N4  UNL     1      -1.330  -2.117  -1.694  1.00  0.00    -0.361 N 
ATOM     18  H4  UNL     1      -1.745  -1.381  -2.266  1.00  0.00     0.162 HD
HETATM   19  C21 UNL     1       0.016  -2.307  -1.983  1.00  0.00     0.125 C 
HETATM   20  C22 UNL     1       1.248  -2.073  -1.154  1.00  0.00     0.049 C 
HETATM   21  C23 UNL     1       2.410  -1.675  -2.040  1.00  0.00     0.029 C 
HETATM   22  C24 UNL     1       1.663  -3.466  -0.617  1.00  0.00     0.029 C 
HETATM   23  C25 UNL     1       1.082  -1.099  -0.080  1.00  0.00     0.084 C 
HETATM   24  N5  UNL     1       2.095  -0.142   0.239  1.00  0.00    -0.329 N 
HETATM   25  C32 UNL     1       2.151   1.143  -0.402  1.00  0.00     0.246 C 
HETATM   26  O6  UNL     1       3.304   1.584  -0.643  1.00  0.00    -0.271 OA
ENDROOT
BRANCH  24  27
HETATM   27  C26 UNL     1       3.045  -0.445   1.286  1.00  0.00     0.131 C 
BRANCH  27  28
HETATM   28  C27 UNL     1       4.338  -1.031   0.881  1.00  0.00     0.026 C 
BRANCH  28  29
HETATM   29  C28 UNL     1       5.139  -1.231   2.183  1.00  0.00     0.060 C 
BRANCH  29  30
HETATM   30  C29 UNL     1       6.454  -1.808   1.912  1.00  0.00     0.029 A 
HETATM   31  C30 UNL     1       6.769  -3.134   1.863  1.00  0.00     0.117 A 
HETATM   32  N6  UNL     1       8.072  -3.278   1.588  1.00  0.00    -0.317 N 
HETATM   33  C31 UNL     1       8.556  -2.033   1.469  1.00  0.00     0.324 A 
ATOM     34  H6  UNL     1       8.588  -4.152   1.490  1.00  0.00     0.170 HD
HETATM   35  O5  UNL     1       9.751  -1.687   1.210  1.00  0.00    -0.247 OA
HETATM   36  N7  UNL     1       7.578  -1.129   1.664  1.00  0.00    -0.311 N 
ATOM     37  H7  UNL     1       7.676  -0.114   1.629  1.00  0.00     0.170 HD
ENDBRANCH  29  30
ENDBRANCH  28  29
ENDBRANCH  27  28
ENDBRANCH  24  27
BRANCH   1  38
HETATM   38  C4  UNL     1       1.251   3.373  -0.620  1.00  0.00     0.035 C 
BRANCH  38  39
HETATM   39  C3  UNL     1       1.691   3.757   0.756  1.00  0.00     0.002 C 
BRANCH  39  40
HETATM   40  C2  UNL     1       2.001   5.247   0.732  1.00  0.00    -0.004 C 
HETATM   41  C1  UNL     1       0.712   5.958   0.329  1.00  0.00     0.005 C 
ENDBRANCH  39  40
ENDBRANCH  38  39
ENDBRANCH   1  38
BRANCH  19  42
HETATM   42  O4  UNL     1       0.332  -2.764  -3.161  1.00  0.00    -0.349 OA
ATOM     43  H4  UNL     1       1.252  -2.894  -3.359  1.00  0.00     0.219 HD
ENDBRANCH  19  42
BRANCH  16  44
HETATM   44  C18 UNL     1      -2.148  -4.242  -0.734  1.00  0.00     0.008 C 
HETATM   45  C19 UNL     1      -2.076  -4.795  -2.111  1.00  0.00     0.012 C 
HETATM   46  C20 UNL     1      -3.403  -4.739  -0.055  1.00  0.00     0.012 C 
ENDBRANCH  16  44
BRANCH  15  47
HETATM   47  O3  UNL     1      -1.693  -2.892   1.434  1.00  0.00    -0.348 OA
ATOM     48  H3  UNL     1      -1.254  -3.659   1.085  1.00  0.00     0.219 HD
ENDBRANCH  15  47
BRANCH  12  49
HETATM   49  C11 UNL     1      -3.676   1.329   1.429  1.00  0.00     0.035 C 
BRANCH  49  50
HETATM   50  C12 UNL     1      -5.130   1.351   1.633  1.00  0.00     0.002 C 
BRANCH  50  51
HETATM   51  C13 UNL     1      -5.411   2.537   2.576  1.00  0.00    -0.004 C 
HETATM   52  C14 UNL     1      -4.901   3.766   1.852  1.00  0.00     0.005 C 
ENDBRANCH  50  51
ENDBRANCH  49  50
ENDBRANCH  12  49
TORSDOF 13
