REMARK  6 active torsions:
REMARK  status: ('A' for Active; 'I' for Inactive)
REMARK    1  A    between atoms: C3_3  and  N1_4 
REMARK       I    between atoms: N1_4  and  C4_6 
REMARK    2  A    between atoms: C4_6  and  C5_8 
REMARK    3  A    between atoms: C5_8  and  C6_9 
REMARK    4  A    between atoms: C6_9  and  N2_10 
REMARK    5  A    between atoms: C12_16  and  N3_17 
REMARK       I    between atoms: N3_17  and  C13_19 
REMARK    6  A    between atoms: C13_19  and  C14_21 
ROOT
HETATM    1  C1  UNL     1      -6.971  -2.687  -0.501  1.00  0.00     0.014 C 
HETATM    2  C2  UNL     1      -5.964  -2.571  -1.119  1.00  0.00    -0.098 C 
HETATM    3  C3  UNL     1      -4.732  -2.443  -1.858  1.00  0.00     0.216 C 
ENDROOT
BRANCH   3   4
HETATM    4  N1  UNL     1      -3.641  -1.914  -1.057  1.00  0.00    -0.350 N 
HETATM    5  C4  UNL     1      -3.736  -0.635  -0.462  1.00  0.00     0.232 C 
HETATM    6  O1  UNL     1      -4.820   0.023  -0.659  1.00  0.00    -0.272 OA
ATOM      7  H1  UNL     1      -2.797  -2.472  -0.923  1.00  0.00     0.163 HD
BRANCH   5   8
HETATM    8  C5  UNL     1      -2.682   0.009   0.372  1.00  0.00     0.076 C 
HETATM    9  C19 UNL     1      -2.533  -0.843   1.610  1.00  0.00     0.025 C 
HETATM   10  C20 UNL     1      -1.711   0.116   2.479  1.00  0.00     0.007 C 
HETATM   11  C21 UNL     1      -2.528   1.384   2.353  1.00  0.00    -0.009 C 
HETATM   12  C22 UNL     1      -1.711   2.631   2.239  1.00  0.00     0.005 C 
HETATM   13  C25 UNL     1      -3.287   1.239   1.053  1.00  0.00     0.012 C 
HETATM   14  C23 UNL     1      -2.106   3.339   0.961  1.00  0.00     0.001 C 
HETATM   15  C24 UNL     1      -3.211   2.503   0.327  1.00  0.00     0.006 C 
BRANCH   8  16
HETATM   16  C6  UNL     1      -1.448   0.342  -0.366  1.00  0.00     0.079 C 
BRANCH  16  17
HETATM   17  N2  UNL     1      -0.699  -0.639  -0.980  1.00  0.00    -0.383 N 
HETATM   18  C7  UNL     1       0.099  -1.586  -0.369  1.00  0.00     0.086 C 
HETATM   19  C8  UNL     1       0.530  -2.451  -1.586  1.00  0.00     0.027 C 
HETATM   20  C18 UNL     1       1.410  -1.070   0.189  1.00  0.00     0.050 C 
HETATM   21  C9  UNL     1       0.475  -1.506  -2.737  1.00  0.00     0.027 C 
HETATM   22  C10 UNL     1       0.094  -0.181  -2.118  1.00  0.00     0.086 C 
HETATM   23  C11 UNL     1       1.344   0.554  -1.627  1.00  0.00     0.050 C 
HETATM   24  C12 UNL     1       2.206  -0.478  -0.943  1.00  0.00     0.088 C 
BRANCH  24  25
HETATM   25  N3  UNL     1       3.421   0.064  -0.396  1.00  0.00    -0.356 N 
HETATM   26  C13 UNL     1       4.715  -0.360  -0.797  1.00  0.00     0.222 C 
HETATM   27  O2  UNL     1       4.764  -1.268  -1.689  1.00  0.00    -0.273 OA
ATOM     28  H3  UNL     1       3.349   0.790   0.317  1.00  0.00     0.162 HD
BRANCH  26  29
HETATM   29  C14 UNL     1       5.979   0.152  -0.280  1.00  0.00     0.078 C 
HETATM   30  C15 UNL     1       6.225  -0.030   1.204  1.00  0.00     0.014 C 
HETATM   31  C16 UNL     1       6.976   1.308   1.143  1.00  0.00     0.002 C 
HETATM   32  C17 UNL     1       6.029   1.659  -0.015  1.00  0.00     0.014 C 
ENDBRANCH  26  29
ENDBRANCH  24  25
ENDBRANCH  16  17
ENDBRANCH   8  16
ENDBRANCH   5   8
ENDBRANCH   3   4
TORSDOF 6
