REMARK  15 active torsions:
REMARK  status: ('A' for Active; 'I' for Inactive)
REMARK    1  A    between atoms: C2_2  and  C3_3 
REMARK    2  A    between atoms: C3_3  and  C4_4 
REMARK    3  A    between atoms: C4_4  and  C5_5 
REMARK    4  A    between atoms: C5_5  and  C6_6 
REMARK    5  A    between atoms: C6_6  and  C7_7 
REMARK    6  A    between atoms: C12_18  and  O3_19 
REMARK    7  A    between atoms: C13_21  and  C14_22 
REMARK    8  A    between atoms: C14_22  and  C15_23 
REMARK    9  A    between atoms: C15_23  and  C16_24 
REMARK   10  A    between atoms: C17_29  and  O6_30 
REMARK   11  A    between atoms: C18_32  and  C19_33 
REMARK   12  A    between atoms: C19_33  and  C20_34 
REMARK   13  A    between atoms: C21_35  and  C22_36 
REMARK   14  A    between atoms: C22_36  and  C23_37 
REMARK   15  A    between atoms: C25_41  and  N5_42 
ROOT
HETATM    1  C7  UNL     1       1.949  -1.114   0.203  1.00  0.00     0.087 C 
HETATM    2  N1  UNL     1       2.104  -0.002   1.057  1.00  0.00    -0.281 N 
ATOM      3  H1  UNL     1       2.201  -0.159   2.060  1.00  0.00     0.178 HD
HETATM    4  S1  UNL     1       2.133   1.558   0.480  1.00  0.00     0.252 S 
HETATM    5  O1  UNL     1       1.751   1.731  -0.988  1.00  0.00    -0.203 OA
HETATM    6  O2  UNL     1       3.653   1.888   0.378  1.00  0.00    -0.203 OA
HETATM    7  C8  UNL     1       1.529   2.783   1.497  1.00  0.00     0.230 C 
HETATM    8  C9  UNL     1       1.599   4.145   0.767  1.00  0.00     0.045 C 
HETATM    9  C10 UNL     1       1.100   5.047   1.866  1.00  0.00     0.023 C 
HETATM   10  C11 UNL     1       0.455   4.105   2.854  1.00  0.00     0.127 C 
HETATM   11  N2  UNL     1       0.231   2.843   2.065  1.00  0.00    -0.341 N 
HETATM   12  C12 UNL     1      -0.921   2.091   2.051  1.00  0.00     0.162 C 
HETATM   13  C13 UNL     1      -1.687   1.313   1.066  1.00  0.00     0.062 C 
HETATM   14  N3  UNL     1      -1.471  -0.119   1.200  1.00  0.00    -0.339 N 
ATOM     15  H3  UNL     1      -1.130  -0.385   2.124  1.00  0.00     0.167 HD
HETATM   16  C17 UNL     1      -1.625  -1.189   0.359  1.00  0.00     0.139 C 
HETATM   17  C18 UNL     1      -1.016  -1.561  -0.928  1.00  0.00     0.163 C 
HETATM   18  N7  UNL     1       0.058  -0.780  -1.416  1.00  0.00    -0.344 N 
ATOM     19  H7  UNL     1      -0.207  -0.030  -2.054  1.00  0.00     0.163 HD
HETATM   20  C26 UNL     1       1.441  -0.883  -1.152  1.00  0.00     0.265 C 
HETATM   21  O7  UNL     1       2.231  -0.765  -2.167  1.00  0.00    -0.266 OA
ENDROOT
BRANCH  17  22
HETATM   22  C19 UNL     1      -2.043  -1.749  -2.062  1.00  0.00     0.060 C 
BRANCH  22  23
HETATM   23  C20 UNL     1      -3.029  -2.786  -1.802  1.00  0.00    -0.028 C 
HETATM   24  C21 UNL     1      -4.323  -2.565  -1.777  1.00  0.00    -0.025 C 
BRANCH  24  25
HETATM   25  C22 UNL     1      -4.986  -1.276  -2.000  1.00  0.00     0.086 C 
BRANCH  25  26
HETATM   26  C23 UNL     1      -5.856  -0.940  -0.840  1.00  0.00     0.046 A 
HETATM   27  C24 UNL     1      -5.520  -0.197   0.249  1.00  0.00     0.132 A 
HETATM   28  N4  UNL     1      -6.609  -0.138   1.064  1.00  0.00    -0.200 N 
HETATM   29  C25 UNL     1      -7.578  -0.835   0.469  1.00  0.00     0.675 A 
ATOM     30  H4  UNL     1      -6.672   0.347   1.959  1.00  0.00     0.183 HD
HETATM   31  N6  UNL     1      -7.144  -1.336  -0.698  1.00  0.00    -0.194 N 
ATOM     32  H6  UNL     1      -7.681  -1.905  -1.352  1.00  0.00     0.184 HD
BRANCH  29  33
HETATM   33  N5  UNL     1      -8.758  -0.992   0.962  1.00  0.00    -0.234 N 
ATOM     34  H52 UNL     1      -9.088  -0.611   1.849  1.00  0.00     0.174 HD
ATOM     35  H51 UNL     1      -9.499  -1.525   0.507  1.00  0.00     0.174 HD
ENDBRANCH  29  33
ENDBRANCH  25  26
ENDBRANCH  24  25
ENDBRANCH  22  23
ENDBRANCH  17  22
BRANCH  16  36
HETATM   36  O6  UNL     1      -2.484  -2.100   0.747  1.00  0.00    -0.348 OA
ATOM     37  H6  UNL     1      -2.591  -2.842   0.164  1.00  0.00     0.219 HD
ENDBRANCH  16  36
BRANCH  13  38
HETATM   38  C14 UNL     1      -1.976   1.829  -0.269  1.00  0.00     0.072 C 
BRANCH  38  39
HETATM   39  C15 UNL     1      -2.827   3.051  -0.415  1.00  0.00     0.119 C 
BRANCH  39  40
HETATM   40  C16 UNL     1      -2.420   4.289   0.184  1.00  0.00     0.172 C 
HETATM   41  O4  UNL     1      -2.765   4.565   1.360  1.00  0.00    -0.648 OA
HETATM   42  O5  UNL     1      -1.648   5.211  -0.504  1.00  0.00    -0.648 OA
ENDBRANCH  39  40
ENDBRANCH  38  39
ENDBRANCH  13  38
BRANCH   1  43
HETATM   43  C6  UNL     1       3.102  -2.091   0.237  1.00  0.00     0.063 C 
BRANCH  43  44
HETATM   44  C5  UNL     1       4.418  -1.558  -0.148  1.00  0.00     0.006 C 
BRANCH  44  45
HETATM   45  C4  UNL     1       5.449  -2.667  -0.058  1.00  0.00     0.000 C 
BRANCH  45  46
HETATM   46  C3  UNL     1       6.826  -2.185  -0.441  1.00  0.00    -0.000 C 
BRANCH  46  47
HETATM   47  C2  UNL     1       7.756  -3.393  -0.307  1.00  0.00    -0.005 C 
HETATM   48  C1  UNL     1       7.212  -4.442  -1.269  1.00  0.00     0.005 C 
ENDBRANCH  46  47
ENDBRANCH  45  46
ENDBRANCH  44  45
ENDBRANCH  43  44
ENDBRANCH   1  43
BRANCH  12  49
HETATM   49  O3  UNL     1      -1.526   2.026   3.227  1.00  0.00    -0.345 OA
ATOM     50  H3  UNL     1      -2.321   1.507   3.217  1.00  0.00     0.219 HD
ENDBRANCH  12  49
TORSDOF 15
