REMARK  3 active torsions:
REMARK  status: ('A' for Active; 'I' for Inactive)
REMARK    1  A    between atoms: C2_2  and  N1_3 
REMARK    2  A    between atoms: C2_2  and  C3_7 
REMARK    3  A    between atoms: N2_12  and  N3_14 
ROOT
HETATM    1  C3  UNL     1      -0.558  -0.190   0.841  1.00  0.00     0.113 C 
HETATM    2  C4  UNL     1      -0.420  -1.671   0.587  1.00  0.00     0.028 C 
HETATM    3  C5  UNL     1       0.449  -1.919  -0.652  1.00  0.00     0.010 C 
HETATM    4  C6  UNL     1       1.882  -1.523  -0.265  1.00  0.00     0.077 C 
HETATM    5  C7  UNL     1       1.841  -0.093   0.077  1.00  0.00     0.091 C 
HETATM    6  N2  UNL     1       2.888   0.633  -0.069  1.00  0.00    -0.296 N 
ATOM      7  H2  UNL     1       3.727   0.176  -0.425  1.00  0.00     0.187 HD
HETATM    8  N4  UNL     1       0.668   0.525   0.570  1.00  0.00    -0.372 N 
ATOM      9  H4  UNL     1       0.689   1.530   0.744  1.00  0.00     0.161 HD
ENDROOT
BRANCH   1  10
HETATM   10  C2  UNL     1      -1.616   0.378  -0.083  1.00  0.00     0.202 C 
HETATM   11  C1  UNL     1      -1.792   1.854   0.131  1.00  0.00     0.042 C 
BRANCH  10  12
HETATM   12  N1  UNL     1      -2.837  -0.335   0.171  1.00  0.00    -0.073 N 
ATOM     13  H13 UNL     1      -3.202  -0.132   1.102  1.00  0.00     0.274 HD
ATOM     14  H12 UNL     1      -3.609   0.034  -0.384  1.00  0.00     0.274 HD
ATOM     15  H11 UNL     1      -2.717  -1.337   0.026  1.00  0.00     0.274 HD
ENDBRANCH  10  12
ENDBRANCH   1  10
BRANCH   6  16
HETATM   16  N3  UNL     1       2.974   1.979   0.215  1.00  0.00    -0.344 N 
ATOM     17  H32 UNL     1       2.125   2.419   0.570  1.00  0.00     0.176 HD
ATOM     18  H31 UNL     1       3.807   2.556   0.099  1.00  0.00     0.176 HD
ENDBRANCH   6  16
TORSDOF 3
