REMARK  10 active torsions:
REMARK  status: ('A' for Active; 'I' for Inactive)
REMARK    1  A    between atoms: N1_2  and  C3_4 
REMARK    2  A    between atoms: C3_4  and  C4_5 
REMARK    3  A    between atoms: C4_5  and  C5_6 
REMARK    4  A    between atoms: C5_6  and  O1_7 
REMARK    5  A    between atoms: C5_6  and  C6_9 
REMARK    6  A    between atoms: C6_9  and  C7_10 
REMARK    7  A    between atoms: C7_10  and  C8_11 
REMARK    8  A    between atoms: C8_11  and  C9_12 
REMARK    9  A    between atoms: C9_12  and  C10_13 
REMARK   10  A    between atoms: C13_19  and  N3_20 
ROOT
HETATM    1  C3  UNL     1      -0.971   0.076   0.007  1.00  0.00     0.116 C 
HETATM    2  C11 UNL     1      -1.564  -1.288  -0.092  1.00  0.00     0.100 C 
HETATM    3  C12 UNL     1      -3.050  -1.279  -0.103  1.00  0.00     0.054 A 
HETATM    4  N2  UNL     1      -3.719  -2.386   0.269  1.00  0.00    -0.194 N 
ATOM      5  H2  UNL     1      -3.283  -3.257   0.573  1.00  0.00     0.184 HD
HETATM    6  C13 UNL     1      -5.021  -2.183   0.184  1.00  0.00     0.676 A 
HETATM    7  N4  UNL     1      -5.204  -0.944  -0.243  1.00  0.00    -0.192 N 
ATOM      8  H4  UNL     1      -6.107  -0.499  -0.406  1.00  0.00     0.184 HD
HETATM    9  C14 UNL     1      -3.981  -0.358  -0.430  1.00  0.00     0.067 A 
HETATM   10  C15 UNL     1      -3.794   1.018  -0.899  1.00  0.00     0.182 C 
HETATM   11  N5  UNL     1      -2.638   1.186  -1.740  1.00  0.00    -0.353 N 
ATOM     12  H5  UNL     1      -2.701   1.427  -2.729  1.00  0.00     0.162 HD
HETATM   13  C16 UNL     1      -1.418   0.989  -1.078  1.00  0.00     0.246 C 
HETATM   14  O2  UNL     1      -0.542   1.716  -1.471  1.00  0.00    -0.271 OA
ENDROOT
BRANCH   1  15
HETATM   15  N1  UNL     1      -1.524   0.680   1.209  1.00  0.00    -0.404 N 
HETATM   16  C1  UNL     1      -1.121   2.023   1.446  1.00  0.00     0.144 C 
HETATM   17  C2  UNL     1      -1.515  -0.161   2.367  1.00  0.00     0.144 C 
ENDBRANCH   1  15
BRANCH   1  18
HETATM   18  C4  UNL     1       0.516  -0.022   0.082  1.00  0.00     0.073 C 
BRANCH  18  19
HETATM   19  C5  UNL     1       1.268  -0.593  -1.028  1.00  0.00     0.121 C 
BRANCH  19  20
HETATM   20  O1  UNL     1       1.004  -1.909  -1.388  1.00  0.00    -0.395 OA
ATOM     21  H1  UNL     1       1.494  -2.281  -2.112  1.00  0.00     0.210 HD
ENDBRANCH  19  20
BRANCH  19  22
HETATM   22  C6  UNL     1       2.768  -0.505  -0.843  1.00  0.00     0.032 C 
BRANCH  22  23
HETATM   23  C7  UNL     1       3.230   0.894  -0.737  1.00  0.00     0.002 C 
BRANCH  23  24
HETATM   24  C8  UNL     1       4.742   0.996  -0.599  1.00  0.00     0.001 C 
BRANCH  24  25
HETATM   25  C9  UNL     1       5.196   0.294   0.624  1.00  0.00     0.011 C 
BRANCH  25  26
HETATM   26  C10 UNL     1       6.710   0.422   0.762  1.00  0.00     0.085 C 
HETATM   27 BR1  UNL     1       7.598  -0.351  -0.753  1.00  0.00    -0.097 Br
ENDBRANCH  25  26
ENDBRANCH  24  25
ENDBRANCH  23  24
ENDBRANCH  22  23
ENDBRANCH  19  22
ENDBRANCH  18  19
ENDBRANCH   1  18
BRANCH   6  28
HETATM   28  N3  UNL     1      -5.964  -3.020   0.460  1.00  0.00    -0.234 N 
ATOM     29  H32 UNL     1      -5.823  -3.975   0.789  1.00  0.00     0.174 HD
ATOM     30  H31 UNL     1      -6.970  -2.863   0.394  1.00  0.00     0.174 HD
ENDBRANCH   6  28
TORSDOF 10
