REMARK  9 active torsions:
REMARK  status: ('A' for Active; 'I' for Inactive)
REMARK    1  A    between atoms: C1_2  and  C2_4 
REMARK    2  A    between atoms: C2_4  and  C3_5 
REMARK    3  A    between atoms: C3_5  and  N1_6 
REMARK    4  A    between atoms: N1_6  and  C4_8 
REMARK    5  A    between atoms: C4_8  and  C5_9 
REMARK    6  A    between atoms: C5_9  and  C6_10 
REMARK    7  A    between atoms: C6_10  and  C7_11 
REMARK    8  A    between atoms: N2_17  and  C13_19 
REMARK    9  A    between atoms: C13_19  and  N3_21 
ROOT
HETATM    1  C4  UNL     1      -0.575   0.844  -0.913  1.00  0.00     0.079 C 
HETATM    2  N2  UNL     1      -1.734   0.916  -0.377  1.00  0.00    -0.323 N 
ATOM      3  H2  UNL     1      -2.355   1.644  -0.729  1.00  0.00     0.169 HD
ENDROOT
BRANCH   1   4
HETATM    4  N1  UNL     1      -0.267   1.777  -1.939  1.00  0.00    -0.379 N 
ATOM      5  H1  UNL     1       0.302   1.490  -2.736  1.00  0.00     0.160 HD
BRANCH   4   6
HETATM    6  C3  UNL     1      -0.761   3.137  -1.854  1.00  0.00     0.131 C 
BRANCH   6   7
HETATM    7  C2  UNL     1      -0.052   3.827  -0.693  1.00  0.00     0.132 C 
BRANCH   7   8
HETATM    8  C1  UNL     1      -0.510   5.228  -0.548  1.00  0.00     0.174 C 
HETATM    9  O1  UNL     1      -1.367   5.710  -1.321  1.00  0.00    -0.648 OA
HETATM   10  O2  UNL     1       0.012   6.023   0.454  1.00  0.00    -0.648 OA
ENDBRANCH   7   8
ENDBRANCH   6   7
ENDBRANCH   4   6
ENDBRANCH   1   4
BRANCH   1  11
HETATM   11  C5  UNL     1       0.409  -0.174  -0.475  1.00  0.00     0.080 C 
BRANCH  11  12
HETATM   12  C6  UNL     1       1.670   0.475   0.084  1.00  0.00     0.041 C 
BRANCH  12  13
HETATM   13  C7  UNL     1       2.569  -0.630   0.485  1.00  0.00    -0.083 C 
HETATM   14  C8  UNL     1       2.959  -0.738   1.758  1.00  0.00    -0.024 C 
HETATM   15  C9  UNL     1       3.851  -1.809   2.230  1.00  0.00     0.027 C 
HETATM   16  C10 UNL     1       4.757  -2.356   1.184  1.00  0.00     0.004 C 
HETATM   17  C11 UNL     1       4.572  -1.787  -0.182  1.00  0.00     0.005 C 
HETATM   18  C12 UNL     1       3.081  -1.656  -0.456  1.00  0.00     0.034 C 
ENDBRANCH  12  13
ENDBRANCH  11  12
ENDBRANCH   1  11
BRANCH   2  19
HETATM   19  C13 UNL     1      -2.238   0.102   0.640  1.00  0.00     0.175 C 
HETATM   20  S1  UNL     1      -1.724   0.140   2.183  1.00  0.00    -0.041 SA
BRANCH  19  21
HETATM   21  N3  UNL     1      -3.266  -0.822   0.312  1.00  0.00    -0.358 N 
HETATM   22  C14 UNL     1      -3.870  -1.022  -1.001  1.00  0.00     0.125 C 
HETATM   23  C15 UNL     1      -4.760  -2.205  -0.830  1.00  0.00     0.021 C 
HETATM   24  C16 UNL     1      -4.243  -2.912   0.425  1.00  0.00     0.021 C 
HETATM   25  C17 UNL     1      -3.876  -1.717   1.272  1.00  0.00     0.125 C 
ENDBRANCH  19  21
ENDBRANCH   2  19
TORSDOF 9
