REMARK  1 active torsions:
REMARK  status: ('A' for Active; 'I' for Inactive)
REMARK    1  A    between atoms: C1_2  and  C2_4 
ROOT
HETATM    1  C2  UNL     1      -0.049   1.169  -0.096  1.00  0.00     0.097 A 
HETATM    2  C3  UNL     1      -0.919   0.776  -0.873  1.00  0.00    -0.017 A 
HETATM    3  C4  UNL     1      -1.420   0.214  -0.949  1.00  0.00    -0.030 A 
HETATM    4  C5  UNL     1      -1.813  -0.802  -0.368  1.00  0.00     0.028 A 
HETATM    5  C6  UNL     1      -0.549  -0.295   0.862  1.00  0.00     0.021 A 
ENDROOT
BRANCH   1   6
HETATM    6  C1  UNL     1       1.398   0.884  -0.208  1.00  0.00     0.238 C 
HETATM    7  N1  UNL     1       1.985  -0.403  -0.244  1.00  0.00    -0.062 NA
HETATM    8  O1  UNL     1       2.164   1.877  -0.276  1.00  0.00    -0.276 OA
ENDBRANCH   1   6
TORSDOF 1
