REMARK  6 active torsions:
REMARK  status: ('A' for Active; 'I' for Inactive)
REMARK    1  A    between atoms: C2_2  and  C4_5 
REMARK    2  A    between atoms: C5_6  and  C6_7 
REMARK    3  A    between atoms: C6_7  and  C7_8 
REMARK    4  A    between atoms: C10_11  and  C11_12 
REMARK    5  A    between atoms: C11_12  and  C12_13 
REMARK    6  A    between atoms: N2_15  and  O1_17 
ROOT
HETATM    1  C1  UNL     1      -1.952  -2.511  -2.224  1.00  0.00     0.031 C 
HETATM    2  C2  UNL     1      -0.933  -2.325  -1.404  1.00  0.00     0.024 C 
HETATM    3  C3  UNL     1       0.274  -3.055  -1.675  1.00  0.00     0.095 C 
HETATM    4  N1  UNL     1       1.236  -3.653  -1.908  1.00  0.00    -0.192 NA
ENDROOT
BRANCH   2   5
HETATM    5  C4  UNL     1      -1.114  -1.389  -0.277  1.00  0.00     0.092 C 
HETATM    6  C5  UNL     1      -0.427  -0.035  -0.497  1.00  0.00    -0.057 C 
HETATM    7  C10 UNL     1       0.774   0.209   0.334  1.00  0.00     0.120 C 
HETATM    8  C14 UNL     1       1.275  -1.118   0.907  1.00  0.00     0.268 C 
HETATM    9  O2  UNL     1       2.437  -1.549   0.759  1.00  0.00    -0.264 OA
HETATM   10  O3  UNL     1       0.351  -1.843   1.620  1.00  0.00    -0.309 OA
HETATM   11  C15 UNL     1      -0.930  -1.979   1.077  1.00  0.00     0.075 C 
HETATM   12  C16 UNL     1      -1.244  -3.475   0.946  1.00  0.00     0.047 C 
HETATM   13  C17 UNL     1      -1.913  -1.438   2.086  1.00  0.00     0.047 C 
BRANCH   6  14
HETATM   14  C6  UNL     1      -1.461   0.992  -0.637  1.00  0.00    -0.018 C 
BRANCH  14  15
HETATM   15  C7  UNL     1      -1.238   2.408  -0.842  1.00  0.00     0.000 C 
HETATM   16  C8  UNL     1      -0.509   3.142   0.248  1.00  0.00     0.013 C 
HETATM   17  C9  UNL     1      -2.597   3.142  -0.972  1.00  0.00     0.013 C 
ENDBRANCH  14  15
ENDBRANCH   6  14
BRANCH   7  18
HETATM   18  C11 UNL     1       1.964   0.678  -0.505  1.00  0.00     0.073 C 
BRANCH  18  19
HETATM   19  C12 UNL     1       3.125   0.992   0.316  1.00  0.00     0.007 C 
HETATM   20  C13 UNL     1       4.431   1.322  -0.372  1.00  0.00     0.065 C 
HETATM   21  N2  UNL     1       3.166   1.061   1.598  1.00  0.00    -0.278 N 
ATOM     22  H2  UNL     1       2.302   0.879   2.109  1.00  0.00     0.193 HD
BRANCH  21  23
HETATM   23  O1  UNL     1       4.286   1.361   2.328  1.00  0.00    -0.290 OA
ATOM     24  H1  UNL     1       4.316   1.412   3.276  1.00  0.00     0.244 HD
ENDBRANCH  21  23
ENDBRANCH  18  19
ENDBRANCH   7  18
ENDBRANCH   2   5
TORSDOF 6
