REMARK  10 active torsions:
REMARK  status: ('A' for Active; 'I' for Inactive)
REMARK    1  A    between atoms: N1_1  and  N2_4 
REMARK    2  A    between atoms: N3_6  and  C1_8 
REMARK    3  A    between atoms: C3_10  and  C4_11 
REMARK    4  A    between atoms: C4_11  and  O1_12 
REMARK    5  A    between atoms: C6_15  and  C7_16 
REMARK    6  A    between atoms: C7_16  and  O2_17 
REMARK    7  A    between atoms: C7_16  and  N4_19 
REMARK    8  A    between atoms: N4_19  and  C8_22 
REMARK    9  A    between atoms: C8_22  and  C9_23 
REMARK   10  A    between atoms: C11_28  and  O3_29 
ROOT
HETATM    1  C7  UNL     1      -0.352  -0.490  -0.867  1.00  0.00     0.324 C 
ENDROOT
BRANCH   1   2
HETATM    2  C6  UNL     1      -1.723   0.090  -0.864  1.00  0.00     0.067 C 
HETATM    3  C1  UNL     1      -2.762  -0.929  -1.347  1.00  0.00     0.109 C 
HETATM    4  C2  UNL     1      -4.057  -0.260  -0.946  1.00  0.00     0.034 C 
HETATM    5  C3  UNL     1      -3.707   0.790   0.089  1.00  0.00     0.012 C 
HETATM    6  C5  UNL     1      -2.289   0.384   0.510  1.00  0.00     0.017 C 
BRANCH   3   7
HETATM    7  N3  UNL     1      -2.630  -2.112  -0.511  1.00  0.00    -0.317 N 
HETATM    8  N2  UNL     1      -2.748  -3.250  -0.965  1.00  0.00    -0.253 N 
ATOM      9  H2  UNL     1      -3.641  -3.172  -1.451  1.00  0.00     0.207 HD
ATOM     10  H3  UNL     1      -2.433  -1.995   0.483  1.00  0.00     0.182 HD
BRANCH   8  11
HETATM   11  N1  UNL     1      -2.461  -4.416  -1.196  1.00  0.00    -0.331 N 
ATOM     12  H12 UNL     1      -1.573  -4.444  -0.696  1.00  0.00     0.178 HD
ATOM     13  H11 UNL     1      -2.559  -5.359  -1.572  1.00  0.00     0.178 HD
ENDBRANCH   8  11
ENDBRANCH   3   7
BRANCH   5  14
HETATM   14  C4  UNL     1      -4.672   0.822   1.228  1.00  0.00     0.168 C 
BRANCH  14  15
HETATM   15  O1  UNL     1      -4.274   1.806   2.124  1.00  0.00    -0.400 OA
ATOM     16  H1  UNL     1      -4.888   1.826   2.849  1.00  0.00     0.209 HD
ENDBRANCH  14  15
ENDBRANCH   5  14
ENDBRANCH   1   2
BRANCH   1  17
HETATM   17  O2  UNL     1      -0.204  -1.588  -0.040  1.00  0.00    -0.369 OA
ATOM     18  H2  UNL     1       0.671  -1.958  -0.042  1.00  0.00     0.212 HD
ENDBRANCH   1  17
BRANCH   1  19
HETATM   19  N4  UNL     1       0.694   0.477  -0.696  1.00  0.00    -0.046 N 
ATOM     20  H42 UNL     1       1.057   0.789  -1.597  1.00  0.00     0.280 HD
ATOM     21  H41 UNL     1       0.323   1.363  -0.354  1.00  0.00     0.280 HD
BRANCH  19  22
HETATM   22  C8  UNL     1       1.765  -0.009   0.161  1.00  0.00     0.271 C 
BRANCH  22  23
HETATM   23  C9  UNL     1       2.902   0.965   0.282  1.00  0.00     0.247 C 
HETATM   24  N5  UNL     1       3.504   1.251  -1.011  1.00  0.00    -0.064 N 
HETATM   25  C10 UNL     1       4.497   0.193  -1.199  1.00  0.00     0.267 C 
ATOM     26  H52 UNL     1       2.832   1.330  -1.774  1.00  0.00     0.277 HD
ATOM     27  H51 UNL     1       3.882   2.195  -1.094  1.00  0.00     0.277 HD
HETATM   28  C11 UNL     1       5.189   0.200   0.164  1.00  0.00     0.179 C 
HETATM   29  C12 UNL     1       3.998   0.261   1.079  1.00  0.00     0.232 C 
HETATM   30  F1  UNL     1       3.653  -1.060   1.344  1.00  0.00    -0.244 F 
BRANCH  28  31
HETATM   31  O3  UNL     1       5.896  -0.989   0.331  1.00  0.00    -0.391 OA
ATOM     32  H3  UNL     1       6.326  -0.985   1.178  1.00  0.00     0.210 HD
ENDBRANCH  28  31
ENDBRANCH  22  23
ENDBRANCH  19  22
ENDBRANCH   1  19
TORSDOF 10
