REMARK  7 active torsions:
REMARK  status: ('A' for Active; 'I' for Inactive)
REMARK    1  A    between atoms: N1_1  and  C1_4 
REMARK    2  A    between atoms: C5_14  and  N5_15 
REMARK    3  A    between atoms: N6_18  and  C6_19 
REMARK    4  A    between atoms: C6_19  and  C7_20 
REMARK    5  A    between atoms: C7_20  and  N7_21 
REMARK    6  A    between atoms: C10_26  and  N9_27 
REMARK    7  A    between atoms: N9_27  and  C11_29 
ROOT
HETATM    1  C6  UNL     1      -1.668  -0.115   0.519  1.00  0.00     0.169 C 
ENDROOT
BRANCH   1   2
HETATM    2  N6  UNL     1      -3.032   0.334   0.439  1.00  0.00    -0.165 N 
HETATM    3  C3  UNL     1      -4.149  -0.362   0.224  1.00  0.00     0.155 A 
HETATM    4  N3  UNL     1      -4.320  -1.670   0.023  1.00  0.00    -0.336 N 
HETATM    5  C4  UNL     1      -5.216   0.516   0.236  1.00  0.00     0.137 A 
HETATM    6  C2  UNL     1      -5.568  -2.134  -0.173  1.00  0.00     0.183 A 
ATOM      7  H3  UNL     1      -3.522  -2.305   0.018  1.00  0.00     0.168 HD
HETATM    8  N2  UNL     1      -6.620  -1.285  -0.164  1.00  0.00    -0.337 N 
HETATM    9  C1  UNL     1      -6.488   0.038   0.035  1.00  0.00     0.131 A 
ATOM     10  H2  UNL     1      -7.555  -1.665  -0.315  1.00  0.00     0.168 HD
HETATM   11  N4  UNL     1      -4.716   1.739   0.460  1.00  0.00    -0.184 N 
HETATM   12  C5  UNL     1      -3.385   1.625   0.583  1.00  0.00     0.680 A 
ATOM     13  H4  UNL     1      -5.253   2.604   0.525  1.00  0.00     0.184 HD
BRANCH   9  14
HETATM   14  N1  UNL     1      -7.488   0.837   0.043  1.00  0.00    -0.383 N 
ATOM     15  H12 UNL     1      -8.433   0.482  -0.106  1.00  0.00     0.157 HD
ATOM     16  H11 UNL     1      -7.388   1.841   0.194  1.00  0.00     0.157 HD
ENDBRANCH   9  14
BRANCH  12  17
HETATM   17  N5  UNL     1      -2.600   2.615   0.805  1.00  0.00    -0.234 N 
ATOM     18  H52 UNL     1      -2.867   3.593   0.914  1.00  0.00     0.174 HD
ATOM     19  H51 UNL     1      -1.588   2.528   0.899  1.00  0.00     0.174 HD
ENDBRANCH  12  17
ENDBRANCH   1   2
BRANCH   1  20
HETATM   20  C7  UNL     1      -0.973  -0.104  -0.816  1.00  0.00     0.152 C 
BRANCH  20  21
HETATM   21  N7  UNL     1       0.392  -0.567  -0.657  1.00  0.00    -0.326 N 
HETATM   22  C8  UNL     1       0.812  -1.840  -0.747  1.00  0.00     0.185 A 
HETATM   23  N8  UNL     1       2.134  -1.919  -0.547  1.00  0.00    -0.346 N 
HETATM   24  C9  UNL     1       2.598  -0.670  -0.320  1.00  0.00     0.122 A 
ATOM     25  H8  UNL     1       2.693  -2.772  -0.563  1.00  0.00     0.167 HD
HETATM   26  C10 UNL     1       3.848  -0.167  -0.060  1.00  0.00     0.133 A 
HETATM   27  C15 UNL     1       1.493   0.160  -0.393  1.00  0.00     0.140 A 
HETATM   28  N10 UNL     1       3.992   1.147   0.125  1.00  0.00    -0.337 N 
HETATM   29  C14 UNL     1       2.917   1.978   0.057  1.00  0.00     0.183 A 
ATOM     30  H10 UNL     1       4.917   1.532   0.319  1.00  0.00     0.168 HD
HETATM   31  N11 UNL     1       1.690   1.465  -0.200  1.00  0.00    -0.336 N 
ATOM     32  H11 UNL     1       0.891   2.097  -0.247  1.00  0.00     0.168 HD
BRANCH  26  33
HETATM   33  N9  UNL     1       4.835  -0.947   0.001  1.00  0.00    -0.370 N 
ATOM     34  H9  UNL     1       4.631  -1.935  -0.152  1.00  0.00     0.161 HD
BRANCH  33  35
HETATM   35  C11 UNL     1       6.197  -0.627   0.256  1.00  0.00     0.083 A 
HETATM   36  C12 UNL     1       6.898   0.123  -0.876  1.00  0.00     0.027 A 
HETATM   37  C13 UNL     1       7.321  -1.245  -0.479  1.00  0.00     0.027 A 
ENDBRANCH  33  35
ENDBRANCH  26  33
ENDBRANCH  20  21
ENDBRANCH   1  20
TORSDOF 7
