REMARK  2 active torsions:
REMARK  status: ('A' for Active; 'I' for Inactive)
REMARK    1  A    between atoms: O1_1  and  C1_3 
REMARK    2  A    between atoms: C13_17  and  O4_18 
ROOT
HETATM    1  C1  UNL     1       2.347  -1.350  -0.462  1.00  0.00     0.149 C 
HETATM    2  C2  UNL     1       1.021  -1.403  -1.095  1.00  0.00     0.037 C 
HETATM    3  C3  UNL     1      -0.158  -1.299  -0.199  1.00  0.00     0.040 C 
HETATM    4  C4  UNL     1      -0.802   0.098  -0.247  1.00  0.00     0.061 C 
HETATM    5  C5  UNL     1      -1.279   0.427   1.118  1.00  0.00     0.038 C 
HETATM    6  C6  UNL     1      -2.737   0.146   1.355  1.00  0.00     0.003 C 
HETATM    7  C7  UNL     1      -3.236  -1.044   0.573  1.00  0.00     0.000 C 
HETATM    8  C8  UNL     1      -3.024  -0.882  -0.895  1.00  0.00     0.003 C 
HETATM    9  C9  UNL     1      -1.963   0.101  -1.226  1.00  0.00     0.038 C 
HETATM   10  O2  UNL     1       0.160   0.908  -0.763  1.00  0.00    -0.378 OA
HETATM   11  C10 UNL     1       0.010   2.240  -0.654  1.00  0.00     0.195 C 
HETATM   12  C11 UNL     1       1.234   2.757   0.116  1.00  0.00     0.193 C 
HETATM   13  O3  UNL     1       1.745   1.737   0.924  1.00  0.00    -0.386 OA
HETATM   14  C12 UNL     1       2.697   0.971   0.303  1.00  0.00     0.201 C 
HETATM   15  C13 UNL     1       2.495  -0.483   0.731  1.00  0.00     0.170 C 
ENDROOT
BRANCH   1  16
HETATM   16  O1  UNL     1       2.817  -2.638  -0.119  1.00  0.00    -0.393 OA
ATOM     17  H1  UNL     1       3.674  -2.604   0.290  1.00  0.00     0.210 HD
ENDBRANCH   1  16
BRANCH  15  18
HETATM   18  O4  UNL     1       3.672  -0.891   1.404  1.00  0.00    -0.391 OA
ATOM     19  H4  UNL     1       3.767  -0.335   2.169  1.00  0.00     0.210 HD
ENDBRANCH  15  18
TORSDOF 2
