REMARK  4 active torsions:
REMARK  status: ('A' for Active; 'I' for Inactive)
REMARK    1  A    between atoms: O1_2  and  C2_3 
REMARK    2  A    between atoms: C4_5  and  C5_6 
REMARK    3  A    between atoms: C10_18  and  O4_19 
REMARK    4  A    between atoms: C12_21  and  O5_22 
ROOT
HETATM    1  C2  UNL     1      -1.399   1.059  -0.007  1.00  0.00     0.105 A 
HETATM    2  C3  UNL     1      -0.128   0.948  -0.540  1.00  0.00     0.053 A 
HETATM    3  C4  UNL     1       0.502  -0.248  -0.692  1.00  0.00    -0.004 A 
HETATM    4  C9  UNL     1      -0.172  -1.397  -0.293  1.00  0.00     0.093 A 
HETATM    5  N3  UNL     1       0.445  -2.664  -0.435  1.00  0.00    -0.099 NA
HETATM    6  C10 UNL     1      -1.452  -1.312   0.246  1.00  0.00     0.129 A 
HETATM    7  C12 UNL     1      -2.071  -0.092   0.392  1.00  0.00     0.137 A 
ENDROOT
BRANCH   3   8
HETATM    8  C5  UNL     1       1.847  -0.397  -1.219  1.00  0.00     0.049 C 
HETATM    9  C6  UNL     1       2.935   0.168  -0.815  1.00  0.00     0.105 A 
HETATM   10  N1  UNL     1       4.237  -0.030  -1.400  1.00  0.00    -0.304 N 
HETATM   11  C8  UNL     1       3.179   1.069   0.291  1.00  0.00     0.276 A 
HETATM   12  C7  UNL     1       5.217   0.702  -0.698  1.00  0.00     0.327 A 
ATOM     13  H1  UNL     1       4.424  -0.619  -2.211  1.00  0.00     0.171 HD
HETATM   14  O2  UNL     1       6.436   0.723  -0.980  1.00  0.00    -0.247 OA
HETATM   15  N2  UNL     1       4.590   1.398   0.361  1.00  0.00    -0.274 N 
ATOM     16  H2  UNL     1       5.041   2.011   1.040  1.00  0.00     0.173 HD
HETATM   17  O3  UNL     1       2.331   1.530   1.108  1.00  0.00    -0.266 OA
ENDBRANCH   3   8
BRANCH   1  18
HETATM   18  O1  UNL     1      -2.043   2.272   0.150  1.00  0.00    -0.353 OA
HETATM   19  C1  UNL     1      -1.547   3.531  -0.186  1.00  0.00     0.210 C 
ENDBRANCH   1  18
BRANCH   6  20
HETATM   20  O4  UNL     1      -2.108  -2.495   0.641  1.00  0.00    -0.351 OA
HETATM   21  C11 UNL     1      -1.850  -2.848   2.010  1.00  0.00     0.210 C 
ENDBRANCH   6  20
BRANCH   7  22
HETATM   22  O5  UNL     1      -3.352  -0.054   0.938  1.00  0.00    -0.351 OA
HETATM   23  C13 UNL     1      -4.520  -0.136   0.155  1.00  0.00     0.210 C 
ENDBRANCH   7  22
TORSDOF 4
