REMARK  9 active torsions:
REMARK  status: ('A' for Active; 'I' for Inactive)
REMARK    1  A    between atoms: C4_6  and  N2_7 
REMARK    2  A    between atoms: N2_7  and  C5_9 
REMARK    3  A    between atoms: C5_9  and  C6_10 
REMARK    4  A    between atoms: C6_10  and  C7_11 
REMARK    5  A    between atoms: C7_11  and  N3_12 
REMARK    6  A    between atoms: N3_12  and  C8_14 
REMARK    7  A    between atoms: C8_14  and  N4_16 
REMARK    8  A    between atoms: N4_16  and  C9_18 
REMARK    9  A    between atoms: C9_18  and  C10_19 
ROOT
HETATM    1  C8  UNL     1       0.796   0.204   2.185  1.00  0.00     0.167 C 
HETATM    2  S1  UNL     1       0.648   1.791   2.483  1.00  0.00    -0.041 SA
ENDROOT
BRANCH   1   3
HETATM    3  N3  UNL     1       2.088  -0.404   2.036  1.00  0.00    -0.367 N 
ATOM      4  H3  UNL     1       2.157  -1.410   1.880  1.00  0.00     0.161 HD
BRANCH   3   5
HETATM    5  C7  UNL     1       3.281   0.384   2.104  1.00  0.00     0.123 C 
BRANCH   5   6
HETATM    6  C6  UNL     1       3.479   1.304   0.947  1.00  0.00     0.040 C 
BRANCH   6   7
HETATM    7  C5  UNL     1       3.558   0.558  -0.368  1.00  0.00     0.139 C 
BRANCH   7   8
HETATM    8  N2  UNL     1       4.631  -0.385  -0.427  1.00  0.00    -0.226 N 
ATOM      9  H2  UNL     1       4.393  -1.368  -0.298  1.00  0.00     0.177 HD
BRANCH   8  10
HETATM   10  C4  UNL     1       5.865  -0.104  -0.628  1.00  0.00     0.678 A 
HETATM   11  N1  UNL     1       6.392   1.113  -0.820  1.00  0.00    -0.200 N 
HETATM   12  C3  UNL     1       7.722   1.025  -1.000  1.00  0.00     0.131 A 
ATOM     13  H1  UNL     1       5.860   1.983  -0.828  1.00  0.00     0.183 HD
HETATM   14  C2  UNL     1       8.027  -0.319  -0.913  1.00  0.00     0.038 A 
HETATM   15  C1  UNL     1       9.360  -0.967  -1.042  1.00  0.00     0.070 C 
HETATM   16  N6  UNL     1       6.879  -0.981  -0.687  1.00  0.00    -0.195 N 
ATOM     17  H6  UNL     1       6.792  -1.991  -0.578  1.00  0.00     0.184 HD
ENDBRANCH   8  10
ENDBRANCH   7   8
ENDBRANCH   6   7
ENDBRANCH   5   6
ENDBRANCH   3   5
ENDBRANCH   1   3
BRANCH   1  18
HETATM   18  N4  UNL     1      -0.370  -0.600   2.109  1.00  0.00    -0.367 N 
ATOM     19  H4  UNL     1      -0.270  -1.604   1.960  1.00  0.00     0.161 HD
BRANCH  18  20
HETATM   20  C9  UNL     1      -1.666  -0.050   2.234  1.00  0.00     0.126 C 
BRANCH  20  21
HETATM   21  C10 UNL     1      -2.152   0.788   1.074  1.00  0.00     0.007 C 
HETATM   22  C11 UNL     1      -3.527   1.297   1.355  1.00  0.00     0.034 C 
HETATM   23  C12 UNL     1      -4.639   0.377   0.978  1.00  0.00     0.238 C 
HETATM   24  N5  UNL     1      -4.493  -0.365  -0.216  1.00  0.00    -0.063 N 
HETATM   25  C13 UNL     1      -4.607  -1.791   0.047  1.00  0.00     0.238 C 
HETATM   26  C16 UNL     1      -5.639  -0.059  -1.091  1.00  0.00     0.238 C 
HETATM   27  C17 UNL     1      -3.324  -0.057  -0.979  1.00  0.00     0.187 C 
HETATM   28  C14 UNL     1      -6.108  -2.054   0.137  1.00  0.00     0.029 C 
HETATM   29  C15 UNL     1      -6.653  -1.128  -0.891  1.00  0.00     0.029 C 
HETATM   30  C18 UNL     1      -3.455   1.209  -1.763  1.00  0.00     0.040 C 
HETATM   31  C19 UNL     1      -2.042  -0.010  -0.196  1.00  0.00     0.039 C 
ENDBRANCH  20  21
ENDBRANCH  18  20
ENDBRANCH   1  18
TORSDOF 9
