REMARK  4 active torsions:
REMARK  status: ('A' for Active; 'I' for Inactive)
REMARK    1  A    between atoms: C5_7  and  N2_8 
REMARK    2  A    between atoms: N2_8  and  C6_10 
REMARK    3  A    between atoms: C6_10  and  C7_11 
REMARK    4  A    between atoms: C7_11  and  N3_12 
ROOT
HETATM    1  C1  UNL     1      -4.140   0.996   1.910  1.00  0.00     0.054 C 
HETATM    2  C2  UNL     1      -3.194   0.358   0.979  1.00  0.00     0.008 A 
HETATM    3  C3  UNL     1      -1.854   0.696   1.027  1.00  0.00     0.044 A 
HETATM    4  C4  UNL     1      -0.947   0.120   0.173  1.00  0.00     0.078 A 
HETATM    5  N1  UNL     1       0.370   0.420   0.186  1.00  0.00    -0.190 N 
ATOM      6  H1  UNL     1       0.713   1.105   0.859  1.00  0.00     0.184 HD
HETATM    7  C5  UNL     1       1.239  -0.153  -0.656  1.00  0.00     0.678 A 
HETATM    8  N4  UNL     1       0.844  -1.060  -1.559  1.00  0.00    -0.194 N 
ATOM      9  H4  UNL     1       1.522  -1.486  -2.191  1.00  0.00     0.184 HD
HETATM   10  C8  UNL     1      -0.475  -1.409  -1.625  1.00  0.00     0.051 A 
HETATM   11  C9  UNL     1      -0.925  -2.404  -2.613  1.00  0.00     0.071 C 
HETATM   12  C10 UNL     1      -1.368  -0.817  -0.757  1.00  0.00     0.085 A 
HETATM   13  N5  UNL     1      -2.691  -1.130  -0.782  1.00  0.00    -0.320 N 
ATOM     14  H5  UNL     1      -3.014  -1.818  -1.462  1.00  0.00     0.169 HD
HETATM   15  C11 UNL     1      -3.588  -0.579   0.042  1.00  0.00     0.252 A 
HETATM   16  O1  UNL     1      -4.814  -0.878   0.009  1.00  0.00    -0.268 OA
ENDROOT
BRANCH   7  17
HETATM   17  N2  UNL     1       2.480   0.169  -0.601  1.00  0.00    -0.224 N 
ATOM     18  H2  UNL     1       3.141  -0.269  -1.243  1.00  0.00     0.177 HD
BRANCH  17  19
HETATM   19  C6  UNL     1       2.957   1.144   0.357  1.00  0.00     0.165 C 
BRANCH  19  20
HETATM   20  C7  UNL     1       4.448   0.962   0.493  1.00  0.00     0.249 C 
BRANCH  20  21
HETATM   21  N3  UNL     1       5.022   1.895   1.435  1.00  0.00    -0.078 N 
ATOM     22  H33 UNL     1       4.787   2.858   1.193  1.00  0.00     0.274 HD
ATOM     23  H32 UNL     1       4.558   1.839   2.341  1.00  0.00     0.274 HD
ATOM     24  H31 UNL     1       6.030   1.772   1.527  1.00  0.00     0.274 HD
ENDBRANCH  20  21
ENDBRANCH  19  20
ENDBRANCH  17  19
ENDBRANCH   7  17
TORSDOF 4
