REMARK  4 active torsions:
REMARK  status: ('A' for Active; 'I' for Inactive)
REMARK    1  A    between atoms: C2_2  and  C3_3 
REMARK    2  A    between atoms: C3_3  and  N1_4 
REMARK    3  A    between atoms: N1_4  and  C4_6 
REMARK    4  A    between atoms: C7_11  and  N3_12 
ROOT
HETATM    1  C4  UNL     1       1.038  -0.206  -0.913  1.00  0.00     0.681 A 
HETATM    2  N2  UNL     1       0.261  -0.771  -0.000  1.00  0.00    -0.174 N 
ATOM      3  H2  UNL     1       0.620  -1.517   0.596  1.00  0.00     0.186 HD
HETATM    4  C5  UNL     1      -1.006  -0.346   0.127  1.00  0.00     0.150 A 
HETATM    5  C6  UNL     1      -1.541   0.670  -0.664  1.00  0.00     0.121 A 
HETATM    6  C7  UNL     1      -0.723   1.251  -1.613  1.00  0.00     0.145 A 
HETATM    7  N4  UNL     1       0.545   0.770  -1.684  1.00  0.00    -0.175 N 
ATOM      8  H4  UNL     1       1.168   1.184  -2.377  1.00  0.00     0.186 HD
HETATM    9  N5  UNL     1      -2.891   0.921  -0.292  1.00  0.00    -0.363 N 
HETATM   10  C8  UNL     1      -3.660   2.131  -0.471  1.00  0.00     0.152 C 
HETATM   11  C9  UNL     1      -3.345  -0.331   0.337  1.00  0.00     0.250 C 
HETATM   12  N6  UNL     1      -2.099  -0.735   0.982  1.00  0.00    -0.353 N 
HETATM   13  C10 UNL     1      -1.983  -1.410   2.252  1.00  0.00     0.153 C 
ENDROOT
BRANCH   1  14
HETATM   14  N1  UNL     1       2.266  -0.530  -1.125  1.00  0.00    -0.226 N 
ATOM     15  H1  UNL     1       2.755  -0.018  -1.859  1.00  0.00     0.177 HD
BRANCH  14  16
HETATM   16  C3  UNL     1       3.005  -1.525  -0.443  1.00  0.00     0.137 C 
BRANCH  16  17
HETATM   17  C2  UNL     1       3.725  -0.909   0.752  1.00  0.00     0.016 C 
HETATM   18  C1  UNL     1       4.679   0.177   0.312  1.00  0.00     0.006 C 
ENDBRANCH  16  17
ENDBRANCH  14  16
ENDBRANCH   1  14
BRANCH   6  19
HETATM   19  N3  UNL     1      -1.125   2.179  -2.395  1.00  0.00    -0.383 N 
ATOM     20  H32 UNL     1      -2.077   2.540  -2.342  1.00  0.00     0.157 HD
ATOM     21  H31 UNL     1      -0.521   2.608  -3.096  1.00  0.00     0.157 HD
ENDBRANCH   6  19
TORSDOF 4
