REMARK  5 active torsions:
REMARK  status: ('A' for Active; 'I' for Inactive)
REMARK    1  A    between atoms: C2_2  and  C3_3 
REMARK    2  A    between atoms: C3_3  and  N1_4 
REMARK    3  A    between atoms: N1_4  and  C4_7 
REMARK    4  A    between atoms: C4_7  and  C5_8 
REMARK    5  A    between atoms: C7_10  and  C8_11 
ROOT
HETATM    1  N1  UNL     1      -0.864   1.387   0.865  1.00  0.00    -0.072 N 
ATOM      2  H11 UNL     1      -0.098   1.515   1.526  1.00  0.00     0.277 HD
ATOM      3  H12 UNL     1      -1.187   2.354   0.834  1.00  0.00     0.277 HD
ENDROOT
BRANCH   1   4
HETATM    4  C3  UNL     1      -1.879   0.481   1.362  1.00  0.00     0.259 C 
BRANCH   4   5
HETATM    5  C2  UNL     1      -3.082   0.664   0.490  1.00  0.00    -0.010 C 
HETATM    6  C1  UNL     1      -3.566  -0.326  -0.200  1.00  0.00     0.008 C 
ENDBRANCH   4   5
ENDBRANCH   1   4
BRANCH   1   7
HETATM    7  C4  UNL     1      -0.400   0.906  -0.447  1.00  0.00     0.237 C 
BRANCH   7   8
HETATM    8  C5  UNL     1       0.444  -0.354  -0.200  1.00  0.00     0.019 A 
HETATM    9  C6  UNL     1       1.005  -1.019  -1.439  1.00  0.00     0.016 A 
HETATM   10  C7  UNL     1       1.889  -0.238  -0.571  1.00  0.00     0.013 A 
BRANCH  10  11
HETATM   11  C8  UNL     1       2.948  -0.842   0.262  1.00  0.00    -0.032 C 
HETATM   12  C9  UNL     1       4.221  -0.506   0.113  1.00  0.00     0.007 C 
ENDBRANCH  10  11
ENDBRANCH   7   8
ENDBRANCH   1   7
TORSDOF 5
