REMARK  9 active torsions:
REMARK  status: ('A' for Active; 'I' for Inactive)
REMARK    1  A    between atoms: C2_2  and  C4_4 
REMARK    2  A    between atoms: C4_4  and  C5_5 
REMARK    3  A    between atoms: C5_5  and  N1_6 
REMARK    4  A    between atoms: C5_5  and  C12_20 
REMARK    5  A    between atoms: N1_6  and  O1_8 
REMARK    6  A    between atoms: O1_8  and  C6_9 
REMARK    7  A    between atoms: C8_11  and  O2_12 
REMARK    8  A    between atoms: C9_14  and  O3_15 
REMARK       I    between atoms: C12_20  and  N2_22 
REMARK    9  A    between atoms: N2_22  and  C13_24 
ROOT
HETATM    1  N1  UNL     1       0.220   1.276  -1.646  1.00  0.00    -0.263 N 
ATOM      2  H1  UNL     1       0.362   1.298  -2.656  1.00  0.00     0.194 HD
ENDROOT
BRANCH   1   3
HETATM    3  C5  UNL     1       1.295   1.197  -0.735  1.00  0.00     0.100 C 
BRANCH   3   4
HETATM    4  C4  UNL     1       1.252   2.166   0.355  1.00  0.00     0.069 C 
BRANCH   4   5
HETATM    5  C2  UNL     1       1.317   3.595  -0.066  1.00  0.00    -0.017 C 
HETATM    6  C1  UNL     1       1.286   4.519   1.172  1.00  0.00     0.010 C 
HETATM    7  C3  UNL     1       0.269   4.119  -0.972  1.00  0.00     0.010 C 
ENDBRANCH   4   5
ENDBRANCH   3   4
BRANCH   3   8
HETATM    8  C12 UNL     1       1.728  -0.166  -0.496  1.00  0.00     0.266 C 
HETATM    9  O5  UNL     1       1.479  -1.020  -1.408  1.00  0.00    -0.266 OA
HETATM   10  N2  UNL     1       2.400  -0.659   0.646  1.00  0.00    -0.348 N 
ATOM     11  H2  UNL     1       2.610  -0.003   1.398  1.00  0.00     0.163 HD
BRANCH  10  12
HETATM   12  C13 UNL     1       2.800  -2.009   0.811  1.00  0.00     0.022 C 
HETATM   13  C14 UNL     1       3.803  -2.405  -0.289  1.00  0.00     0.037 C 
HETATM   14  C15 UNL     1       3.500  -2.219   2.136  1.00  0.00     0.037 C 
HETATM   15  C16 UNL     1       1.699  -3.033   0.725  1.00  0.00     0.037 C 
ENDBRANCH  10  12
ENDBRANCH   3   8
ENDBRANCH   1   3
BRANCH   1  16
HETATM   16  O1  UNL     1      -0.956   1.318  -1.114  1.00  0.00    -0.247 OA
BRANCH  16  17
HETATM   17  C6  UNL     1      -1.703   0.264  -0.782  1.00  0.00     0.291 C 
HETATM   18  C7  UNL     1      -2.434   0.477   0.552  1.00  0.00     0.097 C 
HETATM   19  C8  UNL     1      -2.776  -0.894   1.080  1.00  0.00     0.154 C 
HETATM   20  C9  UNL     1      -3.160  -1.722  -0.140  1.00  0.00     0.175 C 
HETATM   21  C10 UNL     1      -3.686  -0.822  -1.221  1.00  0.00     0.152 C 
HETATM   22  C11 UNL     1      -4.292  -1.667  -2.317  1.00  0.00     0.042 C 
HETATM   23  O4  UNL     1      -2.718   0.000  -1.741  1.00  0.00    -0.351 OA
BRANCH  19  24
HETATM   24  O2  UNL     1      -1.688  -1.433   1.741  1.00  0.00    -0.393 OA
ATOM     25  H2  UNL     1      -1.903  -2.296   2.074  1.00  0.00     0.210 HD
ENDBRANCH  19  24
BRANCH  20  26
HETATM   26  O3  UNL     1      -4.189  -2.569   0.295  1.00  0.00    -0.390 OA
ATOM     27  H3  UNL     1      -4.428  -3.085  -0.466  1.00  0.00     0.210 HD
ENDBRANCH  20  26
ENDBRANCH  16  17
ENDBRANCH   1  16
TORSDOF 9
