REMARK  12 active torsions:
REMARK  status: ('A' for Active; 'I' for Inactive)
REMARK    1  A    between atoms: C2_2  and  O1_3 
REMARK    2  A    between atoms: C5_7  and  C6_8 
REMARK    3  A    between atoms: C6_8  and  O2_9 
REMARK    4  A    between atoms: O2_9  and  S1_10 
REMARK    5  A    between atoms: C8_16  and  C9_17 
REMARK    6  A    between atoms: C9_17  and  C10_18 
REMARK    7  A    between atoms: C10_18  and  C11_19 
REMARK    8  A    between atoms: C11_19  and  C12_20 
REMARK    9  A    between atoms: C14_22  and  O6_23 
REMARK   10  A    between atoms: C15_25  and  O7_26 
REMARK   11  A    between atoms: C16_28  and  C17_29 
REMARK   12  A    between atoms: C17_29  and  O8_30 
ROOT
HETATM    1  C1  UNL     1      -2.091  -0.277   1.139  1.00  0.00     0.051 C 
HETATM    2  C2  UNL     1      -1.669   0.960   0.355  1.00  0.00     0.087 C 
HETATM    3  C3  UNL     1      -2.726   2.007   0.849  1.00  0.00     0.044 C 
HETATM    4  C4  UNL     1      -4.102   1.444   0.853  1.00  0.00     0.021 C 
HETATM    5  C5  UNL     1      -4.640   1.023  -0.475  1.00  0.00     0.077 C 
HETATM    6  S2  UNL     1      -3.432   0.013  -1.374  1.00  0.00    -0.124 SA
HETATM    7  C7  UNL     1      -1.834   0.909  -1.083  1.00  0.00     0.009 C 
HETATM    8  C8  UNL     1      -0.841   0.586  -2.083  1.00  0.00    -0.010 C 
ENDROOT
BRANCH   8   9
HETATM    9  C9  UNL     1      -0.107  -0.665  -2.191  1.00  0.00     0.028 C 
BRANCH   9  10
HETATM   10  C10 UNL     1       0.897  -1.053  -1.157  1.00  0.00     0.006 C 
BRANCH  10  11
HETATM   11  C11 UNL     1       2.053  -0.082  -1.123  1.00  0.00     0.032 C 
BRANCH  11  12
HETATM   12  C12 UNL     1       3.085  -0.401  -0.103  1.00  0.00     0.124 C 
HETATM   13  C13 UNL     1       3.728  -1.745  -0.285  1.00  0.00     0.066 C 
HETATM   14  C14 UNL     1       5.145  -1.823   0.113  1.00  0.00     0.151 C 
HETATM   15  C15 UNL     1       5.637  -0.747   1.021  1.00  0.00     0.178 C 
HETATM   16  C16 UNL     1       4.808   0.510   0.984  1.00  0.00     0.176 C 
HETATM   17  O9  UNL     1       4.092   0.559  -0.203  1.00  0.00    -0.376 OA
BRANCH  14  18
HETATM   18  O6  UNL     1       5.936  -1.870  -1.044  1.00  0.00    -0.393 OA
ATOM     19  H6  UNL     1       6.849  -1.920  -0.787  1.00  0.00     0.210 HD
ENDBRANCH  14  18
BRANCH  15  20
HETATM   20  O7  UNL     1       6.941  -0.381   0.647  1.00  0.00    -0.390 OA
ATOM     21  H7  UNL     1       7.254   0.304   1.225  1.00  0.00     0.210 HD
ENDBRANCH  15  20
BRANCH  16  22
HETATM   22  C17 UNL     1       5.655   1.753   1.096  1.00  0.00     0.198 C 
BRANCH  22  23
HETATM   23  O8  UNL     1       4.800   2.851   1.085  1.00  0.00    -0.398 OA
ATOM     24  H8  UNL     1       5.333   3.634   1.156  1.00  0.00     0.209 HD
ENDBRANCH  22  23
ENDBRANCH  16  22
ENDBRANCH  11  12
ENDBRANCH  10  11
ENDBRANCH   9  10
ENDBRANCH   8   9
BRANCH   2  25
HETATM   25  O1  UNL     1      -0.477   1.468   0.843  1.00  0.00    -0.385 OA
ATOM     26  H1  UNL     1      -0.214   2.239   0.354  1.00  0.00     0.211 HD
ENDBRANCH   2  25
BRANCH   5  27
HETATM   27  C6  UNL     1      -5.955   0.327  -0.311  1.00  0.00     0.208 C 
BRANCH  27  28
HETATM   28  O2  UNL     1      -5.801  -0.785   0.474  1.00  0.00    -0.256 OA
BRANCH  28  29
HETATM   29  S1  UNL     1      -7.219  -1.631   0.716  1.00  0.00     0.251 S 
HETATM   30  O3  UNL     1      -7.387  -2.567  -0.463  1.00  0.00    -0.572 OA
HETATM   31  O4  UNL     1      -8.411  -0.705   0.838  1.00  0.00    -0.572 OA
HETATM   32  O5  UNL     1      -7.142  -2.593   2.092  1.00  0.00    -0.572 OA
ENDBRANCH  28  29
ENDBRANCH  27  28
ENDBRANCH   5  27
TORSDOF 12
