REMARK  6 active torsions:
REMARK  status: ('A' for Active; 'I' for Inactive)
REMARK    1  A    between atoms: C2_2  and  C3_3 
REMARK    2  A    between atoms: C3_3  and  N1_4 
REMARK    3  A    between atoms: C4_5  and  O1_6 
REMARK    4  A    between atoms: C5_8  and  C6_9 
REMARK    5  A    between atoms: C6_9  and  C7_10 
REMARK       I    between atoms: C7_10  and  N2_12 
REMARK    6  A    between atoms: N2_12  and  C8_14 
ROOT
HETATM    1  C7  UNL     1       1.940  -0.828   0.101  1.00  0.00     0.222 C 
HETATM    2  O2  UNL     1       2.475  -0.043  -0.713  1.00  0.00    -0.273 OA
HETATM    3  N2  UNL     1       0.538  -0.865   0.209  1.00  0.00    -0.356 N 
ATOM      4  H2  UNL     1       0.099  -1.503   0.872  1.00  0.00     0.162 HD
ENDROOT
BRANCH   3   5
HETATM    5  C8  UNL     1      -0.276  -0.017  -0.602  1.00  0.00     0.084 C 
HETATM    6  C9  UNL     1      -1.074   0.950   0.285  1.00  0.00     0.026 C 
HETATM    7  C10 UNL     1      -2.182   0.138   0.917  1.00  0.00     0.013 C 
HETATM    8  C11 UNL     1      -3.267  -0.054  -0.090  1.00  0.00    -0.010 C 
HETATM    9  C12 UNL     1      -2.633  -0.096  -1.467  1.00  0.00     0.013 C 
HETATM   10  C14 UNL     1      -4.031  -1.349   0.118  1.00  0.00     0.282 C 
HETATM   11  C17 UNL     1      -4.264   1.077   0.026  1.00  0.00    -0.001 C 
HETATM   12  C13 UNL     1      -1.279  -0.770  -1.436  1.00  0.00     0.026 C 
HETATM   13  N3  UNL     1      -5.464  -1.146   0.088  1.00  0.00     0.089 N 
HETATM   14  C15 UNL     1      -5.862  -0.405  -1.111  1.00  0.00     0.273 C 
HETATM   15  C19 UNL     1      -5.932  -0.364   1.217  1.00  0.00     0.273 C 
HETATM   16  C16 UNL     1      -5.230   0.958  -1.158  1.00  0.00     0.036 C 
HETATM   17  C18 UNL     1      -5.086   0.888   1.270  1.00  0.00     0.036 C 
ENDBRANCH   3   5
BRANCH   1  18
HETATM   18  C6  UNL     1       2.790  -1.706   0.938  1.00  0.00     0.153 C 
BRANCH  18  19
HETATM   19  C5  UNL     1       4.248  -1.448   0.634  1.00  0.00     0.045 A 
HETATM   20  C4  UNL     1       5.014  -0.386   1.047  1.00  0.00     0.158 A 
HETATM   21  N1  UNL     1       6.269  -0.364   0.660  1.00  0.00    -0.309 N 
HETATM   22  C20 UNL     1       6.716  -1.360  -0.098  1.00  0.00     0.147 A 
HETATM   23  S1  UNL     1       5.355  -2.361  -0.283  1.00  0.00    -0.060 SA
HETATM   24  S2  UNL     1       8.246  -1.558  -0.709  1.00  0.00    -0.052 SA
BRANCH  20  25
HETATM   25  O1  UNL     1       4.396   0.616   1.863  1.00  0.00    -0.345 OA
ATOM     26  H1  UNL     1       3.488   0.600   2.143  1.00  0.00     0.219 HD
ENDBRANCH  20  25
BRANCH  21  27
HETATM   27  C3  UNL     1       7.171   0.752   1.063  1.00  0.00     0.159 C 
BRANCH  27  28
HETATM   28  C2  UNL     1       7.140   1.848   0.088  1.00  0.00    -0.017 C 
HETATM   29  C1  UNL     1       8.251   2.208  -0.529  1.00  0.00     0.008 C 
ENDBRANCH  27  28
ENDBRANCH  21  27
ENDBRANCH  18  19
ENDBRANCH   1  18
TORSDOF 6
