REMARK  2 active torsions:
REMARK  status: ('A' for Active; 'I' for Inactive)
REMARK    1  A    between atoms: N2_3  and  O1_4 
REMARK    2  A    between atoms: N5_10  and  O2_11 
ROOT
HETATM    1  C1  UNL     1      -0.403  -1.369  -0.006  1.00  0.00     0.209 C 
HETATM    2  N1  UNL     1      -0.228   0.081   0.038  1.00  0.00    -0.152 N 
HETATM    3  N2  UNL     1      -1.190   0.965  -0.076  1.00  0.00    -0.059 N 
HETATM    4  N3  UNL     1      -0.661   2.160   0.010  1.00  0.00    -0.181 N 
ATOM      5  H3  UNL     1      -1.165   3.045  -0.044  1.00  0.00     0.214 HD
HETATM    6  N4  UNL     1       0.630   2.018   0.178  1.00  0.00    -0.181 N 
ATOM      7  H4  UNL     1       1.305   2.776   0.278  1.00  0.00     0.214 HD
HETATM    8  N5  UNL     1       0.909   0.734   0.196  1.00  0.00    -0.059 N 
ENDROOT
BRANCH   3   9
HETATM    9  O1  UNL     1      -2.529   0.661  -0.256  1.00  0.00    -0.251 OA
ATOM     10  H1  UNL     1      -3.226   1.301  -0.339  1.00  0.00     0.248 HD
ENDBRANCH   3   9
BRANCH   8  11
HETATM   11  O2  UNL     1       2.159   0.139   0.352  1.00  0.00    -0.251 OA
ATOM     12  H2  UNL     1       2.977   0.609   0.466  1.00  0.00     0.248 HD
ENDBRANCH   8  11
TORSDOF 2
