REMARK  4 active torsions:
REMARK  status: ('A' for Active; 'I' for Inactive)
REMARK    1  A    between atoms: N1_1  and  C1_5 
REMARK    2  A    between atoms: C1_5  and  C2_6 
REMARK    3  A    between atoms: C2_6  and  N2_7 
REMARK    4  A    between atoms: N2_7  and  C3_9 
ROOT
HETATM    1  C3  UNL     1       0.627  -0.306  -0.555  1.00  0.00     0.174 C 
HETATM    2  C4  UNL     1       1.452   0.996  -0.655  1.00  0.00     0.073 C 
HETATM    3  C5  UNL     1       1.776   1.376   0.781  1.00  0.00     0.238 C 
HETATM    4  N3  UNL     1       2.709   0.427   1.347  1.00  0.00    -0.060 N 
ATOM      5  H31 UNL     1       2.719   0.486   2.365  1.00  0.00     0.279 HD
ATOM      6  H32 UNL     1       3.672   0.703   1.157  1.00  0.00     0.279 HD
HETATM    7  C6  UNL     1       2.461  -0.925   0.908  1.00  0.00     0.351 C 
HETATM    8  N4  UNL     1       1.109  -1.095   0.520  1.00  0.00    -0.380 N 
ATOM      9  H4  UNL     1       0.503  -1.762   0.998  1.00  0.00     0.156 HD
ENDROOT
BRANCH   1  10
HETATM   10  N2  UNL     1      -0.735   0.069  -0.379  1.00  0.00    -0.400 N 
ATOM     11  H2  UNL     1      -1.136   0.842  -0.910  1.00  0.00     0.155 HD
BRANCH  10  12
HETATM   12  C2  UNL     1      -1.515  -0.649   0.542  1.00  0.00     0.143 C 
BRANCH  12  13
HETATM   13  C1  UNL     1      -2.890   0.012   0.673  1.00  0.00     0.248 C 
BRANCH  13  14
HETATM   14  N1  UNL     1      -3.592   0.051  -0.573  1.00  0.00    -0.078 N 
ATOM     15  H13 UNL     1      -3.033   0.502  -1.297  1.00  0.00     0.274 HD
ATOM     16  H12 UNL     1      -3.668  -0.880  -0.983  1.00  0.00     0.274 HD
ATOM     17  H11 UNL     1      -4.508   0.491  -0.486  1.00  0.00     0.274 HD
ENDBRANCH  13  14
ENDBRANCH  12  13
ENDBRANCH  10  12
ENDBRANCH   1  10
TORSDOF 4
