REMARK  8 active torsions:
REMARK  status: ('A' for Active; 'I' for Inactive)
REMARK    1  A    between atoms: C2_2  and  O1_3 
REMARK    2  A    between atoms: O1_3  and  C3_4 
REMARK    3  A    between atoms: C3_4  and  C4_6 
REMARK    4  A    between atoms: C4_6  and  C5_7 
REMARK    5  A    between atoms: C5_7  and  C6_8 
REMARK    6  A    between atoms: C6_8  and  O3_9 
REMARK    7  A    between atoms: C9_13  and  N1_14 
REMARK       I    between atoms: N1_14  and  C10_16 
REMARK    8  A    between atoms: C10_16  and  C11_18 
ROOT
HETATM    1  C5  UNL     1       2.458  -0.269   0.726  1.00  0.00    -0.010 C 
HETATM    2  C7  UNL     1       1.500   0.345   1.738  1.00  0.00     0.014 C 
HETATM    3  C8  UNL     1       0.065   0.085   1.446  1.00  0.00     0.026 C 
HETATM    4  C9  UNL     1      -0.356   0.595   0.080  1.00  0.00     0.084 C 
HETATM    5  C17 UNL     1       0.693   0.418  -0.959  1.00  0.00     0.026 C 
HETATM    6  C18 UNL     1       1.838  -0.460  -0.609  1.00  0.00     0.014 C 
ENDROOT
BRANCH   4   7
HETATM    7  N1  UNL     1      -1.648   0.050  -0.274  1.00  0.00    -0.356 N 
HETATM    8  C10 UNL     1      -2.800   0.872  -0.316  1.00  0.00     0.222 C 
HETATM    9  O4  UNL     1      -2.700   2.102  -0.047  1.00  0.00    -0.273 OA
ATOM     10  H1  UNL     1      -1.731  -0.942  -0.497  1.00  0.00     0.162 HD
BRANCH   8  11
HETATM   11  C11 UNL     1      -4.146   0.352  -0.667  1.00  0.00     0.078 C 
HETATM   12  C12 UNL     1      -4.415  -0.782   0.313  1.00  0.00     0.014 C 
HETATM   13  C13 UNL     1      -5.818  -1.279   0.302  1.00  0.00     0.001 C 
HETATM   14  C14 UNL     1      -6.798  -0.383  -0.381  1.00  0.00     0.000 C 
HETATM   15  C15 UNL     1      -6.479   1.031   0.020  1.00  0.00     0.001 C 
HETATM   16  C16 UNL     1      -5.149   1.467  -0.489  1.00  0.00     0.014 C 
ENDBRANCH   8  11
ENDBRANCH   4   7
BRANCH   1  17
HETATM   17  C4  UNL     1       3.677   0.587   0.772  1.00  0.00     0.122 C 
BRANCH  17  18
HETATM   18  C3  UNL     1       4.841   0.146   0.019  1.00  0.00     0.259 C 
HETATM   19  O2  UNL     1       5.546  -0.839   0.431  1.00  0.00    -0.265 OA
BRANCH  18  20
HETATM   20  O1  UNL     1       5.277   0.728  -1.158  1.00  0.00    -0.322 OA
BRANCH  20  21
HETATM   21  C2  UNL     1       6.407   0.319  -1.897  1.00  0.00     0.174 C 
HETATM   22  C1  UNL     1       7.629   0.466  -1.025  1.00  0.00     0.034 C 
ENDBRANCH  20  21
ENDBRANCH  18  20
ENDBRANCH  17  18
ENDBRANCH   1  17
BRANCH   1  23
HETATM   23  C6  UNL     1       2.796  -1.656   1.274  1.00  0.00     0.174 C 
BRANCH  23  24
HETATM   24  O3  UNL     1       1.657  -2.485   1.245  1.00  0.00    -0.400 OA
ATOM     25  H3  UNL     1       1.867  -3.347   1.585  1.00  0.00     0.209 HD
ENDBRANCH  23  24
ENDBRANCH   1  23
TORSDOF 8
