REMARK  7 active torsions:
REMARK  status: ('A' for Active; 'I' for Inactive)
REMARK    1  A    between atoms: N1_1  and  C1_4 
REMARK    2  A    between atoms: N2_8  and  C4_9 
REMARK    3  A    between atoms: C4_9  and  C5_10 
REMARK    4  A    between atoms: C5_10  and  C6_11 
REMARK       I    between atoms: C6_11  and  N3_13 
REMARK    5  A    between atoms: N3_13  and  C7_15 
REMARK    6  A    between atoms: C7_15  and  C8_16 
REMARK    7  A    between atoms: C8_16  and  C9_17 
ROOT
HETATM    1  C6  UNL     1       2.275  -1.065  -0.693  1.00  0.00     0.219 C 
HETATM    2  O1  UNL     1       2.537  -1.575  -1.804  1.00  0.00    -0.274 OA
HETATM    3  N3  UNL     1       0.957  -1.163  -0.130  1.00  0.00    -0.361 N 
ATOM      4  H3  UNL     1       0.729  -0.751   0.775  1.00  0.00     0.162 HD
ENDROOT
BRANCH   3   5
HETATM    5  C7  UNL     1      -0.023  -1.869  -0.903  1.00  0.00     0.123 C 
BRANCH   5   6
HETATM    6  C8  UNL     1      -1.394  -1.950  -0.384  1.00  0.00     0.029 C 
BRANCH   6   7
HETATM    7  C9  UNL     1      -2.218  -0.736  -0.240  1.00  0.00    -0.038 C 
HETATM    8  C10 UNL     1      -2.445  -0.005  -1.552  1.00  0.00     0.014 C 
HETATM    9  C11 UNL     1      -3.406   1.127  -1.281  1.00  0.00    -0.013 C 
HETATM   10  C12 UNL     1      -2.905   2.123  -0.279  1.00  0.00     0.009 C 
HETATM   11  C16 UNL     1      -4.760   0.549  -0.852  1.00  0.00     0.009 C 
HETATM   12  C13 UNL     1      -2.685   1.385   1.029  1.00  0.00    -0.013 C 
HETATM   13  C14 UNL     1      -3.984   0.860   1.527  1.00  0.00     0.009 C 
HETATM   14  C18 UNL     1      -1.687   0.273   0.727  1.00  0.00     0.014 C 
HETATM   15  C15 UNL     1      -4.548  -0.093   0.481  1.00  0.00    -0.013 C 
HETATM   16  C17 UNL     1      -3.578  -1.229   0.308  1.00  0.00     0.014 C 
ENDBRANCH   6   7
ENDBRANCH   5   6
ENDBRANCH   3   5
BRANCH   1  17
HETATM   17  C5  UNL     1       3.348  -0.357   0.034  1.00  0.00     0.123 C 
BRANCH  17  18
HETATM   18  C4  UNL     1       4.632  -0.392  -0.762  1.00  0.00     0.139 C 
BRANCH  18  19
HETATM   19  N2  UNL     1       5.632   0.341   0.052  1.00  0.00    -0.337 N 
HETATM   20  C1  UNL     1       5.766   1.652  -0.105  1.00  0.00     0.144 A 
HETATM   21  S1  UNL     1       7.003   2.051   1.000  1.00  0.00    -0.065 SA
HETATM   22  C2  UNL     1       7.292   0.487   1.621  1.00  0.00     0.070 A 
HETATM   23  C3  UNL     1       6.392  -0.271   0.919  1.00  0.00     0.100 A 
BRANCH  20  24
HETATM   24  N1  UNL     1       5.130   2.481  -0.897  1.00  0.00    -0.379 N 
ATOM     25  H12 UNL     1       5.233   3.489  -1.018  1.00  0.00     0.158 HD
ATOM     26  H11 UNL     1       4.390   2.242  -1.558  1.00  0.00     0.158 HD
ENDBRANCH  20  24
ENDBRANCH  18  19
ENDBRANCH  17  18
ENDBRANCH   1  17
TORSDOF 7
