REMARK  15 active torsions:
REMARK  status: ('A' for Active; 'I' for Inactive)
REMARK    1  A    between atoms: O1_2  and  C2_3 
REMARK    2  A    between atoms: C2_3  and  C3_8 
REMARK    3  A    between atoms: N1_4  and  O2_6 
REMARK    4  A    between atoms: C4_11  and  C5_12 
REMARK    5  A    between atoms: C5_12  and  O3_13 
REMARK    6  A    between atoms: O3_13  and  C6_14 
REMARK    7  A    between atoms: C6_14  and  N3_15 
REMARK    8  A    between atoms: C6_14  and  N7_22 
REMARK    9  A    between atoms: N3_15  and  N4_16 
REMARK   10  A    between atoms: N4_16  and  N5_17 
REMARK   11  A    between atoms: N5_17  and  N6_19 
REMARK   12  A    between atoms: N7_22  and  C7_24 
REMARK   13  A    between atoms: C8_30  and  C9_31 
REMARK   14  A    between atoms: C9_31  and  O5_32 
REMARK   15  A    between atoms: C9_31  and  N10_34 
REMARK       I    between atoms: N10_34  and  C10_36 
REMARK       I    between atoms: C10_36  and  N11_37 
REMARK       I    between atoms: C10_36  and  N12_41 
ROOT
HETATM    1  C6  UNL     1      -0.396  -0.874  -0.321  1.00  0.00     0.320 C 
ENDROOT
BRANCH   1   2
HETATM    2  O3  UNL     1       0.091   0.302  -0.835  1.00  0.00    -0.304 OA
BRANCH   2   3
HETATM    3  C5  UNL     1       1.042   1.014  -1.345  1.00  0.00     0.239 C 
BRANCH   3   4
HETATM    4  C4  UNL     1       2.336   1.158  -0.529  1.00  0.00     0.066 A 
HETATM    5  N2  UNL     1       3.267   0.241  -0.527  1.00  0.00    -0.347 N 
HETATM    6  C3  UNL     1       4.434   0.445   0.016  1.00  0.00     0.129 A 
ATOM      7  H2  UNL     1       3.075  -0.661  -0.963  1.00  0.00     0.166 HD
HETATM    8  S1  UNL     1       4.250   2.083   0.604  1.00  0.00    -0.051 SA
HETATM    9  C11 UNL     1       2.653   2.354   0.072  1.00  0.00     0.114 A 
HETATM   10  N13 UNL     1       1.836   3.518   0.216  1.00  0.00    -0.092 NA
BRANCH   6  11
HETATM   11  C2  UNL     1       5.752  -0.205  -0.022  1.00  0.00     0.196 C 
HETATM   12  N1  UNL     1       6.367  -0.786   0.851  1.00  0.00    -0.245 N 
ATOM     13  H1  UNL     1       7.251  -1.077   0.434  1.00  0.00     0.196 HD
BRANCH  11  14
HETATM   14  O1  UNL     1       6.430  -0.125  -1.304  1.00  0.00    -0.337 OA
HETATM   15  C1  UNL     1       7.829   0.181  -1.272  1.00  0.00     0.211 C 
ENDBRANCH  11  14
BRANCH  12  16
HETATM   16  O2  UNL     1       6.390  -1.195   2.072  1.00  0.00    -0.288 OA
ATOM     17  H2  UNL     1       6.871  -1.649   2.754  1.00  0.00     0.244 HD
ENDBRANCH  12  16
ENDBRANCH   6  11
ENDBRANCH   3   4
ENDBRANCH   2   3
ENDBRANCH   1   2
BRANCH   1  18
HETATM   18  N3  UNL     1       0.433  -1.605   0.101  1.00  0.00    -0.264 NA
BRANCH  18  19
HETATM   19  N4  UNL     1       1.098  -2.615   0.638  1.00  0.00     0.078 NA
BRANCH  19  20
HETATM   20  N5  UNL     1       0.978  -2.684   1.974  1.00  0.00    -0.221 N 
ATOM     21  H5  UNL     1       0.414  -1.999   2.477  1.00  0.00     0.206 HD
BRANCH  20  22
HETATM   22  N6  UNL     1       1.611  -3.668   2.641  1.00  0.00    -0.332 N 
ATOM     23  H62 UNL     1       2.171  -4.345   2.123  1.00  0.00     0.178 HD
ATOM     24  H61 UNL     1       1.520  -3.720   3.656  1.00  0.00     0.178 HD
ENDBRANCH  20  22
ENDBRANCH  19  20
ENDBRANCH  18  19
ENDBRANCH   1  18
BRANCH   1  25
HETATM   25  N7  UNL     1      -1.801  -0.948  -0.389  1.00  0.00    -0.291 N 
ATOM     26  H7  UNL     1      -2.189  -0.276  -1.051  1.00  0.00     0.172 HD
BRANCH  25  27
HETATM   27  C7  UNL     1      -2.677  -1.623   0.153  1.00  0.00     0.164 A 
HETATM   28  N8  UNL     1      -2.685  -2.629   1.075  1.00  0.00    -0.223 N 
HETATM   29  O4  UNL     1      -3.869  -2.901   1.414  1.00  0.00    -0.155 OA
ATOM     30  H8  UNL     1      -1.853  -3.094   1.438  1.00  0.00     0.198 HD
HETATM   31  N9  UNL     1      -4.734  -2.160   0.806  1.00  0.00    -0.234 N 
HETATM   32  C8  UNL     1      -4.057  -1.320  -0.012  1.00  0.00     0.153 A 
ATOM     33  H9  UNL     1      -5.747  -2.200   0.921  1.00  0.00     0.197 HD
BRANCH  32  34
HETATM   34  C9  UNL     1      -4.660  -0.345  -0.912  1.00  0.00     0.172 C 
BRANCH  34  35
HETATM   35  O5  UNL     1      -4.113  -0.253  -2.091  1.00  0.00    -0.344 OA
ATOM     36  H5  UNL     1      -4.506   0.383  -2.678  1.00  0.00     0.219 HD
ENDBRANCH  34  35
BRANCH  34  37
HETATM   37  N10 UNL     1      -5.733   0.388  -0.488  1.00  0.00    -0.320 N 
HETATM   38  C10 UNL     1      -6.565   1.387  -1.068  1.00  0.00     0.482 C 
HETATM   39  N11 UNL     1      -7.853   1.490  -0.379  1.00  0.00    -0.033 N 
HETATM   40  N12 UNL     1      -5.960   2.728  -0.944  1.00  0.00    -0.033 N 
ATOM     41 3H11 UNL     1      -8.327   0.588  -0.342  1.00  0.00     0.278 HD
ATOM     42 2H11 UNL     1      -7.728   1.646   0.621  1.00  0.00     0.278 HD
ATOM     43 1H11 UNL     1      -8.449   2.206  -0.795  1.00  0.00     0.278 HD
ATOM     44 3H12 UNL     1      -5.732   2.948   0.026  1.00  0.00     0.278 HD
ATOM     45 2H12 UNL     1      -5.018   2.751  -1.336  1.00  0.00     0.278 HD
ATOM     46 1H12 UNL     1      -6.556   3.444  -1.360  1.00  0.00     0.278 HD
ATOM     47  H10 UNL     1      -6.001   0.167   0.471  1.00  0.00     0.165 HD
ENDBRANCH  34  37
ENDBRANCH  32  34
ENDBRANCH  25  27
ENDBRANCH   1  25
TORSDOF 15
