REMARK  2 active torsions:
REMARK  status: ('A' for Active; 'I' for Inactive)
REMARK    1  A    between atoms: N1_2  and  C2_4 
REMARK    2  A    between atoms: C5_7  and  C6_8 
ROOT
HETATM    1  C2  UNL     1       2.231  -0.008   0.407  1.00  0.00     0.076 C 
HETATM    2  C3  UNL     1       1.623   1.279  -0.051  1.00  0.00     0.025 C 
HETATM    3  C4  UNL     1       0.304   1.105  -0.756  1.00  0.00     0.013 C 
HETATM    4  C5  UNL     1      -0.697   0.279  -0.033  1.00  0.00    -0.024 C 
HETATM    5  C8  UNL     1      -1.806  -0.032  -1.060  1.00  0.00     0.011 C 
HETATM    6  C9  UNL     1      -2.811  -0.988  -0.537  1.00  0.00     0.001 C 
HETATM    7  C10 UNL     1      -2.303  -2.162   0.213  1.00  0.00     0.000 C 
HETATM    8  C11 UNL     1      -1.038  -1.900   0.994  1.00  0.00     0.005 C 
HETATM    9  C12 UNL     1      -0.066  -1.039   0.262  1.00  0.00    -0.003 C 
HETATM   10  C13 UNL     1       1.265  -1.008   0.929  1.00  0.00     0.030 C 
ENDROOT
BRANCH   1  11
HETATM   11  N1  UNL     1       3.086  -0.623  -0.586  1.00  0.00    -0.421 N 
HETATM   12  C1  UNL     1       4.223   0.139  -0.955  1.00  0.00     0.140 C 
ATOM     13  H1  UNL     1       2.885  -1.538  -0.991  1.00  0.00     0.153 HD
ENDBRANCH   1  11
BRANCH   4  14
HETATM   14  C6  UNL     1      -1.387   0.932   1.109  1.00  0.00     0.063 C 
HETATM   15  C7  UNL     1      -2.139   2.152   0.660  1.00  0.00     0.023 C 
HETATM   16  S1  UNL     1      -0.389   1.241   2.560  1.00  0.00    -0.092 SA
ENDBRANCH   4  14
TORSDOF 2
