REMARK  1 active torsions:
REMARK  status: ('A' for Active; 'I' for Inactive)
REMARK    1  A    between atoms: C3_3  and  O1_4 
ROOT
HETATM    1  C1  UNL     1       2.648  -1.635  -1.302  1.00  0.00     0.052 C 
HETATM    2  C2  UNL     1       2.527  -0.458  -0.420  1.00  0.00    -0.014 A 
HETATM    3  C3  UNL     1       3.657   0.207   0.050  1.00  0.00     0.089 A 
HETATM    4  C4  UNL     1       3.513   1.337   0.858  1.00  0.00     0.046 A 
HETATM    5 BR1  UNL     1       5.088   2.205   1.470  1.00  0.00    -0.048 Br
HETATM    6  C5  UNL     1       2.247   1.769   1.174  1.00  0.00     0.052 A 
HETATM    7  C6  UNL     1       1.137   1.104   0.705  1.00  0.00     0.047 A 
HETATM    8  C7  UNL     1       1.252  -0.014  -0.094  1.00  0.00     0.009 A 
HETATM    9  C8  UNL     1      -0.036  -0.458  -0.404  1.00  0.00     0.002 A 
HETATM   10  C9  UNL     1      -0.899   0.412   0.218  1.00  0.00     0.030 A 
HETATM   11  N1  UNL     1      -0.161   1.346   0.882  1.00  0.00    -0.353 N 
HETATM   12  C10 UNL     1      -0.702   2.432   1.659  1.00  0.00     0.156 C 
HETATM   13  C11 UNL     1      -2.297   0.041  -0.065  1.00  0.00     0.019 C 
HETATM   14  C12 UNL     1      -2.840   0.871  -1.230  1.00  0.00     0.024 C 
HETATM   15  C13 UNL     1      -3.199   0.288   1.114  1.00  0.00     0.024 C 
HETATM   16  C14 UNL     1      -2.222  -1.376  -0.485  1.00  0.00     0.140 C 
HETATM   17  N2  UNL     1      -2.134  -2.295   0.644  1.00  0.00    -0.317 N 
ATOM     18  H2  UNL     1      -2.767  -2.300   1.444  1.00  0.00     0.181 HD
HETATM   19  N3  UNL     1      -1.163  -3.081   0.488  1.00  0.00    -0.250 N 
ATOM     20  H3  UNL     1      -0.902  -3.813   1.148  1.00  0.00     0.203 HD
HETATM   21  N4  UNL     1      -0.490  -2.819  -0.708  1.00  0.00    -0.114 NA
HETATM   22  C15 UNL     1      -0.832  -1.481  -1.111  1.00  0.00     0.161 C 
ENDROOT
BRANCH   3  23
HETATM   23  O1  UNL     1       4.921  -0.209  -0.253  1.00  0.00    -0.359 OA
ATOM     24  H1  UNL     1       5.692   0.245   0.068  1.00  0.00     0.217 HD
ENDBRANCH   3  23
TORSDOF 1
