REMARK  2 active torsions:
REMARK  status: ('A' for Active; 'I' for Inactive)
REMARK    1  A    between atoms: O1_2  and  C2_3 
REMARK       I    between atoms: C2_3  and  N1_5 
REMARK    2  A    between atoms: C7_11  and  N2_12 
ROOT
HETATM    1  C2  UNL     1      -3.521  -0.146  -0.529  1.00  0.00     0.372 C 
HETATM    2  O2  UNL     1      -3.563  -0.965  -1.476  1.00  0.00    -0.238 OA
HETATM    3  N1  UNL     1      -2.315   0.297   0.090  1.00  0.00    -0.244 N 
HETATM    4  C3  UNL     1      -2.208   1.154   1.086  1.00  0.00     0.093 A 
HETATM    5 BR1  UNL     1      -3.689   2.008   1.937  1.00  0.00    -0.030 Br
HETATM    6  C4  UNL     1      -0.850   1.311   1.389  1.00  0.00     0.053 A 
HETATM    7  C5  UNL     1      -0.099   0.503   0.525  1.00  0.00     0.016 A 
HETATM    8  C6  UNL     1       1.196   0.166   0.254  1.00  0.00     0.038 A 
HETATM    9  C7  UNL     1       2.387   0.604   0.865  1.00  0.00     0.111 A 
HETATM   10  N3  UNL     1       3.589   0.153   0.454  1.00  0.00    -0.346 N 
ATOM     11  H3  UNL     1       4.413   0.508   0.938  1.00  0.00     0.167 HD
HETATM   12  C8  UNL     1       3.785  -0.707  -0.520  1.00  0.00     0.008 A 
HETATM   13  C9  UNL     1       5.100  -1.206  -0.977  1.00  0.00     0.068 C 
HETATM   14  C10 UNL     1       2.656  -1.175  -1.160  1.00  0.00     0.044 A 
HETATM   15  C11 UNL     1       1.404  -0.728  -0.757  1.00  0.00     0.023 A 
HETATM   16  S1  UNL     1      -0.176  -1.076  -1.300  1.00  0.00    -0.070 SA
HETATM   17  C12 UNL     1      -1.056  -0.087  -0.240  1.00  0.00     0.098 A 
ENDROOT
BRANCH   1  18
HETATM   18  O1  UNL     1      -4.715   0.359  -0.054  1.00  0.00    -0.308 OA
HETATM   19  C1  UNL     1      -5.965  -0.003  -0.583  1.00  0.00     0.215 C 
ENDBRANCH   1  18
BRANCH   9  20
HETATM   20  N2  UNL     1       2.429   1.432   1.822  1.00  0.00    -0.385 N 
ATOM     21  H22 UNL     1       1.519   1.773   2.133  1.00  0.00     0.157 HD
ATOM     22  H21 UNL     1       3.292   1.749   2.264  1.00  0.00     0.157 HD
ENDBRANCH   9  20
TORSDOF 2
