REMARK  3 active torsions:
REMARK  status: ('A' for Active; 'I' for Inactive)
REMARK    1  A    between atoms: N1_2  and  C2_4 
REMARK       I    between atoms: N2_6  and  C4_8 
REMARK       I    between atoms: C4_8  and  N3_10 
REMARK    2  A    between atoms: C8_17  and  C9_18 
REMARK    3  A    between atoms: C12_21  and  S1_22 
ROOT
HETATM    1  C2  UNL     1       2.782   1.582  -0.579  1.00  0.00     0.076 C 
HETATM    2  C3  UNL     1       2.946   3.060  -0.665  1.00  0.00     0.089 C 
HETATM    3  N2  UNL     1       1.605   1.108  -0.627  1.00  0.00    -0.299 N 
ATOM      4  H2  UNL     1       0.841   1.777  -0.722  1.00  0.00     0.171 HD
HETATM    5  C4  UNL     1       1.254  -0.256  -0.561  1.00  0.00     0.325 C 
HETATM    6  O1  UNL     1       1.844  -1.022  -1.337  1.00  0.00    -0.247 OA
HETATM    7  N3  UNL     1       0.288  -0.724   0.341  1.00  0.00    -0.308 N 
HETATM    8  C5  UNL     1      -0.540  -0.099   1.314  1.00  0.00     0.129 A 
HETATM    9  C6  UNL     1      -1.080  -1.434   1.803  1.00  0.00     0.143 A 
HETATM   10  N4  UNL     1      -2.476  -1.342   1.479  1.00  0.00    -0.351 N 
ATOM     11  H4  UNL     1      -3.084  -2.125   1.240  1.00  0.00     0.163 HD
HETATM   12  C7  UNL     1      -2.866   0.013   1.546  1.00  0.00     0.224 C 
HETATM   13  O2  UNL     1      -3.973   0.511   1.916  1.00  0.00    -0.273 OA
HETATM   14  C8  UNL     1      -1.650   0.791   1.070  1.00  0.00     0.106 C 
HETATM   15  C12 UNL     1      -0.205  -2.020   0.719  1.00  0.00     0.207 A 
ENDROOT
BRANCH  15  16
HETATM   16  S1  UNL     1      -0.980  -3.066  -0.411  1.00  0.00     0.036 S 
HETATM   17  C13 UNL     1       0.004  -3.548  -1.782  1.00  0.00     0.129 C 
HETATM   18  O3  UNL     1      -1.724  -4.385   0.248  1.00  0.00    -0.256 OA
ENDBRANCH  15  16
BRANCH  14  19
HETATM   19  C9  UNL     1      -1.932   1.391  -0.258  1.00  0.00    -0.008 C 
HETATM   20  C10 UNL     1      -3.200   2.306  -0.137  1.00  0.00     0.010 C 
HETATM   21  C11 UNL     1      -2.292   0.424  -1.352  1.00  0.00     0.010 C 
ENDBRANCH  14  19
BRANCH   1  22
HETATM   22  N1  UNL     1       3.964   0.806  -0.449  1.00  0.00    -0.384 N 
HETATM   23  C1  UNL     1       4.382   0.184   0.780  1.00  0.00     0.147 C 
ATOM     24  H1  UNL     1       4.551   0.682  -1.274  1.00  0.00     0.160 HD
ENDBRANCH   1  22
TORSDOF 3
