REMARK  2 active torsions:
REMARK  status: ('A' for Active; 'I' for Inactive)
REMARK    1  A    between atoms: C3_3  and  C4_4 
REMARK       I    between atoms: N1_9  and  C9_10 
REMARK    2  A    between atoms: N5_22  and  C14_23 
ROOT
HETATM    1  C1  UNL     1      -0.675   0.637   3.666  1.00  0.00     0.017 C 
HETATM    2  C2  UNL     1      -0.550   1.204   2.613  1.00  0.00    -0.089 C 
HETATM    3  C3  UNL     1      -0.408   1.915   1.361  1.00  0.00     0.072 C 
ENDROOT
BRANCH   3   4
HETATM    4  C4  UNL     1      -0.686   1.152   0.160  1.00  0.00    -0.004 C 
HETATM    5  C5  UNL     1      -2.049   0.572   0.001  1.00  0.00    -0.003 C 
HETATM    6  C6  UNL     1      -3.069   1.687  -0.176  1.00  0.00     0.021 C 
HETATM    7  C7  UNL     1      -2.525  -0.417   0.983  1.00  0.00     0.021 C 
HETATM    8  C8  UNL     1      -1.853  -0.145  -1.314  1.00  0.00     0.142 C 
HETATM    9  N1  UNL     1      -0.543  -0.752  -1.147  1.00  0.00    -0.316 N 
HETATM   10  C9  UNL     1      -0.302  -2.012  -1.755  1.00  0.00     0.186 C 
HETATM   11  C10 UNL     1       0.263   0.140  -0.370  1.00  0.00     0.224 C 
HETATM   12  N2  UNL     1      -0.984  -3.034  -1.396  1.00  0.00    -0.374 N 
HETATM   13  N3  UNL     1       0.662  -2.205  -2.776  1.00  0.00    -0.064 NA
ATOM     14  H22 UNL     1      -1.678  -2.895  -0.661  1.00  0.00     0.158 HD
ATOM     15  H21 UNL     1      -0.811  -3.939  -1.833  1.00  0.00     0.158 HD
HETATM   16  C11 UNL     1       1.202   0.772  -1.389  1.00  0.00     0.282 C 
HETATM   17  N5  UNL     1       1.219  -0.407   0.517  1.00  0.00    -0.295 N 
HETATM   18  O1  UNL     1       1.103   0.792  -2.627  1.00  0.00    -0.268 OA
HETATM   19  N4  UNL     1       2.239   1.347  -0.616  1.00  0.00    -0.270 N 
HETATM   20  C12 UNL     1       3.119   2.455  -0.946  1.00  0.00     0.164 C 
HETATM   21  C13 UNL     1       2.263   0.609   0.598  1.00  0.00     0.329 C 
HETATM   22  O2  UNL     1       3.054   0.818   1.551  1.00  0.00    -0.246 OA
BRANCH  17  23
HETATM   23  C14 UNL     1       1.371  -1.614   1.295  1.00  0.00     0.126 C 
HETATM   24  C15 UNL     1       2.150  -2.702   0.621  1.00  0.00     0.027 C 
ENDBRANCH  17  23
ENDBRANCH   3   4
TORSDOF 2
