REMARK  6 active torsions:
REMARK  status: ('A' for Active; 'I' for Inactive)
REMARK    1  A    between atoms: C3_3  and  C4_4 
REMARK    2  A    between atoms: C5_5  and  C6_6 
REMARK    3  A    between atoms: C6_6  and  N1_8 
REMARK    4  A    between atoms: C6_6  and  C8_12 
REMARK       I    between atoms: N3_17  and  C12_19 
REMARK    5  A    between atoms: C12_19  and  C13_21 
REMARK    6  A    between atoms: C13_21  and  N4_22 
REMARK       I    between atoms: N4_22  and  C14_24 
ROOT
HETATM    1  C1  UNL     1       7.364  -2.550   2.216  1.00  0.00     0.113 C 
HETATM    2  C2  UNL     1       6.171  -1.789   1.822  1.00  0.00    -0.097 C 
HETATM    3  C3  UNL     1       5.193  -1.168   1.477  1.00  0.00    -0.015 C 
ENDROOT
BRANCH   3   4
HETATM    4  C4  UNL     1       4.059  -0.428   1.056  1.00  0.00    -0.013 C 
HETATM    5  C5  UNL     1       3.106   0.216   0.687  1.00  0.00    -0.051 C 
BRANCH   5   6
HETATM    6  C6  UNL     1       1.943   1.033   0.229  1.00  0.00     0.205 C 
HETATM    7  C7  UNL     1       2.408   2.094  -0.742  1.00  0.00     0.063 C 
BRANCH   6   8
HETATM    8  N1  UNL     1       1.431   1.678   1.406  1.00  0.00    -0.058 N 
ATOM      9  H13 UNL     1       1.203   1.030   2.160  1.00  0.00     0.276 HD
ATOM     10  H12 UNL     1       2.133   2.216   1.915  1.00  0.00     0.276 HD
ATOM     11  H11 UNL     1       0.637   2.236   1.093  1.00  0.00     0.276 HD
ENDBRANCH   6   8
BRANCH   6  12
HETATM   12  C8  UNL     1       0.966   0.076  -0.321  1.00  0.00     0.168 C 
HETATM   13  C9  UNL     1       1.439  -0.738  -1.470  1.00  0.00     0.170 C 
HETATM   14  N2  UNL     1       0.239  -1.267  -2.059  1.00  0.00    -0.220 N 
HETATM   15  C10 UNL     1       0.112  -2.356  -3.015  1.00  0.00     0.168 C 
HETATM   16  C11 UNL     1      -0.863  -0.493  -1.511  1.00  0.00     0.680 C 
HETATM   17  N3  UNL     1      -2.083  -0.816  -1.676  1.00  0.00    -0.158 N 
HETATM   18  N5  UNL     1      -0.278   0.619  -0.810  1.00  0.00    -0.212 N 
HETATM   19  C12 UNL     1      -3.168  -0.103  -1.167  1.00  0.00     0.253 C 
ATOM     20  H3  UNL     1      -2.281  -1.656  -2.219  1.00  0.00     0.187 HD
HETATM   21  O1  UNL     1      -3.662   0.835  -1.868  1.00  0.00    -0.271 OA
HETATM   22  C16 UNL     1      -0.872   1.924  -0.685  1.00  0.00     0.169 C 
BRANCH  19  23
HETATM   23  C13 UNL     1      -3.743  -0.435   0.176  1.00  0.00     0.226 C 
BRANCH  23  24
HETATM   24  N4  UNL     1      -4.835   0.452   0.427  1.00  0.00    -0.353 N 
HETATM   25  C14 UNL     1      -5.578   0.372   1.634  1.00  0.00     0.213 C 
HETATM   26  C15 UNL     1      -6.720   1.286   1.917  1.00  0.00     0.117 C 
HETATM   27  O2  UNL     1      -5.257  -0.492   2.475  1.00  0.00    -0.274 OA
ATOM     28  H4  UNL     1      -5.084   1.153  -0.271  1.00  0.00     0.162 HD
ENDBRANCH  23  24
ENDBRANCH  19  23
ENDBRANCH   6  12
ENDBRANCH   5   6
ENDBRANCH   3   4
TORSDOF 6
