REMARK  7 active torsions:
REMARK  status: ('A' for Active; 'I' for Inactive)
REMARK    1  A    between atoms: C2_2  and  S1_4 
REMARK    2  A    between atoms: S1_4  and  C4_5 
REMARK    3  A    between atoms: C4_5  and  C5_6 
REMARK    4  A    between atoms: C5_6  and  C6_7 
REMARK    5  A    between atoms: C12_14  and  C13_15 
REMARK       I    between atoms: C13_15  and  N1_17 
REMARK    6  A    between atoms: N1_17  and  S2_19 
REMARK    7  A    between atoms: S2_19  and  C14_22 
ROOT
HETATM    1  C5  UNL     1       1.162  -1.058  -0.759  1.00  0.00     0.008 C 
HETATM    2  C8  UNL     1       1.587  -1.451   0.592  1.00  0.00     0.014 C 
HETATM    3  C9  UNL     1       0.847  -2.670   1.117  1.00  0.00     0.001 C 
HETATM    4  C10 UNL     1       0.082  -3.450   0.118  1.00  0.00     0.001 C 
HETATM    5  C11 UNL     1      -0.801  -2.609  -0.712  1.00  0.00     0.015 C 
HETATM    6  C12 UNL     1      -0.348  -1.179  -0.932  1.00  0.00     0.090 C 
ENDROOT
BRANCH   6   7
HETATM    7  C13 UNL     1      -1.164  -0.367  -0.031  1.00  0.00     0.235 C 
HETATM    8  O2  UNL     1      -0.748   0.277   0.940  1.00  0.00    -0.272 OA
HETATM    9  N1  UNL     1      -2.567  -0.307  -0.282  1.00  0.00    -0.254 N 
ATOM     10  H1  UNL     1      -2.954  -0.821  -1.073  1.00  0.00     0.181 HD
BRANCH   9  11
HETATM   11  S2  UNL     1      -3.619   0.611   0.718  1.00  0.00     0.237 S 
HETATM   12  O3  UNL     1      -4.517  -0.203   1.567  1.00  0.00    -0.205 OA
HETATM   13  O4  UNL     1      -2.736   1.441   1.627  1.00  0.00    -0.205 OA
BRANCH  11  14
HETATM   14  C14 UNL     1      -4.612   1.756  -0.200  1.00  0.00     0.130 A 
HETATM   15  C15 UNL     1      -4.369   3.205  -0.176  1.00  0.00     0.023 A 
HETATM   16  C16 UNL     1      -5.443   2.667   0.718  1.00  0.00     0.023 A 
ENDBRANCH  11  14
ENDBRANCH   9  11
ENDBRANCH   6   7
BRANCH   1  17
HETATM   17  C4  UNL     1       1.625   0.240  -1.288  1.00  0.00     0.087 C 
BRANCH  17  18
HETATM   18  S1  UNL     1       1.392   1.799  -0.613  1.00  0.00    -0.164 SA
BRANCH  18  19
HETATM   19  C2  UNL     1       2.377   2.503   0.643  1.00  0.00     0.039 C 
HETATM   20  C1  UNL     1       2.320   1.916   2.003  1.00  0.00     0.021 C 
HETATM   21  C3  UNL     1       3.849   2.661   0.210  1.00  0.00     0.021 C 
ENDBRANCH  18  19
ENDBRANCH  17  18
ENDBRANCH   1  17
BRANCH   1  22
HETATM   22  C6  UNL     1       1.711  -2.113  -1.763  1.00  0.00     0.155 A 
HETATM   23  C7  UNL     1       3.115  -2.251  -1.980  1.00  0.00     0.201 A 
HETATM   24  O1  UNL     1       2.457  -1.407  -2.838  1.00  0.00    -0.380 OA
ENDBRANCH   1  22
TORSDOF 7
