REMARK  5 active torsions:
REMARK  status: ('A' for Active; 'I' for Inactive)
REMARK    1  A    between atoms: C5_5  and  C6_6 
REMARK       I    between atoms: C6_6  and  N1_8 
REMARK    2  A    between atoms: C7_10  and  C8_11 
REMARK    3  A    between atoms: C7_10  and  C13_19 
REMARK    4  A    between atoms: C8_11  and  N2_12 
REMARK    5  A    between atoms: N2_12  and  C9_15 
ROOT
HETATM    1  C6  UNL     1       0.845   0.096   1.653  1.00  0.00     0.226 C 
HETATM    2  O1  UNL     1       0.450   0.900   2.532  1.00  0.00    -0.273 OA
HETATM    3  N1  UNL     1      -0.065  -0.694   0.979  1.00  0.00    -0.328 N 
ATOM      4  H1  UNL     1       0.068  -1.687   1.169  1.00  0.00     0.168 HD
HETATM    5  C7  UNL     1      -1.006  -0.485   0.198  1.00  0.00     0.045 C 
ENDROOT
BRANCH   5   6
HETATM    6  C8  UNL     1      -1.518   0.786  -0.322  1.00  0.00     0.290 C 
BRANCH   6   7
HETATM    7  N2  UNL     1      -0.941   1.981   0.202  1.00  0.00    -0.062 N 
ATOM      8  H22 UNL     1      -0.958   2.029   1.221  1.00  0.00     0.278 HD
ATOM      9  H21 UNL     1       0.072   2.026   0.094  1.00  0.00     0.278 HD
BRANCH   7  10
HETATM   10  C9  UNL     1      -1.652   3.093  -0.451  1.00  0.00     0.115 C 
HETATM   11  C10 UNL     1      -1.445   3.093  -1.943  1.00  0.00     0.045 C 
HETATM   12  C11 UNL     1      -1.156   4.419   0.095  1.00  0.00     0.045 C 
HETATM   13  C12 UNL     1      -3.141   2.980  -0.162  1.00  0.00     0.045 C 
ENDBRANCH   7  10
ENDBRANCH   6   7
ENDBRANCH   5   6
BRANCH   5  14
HETATM   14  C13 UNL     1      -1.716  -1.699  -0.287  1.00  0.00    -0.011 C 
HETATM   15  C14 UNL     1      -1.322  -2.907   0.119  1.00  0.00     0.053 C 
HETATM   16 CL1  UNL     1       0.020  -3.103   1.218  1.00  0.00    -0.085 Cl
HETATM   17  C15 UNL     1      -2.090  -4.057  -0.418  1.00  0.00     0.092 C 
HETATM   18  C16 UNL     1      -3.350  -4.197   0.406  1.00  0.00     0.052 C 
HETATM   19  C17 UNL     1      -1.284  -5.347  -0.207  1.00  0.00     0.052 C 
HETATM   20  O2  UNL     1      -2.332  -3.939  -1.759  1.00  0.00    -0.375 OA
HETATM   21  C18 UNL     1      -2.940  -2.793  -2.170  1.00  0.00     0.174 C 
HETATM   22  C19 UNL     1      -2.872  -1.633  -1.211  1.00  0.00     0.068 C 
ENDBRANCH   5  14
BRANCH   1  23
HETATM   23  C5  UNL     1       2.328   0.048   1.392  1.00  0.00     0.078 C 
HETATM   24  C4  UNL     1       2.569   0.313  -0.041  1.00  0.00     0.014 C 
HETATM   25  C3  UNL     1       3.454   1.499  -0.289  1.00  0.00     0.005 C 
HETATM   26  C2  UNL     1       4.702   1.330   0.543  1.00  0.00    -0.019 C 
HETATM   27  C1  UNL     1       5.343   0.023   0.122  1.00  0.00     0.010 C 
HETATM   28  C21 UNL     1       4.419   1.306   2.015  1.00  0.00     0.005 C 
HETATM   29  C20 UNL     1       3.010   0.944   2.364  1.00  0.00     0.014 C 
ENDBRANCH   1  23
TORSDOF 5
