REMARK  5 active torsions:
REMARK  status: ('A' for Active; 'I' for Inactive)
REMARK    1  A    between atoms: C2_2  and  C3_3 
REMARK    2  A    between atoms: C3_3  and  N1_4 
REMARK       I    between atoms: N1_4  and  C4_6 
REMARK    3  A    between atoms: C4_6  and  C5_8 
REMARK    4  A    between atoms: C5_8  and  N2_9 
REMARK    5  A    between atoms: C8_14  and  C9_15 
ROOT
HETATM    1  N2  UNL     1      -0.988  -1.137  -1.653  1.00  0.00    -0.265 N 
HETATM    2  C6  UNL     1      -1.258  -0.452  -2.858  1.00  0.00     0.294 C 
HETATM    3  O2  UNL     1      -1.926  -0.837  -3.805  1.00  0.00    -0.259 OA
HETATM    4  S1  UNL     1      -0.422   1.124  -2.741  1.00  0.00    -0.023 SA
HETATM    5  C7  UNL     1       0.808   0.471  -1.555  1.00  0.00     0.079 C 
HETATM    6  C8  UNL     1       1.969   1.028  -1.396  1.00  0.00     0.038 C 
HETATM    7  C15 UNL     1       0.122  -0.635  -0.957  1.00  0.00     0.268 C 
HETATM    8  O3  UNL     1       0.506  -1.133   0.160  1.00  0.00    -0.266 OA
ENDROOT
BRANCH   6   9
HETATM    9  C9  UNL     1       3.044   0.620  -0.504  1.00  0.00    -0.011 A 
HETATM   10  C10 UNL     1       3.532   1.501   0.466  1.00  0.00     0.038 A 
HETATM   11  C11 UNL     1       4.557   0.832   1.094  1.00  0.00     0.006 A 
HETATM   12  C12 UNL     1       5.406   1.333   2.206  1.00  0.00     0.068 C 
HETATM   13  N3  UNL     1       4.697  -0.382   0.551  1.00  0.00    -0.363 N 
HETATM   14  C13 UNL     1       3.783  -0.533  -0.427  1.00  0.00     0.015 A 
ATOM     15  H3  UNL     1       5.385  -1.081   0.832  1.00  0.00     0.165 HD
HETATM   16  C14 UNL     1       3.622  -1.725  -1.309  1.00  0.00     0.069 C 
ENDBRANCH   6   9
BRANCH   1  17
HETATM   17  C5  UNL     1      -1.800  -2.253  -1.209  1.00  0.00     0.238 C 
BRANCH  17  18
HETATM   18  C4  UNL     1      -2.935  -1.820  -0.361  1.00  0.00     0.236 C 
HETATM   19  N1  UNL     1      -3.124  -0.447  -0.072  1.00  0.00    -0.360 N 
ATOM     20  H1  UNL     1      -2.479   0.249  -0.445  1.00  0.00     0.162 HD
HETATM   21  O1  UNL     1      -3.744  -2.649   0.114  1.00  0.00    -0.272 OA
BRANCH  19  22
HETATM   22  C3  UNL     1      -4.232  -0.039   0.752  1.00  0.00     0.122 C 
BRANCH  22  23
HETATM   23  C2  UNL     1      -4.308   1.439   0.974  1.00  0.00     0.015 C 
HETATM   24  C1  UNL     1      -5.528   1.694   1.857  1.00  0.00     0.006 C 
ENDBRANCH  22  23
ENDBRANCH  19  22
ENDBRANCH  17  18
ENDBRANCH   1  17
TORSDOF 5
