REMARK  11 active torsions:
REMARK  status: ('A' for Active; 'I' for Inactive)
REMARK    1  A    between atoms: O1_2  and  C2_3 
REMARK    2  A    between atoms: C3_4  and  O2_5 
REMARK    3  A    between atoms: C4_7  and  N1_8 
REMARK    4  A    between atoms: C6_13  and  N2_14 
REMARK    5  A    between atoms: C7_18  and  O3_19 
REMARK    6  A    between atoms: O3_19  and  C8_20 
REMARK    7  A    between atoms: C8_20  and  C9_22 
REMARK    8  A    between atoms: C9_22  and  S1_23 
REMARK    9  A    between atoms: S1_23  and  C10_24 
REMARK   10  A    between atoms: C10_24  and  C11_25 
REMARK   11  A    between atoms: C11_25  and  N3_26 
ROOT
HETATM    1  N3  UNL     1       5.034   0.901  -0.666  1.00  0.00     0.013 N 
HETATM    2  C12 UNL     1       5.161  -0.430  -1.192  1.00  0.00     0.292 C 
HETATM    3  C13 UNL     1       5.949   1.765  -1.436  1.00  0.00     0.292 C 
HETATM    4  C14 UNL     1       5.390   0.955   0.671  1.00  0.00     0.283 C 
HETATM    5  N4  UNL     1       5.710   1.010   1.790  1.00  0.00    -0.165 NA
ENDROOT
BRANCH   1   6
HETATM    6  C11 UNL     1       3.711   1.398  -0.881  1.00  0.00     0.265 C 
BRANCH   6   7
HETATM    7  C10 UNL     1       2.628   0.367  -0.626  1.00  0.00     0.103 C 
BRANCH   7   8
HETATM    8  S1  UNL     1       2.758  -0.135   1.092  1.00  0.00    -0.158 SA
BRANCH   8   9
HETATM    9  C9  UNL     1       1.587  -1.444   1.443  1.00  0.00     0.184 C 
BRANCH   9  10
HETATM   10  C8  UNL     1       0.207  -0.927   1.360  1.00  0.00     0.268 C 
HETATM   11  O4  UNL     1      -0.151  -0.168   2.308  1.00  0.00    -0.264 OA
BRANCH  10  12
HETATM   12  O3  UNL     1      -0.701  -1.204   0.366  1.00  0.00    -0.311 OA
BRANCH  12  13
HETATM   13  C7  UNL     1      -2.000  -0.636   0.463  1.00  0.00     0.193 C 
HETATM   14  C2  UNL     1      -2.473   0.111  -0.717  1.00  0.00     0.183 C 
HETATM   15  C3  UNL     1      -3.951  -0.093  -0.958  1.00  0.00     0.180 C 
HETATM   16  C4  UNL     1      -4.789  -0.189   0.263  1.00  0.00     0.216 C 
HETATM   17  C5  UNL     1      -4.216  -1.057   1.355  1.00  0.00     0.071 C 
HETATM   18  C6  UNL     1      -2.982  -1.783   0.830  1.00  0.00     0.217 C 
BRANCH  14  19
HETATM   19  O1  UNL     1      -2.183   1.470  -0.575  1.00  0.00    -0.385 OA
HETATM   20  C1  UNL     1      -1.377   1.957  -1.589  1.00  0.00     0.202 C 
ENDBRANCH  14  19
BRANCH  15  21
HETATM   21  O2  UNL     1      -4.217  -1.140  -1.837  1.00  0.00    -0.391 OA
ATOM     22  H2  UNL     1      -5.146  -1.268  -1.988  1.00  0.00     0.210 HD
ENDBRANCH  15  21
BRANCH  16  23
HETATM   23  N1  UNL     1      -5.118   1.139   0.747  1.00  0.00    -0.072 N 
ATOM     24  H13 UNL     1      -4.285   1.707   0.899  1.00  0.00     0.274 HD
ATOM     25  H12 UNL     1      -5.558   1.710   0.026  1.00  0.00     0.274 HD
ATOM     26  H11 UNL     1      -5.694   1.073   1.586  1.00  0.00     0.274 HD
ENDBRANCH  16  23
BRANCH  18  27
HETATM   27  N2  UNL     1      -2.329  -2.538   1.864  1.00  0.00    -0.072 N 
ATOM     28  H23 UNL     1      -2.102  -1.950   2.666  1.00  0.00     0.274 HD
ATOM     29  H22 UNL     1      -2.975  -3.184   2.318  1.00  0.00     0.274 HD
ATOM     30  H21 UNL     1      -1.504  -3.024   1.513  1.00  0.00     0.274 HD
ENDBRANCH  18  27
ENDBRANCH  12  13
ENDBRANCH  10  12
ENDBRANCH   9  10
ENDBRANCH   8   9
ENDBRANCH   7   8
ENDBRANCH   6   7
ENDBRANCH   1   6
TORSDOF 11
