REMARK  2 active torsions:
REMARK  status: ('A' for Active; 'I' for Inactive)
REMARK    1  A    between atoms: N1_2  and  C2_5 
REMARK    2  A    between atoms: C11_15  and  C12_16 
ROOT
HETATM    1  C2  UNL     1       0.836  -0.125   0.086  1.00  0.00     0.133 C 
HETATM    2  C3  UNL     1       0.309  -1.318   0.880  1.00  0.00     0.044 C 
HETATM    3  C4  UNL     1      -1.196  -1.326   0.786  1.00  0.00    -0.010 C 
HETATM    4  C5  UNL     1      -1.795  -0.104   1.389  1.00  0.00     0.010 C 
HETATM    5  C6  UNL     1      -1.224   1.116   0.668  1.00  0.00    -0.004 C 
HETATM    6  C7  UNL     1      -1.724   1.067  -0.737  1.00  0.00     0.031 C 
HETATM    7  C8  UNL     1      -1.201  -0.187  -1.391  1.00  0.00     0.040 C 
HETATM    8 CL1  UNL     1      -1.633  -0.292  -3.109  1.00  0.00    -0.119 Cl
HETATM    9  C9  UNL     1      -1.642  -1.431  -0.656  1.00  0.00     0.030 C 
HETATM   10  C10 UNL     1       0.317  -0.102  -1.324  1.00  0.00     0.065 C 
HETATM   11  C11 UNL     1       0.267   1.087   0.788  1.00  0.00     0.054 C 
ENDROOT
BRANCH   1  12
HETATM   12  N1  UNL     1       2.259  -0.070   0.041  1.00  0.00    -0.070 N 
HETATM   13  C1  UNL     1       2.850  -1.195  -0.617  1.00  0.00     0.267 C 
ATOM     14  H12 UNL     1       2.646   0.046   0.977  1.00  0.00     0.277 HD
ATOM     15  H11 UNL     1       2.574   0.803  -0.382  1.00  0.00     0.277 HD
ENDBRANCH   1  12
BRANCH  11  16
HETATM   16  C12 UNL     1       0.948   2.359   0.418  1.00  0.00     0.229 C 
HETATM   17  F1  UNL     1       0.326   3.391   1.127  1.00  0.00    -0.255 F 
ENDBRANCH  11  16
TORSDOF 2
