REMARK  2 active torsions:
REMARK  status: ('A' for Active; 'I' for Inactive)
REMARK       I    between atoms: C1_2  and  N1_3 
REMARK    1  A    between atoms: C1_2  and  C5_12 
REMARK    2  A    between atoms: N1_3  and  N2_5 
ROOT
HETATM    1  O1  UNL     1      -0.651  -1.858   0.926  1.00  0.00    -0.263 OA
HETATM    2  C1  UNL     1      -0.934  -0.814   0.257  1.00  0.00     0.301 C 
HETATM    3  N1  UNL     1       0.131  -0.130  -0.389  1.00  0.00    -0.281 N 
ATOM      4  H1  UNL     1      -0.075   0.709  -0.931  1.00  0.00     0.184 HD
ENDROOT
BRANCH   2   5
HETATM    5  C5  UNL     1      -2.308  -0.360   0.173  1.00  0.00     0.194 A 
HETATM    6  N4  UNL     1      -3.358  -0.949   0.756  1.00  0.00    -0.277 N 
HETATM    7  N5  UNL     1      -4.467  -0.276   0.476  1.00  0.00    -0.250 N 
ATOM      8  H4  UNL     1      -3.313  -1.791   1.331  1.00  0.00     0.189 HD
HETATM    9  C6  UNL     1      -4.078   0.753  -0.302  1.00  0.00     0.340 A 
ATOM     10  H5  UNL     1      -5.415  -0.492   0.785  1.00  0.00     0.192 HD
HETATM   11  O2  UNL     1      -4.842   1.634  -0.784  1.00  0.00    -0.245 OA
HETATM   12  N6  UNL     1      -2.746   0.714  -0.497  1.00  0.00    -0.288 N 
ATOM     13  H6  UNL     1      -2.186   1.368  -1.043  1.00  0.00     0.172 HD
ENDBRANCH   2   5
BRANCH   3  14
HETATM   14  N2  UNL     1       1.441  -0.570  -0.303  1.00  0.00    -0.202 NA
HETATM   15  C2  UNL     1       2.315   0.497  -0.741  1.00  0.00     0.143 C 
HETATM   16  C3  UNL     1       3.319   0.700   0.354  1.00  0.00     0.250 C 
HETATM   17  N3  UNL     1       3.192  -0.456   1.213  1.00  0.00    -0.061 N 
HETATM   18  C4  UNL     1       1.853  -0.971   1.010  1.00  0.00     0.345 C 
ATOM     19  H32 UNL     1       3.921  -1.154   1.063  1.00  0.00     0.278 HD
ATOM     20  H31 UNL     1       3.406  -0.259   2.191  1.00  0.00     0.278 HD
ENDBRANCH   3  14
TORSDOF 2
