REMARK  0 active torsions:
REMARK  status: ('A' for Active; 'I' for Inactive)
ROOT
HETATM    1  N1  UNL     1      -3.009   0.948  -0.163  1.00  0.00    -0.389 N 
ATOM      2  H11 UNL     1      -3.822   0.928   0.453  1.00  0.00     0.157 HD
ATOM      3  H12 UNL     1      -3.172   1.675  -0.859  1.00  0.00     0.157 HD
HETATM    4  C1  UNL     1      -1.972   0.193  -0.073  1.00  0.00     0.080 C 
HETATM    5  C2  UNL     1      -0.790   0.222  -0.969  1.00  0.00     0.127 C 
HETATM    6  C3  UNL     1       0.293  -0.317  -0.026  1.00  0.00     0.204 A 
HETATM    7  N2  UNL     1       0.700   0.733   0.871  1.00  0.00    -0.316 N 
ATOM      8  H2  UNL     1       0.097   1.217   1.536  1.00  0.00     0.166 HD
HETATM    9  C4  UNL     1       2.077   0.979   0.674  1.00  0.00     0.324 A 
HETATM   10  O1  UNL     1       2.740   1.852   1.290  1.00  0.00    -0.247 OA
HETATM   11  N3  UNL     1       2.542   0.063  -0.333  1.00  0.00    -0.277 N 
ATOM     12  H3  UNL     1       3.498   0.006  -0.684  1.00  0.00     0.173 HD
HETATM   13  C5  UNL     1       1.462  -0.746  -0.759  1.00  0.00     0.264 A 
HETATM   14  O2  UNL     1       1.529  -1.651  -1.607  1.00  0.00    -0.270 OA
HETATM   15  C6  UNL     1      -0.447  -1.377   0.669  1.00  0.00     0.261 C 
HETATM   16  O3  UNL     1      -0.085  -2.543   1.013  1.00  0.00    -0.270 OA
HETATM   17  N4  UNL     1      -1.741  -0.838   0.914  1.00  0.00    -0.314 N 
ATOM     18  H4  UNL     1      -2.386  -1.126   1.650  1.00  0.00     0.170 HD
ENDROOT
TORSDOF 0
