REMARK  14 active torsions:
REMARK  status: ('A' for Active; 'I' for Inactive)
REMARK    1  A    between atoms: C3_3  and  C4_4 
REMARK    2  A    between atoms: C4_4  and  C5_5 
REMARK    3  A    between atoms: C5_5  and  N1_7 
REMARK       I    between atoms: N1_7  and  C8_9 
REMARK    4  A    between atoms: C8_9  and  C9_11 
REMARK    5  A    between atoms: C14_16  and  C15_17 
REMARK    6  A    between atoms: C18_26  and  N5_27 
REMARK    7  A    between atoms: N5_27  and  C20_29 
REMARK    8  A    between atoms: C20_29  and  C21_30 
REMARK    9  A    between atoms: C21_30  and  O4_32 
REMARK   10  A    between atoms: C23_36  and  N7_37 
REMARK   11  A    between atoms: N7_37  and  C24_39 
REMARK   12  A    between atoms: C24_39  and  C25_40 
REMARK   13  A    between atoms: C24_39  and  C27_42 
REMARK   14  A    between atoms: C27_42  and  O5_43 
ROOT
HETATM    1  C1  UNL     1      -8.904   1.610   0.497  1.00  0.00     0.096 C 
HETATM    2  C2  UNL     1      -7.759   1.248   0.281  1.00  0.00    -0.188 C 
HETATM    3  C3  UNL     1      -6.394   0.795   0.003  1.00  0.00     0.081 C 
ENDROOT
BRANCH   3   4
HETATM    4  C4  UNL     1      -5.554   0.764   1.230  1.00  0.00     0.036 C 
BRANCH   4   5
HETATM    5  C5  UNL     1      -4.154   0.284   1.071  1.00  0.00     0.083 C 
HETATM    6  C6  UNL     1      -3.522   0.354   2.479  1.00  0.00     0.032 C 
BRANCH   5   7
HETATM    7  N1  UNL     1      -4.089  -1.076   0.540  1.00  0.00    -0.348 N 
HETATM    8  C7  UNL     1      -4.946  -2.081   1.141  1.00  0.00     0.153 C 
HETATM    9  C8  UNL     1      -3.198  -1.478  -0.491  1.00  0.00     0.254 C 
HETATM   10  O1  UNL     1      -3.332  -2.645  -0.940  1.00  0.00    -0.267 OA
BRANCH   9  11
HETATM   11  C9  UNL     1      -2.139  -0.631  -1.045  1.00  0.00     0.050 A 
HETATM   12  C10 UNL     1      -0.878  -0.747  -0.414  1.00  0.00     0.033 A 
HETATM   13  C11 UNL     1       0.164   0.007  -0.827  1.00  0.00     0.009 A 
HETATM   14  C12 UNL     1      -0.026   0.886  -1.867  1.00  0.00     0.046 A 
HETATM   15  C28 UNL     1       1.495   0.096  -0.394  1.00  0.00     0.065 A 
HETATM   16  C13 UNL     1      -1.280   0.993  -2.489  1.00  0.00     0.049 A 
HETATM   17  N3  UNL     1       1.149   1.503  -2.066  1.00  0.00    -0.340 N 
HETATM   18  C14 UNL     1      -2.341   0.222  -2.073  1.00  0.00     0.064 A 
HETATM   19  C17 UNL     1       2.070   1.048  -1.198  1.00  0.00     0.136 A 
ATOM     20  H3  UNL     1       1.319   2.216  -2.775  1.00  0.00     0.167 HD
HETATM   21  N4  UNL     1       3.392   1.320  -0.984  1.00  0.00    -0.175 N 
HETATM   22  C18 UNL     1       4.095   0.686  -0.038  1.00  0.00     0.683 A 
ATOM     23  H4  UNL     1       3.854   2.024  -1.560  1.00  0.00     0.186 HD
HETATM   24  N6  UNL     1       3.491  -0.259   0.739  1.00  0.00    -0.176 N 
HETATM   25  C23 UNL     1       2.215  -0.590   0.604  1.00  0.00     0.132 A 
ATOM     26  H6  UNL     1       4.045  -0.731   1.454  1.00  0.00     0.186 HD
BRANCH  18  27
HETATM   27  C15 UNL     1      -3.658   0.331  -2.794  1.00  0.00     0.321 C 
HETATM   28  O2  UNL     1      -4.467  -0.584  -2.604  1.00  0.00    -0.251 OA
HETATM   29  N2  UNL     1      -3.825   1.428  -3.595  1.00  0.00    -0.416 NA
HETATM   30  C16 UNL     1      -3.996   2.527  -4.398  1.00  0.00     0.264 C 
ENDBRANCH  18  27
BRANCH  22  31
HETATM   31  N5  UNL     1       5.478   0.887   0.218  1.00  0.00    -0.213 N 
HETATM   32  C19 UNL     1       6.424  -0.190  -0.068  1.00  0.00     0.169 C 
BRANCH  31  33
HETATM   33  C20 UNL     1       5.988   2.134   0.751  1.00  0.00     0.251 C 
BRANCH  33  34
HETATM   34  C21 UNL     1       6.834   2.829  -0.255  1.00  0.00     0.277 C 
HETATM   35  O3  UNL     1       6.928   2.312  -1.392  1.00  0.00    -0.263 OA
BRANCH  34  36
HETATM   36  O4  UNL     1       7.501   4.005   0.042  1.00  0.00    -0.325 OA
HETATM   37  C22 UNL     1       8.306   4.619  -0.982  1.00  0.00     0.213 C 
ENDBRANCH  34  36
ENDBRANCH  33  34
ENDBRANCH  31  33
ENDBRANCH  22  31
BRANCH  25  38
HETATM   38  N7  UNL     1       1.604  -1.521   1.178  1.00  0.00    -0.368 N 
ATOM     39  H7  UNL     1       0.622  -1.559   0.905  1.00  0.00     0.161 HD
BRANCH  38  40
HETATM   40  C24 UNL     1       1.932  -2.522   2.100  1.00  0.00     0.106 C 
BRANCH  40  41
HETATM   41  C25 UNL     1       3.091  -3.410   1.725  1.00  0.00     0.023 C 
HETATM   42  C26 UNL     1       2.874  -4.126   0.415  1.00  0.00     0.007 C 
ENDBRANCH  40  41
BRANCH  40  43
HETATM   43  C27 UNL     1       0.775  -3.500   2.348  1.00  0.00     0.189 C 
BRANCH  43  44
HETATM   44  O5  UNL     1      -0.349  -2.880   2.855  1.00  0.00    -0.399 OA
ATOM     45  H5  UNL     1      -1.065  -3.485   3.008  1.00  0.00     0.209 HD
ENDBRANCH  43  44
ENDBRANCH  40  43
ENDBRANCH  38  40
ENDBRANCH  25  38
ENDBRANCH   9  11
ENDBRANCH   5   7
ENDBRANCH   4   5
ENDBRANCH   3   4
TORSDOF 13
