REMARK  3 active torsions:
REMARK  status: ('A' for Active; 'I' for Inactive)
REMARK    1  A    between atoms: N1_2  and  C2_5 
REMARK    2  A    between atoms: C6_9  and  O1_10 
REMARK    3  A    between atoms: O1_10  and  C7_11 
ROOT
HETATM    1  C2  UNL     1      -1.543   0.362  -0.506  1.00  0.00     0.188 C 
HETATM    2  C3  UNL     1      -2.193  -0.945  -0.141  1.00  0.00     0.033 C 
HETATM    3  C4  UNL     1      -1.265  -2.110  -0.181  1.00  0.00     0.004 C 
HETATM    4  C5  UNL     1       0.031  -1.884   0.548  1.00  0.00     0.033 C 
HETATM    5  C6  UNL     1       0.647  -0.626   0.040  1.00  0.00     0.134 C 
HETATM    6  C9  UNL     1      -0.318   0.518   0.375  1.00  0.00     0.065 C 
ENDROOT
BRANCH   1   7
HETATM    7  N1  UNL     1      -2.434   1.457  -0.170  1.00  0.00    -0.075 N 
HETATM    8  C1  UNL     1      -1.837   2.730  -0.510  1.00  0.00     0.267 C 
ATOM      9  H12 UNL     1      -2.720   1.424   0.809  1.00  0.00     0.277 HD
ATOM     10  H11 UNL     1      -3.351   1.343  -0.602  1.00  0.00     0.277 HD
ENDBRANCH   1   7
BRANCH   5  11
HETATM   11  O1  UNL     1       1.873  -0.304   0.673  1.00  0.00    -0.316 OA
BRANCH  11  12
HETATM   12  C7  UNL     1       3.035  -0.140  -0.079  1.00  0.00     0.255 C 
HETATM   13  C8  UNL     1       4.348   0.198   0.530  1.00  0.00     0.126 C 
HETATM   14  O2  UNL     1       2.918  -0.294  -1.324  1.00  0.00    -0.266 OA
ENDBRANCH  11  12
ENDBRANCH   5  11
TORSDOF 3
