REMARK  7 active torsions:
REMARK  status: ('A' for Active; 'I' for Inactive)
REMARK    1  A    between atoms: O1_2  and  C2_3 
REMARK    2  A    between atoms: C4_5  and  C5_6 
REMARK    3  A    between atoms: C6_7  and  C7_8 
REMARK    4  A    between atoms: C12_13  and  C13_14 
REMARK    5  A    between atoms: C14_15  and  C15_16 
REMARK    6  A    between atoms: C17_20  and  N2_21 
REMARK    7  A    between atoms: C19_30  and  O2_31 
ROOT
HETATM    1  C2  UNL     1      -1.626   3.734  -0.028  1.00  0.00     0.072 A 
HETATM    2  C3  UNL     1      -1.980   2.418   0.105  1.00  0.00     0.058 A 
HETATM    3  C4  UNL     1      -1.036   1.370   0.097  1.00  0.00     0.033 A 
HETATM    4  C12 UNL     1       0.262   1.714  -0.045  1.00  0.00     0.016 A 
HETATM    5  C19 UNL     1       0.635   3.082  -0.186  1.00  0.00     0.082 A 
HETATM    6  C21 UNL     1      -0.301   4.062  -0.177  1.00  0.00     0.074 A 
ENDROOT
BRANCH   4   7
HETATM    7  C13 UNL     1       1.349   0.730   0.084  1.00  0.00     0.017 C 
HETATM    8  C14 UNL     1       1.389  -0.353   0.751  1.00  0.00     0.017 C 
BRANCH   8   9
HETATM    9  C15 UNL     1       2.496  -1.308   0.840  1.00  0.00     0.024 A 
HETATM   10  C16 UNL     1       2.281  -2.418   1.682  1.00  0.00     0.121 A 
HETATM   11  N1  UNL     1       3.241  -3.323   1.824  1.00  0.00    -0.201 N 
HETATM   12  C17 UNL     1       4.398  -3.172   1.168  1.00  0.00     0.677 A 
ATOM     13  H1  UNL     1       3.098  -4.130   2.431  1.00  0.00     0.183 HD
HETATM   14  N3  UNL     1       4.657  -2.161   0.371  1.00  0.00    -0.177 N 
HETATM   15  C18 UNL     1       3.702  -1.167   0.167  1.00  0.00     0.126 A 
ATOM     16  H3  UNL     1       5.560  -2.103  -0.100  1.00  0.00     0.186 HD
HETATM   17  N4  UNL     1       3.981  -0.273  -0.592  1.00  0.00    -0.384 N 
ATOM     18  H42 UNL     1       3.282   0.455  -0.741  1.00  0.00     0.157 HD
ATOM     19  H41 UNL     1       4.867  -0.169  -1.086  1.00  0.00     0.157 HD
BRANCH  12  20
HETATM   20  N2  UNL     1       5.288  -4.093   1.353  1.00  0.00    -0.234 N 
ATOM     21  H22 UNL     1       5.087  -4.878   1.972  1.00  0.00     0.174 HD
ATOM     22  H21 UNL     1       6.170  -3.978   0.853  1.00  0.00     0.174 HD
ENDBRANCH  12  20
ENDBRANCH   8   9
ENDBRANCH   4   7
BRANCH   3  23
HETATM   23  C5  UNL     1      -1.529   0.014   0.118  1.00  0.00    -0.066 C 
HETATM   24  C6  UNL     1      -1.963  -1.113   0.097  1.00  0.00    -0.096 C 
BRANCH  24  25
HETATM   25  C7  UNL     1      -2.516  -2.466   0.073  1.00  0.00     0.065 C 
HETATM   26  C8  UNL     1      -4.028  -2.398  -0.195  1.00  0.00     0.017 C 
HETATM   27  C9  UNL     1      -4.333  -3.725  -0.810  1.00  0.00     0.001 C 
HETATM   28  C10 UNL     1      -3.008  -4.285  -1.330  1.00  0.00     0.001 C 
HETATM   29  C11 UNL     1      -2.051  -3.129  -1.206  1.00  0.00     0.017 C 
ENDBRANCH  24  25
ENDBRANCH   3  23
BRANCH   5  30
HETATM   30  O2  UNL     1       1.993   3.359  -0.332  1.00  0.00    -0.355 OA
HETATM   31  C20 UNL     1       2.379   4.708  -0.471  1.00  0.00     0.210 C 
ENDBRANCH   5  30
BRANCH   1  32
HETATM   32  O1  UNL     1      -2.609   4.706  -0.012  1.00  0.00    -0.356 OA
HETATM   33  C1  UNL     1      -2.261   6.065  -0.145  1.00  0.00     0.210 C 
ENDBRANCH   1  32
TORSDOF 7
