REMARK  4 active torsions:
REMARK  status: ('A' for Active; 'I' for Inactive)
REMARK    1  A    between atoms: O1_2  and  C2_3 
REMARK    2  A    between atoms: C2_3  and  O2_4 
REMARK    3  A    between atoms: C3_6  and  O3_7 
REMARK    4  A    between atoms: C5_13  and  N3_14 
ROOT
HETATM    1  C2  UNL     1       0.998  -0.471  -0.163  1.00  0.00     0.226 C 
HETATM    2  C3  UNL     1       0.973   1.001  -0.431  1.00  0.00     0.296 C 
HETATM    3  N1  UNL     1      -0.069   1.412  -1.334  1.00  0.00    -0.089 NA
HETATM    4  N2  UNL     1      -1.334   1.032  -0.938  1.00  0.00    -0.219 N 
HETATM    5  S1  UNL     1      -2.764   1.968  -1.432  1.00  0.00     0.064 SA
HETATM    6  C4  UNL     1      -1.461  -0.123  -0.125  1.00  0.00     0.083 C 
HETATM    7  C5  UNL     1      -2.522  -0.301   0.624  1.00  0.00     0.196 C 
HETATM    8  C6  UNL     1      -0.362  -1.108  -0.160  1.00  0.00     0.212 C 
HETATM    9  C7  UNL     1      -0.525  -1.992  -1.312  1.00  0.00     0.076 C 
HETATM   10  N4  UNL     1      -0.643  -2.707  -2.225  1.00  0.00    -0.196 NA
ENDROOT
BRANCH   1  11
HETATM   11  O1  UNL     1       1.682  -0.732   1.022  1.00  0.00    -0.355 OA
HETATM   12  C1  UNL     1       2.973  -0.220   1.012  1.00  0.00     0.205 C 
ENDBRANCH   1  11
BRANCH   1  13
HETATM   13  O2  UNL     1       1.731  -1.069  -1.187  1.00  0.00    -0.361 OA
ATOM     14  H2  UNL     1       1.264  -0.891  -1.995  1.00  0.00     0.213 HD
ENDBRANCH   1  13
BRANCH   2  15
HETATM   15  O3  UNL     1       0.731   1.659   0.777  1.00  0.00    -0.373 OA
ATOM     16  H3  UNL     1       0.715   2.594   0.607  1.00  0.00     0.212 HD
ENDBRANCH   2  15
BRANCH   7  17
HETATM   17  N3  UNL     1      -2.632  -1.454   1.425  1.00  0.00    -0.125 N 
HETATM   18  O4  UNL     1      -2.858  -2.551   0.904  1.00  0.00    -0.532 OA
HETATM   19  O5  UNL     1      -2.492  -1.370   2.778  1.00  0.00    -0.532 OA
ENDBRANCH   7  17
TORSDOF 4
