REMARK  5 active torsions:
REMARK  status: ('A' for Active; 'I' for Inactive)
REMARK    1  A    between atoms: C4_4  and  N1_5 
REMARK    2  A    between atoms: N1_5  and  C5_7 
REMARK    3  A    between atoms: C5_7  and  C6_8 
REMARK    4  A    between atoms: C6_8  and  N2_9 
REMARK    5  A    between atoms: N2_9  and  C7_11 
ROOT
HETATM    1  C5  UNL     1      -0.023   0.051   1.313  1.00  0.00     0.141 C 
ENDROOT
BRANCH   1   2
HETATM    2  N1  UNL     1      -0.795  -0.711   0.393  1.00  0.00    -0.375 N 
ATOM      3  H1  UNL     1      -0.368  -1.569   0.043  1.00  0.00     0.161 HD
BRANCH   2   4
HETATM    4  C4  UNL     1      -1.970  -0.438  -0.045  1.00  0.00     0.100 A 
HETATM    5  C3  UNL     1      -2.614   0.695   0.374  1.00  0.00     0.048 A 
HETATM    6  C2  UNL     1      -3.888   0.935  -0.138  1.00  0.00     0.005 A 
HETATM    7  C1  UNL     1      -4.503   0.087  -1.033  1.00  0.00     0.017 A 
HETATM    8  C10 UNL     1      -3.797  -1.038  -1.414  1.00  0.00     0.089 A 
HETATM    9  N4  UNL     1      -2.576  -1.283  -0.932  1.00  0.00    -0.353 N 
ATOM     10  H4  UNL     1      -2.082  -2.123  -1.234  1.00  0.00     0.166 HD
ENDBRANCH   2   4
ENDBRANCH   1   2
BRANCH   1  11
HETATM   11  C6  UNL     1       0.724   1.200   0.639  1.00  0.00     0.141 C 
BRANCH  11  12
HETATM   12  N2  UNL     1       1.638   0.657  -0.379  1.00  0.00    -0.369 N 
ATOM     13  H2  UNL     1       1.392   0.615  -1.368  1.00  0.00     0.161 HD
BRANCH  12  14
HETATM   14  C7  UNL     1       2.794   0.230   0.079  1.00  0.00     0.144 A 
HETATM   15  N3  UNL     1       3.800  -0.304  -0.614  1.00  0.00    -0.346 N 
HETATM   16  C8  UNL     1       4.872  -0.668   0.021  1.00  0.00     0.097 A 
ATOM     17  H3  UNL     1       3.729  -0.424  -1.624  1.00  0.00     0.167 HD
HETATM   18  C9  UNL     1       4.911  -0.482   1.378  1.00  0.00     0.070 A 
HETATM   19  S1  UNL     1       3.381   0.218   1.680  1.00  0.00    -0.065 SA
ENDBRANCH  12  14
ENDBRANCH  11  12
ENDBRANCH   1  11
TORSDOF 5
