REMARK  7 active torsions:
REMARK  status: ('A' for Active; 'I' for Inactive)
REMARK    1  A    between atoms: N1_1  and  C1_4 
REMARK    2  A    between atoms: C4_9  and  N3_10 
REMARK    3  A    between atoms: N3_10  and  C5_12 
REMARK    4  A    between atoms: C5_12  and  C6_13 
REMARK    5  A    between atoms: C6_13  and  C7_14 
REMARK    6  A    between atoms: C7_14  and  C8_15 
REMARK    7  A    between atoms: C8_15  and  N4_16 
ROOT
HETATM    1  C1  UNL     1       3.853   0.602  -0.454  1.00  0.00     0.116 A 
HETATM    2  C2  UNL     1       3.971  -0.772  -0.276  1.00  0.00     0.066 A 
HETATM    3  C3  UNL     1       2.857  -1.479   0.048  1.00  0.00     0.110 A 
HETATM    4  N2  UNL     1       1.674  -0.866   0.193  1.00  0.00    -0.202 N 
ATOM      5  H2  UNL     1       0.848  -1.412   0.436  1.00  0.00     0.183 HD
HETATM    6  C4  UNL     1       1.568   0.457   0.021  1.00  0.00     0.679 A 
HETATM    7  N5  UNL     1       2.663   1.158  -0.299  1.00  0.00    -0.177 N 
ATOM      8  H5  UNL     1       2.575   2.166  -0.429  1.00  0.00     0.185 HD
ENDROOT
BRANCH   6   9
HETATM    9  N3  UNL     1       0.476   1.092   0.145  1.00  0.00    -0.226 N 
ATOM     10  H3  UNL     1       0.476   2.101  -0.002  1.00  0.00     0.177 HD
BRANCH   9  11
HETATM   11  C5  UNL     1      -0.802   0.420   0.496  1.00  0.00     0.138 C 
BRANCH  11  12
HETATM   12  C6  UNL     1      -1.322  -0.073  -0.824  1.00  0.00     0.022 C 
BRANCH  12  13
HETATM   13  C7  UNL     1      -2.583  -0.836  -0.821  1.00  0.00     0.029 C 
BRANCH  13  14
HETATM   14  C8  UNL     1      -3.762  -0.099  -0.293  1.00  0.00     0.229 C 
BRANCH  14  15
HETATM   15  N4  UNL     1      -3.691   0.319   1.063  1.00  0.00    -0.079 N 
ATOM     16  H43 UNL     1      -3.492  -0.484   1.660  1.00  0.00     0.274 HD
ATOM     17  H42 UNL     1      -2.847   0.872   1.208  1.00  0.00     0.274 HD
ATOM     18  H41 UNL     1      -4.500   0.824   1.425  1.00  0.00     0.274 HD
ENDBRANCH  14  15
ENDBRANCH  13  14
ENDBRANCH  12  13
ENDBRANCH  11  12
ENDBRANCH   9  11
ENDBRANCH   6   9
BRANCH   1  19
HETATM   19  N1  UNL     1       4.884   1.327  -0.764  1.00  0.00    -0.385 N 
ATOM     20  H12 UNL     1       5.802   0.898  -0.884  1.00  0.00     0.157 HD
ATOM     21  H11 UNL     1       4.797   2.335  -0.895  1.00  0.00     0.157 HD
ENDBRANCH   1  19
TORSDOF 7
