REMARK  8 active torsions:
REMARK  status: ('A' for Active; 'I' for Inactive)
REMARK    1  A    between atoms: C1_2  and  C2_4 
REMARK    2  A    between atoms: C2_4  and  O3_5 
REMARK    3  A    between atoms: C2_4  and  C3_7 
REMARK    4  A    between atoms: C3_7  and  C4_9 
REMARK    5  A    between atoms: C3_7  and  S2_11 
REMARK    6  A    between atoms: S2_11  and  C5_12 
REMARK    7  A    between atoms: C6_13  and  O4_14 
REMARK    8  A    between atoms: N1_23  and  O5_25 
ROOT
HETATM    1  C5  UNL     1       0.141  -0.165   0.123  1.00  0.00     0.093 C 
HETATM    2  C6  UNL     1      -0.398   0.748   1.159  1.00  0.00     0.134 C 
HETATM    3  C7  UNL     1      -1.460   1.714   0.805  1.00  0.00     0.043 C 
HETATM    4  C8  UNL     1      -2.904   1.203   0.853  1.00  0.00     0.036 C 
HETATM    5  C9  UNL     1      -3.603   1.531  -0.482  1.00  0.00     0.010 C 
HETATM    6  C10 UNL     1      -4.175   0.365  -1.211  1.00  0.00     0.001 C 
HETATM    7  C11 UNL     1      -3.202  -0.784  -1.515  1.00  0.00     0.011 C 
HETATM    8  C12 UNL     1      -2.047  -0.470  -0.675  1.00  0.00     0.049 C 
HETATM    9  C13 UNL     1      -2.702  -0.253   0.646  1.00  0.00     0.019 C 
HETATM   10  N1  UNL     1      -3.067  -1.071   1.487  1.00  0.00    -0.277 N 
ATOM     11  H1  UNL     1      -3.502  -0.636   2.300  1.00  0.00     0.193 HD
HETATM   12  C14 UNL     1      -0.864  -1.216  -0.409  1.00  0.00     0.084 C 
HETATM   13  S3  UNL     1      -0.097  -2.036  -1.823  1.00  0.00    -0.090 SA
ENDROOT
BRANCH   1  14
HETATM   14  S2  UNL     1       1.716  -0.905   0.437  1.00  0.00    -0.130 SA
BRANCH  14  15
HETATM   15  C3  UNL     1       3.118   0.162   0.477  1.00  0.00     0.130 C 
HETATM   16 CL1  UNL     1       3.057   1.206   1.954  1.00  0.00    -0.103 Cl
BRANCH  15  17
HETATM   17  C2  UNL     1       4.374  -0.682   0.666  1.00  0.00     0.253 C 
BRANCH  17  18
HETATM   18  C1  UNL     1       4.647  -1.628  -0.401  1.00  0.00     0.205 C 
HETATM   19  O1  UNL     1       4.549  -2.874  -0.178  1.00  0.00    -0.646 OA
HETATM   20  O2  UNL     1       5.023  -1.188  -1.681  1.00  0.00    -0.646 OA
ENDBRANCH  17  18
BRANCH  17  21
HETATM   21  O3  UNL     1       4.121  -1.415   1.854  1.00  0.00    -0.382 OA
ATOM     22  H3  UNL     1       3.942  -0.796   2.552  1.00  0.00     0.210 HD
ENDBRANCH  17  21
ENDBRANCH  15  17
BRANCH  15  23
HETATM   23  C4  UNL     1       3.293   1.077  -0.672  1.00  0.00     0.126 C 
HETATM   24  S1  UNL     1       4.722   2.183  -0.391  1.00  0.00    -0.095 SA
ENDBRANCH  15  23
ENDBRANCH  14  15
ENDBRANCH   1  14
BRANCH   2  25
HETATM   25  O4  UNL     1      -0.543   0.150   2.429  1.00  0.00    -0.394 OA
ATOM     26  H4  UNL     1      -0.888   0.735   3.093  1.00  0.00     0.210 HD
ENDBRANCH   2  25
BRANCH  10  27
HETATM   27  O5  UNL     1      -3.021  -2.409   1.574  1.00  0.00    -0.290 OA
ATOM     28  H5  UNL     1      -3.303  -3.041   2.224  1.00  0.00     0.244 HD
ENDBRANCH  10  27
TORSDOF 8
