REMARK  7 active torsions:
REMARK  status: ('A' for Active; 'I' for Inactive)
REMARK    1  A    between atoms: C2_2  and  C3_3 
REMARK    2  A    between atoms: C2_2  and  N5_20 
REMARK    3  A    between atoms: C3_3  and  N1_4 
REMARK    4  A    between atoms: N3_12  and  O3_13 
REMARK    5  A    between atoms: N5_20  and  C9_22 
REMARK    6  A    between atoms: C10_23  and  O5_24 
REMARK    7  A    between atoms: C11_27  and  N6_28 
ROOT
HETATM    1  C1  UNL     1       0.771  -1.562   1.081  1.00  0.00     0.065 C 
HETATM    2  C2  UNL     1       0.575  -0.225   0.452  1.00  0.00     0.003 C 
ENDROOT
BRANCH   2   3
HETATM    3  C3  UNL     1      -0.228  -0.215  -0.817  1.00  0.00     0.203 C 
BRANCH   3   4
HETATM    4  N1  UNL     1      -1.572  -0.743  -0.523  1.00  0.00    -0.267 N 
HETATM    5  N2  UNL     1      -1.903  -1.995  -0.609  1.00  0.00    -0.261 N 
HETATM    6  C4  UNL     1      -3.218  -2.154  -0.273  1.00  0.00     0.279 A 
ATOM      7  H2  UNL     1      -1.274  -2.749  -0.886  1.00  0.00     0.190 HD
HETATM    8  O1  UNL     1      -3.898  -3.192  -0.234  1.00  0.00    -0.266 OA
HETATM    9  C5  UNL     1      -3.728  -0.905   0.041  1.00  0.00     0.149 A 
HETATM   10  C6  UNL     1      -4.952  -0.413   0.444  1.00  0.00     0.295 A 
HETATM   11  C8  UNL     1      -2.651  -0.040  -0.131  1.00  0.00     0.148 A 
HETATM   12  O2  UNL     1      -5.916  -1.199   0.595  1.00  0.00    -0.264 OA
HETATM   13  N3  UNL     1      -5.106   0.907   0.671  1.00  0.00    -0.133 N 
HETATM   14  C7  UNL     1      -4.036   1.702   0.492  1.00  0.00     0.355 A 
HETATM   15  O4  UNL     1      -4.225   2.944   0.717  1.00  0.00    -0.244 OA
HETATM   16  N4  UNL     1      -2.834   1.272   0.104  1.00  0.00    -0.290 N 
ATOM     17  H4  UNL     1      -2.063   1.930  -0.013  1.00  0.00     0.172 HD
BRANCH  13  18
HETATM   18  O3  UNL     1      -6.332   1.431   1.078  1.00  0.00    -0.276 OA
ATOM     19  H3  UNL     1      -6.441   2.361   1.238  1.00  0.00     0.245 HD
ENDBRANCH  13  18
ENDBRANCH   3   4
ENDBRANCH   2   3
BRANCH   2  20
HETATM   20  N5  UNL     1       1.711   0.620   0.493  1.00  0.00    -0.354 N 
ATOM     21  H5  UNL     1       1.548   1.484   1.010  1.00  0.00     0.166 HD
BRANCH  20  22
HETATM   22  C9  UNL     1       2.998   0.527  -0.018  1.00  0.00     0.160 A 
HETATM   23  C10 UNL     1       3.946   1.528   0.249  1.00  0.00     0.219 A 
HETATM   24  O6  UNL     1       5.170   1.482  -0.221  1.00  0.00    -0.254 OA
HETATM   25  C11 UNL     1       5.607   0.511  -0.971  1.00  0.00     0.226 A 
HETATM   26  N7  UNL     1       4.758  -0.475  -1.264  1.00  0.00    -0.287 N 
HETATM   27  C12 UNL     1       3.459  -0.484  -0.801  1.00  0.00     0.280 A 
ATOM     28  H7  UNL     1       5.079  -1.246  -1.849  1.00  0.00     0.172 HD
HETATM   29  O7  UNL     1       2.772  -1.449  -1.141  1.00  0.00    -0.265 OA
BRANCH  23  30
HETATM   30  O5  UNL     1       3.521   2.586   1.047  1.00  0.00    -0.339 OA
ATOM     31  H5  UNL     1       4.162   3.263   1.228  1.00  0.00     0.220 HD
ENDBRANCH  23  30
BRANCH  25  32
HETATM   32  N6  UNL     1       6.815   0.462  -1.437  1.00  0.00    -0.365 N 
ATOM     33  H62 UNL     1       7.464   1.216  -1.213  1.00  0.00     0.159 HD
ATOM     34  H61 UNL     1       7.157  -0.298  -2.024  1.00  0.00     0.159 HD
ENDBRANCH  25  32
ENDBRANCH  20  22
ENDBRANCH   2  20
TORSDOF 7
