REMARK  9 active torsions:
REMARK  status: ('A' for Active; 'I' for Inactive)
REMARK    1  A    between atoms: C2_2  and  O1_3 
REMARK    2  A    between atoms: N1_6  and  C4_7 
REMARK    3  A    between atoms: C5_10  and  C6_11 
REMARK    4  A    between atoms: C6_11  and  N3_12 
REMARK    5  A    between atoms: C7_18  and  N5_19 
REMARK    6  A    between atoms: N7_26  and  C10_27 
REMARK    7  A    between atoms: C11_32  and  C12_33 
REMARK    8  A    between atoms: C12_33  and  O2_34 
REMARK    9  A    between atoms: C12_33  and  O3_36 
ROOT
HETATM    1  C1  UNL     1       0.701   1.307   1.084  1.00  0.00     0.072 C 
HETATM    2  C2  UNL     1       0.886   1.181  -0.399  1.00  0.00     0.148 C 
HETATM    3  C3  UNL     1      -0.447   1.195  -1.082  1.00  0.00     0.201 C 
HETATM    4  N1  UNL     1      -1.218   0.078  -0.583  1.00  0.00    -0.211 N 
HETATM    5  C8  UNL     1      -0.528  -1.175  -0.308  1.00  0.00     0.161 C 
HETATM    6  C9  UNL     1       0.831  -1.230  -0.957  1.00  0.00     0.148 C 
HETATM    7  N7  UNL     1       1.609  -0.059  -0.679  1.00  0.00    -0.326 N 
ENDROOT
BRANCH   4   8
HETATM    8  C4  UNL     1      -2.596   0.220  -0.376  1.00  0.00     0.696 A 
HETATM    9  N2  UNL     1      -3.386  -0.773   0.087  1.00  0.00    -0.178 N 
HETATM   10  C5  UNL     1      -4.700  -0.606   0.274  1.00  0.00     0.138 A 
ATOM     11  H2  UNL     1      -2.968  -1.678   0.301  1.00  0.00     0.185 HD
HETATM   12  N4  UNL     1      -5.250   0.582  -0.006  1.00  0.00    -0.178 N 
HETATM   13  C7  UNL     1      -4.505   1.605  -0.471  1.00  0.00     0.691 A 
ATOM     14  H4  UNL     1      -6.251   0.716   0.135  1.00  0.00     0.185 HD
HETATM   15  N6  UNL     1      -3.191   1.393  -0.643  1.00  0.00    -0.022 N 
ATOM     16  H6  UNL     1      -2.617   2.160  -0.993  1.00  0.00     0.203 HD
BRANCH  10  17
HETATM   17  C6  UNL     1      -5.602  -1.676   0.783  1.00  0.00     0.306 C 
BRANCH  17  18
HETATM   18  N3  UNL     1      -5.686  -1.644   2.233  1.00  0.00    -0.073 N 
ATOM     19  H33 UNL     1      -4.763  -1.695   2.664  1.00  0.00     0.274 HD
ATOM     20  H32 UNL     1      -5.966  -0.724   2.573  1.00  0.00     0.274 HD
ATOM     21  H31 UNL     1      -6.304  -2.377   2.582  1.00  0.00     0.274 HD
ENDBRANCH  17  18
ENDBRANCH  10  17
BRANCH  13  22
HETATM   22  N5  UNL     1      -5.061   2.748  -0.735  1.00  0.00    -0.234 N 
ATOM     23  H52 UNL     1      -6.060   2.909  -0.604  1.00  0.00     0.174 HD
ATOM     24  H51 UNL     1      -4.497   3.522  -1.087  1.00  0.00     0.174 HD
ENDBRANCH  13  22
ENDBRANCH   4   8
BRANCH   2  25
HETATM   25  O1  UNL     1       1.704   2.236  -0.828  1.00  0.00    -0.369 OA
ATOM     26  H1  UNL     1       1.821   2.156  -1.767  1.00  0.00     0.212 HD
ENDBRANCH   2  25
BRANCH   7  27
HETATM   27  C10 UNL     1       3.043  -0.044  -0.662  1.00  0.00     0.165 A 
HETATM   28  N8  UNL     1       3.846   0.204  -1.692  1.00  0.00    -0.279 N 
HETATM   29  N9  UNL     1       5.098   0.184  -1.534  1.00  0.00    -0.291 N 
ATOM     30  H8  UNL     1       3.451   0.410  -2.609  1.00  0.00     0.189 HD
HETATM   31  C11 UNL     1       5.611  -0.085  -0.338  1.00  0.00     0.124 A 
ATOM     32  H9  UNL     1       5.715   0.374  -2.323  1.00  0.00     0.187 HD
HETATM   33  S1  UNL     1       4.183  -0.317   0.582  1.00  0.00    -0.033 SA
BRANCH  31  34
HETATM   34  C12 UNL     1       7.050  -0.161   0.077  1.00  0.00     0.314 C 
BRANCH  34  35
HETATM   35  O2  UNL     1       7.180   0.529   1.298  1.00  0.00    -0.365 OA
ATOM     36  H2  UNL     1       8.092   0.481   1.561  1.00  0.00     0.213 HD
ENDBRANCH  34  35
BRANCH  34  37
HETATM   37  O3  UNL     1       7.492  -1.472   0.187  1.00  0.00    -0.365 OA
ATOM     38  H3  UNL     1       8.404  -1.520   0.450  1.00  0.00     0.213 HD
ENDBRANCH  34  37
ENDBRANCH  31  34
ENDBRANCH   7  27
TORSDOF 9
