REMARK  12 active torsions:
REMARK  status: ('A' for Active; 'I' for Inactive)
REMARK    1  A    between atoms: C2_2  and  C3_3 
REMARK    2  A    between atoms: C3_3  and  C4_4 
REMARK    3  A    between atoms: C4_4  and  C5_5 
REMARK    4  A    between atoms: C5_5  and  C6_6 
REMARK    5  A    between atoms: C6_6  and  C7_7 
REMARK    6  A    between atoms: C7_7  and  C8_8 
REMARK    7  A    between atoms: C8_8  and  C9_9 
REMARK    8  A    between atoms: C9_9  and  C10_10 
REMARK    9  A    between atoms: C10_10  and  C12_12 
REMARK   10  A    between atoms: C15_17  and  O3_18 
REMARK   11  A    between atoms: C16_20  and  O4_21 
REMARK   12  A    between atoms: C18_25  and  O6_26 
ROOT
HETATM    1  C12 UNL     1      -2.124  -0.715   1.513  1.00  0.00     0.183 C 
HETATM    2  O1  UNL     1      -3.510  -0.567   1.824  1.00  0.00    -0.348 OA
HETATM    3  C13 UNL     1      -4.334  -0.625   0.763  1.00  0.00     0.291 C 
HETATM    4  O2  UNL     1      -5.647  -0.224   1.105  1.00  0.00    -0.356 OA
HETATM    5  C14 UNL     1      -6.497  -0.801   0.167  1.00  0.00     0.205 C 
HETATM    6  C15 UNL     1      -5.887  -0.766  -1.212  1.00  0.00     0.173 C 
HETATM    7  C16 UNL     1      -4.960   0.420  -1.351  1.00  0.00     0.182 C 
HETATM    8  C17 UNL     1      -3.879   0.364  -0.289  1.00  0.00     0.211 C 
HETATM    9  O5  UNL     1      -2.676  -0.057  -0.768  1.00  0.00    -0.346 OA
HETATM   10  C18 UNL     1      -1.951  -0.903   0.063  1.00  0.00     0.286 C 
ENDROOT
BRANCH   1  11
HETATM   11  C10 UNL     1      -1.399   0.420   2.134  1.00  0.00     0.015 C 
HETATM   12  C11 UNL     1      -1.947   0.666   3.570  1.00  0.00     0.012 C 
BRANCH  11  13
HETATM   13  C9  UNL     1       0.048   0.559   2.126  1.00  0.00     0.007 C 
BRANCH  13  14
HETATM   14  C8  UNL     1       0.900   0.384   0.948  1.00  0.00     0.000 C 
BRANCH  14  15
HETATM   15  C7  UNL     1       2.380   0.702   1.283  1.00  0.00     0.000 C 
BRANCH  15  16
HETATM   16  C6  UNL     1       3.189   0.495   0.005  1.00  0.00     0.000 C 
BRANCH  16  17
HETATM   17  C5  UNL     1       4.643   0.782   0.236  1.00  0.00     0.000 C 
BRANCH  17  18
HETATM   18  C4  UNL     1       5.465   0.599  -1.007  1.00  0.00     0.000 C 
BRANCH  18  19
HETATM   19  C3  UNL     1       5.373  -0.794  -1.507  1.00  0.00    -0.000 C 
BRANCH  19  20
HETATM   20  C2  UNL     1       6.191  -1.045  -2.752  1.00  0.00    -0.005 C 
HETATM   21  C1  UNL     1       7.652  -0.800  -2.582  1.00  0.00     0.005 C 
ENDBRANCH  19  20
ENDBRANCH  18  19
ENDBRANCH  17  18
ENDBRANCH  16  17
ENDBRANCH  15  16
ENDBRANCH  14  15
ENDBRANCH  13  14
ENDBRANCH  11  13
ENDBRANCH   1  11
BRANCH  10  22
HETATM   22  O6  UNL     1      -2.273  -2.267  -0.243  1.00  0.00    -0.369 OA
ATOM     23  H6  UNL     1      -2.161  -2.388  -1.179  1.00  0.00     0.212 HD
ENDBRANCH  10  22
BRANCH   7  24
HETATM   24  O4  UNL     1      -5.732   1.567  -1.070  1.00  0.00    -0.390 OA
ATOM     25  H4  UNL     1      -5.149   2.312  -1.157  1.00  0.00     0.210 HD
ENDBRANCH   7  24
BRANCH   6  26
HETATM   26  O3  UNL     1      -6.881  -0.597  -2.197  1.00  0.00    -0.391 OA
ATOM     27  H3  UNL     1      -6.497  -0.575  -3.066  1.00  0.00     0.210 HD
ENDBRANCH   6  26
TORSDOF 12
