REMARK  3 active torsions:
REMARK  status: ('A' for Active; 'I' for Inactive)
REMARK    1  A    between atoms: C2_2  and  N1_4 
REMARK    2  A    between atoms: C2_2  and  C15_23 
REMARK       I    between atoms: C4_6  and  N3_8 
REMARK    3  A    between atoms: N4_10  and  C5_12 
ROOT
HETATM    1  N1  UNL     1       2.124   0.697   0.749  1.00  0.00    -0.346 N 
ATOM      2  H1  UNL     1       2.212   1.060   1.698  1.00  0.00     0.163 HD
HETATM    3  C4  UNL     1       1.034   0.968   0.172  1.00  0.00     0.203 C 
HETATM    4  N2  UNL     1       0.074   1.731   0.896  1.00  0.00    -0.062 NA
HETATM    5  N3  UNL     1       0.764   0.544  -1.126  1.00  0.00    -0.273 N 
ATOM      6  H3  UNL     1       1.580   0.301  -1.687  1.00  0.00     0.189 HD
HETATM    7  N4  UNL     1      -0.334   0.420  -1.697  1.00  0.00    -0.298 N 
ATOM      8  H4  UNL     1      -0.302   0.090  -2.662  1.00  0.00     0.187 HD
ENDROOT
BRANCH   7   9
HETATM    9  C5  UNL     1      -1.609   0.678  -1.177  1.00  0.00     0.059 A 
HETATM   10  C6  UNL     1      -2.256   1.902  -1.334  1.00  0.00     0.032 A 
HETATM   11  C7  UNL     1      -3.512   2.117  -0.808  1.00  0.00     0.003 A 
HETATM   12  C8  UNL     1      -4.178   1.131  -0.107  1.00  0.00     0.012 A 
HETATM   13  C9  UNL     1      -3.555  -0.082   0.056  1.00  0.00    -0.024 A 
HETATM   14  C10 UNL     1      -4.190  -1.102   0.755  1.00  0.00     0.015 A 
HETATM   15  C14 UNL     1      -2.280  -0.296  -0.479  1.00  0.00     0.005 A 
HETATM   16  C11 UNL     1      -3.602  -2.336   0.944  1.00  0.00     0.043 A 
HETATM   17  C12 UNL     1      -2.329  -2.538   0.405  1.00  0.00     0.117 A 
HETATM   18  F1  UNL     1      -1.685  -3.716   0.545  1.00  0.00    -0.206 F 
HETATM   19  C13 UNL     1      -1.690  -1.534  -0.290  1.00  0.00     0.057 A 
ENDBRANCH   7   9
BRANCH   1  20
HETATM   20  C2  UNL     1       3.252  -0.040   0.275  1.00  0.00     0.123 C 
HETATM   21  C1  UNL     1       3.898  -0.727   1.477  1.00  0.00     0.047 C 
HETATM   22  C3  UNL     1       2.962  -1.093  -0.741  1.00  0.00     0.047 C 
BRANCH  20  23
HETATM   23  C15 UNL     1       4.245   0.969  -0.316  1.00  0.00     0.411 C 
HETATM   24  F2  UNL     1       4.590   1.925   0.617  1.00  0.00    -0.168 F 
HETATM   25  F3  UNL     1       3.591   1.608  -1.347  1.00  0.00    -0.168 F 
HETATM   26  F4  UNL     1       5.352   0.322  -0.824  1.00  0.00    -0.168 F 
ENDBRANCH  20  23
ENDBRANCH   1  20
TORSDOF 3
