REMARK  7 active torsions:
REMARK  status: ('A' for Active; 'I' for Inactive)
REMARK       I    between atoms: C1_4  and  N3_6 
REMARK    1  A    between atoms: N3_6  and  C2_8 
REMARK    2  A    between atoms: C2_8  and  C3_9 
REMARK    3  A    between atoms: C3_9  and  N4_10 
REMARK    4  A    between atoms: N4_10  and  C4_12 
REMARK    5  A    between atoms: C4_12  and  N5_13 
REMARK    6  A    between atoms: C6_19  and  N8_20 
REMARK    7  A    between atoms: N8_20  and  C7_22 
ROOT
HETATM    1  N5  UNL     1       0.680   0.878  -1.021  1.00  0.00    -0.242 N 
HETATM    2  N6  UNL     1       0.718   1.762  -1.996  1.00  0.00    -0.238 N 
ATOM      3  H6  UNL     1      -0.093   2.170  -2.460  1.00  0.00     0.208 HD
HETATM    4  N7  UNL     1       1.996   2.036  -2.277  1.00  0.00    -0.294 N 
ATOM      5  H7  UNL     1       2.322   2.688  -2.991  1.00  0.00     0.187 HD
HETATM    6  C5  UNL     1       2.784   1.306  -1.459  1.00  0.00     0.159 A 
HETATM    7  C6  UNL     1       1.918   0.569  -0.660  1.00  0.00     0.157 A 
ENDROOT
BRANCH   1   8
HETATM    8  C4  UNL     1      -0.522   0.308  -0.413  1.00  0.00     0.273 C 
BRANCH   8   9
HETATM    9  N4  UNL     1      -0.915   1.106   0.688  1.00  0.00    -0.383 N 
ATOM     10  H4  UNL     1      -0.396   1.953   0.918  1.00  0.00     0.160 HD
BRANCH   9  11
HETATM   11  C3  UNL     1      -2.024   0.724   1.462  1.00  0.00     0.076 C 
BRANCH  11  12
HETATM   12  C2  UNL     1      -3.374   0.794   0.856  1.00  0.00     0.166 C 
BRANCH  12  13
HETATM   13  N3  UNL     1      -3.631  -0.020  -0.283  1.00  0.00    -0.360 N 
HETATM   14  C1  UNL     1      -3.717  -1.432  -0.258  1.00  0.00     0.182 C 
HETATM   15  N1  UNL     1      -3.870  -2.063   0.839  1.00  0.00    -0.374 N 
HETATM   16  N2  UNL     1      -3.636  -2.142  -1.466  1.00  0.00    -0.064 NA
ATOM     17  H12 UNL     1      -3.932  -3.081   0.857  1.00  0.00     0.158 HD
ATOM     18  H11 UNL     1      -3.929  -1.547   1.717  1.00  0.00     0.158 HD
ATOM     19  H3  UNL     1      -3.762   0.447  -1.180  1.00  0.00     0.162 HD
ENDBRANCH  12  13
ENDBRANCH  11  12
ENDBRANCH   9  11
ENDBRANCH   8   9
ENDBRANCH   1   8
BRANCH   7  20
HETATM   20  N8  UNL     1       2.266  -0.260   0.264  1.00  0.00    -0.172 N 
ATOM     21  H8  UNL     1       1.538  -0.744   0.789  1.00  0.00     0.186 HD
BRANCH  20  22
HETATM   22  C7  UNL     1       3.629  -0.525   0.579  1.00  0.00     0.699 A 
HETATM   23  N9  UNL     1       4.189  -1.759   0.577  1.00  0.00    -0.185 N 
HETATM   24  C8  UNL     1       5.490  -1.642   0.923  1.00  0.00     0.215 A 
ATOM     25  H9  UNL     1       3.709  -2.630   0.352  1.00  0.00     0.185 HD
HETATM   26  N10 UNL     1       5.743  -0.339   1.140  1.00  0.00    -0.281 N 
HETATM   27  N11 UNL     1       4.616   0.313   0.929  1.00  0.00    -0.131 N 
ATOM     28  H10 UNL     1       6.637   0.068   1.415  1.00  0.00     0.188 HD
ATOM     29  H11 UNL     1       4.509   1.323   1.020  1.00  0.00     0.205 HD
ENDBRANCH  20  22
ENDBRANCH   7  20
TORSDOF 7
