REMARK  8 active torsions:
REMARK  status: ('A' for Active; 'I' for Inactive)
REMARK    1  A    between atoms: N1_2  and  C2_3 
REMARK    2  A    between atoms: N1_2  and  C10_26 
REMARK    3  A    between atoms: C2_3  and  C3_4 
REMARK    4  A    between atoms: C4_11  and  C5_12 
REMARK    5  A    between atoms: C5_12  and  C6_14 
REMARK    6  A    between atoms: C7_19  and  C8_20 
REMARK    7  A    between atoms: C9_23  and  O4_24 
REMARK    8  A    between atoms: C11_29  and  N8_30 
REMARK       I    between atoms: N8_30  and  C12_32 
REMARK       I    between atoms: C12_32  and  N9_33 
REMARK       I    between atoms: C12_32  and  N10_37 
ROOT
HETATM    1  C1  UNL     1      -0.877  -2.320  -1.240  1.00  0.00     0.152 C 
HETATM    2  N1  UNL     1      -0.270  -1.216  -0.471  1.00  0.00    -0.361 N 
ENDROOT
BRANCH   2   3
HETATM    3  C2  UNL     1       1.151  -1.180  -0.430  1.00  0.00     0.185 C 
BRANCH   3   4
HETATM    4  C3  UNL     1       1.743  -2.313   0.329  1.00  0.00     0.077 A 
HETATM    5  N2  UNL     1       1.053  -3.302   0.926  1.00  0.00    -0.286 N 
HETATM    6  N3  UNL     1       1.900  -4.164   1.498  1.00  0.00    -0.242 N 
ATOM      7  H2  UNL     1       0.036  -3.382   0.940  1.00  0.00     0.188 HD
HETATM    8  N4  UNL     1       3.126  -3.756   1.287  1.00  0.00    -0.281 N 
ATOM      9  H3  UNL     1       1.634  -5.003   2.014  1.00  0.00     0.208 HD
HETATM   10  C4  UNL     1       3.068  -2.604   0.562  1.00  0.00     0.127 A 
ATOM     11  H4  UNL     1       3.976  -4.219   1.609  1.00  0.00     0.188 HD
BRANCH  10  12
HETATM   12  C5  UNL     1       4.250  -1.868   0.176  1.00  0.00     0.232 C 
HETATM   13  O1  UNL     1       5.027  -2.483  -0.637  1.00  0.00    -0.283 OA
BRANCH  12  14
HETATM   14  C6  UNL     1       4.616  -0.547   0.618  1.00  0.00     0.136 A 
HETATM   15  N5  UNL     1       4.012   0.214   1.538  1.00  0.00    -0.294 N 
HETATM   16  N6  UNL     1       4.640   1.355   1.710  1.00  0.00    -0.292 N 
ATOM     17  H5  UNL     1       3.169  -0.058   2.043  1.00  0.00     0.187 HD
HETATM   18  C7  UNL     1       5.715   1.411   0.894  1.00  0.00     0.161 A 
ATOM     19  H6  UNL     1       4.358   2.088   2.361  1.00  0.00     0.187 HD
HETATM   20  C9  UNL     1       5.711   0.222   0.203  1.00  0.00     0.133 A 
BRANCH  18  21
HETATM   21  C8  UNL     1       6.683   2.492   0.763  1.00  0.00     0.231 C 
HETATM   22  O2  UNL     1       6.593   3.547   1.450  1.00  0.00    -0.643 OA
HETATM   23  O3  UNL     1       7.741   2.407  -0.120  1.00  0.00    -0.643 OA
ENDBRANCH  18  21
BRANCH  20  24
HETATM   24  O4  UNL     1       6.584  -0.248  -0.759  1.00  0.00    -0.356 OA
ATOM     25  H4  UNL     1       7.327   0.273  -1.040  1.00  0.00     0.218 HD
ENDBRANCH  20  24
ENDBRANCH  12  14
ENDBRANCH  10  12
ENDBRANCH   3   4
ENDBRANCH   2   3
BRANCH   2  26
HETATM   26  C10 UNL     1      -1.167  -0.313   0.126  1.00  0.00     0.188 C 
HETATM   27  N7  UNL     1      -2.465  -0.390  -0.264  1.00  0.00    -0.171 N 
HETATM   28  C11 UNL     1      -3.487   0.526  -0.075  1.00  0.00     0.688 C 
ATOM     29  H7  UNL     1      -2.724  -1.240  -0.766  1.00  0.00     0.186 HD
HETATM   30  N11 UNL     1      -3.247   1.848   0.096  1.00  0.00    -0.137 N 
HETATM   31  C13 UNL     1      -4.140   2.765  -0.580  1.00  0.00     0.180 C 
HETATM   32  C14 UNL     1      -2.254   2.404   0.826  1.00  0.00     0.343 C 
HETATM   33  O5  UNL     1      -2.464   3.574   1.223  1.00  0.00    -0.246 OA
HETATM   34  N12 UNL     1      -1.050   1.860   1.189  1.00  0.00    -0.272 N 
HETATM   35  C15 UNL     1      -0.646   0.572   1.047  1.00  0.00     0.293 C 
ATOM     36  H12 UNL     1      -0.378   2.498   1.616  1.00  0.00     0.174 HD
HETATM   37  O6  UNL     1       0.268   0.146   1.805  1.00  0.00    -0.264 OA
BRANCH  28  38
HETATM   38  N8  UNL     1      -4.624   0.057  -0.079  1.00  0.00    -0.173 N 
HETATM   39  C12 UNL     1      -5.964   0.333   0.037  1.00  0.00     0.494 C 
HETATM   40  N9  UNL     1      -6.635  -0.519   1.067  1.00  0.00    -0.032 N 
HETATM   41  N10 UNL     1      -6.731   0.052  -1.172  1.00  0.00    -0.032 N 
ATOM     42  H93 UNL     1      -6.478  -1.510   0.883  1.00  0.00     0.278 HD
ATOM     43  H92 UNL     1      -6.165  -0.444   1.969  1.00  0.00     0.278 HD
ATOM     44  H91 UNL     1      -7.630  -0.314   1.153  1.00  0.00     0.278 HD
ATOM     45 3H10 UNL     1      -6.332   0.542  -1.973  1.00  0.00     0.278 HD
ATOM     46 2H10 UNL     1      -6.588  -0.912  -1.472  1.00  0.00     0.278 HD
ATOM     47 1H10 UNL     1      -7.726   0.257  -1.086  1.00  0.00     0.278 HD
ATOM     48  H8  UNL     1      -4.535  -0.948  -0.230  1.00  0.00     0.181 HD
ENDBRANCH  28  38
ENDBRANCH   2  26
TORSDOF 8
