REMARK  17 active torsions:
REMARK  status: ('A' for Active; 'I' for Inactive)
REMARK    1  A    between atoms: N1_1  and  C1_4 
REMARK    2  A    between atoms: N4_12  and  C5_13 
REMARK    3  A    between atoms: N5_14  and  N6_16 
REMARK    4  A    between atoms: N9_23  and  C8_24 
REMARK    5  A    between atoms: C9_25  and  O2_26 
REMARK    6  A    between atoms: C10_28  and  O3_29 
REMARK    7  A    between atoms: C11_31  and  C12_32 
REMARK    8  A    between atoms: C12_32  and  N10_33 
REMARK    9  A    between atoms: N10_33  and  O4_34 
REMARK   10  A    between atoms: N10_33  and  C13_36 
REMARK   11  A    between atoms: C13_36  and  O5_37 
REMARK   12  A    between atoms: C13_36  and  C14_39 
REMARK   13  A    between atoms: C14_39  and  O6_40 
REMARK   14  A    between atoms: C14_39  and  C15_42 
REMARK   15  A    between atoms: C15_42  and  O7_43 
REMARK   16  A    between atoms: C16_45  and  N11_46 
REMARK   17  A    between atoms: N12_50  and  O8_51 
ROOT
HETATM    1  C8  UNL     1       0.083  -1.242  -0.283  1.00  0.00     0.253 C 
HETATM    2  C9  UNL     1      -0.656  -0.841   0.954  1.00  0.00     0.192 C 
HETATM    3  C10 UNL     1      -2.057  -0.324   0.687  1.00  0.00     0.160 C 
HETATM    4  C11 UNL     1      -2.005   0.669  -0.425  1.00  0.00     0.089 C 
HETATM    5  C16 UNL     1      -1.518  -0.067  -1.648  1.00  0.00     0.315 C 
HETATM    6  N12 UNL     1      -0.188  -0.453  -1.429  1.00  0.00    -0.238 N 
ENDROOT
BRANCH   1   7
HETATM    7  N9  UNL     1       1.499  -1.347  -0.057  1.00  0.00    -0.256 N 
HETATM    8  C3  UNL     1       2.242  -2.475   0.075  1.00  0.00     0.146 A 
HETATM    9  N3  UNL     1       1.855  -3.762   0.029  1.00  0.00    -0.336 N 
HETATM   10  C4  UNL     1       3.571  -2.183   0.281  1.00  0.00     0.133 A 
HETATM   11  C2  UNL     1       2.720  -4.744   0.178  1.00  0.00     0.183 A 
ATOM     12  H3  UNL     1       0.871  -3.982  -0.124  1.00  0.00     0.168 HD
HETATM   13  N2  UNL     1       4.011  -4.505   0.380  1.00  0.00    -0.337 N 
HETATM   14  C1  UNL     1       4.452  -3.222   0.434  1.00  0.00     0.131 A 
ATOM     15  H2  UNL     1       4.666  -5.279   0.494  1.00  0.00     0.168 HD
HETATM   16  N4  UNL     1       3.633  -0.844   0.275  1.00  0.00    -0.251 N 
HETATM   17  C7  UNL     1       2.384  -0.349   0.071  1.00  0.00     0.338 A 
HETATM   18  O1  UNL     1       2.175   0.900   0.022  1.00  0.00    -0.246 OA
BRANCH  14  19
HETATM   19  N1  UNL     1       5.694  -3.033   0.628  1.00  0.00    -0.383 N 
ATOM     20  H12 UNL     1       6.350  -3.806   0.742  1.00  0.00     0.157 HD
ATOM     21  H11 UNL     1       6.025  -2.069   0.669  1.00  0.00     0.157 HD
ENDBRANCH  14  19
BRANCH  16  22
HETATM   22  C5  UNL     1       4.823  -0.092   0.454  1.00  0.00     0.210 C 
HETATM   23  N5  UNL     1       5.391   0.528  -0.520  1.00  0.00    -0.293 N 
ATOM     24  H5  UNL     1       4.986   0.487  -1.455  1.00  0.00     0.187 HD
BRANCH  23  25
HETATM   25  N6  UNL     1       6.556   1.253  -0.298  1.00  0.00    -0.275 N 
HETATM   26  C6  UNL     1       6.552   2.480   0.093  1.00  0.00     0.215 C 
HETATM   27  N7  UNL     1       7.818   3.106   0.282  1.00  0.00    -0.065 NA
HETATM   28  N8  UNL     1       5.368   3.221   0.337  1.00  0.00    -0.065 NA
ATOM     29  H6  UNL     1       7.453   0.793  -0.452  1.00  0.00     0.189 HD
ENDBRANCH  23  25
ENDBRANCH  16  22
ENDBRANCH   1   7
BRANCH   2  30
HETATM   30  O2  UNL     1      -0.013   0.095   1.728  1.00  0.00    -0.389 OA
ATOM     31  H2  UNL     1      -0.482   0.350   2.514  1.00  0.00     0.210 HD
ENDBRANCH   2  30
BRANCH   6  32
HETATM   32  O8  UNL     1       0.661  -0.445  -2.405  1.00  0.00    -0.288 OA
ATOM     33  H8  UNL     1       0.479   0.084  -3.173  1.00  0.00     0.244 HD
ENDBRANCH   6  32
BRANCH   3  34
HETATM   34  O3  UNL     1      -2.807  -1.464   0.349  1.00  0.00    -0.392 OA
ATOM     35  H3  UNL     1      -3.684  -1.140   0.182  1.00  0.00     0.210 HD
ENDBRANCH   3  34
BRANCH   5  36
HETATM   36  N11 UNL     1      -1.627   0.713  -2.856  1.00  0.00    -0.056 N 
ATOM     37 3H11 UNL     1      -2.581   1.048  -2.988  1.00  0.00     0.276 HD
ATOM     38 2H11 UNL     1      -1.149   1.608  -2.756  1.00  0.00     0.276 HD
ATOM     39 1H11 UNL     1      -1.298   0.215  -3.683  1.00  0.00     0.276 HD
ENDBRANCH   5  36
BRANCH   4  40
HETATM   40  C12 UNL     1      -3.204   1.513  -0.661  1.00  0.00     0.169 C 
BRANCH  40  41
HETATM   41  N10 UNL     1      -4.421   0.863  -0.963  1.00  0.00    -0.239 N 
BRANCH  41  42
HETATM   42  O4  UNL     1      -4.587   0.611  -2.336  1.00  0.00    -0.286 OA
ATOM     43  H4  UNL     1      -5.406   0.174  -2.539  1.00  0.00     0.244 HD
ENDBRANCH  41  42
BRANCH  41  44
HETATM   44  C13 UNL     1      -5.459   0.439  -0.167  1.00  0.00     0.169 C 
BRANCH  44  45
HETATM   45  O5  UNL     1      -6.412  -0.232  -0.752  1.00  0.00    -0.346 OA
ATOM     46  H5  UNL     1      -7.129  -0.525  -0.202  1.00  0.00     0.219 HD
ENDBRANCH  44  45
BRANCH  44  47
HETATM   47  C14 UNL     1      -5.614   0.663   1.272  1.00  0.00     0.217 C 
BRANCH  47  48
HETATM   48  O6  UNL     1      -4.812   1.586   1.871  1.00  0.00    -0.385 OA
ATOM     49  H6  UNL     1      -4.913   1.731   2.804  1.00  0.00     0.210 HD
ENDBRANCH  47  48
BRANCH  47  50
HETATM   50  C15 UNL     1      -7.065   1.111   1.549  1.00  0.00     0.204 C 
BRANCH  50  51
HETATM   51  O7  UNL     1      -7.281   2.369   1.019  1.00  0.00    -0.398 OA
ATOM     52  H7  UNL     1      -8.174   2.645   1.189  1.00  0.00     0.209 HD
ENDBRANCH  50  51
ENDBRANCH  47  50
ENDBRANCH  44  47
ENDBRANCH  41  44
ENDBRANCH  40  41
ENDBRANCH   4  40
TORSDOF 17
