REMARK  12 active torsions:
REMARK  status: ('A' for Active; 'I' for Inactive)
REMARK    1  A    between atoms: N1_1  and  C1_4 
REMARK    2  A    between atoms: C2_9  and  N4_10 
REMARK    3  A    between atoms: N4_10  and  C3_12 
REMARK    4  A    between atoms: C3_12  and  C4_13 
REMARK    5  A    between atoms: C5_17  and  O1_18 
REMARK    6  A    between atoms: C6_20  and  N6_21 
REMARK    7  A    between atoms: C7_26  and  C8_27 
REMARK       I    between atoms: C8_27  and  N9_29 
REMARK    8  A    between atoms: N9_29  and  N10_31 
REMARK       I    between atoms: N10_31  and  C9_33 
REMARK    9  A    between atoms: C9_33  and  C10_35 
REMARK       I    between atoms: C10_35  and  N11_37 
REMARK   10  A    between atoms: N11_37  and  N12_39 
REMARK   11  A    between atoms: C12_46  and  O5_47 
REMARK   12  A    between atoms: C13_49  and  O6_50 
ROOT
HETATM    1  C4  UNL     1      -3.494  -1.512  -0.140  1.00  0.00     0.237 C 
HETATM    2  N5  UNL     1      -2.128  -1.845   0.210  1.00  0.00    -0.038 N 
ATOM      3  H51 UNL     1      -2.105  -2.376   1.080  1.00  0.00     0.281 HD
ATOM      4  H52 UNL     1      -1.623  -1.008   0.501  1.00  0.00     0.281 HD
HETATM    5  C5  UNL     1      -1.403  -2.532  -0.810  1.00  0.00     0.348 C 
HETATM    6  C6  UNL     1      -1.383  -1.824  -2.141  1.00  0.00     0.215 C 
HETATM    7  C12 UNL     1      -2.230  -0.588  -2.011  1.00  0.00     0.179 C 
HETATM    8  C13 UNL     1      -3.608  -1.063  -1.564  1.00  0.00     0.181 C 
ENDROOT
BRANCH   6   9
HETATM    9  N6  UNL     1      -0.028  -1.423  -2.509  1.00  0.00    -0.206 N 
HETATM   10  N7  UNL     1       0.695  -1.881  -3.541  1.00  0.00    -0.224 N 
HETATM   11  N8  UNL     1       1.852  -1.275  -3.514  1.00  0.00    -0.264 N 
ATOM     12  H7  UNL     1       0.396  -2.577  -4.224  1.00  0.00     0.210 HD
HETATM   13  C7  UNL     1       1.877  -0.431  -2.475  1.00  0.00     0.208 A 
ATOM     14  H8  UNL     1       2.613  -1.421  -4.177  1.00  0.00     0.190 HD
HETATM   15  N15 UNL     1       0.693  -0.538  -1.860  1.00  0.00    -0.261 N 
ATOM     16  H15 UNL     1       0.401  -0.021  -1.030  1.00  0.00     0.190 HD
BRANCH  13  17
HETATM   17  C8  UNL     1       3.017   0.414  -2.127  1.00  0.00     0.306 C 
HETATM   18  O2  UNL     1       4.079   0.372  -2.779  1.00  0.00    -0.262 OA
HETATM   19  N9  UNL     1       2.954   1.322  -1.020  1.00  0.00    -0.260 N 
ATOM     20  H9  UNL     1       2.097   1.380  -0.471  1.00  0.00     0.190 HD
BRANCH  19  21
HETATM   21  N10 UNL     1       4.025   2.117  -0.682  1.00  0.00    -0.259 N 
HETATM   22  C9  UNL     1       5.116   1.593   0.070  1.00  0.00     0.329 C 
HETATM   23  O3  UNL     1       5.085   0.392   0.420  1.00  0.00    -0.261 OA
ATOM     24  H10 UNL     1       4.038   3.094  -0.974  1.00  0.00     0.190 HD
BRANCH  22  25
HETATM   25  C10 UNL     1       6.253   2.416   0.438  1.00  0.00     0.329 C 
HETATM   26  O4  UNL     1       6.288   3.638   0.074  1.00  0.00    -0.261 OA
HETATM   27  N11 UNL     1       7.342   1.945   1.187  1.00  0.00    -0.260 N 
ATOM     28  H11 UNL     1       7.340   0.971   1.489  1.00  0.00     0.190 HD
BRANCH  27  29
HETATM   29  N12 UNL     1       8.428   2.749   1.537  1.00  0.00    -0.273 N 
HETATM   30  C11 UNL     1       8.550   3.059   2.785  1.00  0.00     0.215 C 
HETATM   31  N13 UNL     1       7.639   2.618   3.769  1.00  0.00    -0.065 NA
HETATM   32  N14 UNL     1       9.644   3.879   3.233  1.00  0.00    -0.065 NA
ATOM     33  H12 UNL     1       9.095   3.077   0.839  1.00  0.00     0.189 HD
ENDBRANCH  27  29
ENDBRANCH  22  25
ENDBRANCH  19  21
ENDBRANCH  13  17
ENDBRANCH   6   9
BRANCH   5  34
HETATM   34  O1  UNL     1      -1.764  -3.850  -1.008  1.00  0.00    -0.368 OA
ATOM     35  H1  UNL     1      -1.282  -4.307  -1.687  1.00  0.00     0.212 HD
ENDBRANCH   5  34
BRANCH   7  36
HETATM   36  O5  UNL     1      -2.375   0.089  -3.210  1.00  0.00    -0.391 OA
ATOM     37  H5  UNL     1      -2.910   0.870  -3.128  1.00  0.00     0.210 HD
ENDBRANCH   7  36
BRANCH   8  38
HETATM   38  O6  UNL     1      -4.473   0.022  -1.704  1.00  0.00    -0.391 OA
ATOM     39  H6  UNL     1      -4.545   0.307  -2.607  1.00  0.00     0.210 HD
ENDBRANCH   8  38
BRANCH   1  40
HETATM   40  C3  UNL     1      -4.442  -2.645   0.149  1.00  0.00     0.157 C 
BRANCH  40  41
HETATM   41  N4  UNL     1      -5.805  -2.334  -0.192  1.00  0.00    -0.367 N 
ATOM     42  H4  UNL     1      -6.261  -2.886  -0.919  1.00  0.00     0.161 HD
BRANCH  41  43
HETATM   43  C2  UNL     1      -6.553  -1.288   0.438  1.00  0.00     0.162 A 
HETATM   44  N3  UNL     1      -6.175  -0.455   1.394  1.00  0.00    -0.278 N 
HETATM   45  N2  UNL     1      -6.980   0.419   1.843  1.00  0.00    -0.278 N 
ATOM     46  H3  UNL     1      -5.230  -0.515   1.773  1.00  0.00     0.189 HD
HETATM   47  C1  UNL     1      -8.210   0.483   1.338  1.00  0.00     0.160 A 
ATOM     48  H2  UNL     1      -6.688   1.062   2.579  1.00  0.00     0.189 HD
HETATM   49  S1  UNL     1      -8.167  -0.779   0.174  1.00  0.00    -0.016 SA
BRANCH  47  50
HETATM   50  N1  UNL     1      -9.182   1.302   1.662  1.00  0.00    -0.379 N 
ATOM     51  H12 UNL     1      -9.208   2.052   2.353  1.00  0.00     0.158 HD
ATOM     52  H11 UNL     1     -10.124   1.351   1.275  1.00  0.00     0.158 HD
ENDBRANCH  47  50
ENDBRANCH  41  43
ENDBRANCH  40  41
ENDBRANCH   1  40
TORSDOF 12
