REMARK  7 active torsions:
REMARK  status: ('A' for Active; 'I' for Inactive)
REMARK    1  A    between atoms: C2_2  and  C3_3 
REMARK    2  A    between atoms: C3_3  and  C4_4 
REMARK    3  A    between atoms: C4_4  and  C5_5 
REMARK    4  A    between atoms: C5_5  and  N1_6 
REMARK       I    between atoms: N1_6  and  C6_8 
REMARK    5  A    between atoms: C6_8  and  C7_10 
REMARK    6  A    between atoms: C13_16  and  C14_17 
REMARK    7  A    between atoms: C17_20  and  C18_21 
ROOT
HETATM    1  C7  UNL     1      -2.370   0.920   1.360  1.00  0.00     0.043 A 
HETATM    2  C8  UNL     1      -2.712   1.526   2.585  1.00  0.00     0.018 A 
HETATM    3  C9  UNL     1      -1.713   1.860   3.463  1.00  0.00     0.002 A 
HETATM    4  C10 UNL     1      -0.406   1.593   3.124  1.00  0.00     0.012 A 
HETATM    5  C11 UNL     1      -0.069   1.001   1.927  1.00  0.00    -0.024 A 
HETATM    6  C12 UNL     1       1.249   0.742   1.636  1.00  0.00     0.024 A 
HETATM    7  C13 UNL     1       1.656   0.135   0.456  1.00  0.00    -0.025 A 
HETATM    8  C26 UNL     1       0.643  -0.196  -0.419  1.00  0.00     0.013 A 
HETATM    9  C27 UNL     1      -0.695   0.037  -0.186  1.00  0.00     0.014 A 
HETATM   10  C28 UNL     1      -1.069   0.651   1.014  1.00  0.00    -0.010 A 
ENDROOT
BRANCH   7  11
HETATM   11  C14 UNL     1       3.071  -0.120   0.193  1.00  0.00    -0.026 A 
HETATM   12  C15 UNL     1       3.935  -0.388   1.264  1.00  0.00     0.013 A 
HETATM   13  C16 UNL     1       5.272  -0.642   1.094  1.00  0.00     0.013 A 
HETATM   14  C17 UNL     1       5.809  -0.638  -0.165  1.00  0.00    -0.026 A 
HETATM   15  C24 UNL     1       4.979  -0.377  -1.236  1.00  0.00     0.013 A 
HETATM   16  C25 UNL     1       3.626  -0.120  -1.062  1.00  0.00     0.013 A 
BRANCH  14  17
HETATM   17  C18 UNL     1       7.245  -0.902  -0.376  1.00  0.00    -0.026 A 
HETATM   18  C19 UNL     1       7.890  -1.745   0.495  1.00  0.00     0.012 A 
HETATM   19  C20 UNL     1       9.239  -1.998   0.289  1.00  0.00     0.001 A 
HETATM   20  C21 UNL     1       9.903  -1.412  -0.768  1.00  0.00     0.000 A 
HETATM   21  C22 UNL     1       9.219  -0.571  -1.619  1.00  0.00     0.001 A 
HETATM   22  C23 UNL     1       7.886  -0.307  -1.433  1.00  0.00     0.012 A 
ENDBRANCH  14  17
ENDBRANCH   7  11
BRANCH   1  23
HETATM   23  C6  UNL     1      -3.429   0.575   0.411  1.00  0.00     0.252 C 
HETATM   24  N1  UNL     1      -4.232   1.629  -0.103  1.00  0.00    -0.357 N 
ATOM     25  H1  UNL     1      -4.035   2.579   0.211  1.00  0.00     0.162 HD
HETATM   26  O1  UNL     1      -3.667  -0.580   0.035  1.00  0.00    -0.268 OA
BRANCH  24  27
HETATM   27  C5  UNL     1      -5.308   1.433  -1.042  1.00  0.00     0.123 C 
BRANCH  27  28
HETATM   28  C4  UNL     1      -6.405   0.537  -0.583  1.00  0.00     0.020 C 
BRANCH  28  29
HETATM   29  C3  UNL     1      -7.450   0.489  -1.709  1.00  0.00     0.001 C 
BRANCH  29  30
HETATM   30  C2  UNL     1      -8.592  -0.432  -1.308  1.00  0.00    -0.004 C 
HETATM   31  C1  UNL     1      -8.061  -1.852  -1.073  1.00  0.00     0.005 C 
ENDBRANCH  29  30
ENDBRANCH  28  29
ENDBRANCH  27  28
ENDBRANCH  24  27
ENDBRANCH   1  23
TORSDOF 7
