REMARK  2 active torsions:
REMARK  status: ('A' for Active; 'I' for Inactive)
REMARK    1  A    between atoms: N1_2  and  C2_5 
REMARK    2  A    between atoms: C2_5  and  C3_6 
ROOT
HETATM    1  C3  UNL     1       0.208  -0.539   0.314  1.00  0.00     0.017 C 
HETATM    2  C4  UNL     1      -0.063  -1.590  -0.740  1.00  0.00     0.007 C 
HETATM    3  C5  UNL     1      -1.552  -1.396  -0.953  1.00  0.00     0.007 C 
HETATM    4  C6  UNL     1      -1.777   0.071  -0.781  1.00  0.00     0.017 C 
HETATM    5  C7  UNL     1      -2.833   0.385   0.256  1.00  0.00     0.237 C 
HETATM    6  N2  UNL     1      -2.059   0.752   1.421  1.00  0.00    -0.074 N 
ATOM      7  H21 UNL     1      -1.728  -0.032   1.984  1.00  0.00     0.277 HD
ATOM      8  H22 UNL     1      -2.591   1.192   2.172  1.00  0.00     0.277 HD
HETATM    9  C8  UNL     1      -1.005   1.585   0.837  1.00  0.00     0.237 C 
HETATM   10  C9  UNL     1      -0.481   0.658  -0.245  1.00  0.00     0.022 C 
ENDROOT
BRANCH   1  11
HETATM   11  C2  UNL     1       1.668  -0.353   0.576  1.00  0.00     0.237 C 
BRANCH  11  12
HETATM   12  N1  UNL     1       2.422   0.056  -0.561  1.00  0.00    -0.079 N 
HETATM   13  C1  UNL     1       3.821   0.189  -0.127  1.00  0.00     0.267 C 
ATOM     14  H12 UNL     1       2.057   0.901  -1.000  1.00  0.00     0.276 HD
ATOM     15  H11 UNL     1       2.309  -0.566  -1.361  1.00  0.00     0.276 HD
ENDBRANCH  11  12
ENDBRANCH   1  11
TORSDOF 2
