REMARK  4 active torsions:
REMARK  status: ('A' for Active; 'I' for Inactive)
REMARK    1  A    between atoms: C4_6  and  N2_7 
REMARK    2  A    between atoms: N2_7  and  C5_9 
REMARK    3  A    between atoms: C11_19  and  C12_20 
REMARK    4  A    between atoms: C16_25  and  C17_26 
ROOT
HETATM    1  C1  UNL     1      -0.868  -0.992   3.145  1.00  0.00     0.070 C 
HETATM    2  C2  UNL     1       0.250  -0.684   2.190  1.00  0.00     0.030 A 
HETATM    3  N1  UNL     1       1.346  -0.057   2.636  1.00  0.00    -0.364 N 
ATOM      4  H1  UNL     1       1.416   0.209   3.618  1.00  0.00     0.165 HD
HETATM    5  C3  UNL     1       2.369   0.227   1.778  1.00  0.00     0.136 A 
HETATM    6  C4  UNL     1       2.321  -0.112   0.443  1.00  0.00     0.117 A 
HETATM    7  N3  UNL     1       1.192  -0.750   0.013  1.00  0.00    -0.342 N 
ATOM      8  H3  UNL     1       1.111  -1.020  -0.967  1.00  0.00     0.167 HD
HETATM    9  C11 UNL     1       0.186  -1.028   0.861  1.00  0.00     0.057 A 
ENDROOT
BRANCH   9  10
HETATM   10  C12 UNL     1      -1.041  -1.719   0.416  1.00  0.00     0.157 C 
HETATM   11  C13 UNL     1      -1.019  -1.961  -1.089  1.00  0.00     0.302 C 
HETATM   12  N4  UNL     1      -2.297  -2.414  -1.578  1.00  0.00     0.088 N 
HETATM   13  C14 UNL     1      -2.611  -3.761  -1.175  1.00  0.00     0.310 C 
HETATM   14  C15 UNL     1      -3.364  -1.482  -1.328  1.00  0.00     0.296 C 
HETATM   15  C16 UNL     1      -2.889  -0.391  -0.360  1.00  0.00     0.109 C 
HETATM   16  N6  UNL     1      -2.262  -1.071   0.722  1.00  0.00    -0.404 N 
ATOM     17  H6  UNL     1      -2.667  -1.090   1.658  1.00  0.00     0.154 HD
BRANCH  15  18
HETATM   18  C17 UNL     1      -4.128   0.304   0.166  1.00  0.00     0.013 C 
HETATM   19  C18 UNL     1      -4.875   0.902  -0.987  1.00  0.00     0.034 C 
HETATM   20  C19 UNL     1      -5.938   1.860  -0.486  1.00  0.00     0.232 C 
HETATM   21  N5  UNL     1      -5.283   3.021   0.053  1.00  0.00    -0.075 N 
HETATM   22  C20 UNL     1      -3.993   2.763   0.610  1.00  0.00     0.232 C 
ATOM     23  H52 UNL     1      -5.226   3.757  -0.651  1.00  0.00     0.277 HD
ATOM     24  H51 UNL     1      -5.881   3.481   0.739  1.00  0.00     0.277 HD
HETATM   25  C21 UNL     1      -3.835   1.368   1.168  1.00  0.00     0.034 C 
ENDBRANCH  15  18
ENDBRANCH   9  10
BRANCH   6  26
HETATM   26  N2  UNL     1       3.275   0.143  -0.382  1.00  0.00    -0.371 N 
ATOM     27  H2  UNL     1       3.143  -0.149  -1.350  1.00  0.00     0.161 HD
BRANCH  26  28
HETATM   28  C5  UNL     1       4.513   0.805  -0.059  1.00  0.00     0.083 C 
HETATM   29  C6  UNL     1       5.061   1.439  -1.321  1.00  0.00     0.031 C 
HETATM   30  C7  UNL     1       6.575   1.356  -1.361  1.00  0.00     0.081 C 
HETATM   31  C8  UNL     1       7.139   1.567   0.038  1.00  0.00     0.243 C 
HETATM   32  F1  UNL     1       8.515   1.625  -0.082  1.00  0.00    -0.206 F 
HETATM   33  F2  UNL     1       6.667   2.719   0.613  1.00  0.00    -0.206 F 
HETATM   34  C9  UNL     1       6.810   0.336   0.841  1.00  0.00     0.081 C 
HETATM   35  C10 UNL     1       5.462  -0.236   0.493  1.00  0.00     0.031 C 
ENDBRANCH  26  28
ENDBRANCH   6  26
TORSDOF 4
