REMARK  8 active torsions:
REMARK  status: ('A' for Active; 'I' for Inactive)
REMARK    1  A    between atoms: O1_1  and  C1_3 
REMARK    2  A    between atoms: C1_3  and  C2_4 
REMARK    3  A    between atoms: C2_4  and  C3_5 
REMARK    4  A    between atoms: C5_9  and  N2_10 
REMARK    5  A    between atoms: C11_18  and  C12_19 
REMARK    6  A    between atoms: C12_19  and  C13_20 
REMARK    7  A    between atoms: C13_20  and  C14_21 
REMARK    8  A    between atoms: C14_21  and  O2_22 
ROOT
HETATM    1  C3  UNL     1      -3.031  -1.216   0.299  1.00  0.00    -0.027 A 
HETATM    2  C4  UNL     1      -3.531   0.075   0.308  1.00  0.00     0.097 A 
HETATM    3  N1  UNL     1      -2.734   1.145   0.212  1.00  0.00    -0.351 N 
ATOM      4  H1  UNL     1      -3.161   2.071   0.225  1.00  0.00     0.166 HD
HETATM    5  C5  UNL     1      -1.369   1.057   0.097  1.00  0.00     0.122 A 
HETATM    6  C11 UNL     1      -0.844  -0.190   0.085  1.00  0.00     0.062 A 
HETATM    7  C20 UNL     1      -1.666  -1.328   0.185  1.00  0.00     0.034 A 
ENDROOT
BRANCH   6   8
HETATM    8  C12 UNL     1       0.592  -0.396  -0.008  1.00  0.00    -0.060 C 
BRANCH   8   9
HETATM    9  C13 UNL     1       1.773  -0.606  -0.062  1.00  0.00    -0.063 C 
BRANCH   9  10
HETATM   10  C14 UNL     1       3.192  -0.907  -0.105  1.00  0.00     0.121 C 
HETATM   11  C15 UNL     1       3.959   0.369   0.086  1.00  0.00     0.051 C 
HETATM   12  C16 UNL     1       5.372  -0.072   0.503  1.00  0.00     0.004 C 
HETATM   13  C17 UNL     1       5.849  -1.291  -0.185  1.00  0.00     0.000 C 
HETATM   14  C18 UNL     1       5.151  -1.683  -1.434  1.00  0.00     0.004 C 
HETATM   15  C19 UNL     1       3.649  -1.501  -1.419  1.00  0.00     0.051 C 
BRANCH  10  16
HETATM   16  O2  UNL     1       3.572  -1.777   0.918  1.00  0.00    -0.378 OA
ATOM     17  H2  UNL     1       4.501  -1.974   0.890  1.00  0.00     0.211 HD
ENDBRANCH  10  16
ENDBRANCH   9  10
ENDBRANCH   8   9
ENDBRANCH   6   8
BRANCH   5  18
HETATM   18  N2  UNL     1      -0.585   2.220  -0.043  1.00  0.00    -0.364 N 
HETATM   19  C6  UNL     1       0.011   2.681  -1.293  1.00  0.00     0.127 C 
HETATM   20  C7  UNL     1      -0.603   4.017  -1.685  1.00  0.00     0.058 C 
HETATM   21  C8  UNL     1      -1.171   4.722  -0.472  1.00  0.00     0.191 C 
HETATM   22  F1  UNL     1      -1.379   6.060  -0.695  1.00  0.00    -0.248 F 
HETATM   23  C9  UNL     1      -0.183   4.499   0.664  1.00  0.00     0.134 C 
HETATM   24 CL1  UNL     1      -0.565   5.582   1.991  1.00  0.00    -0.120 Cl
HETATM   25  C10 UNL     1      -0.333   3.046   1.119  1.00  0.00     0.147 C 
ENDBRANCH   5  18
BRANCH   1  26
HETATM   26  C2  UNL     1      -3.877  -2.426   0.396  1.00  0.00     0.057 C 
HETATM   27  C21 UNL     1      -3.428  -3.577  -0.521  1.00  0.00     0.250 C 
HETATM   28  N3  UNL     1      -4.351  -3.045  -1.538  1.00  0.00    -0.073 N 
HETATM   29  C22 UNL     1      -5.113  -2.455  -0.441  1.00  0.00     0.250 C 
ATOM     30  H32 UNL     1      -4.011  -2.474  -2.312  1.00  0.00     0.277 HD
ATOM     31  H31 UNL     1      -4.797  -3.660  -2.219  1.00  0.00     0.277 HD
BRANCH  26  32
HETATM   32  C1  UNL     1      -3.986  -2.993   1.795  1.00  0.00     0.182 C 
BRANCH  32  33
HETATM   33  O1  UNL     1      -4.527  -2.114   2.700  1.00  0.00    -0.400 OA
ATOM     34  H1  UNL     1      -4.595  -2.470   3.578  1.00  0.00     0.209 HD
ENDBRANCH  32  33
ENDBRANCH  26  32
ENDBRANCH   1  26
TORSDOF 8
