REMARK  4 active torsions:
REMARK  status: ('A' for Active; 'I' for Inactive)
REMARK    1  A    between atoms: N1_2  and  C2_5 
REMARK    2  A    between atoms: C2_5  and  C3_6 
REMARK    3  A    between atoms: C3_6  and  C4_7 
REMARK    4  A    between atoms: C4_7  and  N2_9 
ROOT
HETATM    1  C3  UNL     1       0.002   0.063   0.034  1.00  0.00     0.014 C 
HETATM    2  C6  UNL     1      -0.520  -0.453   1.344  1.00  0.00     0.041 C 
HETATM    3  C7  UNL     1      -1.941  -0.883   1.337  1.00  0.00     0.233 C 
HETATM    4  N3  UNL     1      -2.270  -1.724   0.199  1.00  0.00    -0.075 N 
ATOM      5  H31 UNL     1      -3.244  -2.026   0.231  1.00  0.00     0.277 HD
ATOM      6  H32 UNL     1      -1.817  -2.635   0.268  1.00  0.00     0.277 HD
HETATM    7  C8  UNL     1      -1.966  -1.087  -1.039  1.00  0.00     0.233 C 
HETATM    8  C9  UNL     1      -0.561  -0.601  -1.166  1.00  0.00     0.041 C 
ENDROOT
BRANCH   1   9
HETATM    9  C2  UNL     1       1.512  -0.070   0.068  1.00  0.00     0.243 C 
BRANCH   9  10
HETATM   10  N1  UNL     1       2.005  -1.404   0.059  1.00  0.00    -0.078 N 
HETATM   11  C1  UNL     1       3.475  -1.291   0.085  1.00  0.00     0.267 C 
ATOM     12  H12 UNL     1       1.653  -1.964  -0.718  1.00  0.00     0.276 HD
ATOM     13  H11 UNL     1       1.627  -1.983   0.809  1.00  0.00     0.276 HD
ENDBRANCH   9  10
ENDBRANCH   1   9
BRANCH   1  14
HETATM   14  C4  UNL     1      -0.247   1.583   0.046  1.00  0.00     0.189 C 
HETATM   15  C5  UNL     1       0.367   2.274  -1.122  1.00  0.00     0.040 C 
BRANCH  14  16
HETATM   16  N2  UNL     1      -1.641   1.889   0.128  1.00  0.00    -0.075 N 
ATOM     17  H23 UNL     1      -2.167   1.432  -0.617  1.00  0.00     0.274 HD
ATOM     18  H22 UNL     1      -2.075   1.434   0.931  1.00  0.00     0.274 HD
ATOM     19  H21 UNL     1      -1.806   2.896   0.136  1.00  0.00     0.274 HD
ENDBRANCH  14  16
ENDBRANCH   1  14
TORSDOF 4
