REMARK  13 active torsions:
REMARK  status: ('A' for Active; 'I' for Inactive)
REMARK       I    between atoms: C2_2  and  N1_4 
REMARK    1  A    between atoms: N1_4  and  C3_6 
REMARK    2  A    between atoms: C3_6  and  C4_7 
REMARK    3  A    between atoms: C4_7  and  C5_8 
REMARK    4  A    between atoms: C5_8  and  C6_9 
REMARK    5  A    between atoms: C6_9  and  N2_10 
REMARK    6  A    between atoms: N2_10  and  C7_12 
REMARK    7  A    between atoms: C8_15  and  N4_16 
REMARK    8  A    between atoms: C14_25  and  N6_26 
REMARK    9  A    between atoms: N6_26  and  C15_28 
REMARK   10  A    between atoms: C15_28  and  C16_29 
REMARK   11  A    between atoms: C15_28  and  C18_35 
REMARK   12  A    between atoms: C16_29  and  C17_30 
REMARK   13  A    between atoms: C18_35  and  C19_36 
ROOT
HETATM    1  C7  UNL     1       1.017   0.158  -0.310  1.00  0.00     0.707 A 
HETATM    2  N3  UNL     1       0.986   1.485  -0.111  1.00  0.00    -0.021 N 
ATOM      3  H3  UNL     1       1.837   2.021  -0.283  1.00  0.00     0.203 HD
HETATM    4  C8  UNL     1      -0.115   2.146   0.306  1.00  0.00     0.716 A 
HETATM    5  N5  UNL     1      -1.206   1.387   0.517  1.00  0.00    -0.021 N 
ATOM      6  H5  UNL     1      -2.060   1.847   0.832  1.00  0.00     0.203 HD
HETATM    7  C14 UNL     1      -1.232   0.057   0.335  1.00  0.00     0.707 A 
HETATM    8  N10 UNL     1      -0.119  -0.556  -0.079  1.00  0.00    -0.022 N 
ATOM      9  H10 UNL     1      -0.121  -1.566  -0.223  1.00  0.00     0.203 HD
ENDROOT
BRANCH   7  10
HETATM   10  N6  UNL     1      -2.306  -0.555   0.565  1.00  0.00    -0.220 N 
ATOM     11  H6  UNL     1      -3.073   0.041   0.877  1.00  0.00     0.178 HD
BRANCH  10  12
HETATM   12  C15 UNL     1      -2.635  -1.930   0.466  1.00  0.00     0.108 C 
BRANCH  12  13
HETATM   13  C16 UNL     1      -2.061  -2.838   1.497  1.00  0.00     0.098 C 
BRANCH  13  14
HETATM   14  C17 UNL     1      -2.395  -2.552   2.889  1.00  0.00     0.088 C 
HETATM   15  N7  UNL     1      -2.961  -1.531   3.382  1.00  0.00    -0.391 N 
ATOM     16  H72 UNL     1      -3.235  -0.818   2.706  1.00  0.00     0.157 HD
ATOM     17  H71 UNL     1      -3.194  -1.331   4.355  1.00  0.00     0.157 HD
HETATM   18  N8  UNL     1      -2.009  -3.555   3.840  1.00  0.00    -0.088 NA
ENDBRANCH  13  14
ENDBRANCH  12  13
BRANCH  12  19
HETATM   19  C18 UNL     1      -4.113  -2.149   0.388  1.00  0.00     0.051 C 
BRANCH  19  20
HETATM   20  C19 UNL     1      -4.811  -1.510  -0.760  1.00  0.00     0.086 C 
HETATM   21  C20 UNL     1      -6.294  -1.885  -0.597  1.00  0.00     0.026 C 
HETATM   22  C21 UNL     1      -7.158  -1.089  -1.543  1.00  0.00     0.011 C 
HETATM   23  C22 UNL     1      -6.542  -0.899  -2.886  1.00  0.00     0.103 C 
HETATM   24  C23 UNL     1      -5.441  -1.882  -3.084  1.00  0.00     0.217 C 
HETATM   25  O3  UNL     1      -5.433  -2.577  -4.122  1.00  0.00    -0.274 OA
HETATM   26  N9  UNL     1      -4.443  -1.977  -2.063  1.00  0.00    -0.356 N 
ATOM     27  H9  UNL     1      -3.516  -2.358  -2.254  1.00  0.00     0.162 HD
ENDBRANCH  19  20
ENDBRANCH  12  19
ENDBRANCH  10  12
ENDBRANCH   7  10
BRANCH   4  28
HETATM   28  N4  UNL     1      -0.096   3.547   0.501  1.00  0.00    -0.150 N 
HETATM   29  C9  UNL     1      -0.141   4.131   1.803  1.00  0.00     0.151 C 
HETATM   30  C10 UNL     1       0.782   5.290   1.997  1.00  0.00     0.021 C 
HETATM   31  C11 UNL     1       1.018   6.115   0.774  1.00  0.00     0.011 C 
HETATM   32  C12 UNL     1       0.016   5.872  -0.326  1.00  0.00     0.104 C 
HETATM   33  C13 UNL     1      -0.031   4.402  -0.631  1.00  0.00     0.238 C 
HETATM   34  O2  UNL     1      -0.014   3.976  -1.794  1.00  0.00    -0.273 OA
ENDBRANCH   4  28
BRANCH   1  35
HETATM   35  N2  UNL     1       2.083  -0.442  -0.699  1.00  0.00    -0.225 N 
ATOM     36  H2  UNL     1       2.089  -1.451  -0.846  1.00  0.00     0.177 HD
BRANCH  35  37
HETATM   37  C6  UNL     1       3.273   0.344  -0.924  1.00  0.00     0.138 C 
BRANCH  37  38
HETATM   38  C5  UNL     1       4.510  -0.569  -1.081  1.00  0.00     0.022 C 
BRANCH  38  39
HETATM   39  C4  UNL     1       4.671  -1.351   0.152  1.00  0.00     0.021 C 
BRANCH  39  40
HETATM   40  C3  UNL     1       5.746  -2.360   0.261  1.00  0.00     0.122 C 
BRANCH  40  41
HETATM   41  N1  UNL     1       7.098  -1.978   0.110  1.00  0.00    -0.361 N 
HETATM   42  C2  UNL     1       7.788  -1.526  -1.023  1.00  0.00     0.213 C 
HETATM   43  C1  UNL     1       9.248  -1.139  -0.958  1.00  0.00     0.117 C 
HETATM   44  O1  UNL     1       7.265  -1.410  -2.141  1.00  0.00    -0.274 OA
ATOM     45  H1  UNL     1       7.660  -2.041   0.959  1.00  0.00     0.162 HD
ENDBRANCH  40  41
ENDBRANCH  39  40
ENDBRANCH  38  39
ENDBRANCH  37  38
ENDBRANCH  35  37
ENDBRANCH   1  35
TORSDOF 13
