REMARK  8 active torsions:
REMARK  status: ('A' for Active; 'I' for Inactive)
REMARK    1  A    between atoms: C2_3  and  N2_4 
REMARK    2  A    between atoms: C3_5  and  N3_6 
REMARK    3  A    between atoms: N3_6  and  N4_8 
REMARK    4  A    between atoms: N4_8  and  C4_10 
REMARK    5  A    between atoms: C4_10  and  N5_11 
REMARK    6  A    between atoms: C5_14  and  C6_15 
REMARK       I    between atoms: C6_15  and  N6_17 
REMARK    7  A    between atoms: N6_17  and  N7_19 
REMARK    8  A    between atoms: C11_29  and  O3_30 
ROOT
HETATM    1  N2  UNL     1       0.137  -0.606   0.140  1.00  0.00    -0.216 N 
HETATM    2  C3  UNL     1       1.023   0.419   0.375  1.00  0.00     0.166 A 
HETATM    3  C5  UNL     1       2.302  -0.083   0.331  1.00  0.00     0.150 A 
HETATM    4  C7  UNL     1       2.110  -1.449   0.056  1.00  0.00     0.281 A 
HETATM    5  O2  UNL     1       3.026  -2.310  -0.075  1.00  0.00    -0.265 OA
HETATM    6  N8  UNL     1       0.796  -1.709  -0.049  1.00  0.00    -0.251 N 
HETATM    7  C8  UNL     1       0.285  -3.046  -0.333  1.00  0.00     0.182 C 
ENDROOT
BRANCH   1   8
HETATM    8  C2  UNL     1      -1.263  -0.460   0.125  1.00  0.00     0.136 A 
HETATM    9  N1  UNL     1      -1.818   0.182  -0.916  1.00  0.00    -0.301 N 
HETATM   10  C1  UNL     1      -1.042   0.740  -2.031  1.00  0.00     0.161 C 
HETATM   11  C12 UNL     1      -3.154   0.335  -0.964  1.00  0.00     0.284 A 
HETATM   12  C11 UNL     1      -3.988  -0.149   0.027  1.00  0.00     0.159 A 
HETATM   13  O4  UNL     1      -3.685   0.944  -1.950  1.00  0.00    -0.265 OA
HETATM   14  C10 UNL     1      -3.441  -0.819   1.118  1.00  0.00     0.088 A 
HETATM   15  C9  UNL     1      -2.077  -0.961   1.142  1.00  0.00     0.080 A 
HETATM   16  N9  UNL     1      -4.237  -1.346   2.173  1.00  0.00    -0.099 NA
BRANCH  12  17
HETATM   17  O3  UNL     1      -5.355  -0.002  -0.005  1.00  0.00    -0.354 OA
ATOM     18  H3  UNL     1      -5.728   0.455  -0.749  1.00  0.00     0.218 HD
ENDBRANCH  12  17
ENDBRANCH   1   8
BRANCH   2  19
HETATM   19  N3  UNL     1       0.598   1.766   0.621  1.00  0.00    -0.275 N 
ATOM     20  H3  UNL     1      -0.399   1.901   0.789  1.00  0.00     0.189 HD
BRANCH  19  21
HETATM   21  N4  UNL     1       1.367   2.879   0.656  1.00  0.00    -0.249 N 
ATOM     22  H4  UNL     1       2.257   2.854   1.154  1.00  0.00     0.198 HD
BRANCH  21  23
HETATM   23  C4  UNL     1       1.001   3.967   0.076  1.00  0.00     0.060 C 
BRANCH  23  24
HETATM   24  N5  UNL     1       0.640   5.178  -0.083  1.00  0.00    -0.351 N 
ATOM     25  H52 UNL     1       0.660   5.437   0.903  1.00  0.00     0.167 HD
ATOM     26  H51 UNL     1       0.350   6.041  -0.543  1.00  0.00     0.167 HD
ENDBRANCH  23  24
ENDBRANCH  21  23
ENDBRANCH  19  21
ENDBRANCH   2  19
BRANCH   3  27
HETATM   27  C6  UNL     1       3.586   0.525   0.556  1.00  0.00     0.279 C 
HETATM   28  O1  UNL     1       3.696   1.718   0.893  1.00  0.00    -0.266 OA
HETATM   29  N6  UNL     1       4.791  -0.178   0.414  1.00  0.00    -0.272 N 
ATOM     30  H6  UNL     1       4.779  -1.160   0.137  1.00  0.00     0.189 HD
BRANCH  29  31
HETATM   31  N7  UNL     1       6.043   0.485   0.659  1.00  0.00    -0.342 N 
ATOM     32  H72 UNL     1       6.037   1.467   0.935  1.00  0.00     0.176 HD
ATOM     33  H71 UNL     1       6.919  -0.026   0.556  1.00  0.00     0.176 HD
ENDBRANCH  29  31
ENDBRANCH   3  27
TORSDOF 8
