REMARK  4 active torsions:
REMARK  status: ('A' for Active; 'I' for Inactive)
REMARK    1  A    between atoms: C2_2  and  N1_3 
REMARK    2  A    between atoms: C8_9  and  C9_10 
REMARK    3  A    between atoms: C9_10  and  N2_11 
REMARK    4  A    between atoms: N2_11  and  C10_13 
ROOT
HETATM    1  C9  UNL     1       0.594  -0.015   0.540  1.00  0.00     0.118 C 
ENDROOT
BRANCH   1   2
HETATM    2  C8  UNL     1      -0.733   0.309   0.051  1.00  0.00     0.056 A 
HETATM    3  N1  UNL     1      -1.944  -0.254   0.076  1.00  0.00    -0.350 N 
HETATM    4  C3  UNL     1      -2.895   0.674  -0.258  1.00  0.00     0.008 A 
HETATM    5  C4  UNL     1      -4.399   0.494  -0.269  1.00  0.00     0.068 C 
HETATM    6  C5  UNL     1      -2.253   1.852  -0.506  1.00  0.00     0.033 A 
HETATM    7  C6  UNL     1      -0.927   1.673  -0.328  1.00  0.00    -0.032 A 
HETATM    8  C7  UNL     1       0.171   2.722  -0.422  1.00  0.00     0.050 C 
BRANCH   3   9
HETATM    9  C2  UNL     1      -2.339  -1.527   0.630  1.00  0.00     0.124 C 
HETATM   10  C1  UNL     1      -3.328  -2.309  -0.163  1.00  0.00     0.027 C 
ENDBRANCH   3   9
ENDBRANCH   1   2
BRANCH   1  11
HETATM   11  N2  UNL     1       1.503  -0.876  -0.105  1.00  0.00    -0.363 N 
ATOM     12  H2  UNL     1       1.198  -1.682  -0.651  1.00  0.00     0.165 HD
BRANCH  11  13
HETATM   13  C10 UNL     1       2.946  -0.525   0.067  1.00  0.00     0.047 A 
HETATM   14  C11 UNL     1       3.926  -1.397  -0.306  1.00  0.00     0.032 A 
HETATM   15  C12 UNL     1       5.286  -1.050  -0.171  1.00  0.00     0.019 A 
HETATM   16  C13 UNL     1       5.600   0.188   0.339  1.00  0.00     0.088 A 
HETATM   17  N3  UNL     1       4.648   1.042   0.704  1.00  0.00    -0.373 N 
HETATM   18  C14 UNL     1       3.354   0.670   0.565  1.00  0.00     0.117 A 
ATOM     19  H3  UNL     1       4.888   1.959   1.081  1.00  0.00     0.164 HD
ENDBRANCH  11  13
ENDBRANCH   1  11
TORSDOF 4
