REMARK  13 active torsions:
REMARK  status: ('A' for Active; 'I' for Inactive)
REMARK       I    between atoms: C1_4  and  N3_6 
REMARK    1  A    between atoms: N3_6  and  O1_8 
REMARK    2  A    between atoms: O1_8  and  C2_9 
REMARK    3  A    between atoms: C2_9  and  C3_11 
REMARK    4  A    between atoms: C5_14  and  C6_15 
REMARK       I    between atoms: C6_15  and  N5_17 
REMARK    5  A    between atoms: N5_17  and  N6_18 
REMARK    6  A    between atoms: N7_20  and  C7_22 
REMARK    7  A    between atoms: C7_22  and  C8_23 
REMARK    8  A    between atoms: C8_23  and  N8_24 
REMARK    9  A    between atoms: C8_23  and  C9_28 
REMARK   10  A    between atoms: C9_28  and  O4_29 
REMARK   11  A    between atoms: C9_28  and  O5_31 
REMARK   12  A    between atoms: C11_36  and  N9_37 
REMARK   13  A    between atoms: N9_37  and  O6_39 
ROOT
HETATM    1  C3  UNL     1       2.496  -0.184  -0.105  1.00  0.00     0.084 A 
HETATM    2  C4  UNL     1       1.490   0.338  -0.834  1.00  0.00     0.108 A 
HETATM    3  N4  UNL     1       1.650   0.062  -2.210  1.00  0.00    -0.346 N 
HETATM    4  C5  UNL     1       1.042   0.341  -3.481  1.00  0.00     0.268 C 
HETATM    5  S1  UNL     1       0.575  -1.356  -4.059  1.00  0.00    -0.058 SA
HETATM    6  S2  UNL     1       2.136  -2.329  -2.913  1.00  0.00    -0.063 SA
HETATM    7  C10 UNL     1       2.840  -0.727  -2.358  1.00  0.00     0.211 A 
HETATM    8  C11 UNL     1       3.409  -0.862  -0.991  1.00  0.00     0.083 A 
ENDROOT
BRANCH   4   9
HETATM    9  C6  UNL     1      -0.191   1.158  -3.366  1.00  0.00     0.347 C 
HETATM   10  O3  UNL     1      -0.322   1.982  -4.339  1.00  0.00    -0.252 OA
HETATM   11  N5  UNL     1      -1.146   1.088  -2.349  1.00  0.00    -0.268 NA
BRANCH  11  12
HETATM   12  N6  UNL     1      -2.026   1.029  -1.419  1.00  0.00    -0.177 N 
HETATM   13  N7  UNL     1      -2.994   0.204  -1.261  1.00  0.00    -0.310 N 
ATOM     14  H7  UNL     1      -3.124  -0.536  -1.950  1.00  0.00     0.182 HD
ATOM     15  H6  UNL     1      -1.944   1.745  -0.697  1.00  0.00     0.223 HD
BRANCH  13  16
HETATM   16  C7  UNL     1      -3.899   0.281  -0.155  1.00  0.00     0.179 C 
BRANCH  16  17
HETATM   17  C8  UNL     1      -5.086  -0.648  -0.403  1.00  0.00     0.257 C 
BRANCH  17  18
HETATM   18  N8  UNL     1      -5.762  -0.272  -1.604  1.00  0.00    -0.069 N 
ATOM     19  H83 UNL     1      -6.041   0.709  -1.594  1.00  0.00     0.275 HD
ATOM     20  H82 UNL     1      -5.130  -0.239  -2.404  1.00  0.00     0.275 HD
ATOM     21  H81 UNL     1      -6.555  -0.892  -1.770  1.00  0.00     0.275 HD
ENDBRANCH  17  18
BRANCH  17  22
HETATM   22  C9  UNL     1      -6.106  -0.497   0.731  1.00  0.00     0.285 C 
BRANCH  22  23
HETATM   23  O4  UNL     1      -6.517   0.813   0.774  1.00  0.00    -0.369 OA
ATOM     24  H4  UNL     1      -7.149   0.907   1.477  1.00  0.00     0.212 HD
ENDBRANCH  22  23
BRANCH  22  25
HETATM   25  O5  UNL     1      -5.624  -0.978   1.930  1.00  0.00    -0.369 OA
ATOM     26  H5  UNL     1      -6.256  -0.884   2.633  1.00  0.00     0.212 HD
ENDBRANCH  22  25
ENDBRANCH  17  22
ENDBRANCH  16  17
ENDBRANCH  13  16
ENDBRANCH  11  12
ENDBRANCH   4   9
BRANCH   1  27
HETATM   27  C2  UNL     1       2.624  -0.072   1.351  1.00  0.00     0.318 C 
HETATM   28  O2  UNL     1       1.732   0.565   1.993  1.00  0.00    -0.257 OA
BRANCH  27  29
HETATM   29  O1  UNL     1       3.638  -0.600   2.108  1.00  0.00    -0.192 OA
BRANCH  29  30
HETATM   30  N3  UNL     1       3.683  -0.445   3.465  1.00  0.00    -0.229 N 
HETATM   31  C1  UNL     1       4.678   0.419   4.019  1.00  0.00     0.206 C 
HETATM   32  N1  UNL     1       4.508   0.969   5.166  1.00  0.00    -0.372 N 
HETATM   33  N2  UNL     1       5.854   0.653   3.260  1.00  0.00    -0.062 NA
ATOM     34  H12 UNL     1       5.218   1.586   5.561  1.00  0.00     0.158 HD
ATOM     35  H11 UNL     1       3.663   0.801   5.712  1.00  0.00     0.158 HD
ATOM     36  H3  UNL     1       3.022  -0.934   4.068  1.00  0.00     0.197 HD
ENDBRANCH  29  30
ENDBRANCH  27  29
ENDBRANCH   1  27
BRANCH   8  37
HETATM   37  N9  UNL     1       4.496  -1.474  -0.807  1.00  0.00    -0.269 N 
ATOM     38  H9  UNL     1       4.889  -1.842  -1.674  1.00  0.00     0.194 HD
BRANCH  37  39
HETATM   39  O6  UNL     1       5.247  -1.751   0.248  1.00  0.00    -0.290 OA
ATOM     40  H6  UNL     1       6.066  -2.212   0.387  1.00  0.00     0.244 HD
ENDBRANCH  37  39
ENDBRANCH   8  37
TORSDOF 13
