REMARK  9 active torsions:
REMARK  status: ('A' for Active; 'I' for Inactive)
REMARK    1  A    between atoms: S1_2  and  C2_4 
REMARK    2  A    between atoms: C3_7  and  N2_8 
REMARK    3  A    between atoms: C4_13  and  N4_14 
REMARK    4  A    between atoms: N4_14  and  C5_16 
REMARK    5  A    between atoms: C5_16  and  C6_17 
REMARK    6  A    between atoms: C6_17  and  N5_18 
REMARK    7  A    between atoms: N5_18  and  C7_21 
REMARK    8  A    between atoms: C7_21  and  C8_22 
REMARK    9  A    between atoms: C8_22  and  N6_23 
ROOT
HETATM    1  C2  UNL     1       3.051   0.601  -0.921  1.00  0.00     0.203 A 
HETATM    2  N1  UNL     1       3.395   1.411   0.079  1.00  0.00    -0.167 N 
ATOM      3  H1  UNL     1       4.234   1.986   0.002  1.00  0.00     0.186 HD
HETATM    4  C3  UNL     1       2.636   1.473   1.196  1.00  0.00     0.692 A 
HETATM    5  N3  UNL     1       1.520   0.694   1.274  1.00  0.00    -0.023 N 
ATOM      6  H3  UNL     1       0.936   0.728   2.109  1.00  0.00     0.203 HD
HETATM    7  C4  UNL     1       1.188  -0.111   0.268  1.00  0.00     0.694 A 
HETATM    8  N7  UNL     1       1.951  -0.165  -0.840  1.00  0.00    -0.167 N 
ATOM      9  H7  UNL     1       1.696  -0.782  -1.611  1.00  0.00     0.186 HD
ENDROOT
BRANCH   7  10
HETATM   10  N4  UNL     1       0.150  -0.851   0.345  1.00  0.00    -0.224 N 
ATOM     11  H4  UNL     1      -0.053  -1.444  -0.459  1.00  0.00     0.177 HD
BRANCH  10  12
HETATM   12  C5  UNL     1      -0.759  -0.929   1.454  1.00  0.00     0.165 C 
BRANCH  12  13
HETATM   13  C6  UNL     1      -1.804   0.127   1.477  1.00  0.00     0.252 C 
BRANCH  13  14
HETATM   14  N5  UNL     1      -2.678   0.133   0.357  1.00  0.00    -0.072 N 
ATOM     15  H52 UNL     1      -3.214   1.000   0.327  1.00  0.00     0.277 HD
ATOM     16  H51 UNL     1      -2.148   0.227  -0.509  1.00  0.00     0.277 HD
BRANCH  14  17
HETATM   17  C7  UNL     1      -3.556  -1.003   0.289  1.00  0.00     0.259 C 
BRANCH  17  18
HETATM   18  C8  UNL     1      -4.641  -0.789  -0.758  1.00  0.00     0.257 C 
BRANCH  18  19
HETATM   19  N6  UNL     1      -5.414   0.411  -0.443  1.00  0.00    -0.078 N 
ATOM     20  H63 UNL     1      -5.796   0.381   0.502  1.00  0.00     0.274 HD
ATOM     21  H62 UNL     1      -4.818   1.232  -0.338  1.00  0.00     0.274 HD
ATOM     22  H61 UNL     1      -6.141   0.554  -1.144  1.00  0.00     0.274 HD
ENDBRANCH  18  19
ENDBRANCH  17  18
ENDBRANCH  14  17
ENDBRANCH  13  14
ENDBRANCH  12  13
ENDBRANCH  10  12
ENDBRANCH   7  10
BRANCH   4  23
HETATM   23  N2  UNL     1       2.937   2.246   2.183  1.00  0.00    -0.234 N 
ATOM     24  H22 UNL     1       3.772   2.829   2.125  1.00  0.00     0.174 HD
ATOM     25  H21 UNL     1       2.364   2.293   3.026  1.00  0.00     0.174 HD
ENDBRANCH   4  23
BRANCH   1  26
HETATM   26  S1  UNL     1       4.032   0.498  -2.372  1.00  0.00     0.081 S 
HETATM   27  C1  UNL     1       5.334  -0.684  -2.133  1.00  0.00     0.136 C 
HETATM   28  O1  UNL     1       4.590   2.019  -2.764  1.00  0.00    -0.250 OA
ENDBRANCH   1  26
TORSDOF 9
