REMARK  7 active torsions:
REMARK  status: ('A' for Active; 'I' for Inactive)
REMARK    1  A    between atoms: C2_2  and  C3_3 
REMARK    2  A    between atoms: C5_5  and  C6_6 
REMARK    3  A    between atoms: C9_11  and  N2_12 
REMARK    4  A    between atoms: C10_17  and  N4_18 
REMARK    5  A    between atoms: C13_21  and  C14_22 
REMARK    6  A    between atoms: C14_22  and  C15_23 
REMARK    7  A    between atoms: C15_23  and  O1_24 
ROOT
HETATM    1  C6  UNL     1       3.333  -1.279   0.175  1.00  0.00     0.017 A 
HETATM    2  C7  UNL     1       2.952  -0.880  -1.088  1.00  0.00     0.056 A 
HETATM    3  C8  UNL     1       1.689  -0.426  -1.368  1.00  0.00     0.068 A 
HETATM    4  N1  UNL     1       1.352  -0.026  -2.605  1.00  0.00    -0.191 N 
ATOM      5  H1  UNL     1       2.031  -0.065  -3.365  1.00  0.00     0.184 HD
HETATM    6  C9  UNL     1       0.108   0.425  -2.826  1.00  0.00     0.677 A 
HETATM    7  N3  UNL     1      -0.815   0.496  -1.874  1.00  0.00    -0.176 N 
ATOM      8  H3  UNL     1      -1.744   0.849  -2.105  1.00  0.00     0.186 HD
HETATM    9  C10 UNL     1      -0.543   0.098  -0.565  1.00  0.00     0.135 A 
HETATM   10  C18 UNL     1       0.714  -0.349  -0.363  1.00  0.00     0.074 A 
HETATM   11  C19 UNL     1       1.115  -0.747   0.873  1.00  0.00     0.120 A 
HETATM   12 CL1  UNL     1       0.101  -0.684   2.272  1.00  0.00    -0.063 Cl
HETATM   13  N5  UNL     1       2.385  -1.196   1.121  1.00  0.00    -0.349 N 
ATOM     14  H5  UNL     1       2.622  -1.481   2.071  1.00  0.00     0.166 HD
ENDROOT
BRANCH   9  15
HETATM   15  N4  UNL     1      -1.641   0.171   0.289  1.00  0.00    -0.366 N 
HETATM   16  C11 UNL     1      -2.500  -0.972   0.503  1.00  0.00     0.125 C 
HETATM   17  C12 UNL     1      -3.891  -0.631  -0.106  1.00  0.00     0.024 C 
HETATM   18  C13 UNL     1      -4.388   0.509   0.743  1.00  0.00    -0.009 C 
HETATM   19  C16 UNL     1      -3.507   1.704   0.503  1.00  0.00     0.024 C 
HETATM   20  C17 UNL     1      -2.046   1.420   0.893  1.00  0.00     0.125 C 
BRANCH  18  21
HETATM   21  C14 UNL     1      -5.817   0.861   0.480  1.00  0.00     0.031 C 
BRANCH  21  22
HETATM   22  C15 UNL     1      -6.775  -0.254   0.733  1.00  0.00     0.164 C 
BRANCH  22  23
HETATM   23  O1  UNL     1      -8.064   0.220   0.447  1.00  0.00    -0.401 OA
ATOM     24  H1  UNL     1      -8.674  -0.490   0.608  1.00  0.00     0.209 HD
ENDBRANCH  22  23
ENDBRANCH  21  22
ENDBRANCH  18  21
ENDBRANCH   9  15
BRANCH   6  25
HETATM   25  N2  UNL     1      -0.224   0.816  -4.028  1.00  0.00    -0.234 N 
ATOM     26  H22 UNL     1       0.485   0.761  -4.759  1.00  0.00     0.174 HD
ATOM     27  H21 UNL     1      -1.170   1.159  -4.196  1.00  0.00     0.174 HD
ENDBRANCH   6  25
BRANCH   1  28
HETATM   28  C5  UNL     1       4.683  -1.766   0.520  1.00  0.00     0.040 A 
HETATM   29  C3  UNL     1       5.880  -0.904   0.437  1.00  0.00    -0.004 A 
HETATM   30  C4  UNL     1       5.688  -2.095  -0.487  1.00  0.00     0.016 A 
BRANCH  29  31
HETATM   31  C2  UNL     1       5.935   0.423  -0.226  1.00  0.00     0.001 C 
HETATM   32  C1  UNL     1       6.129   1.566   0.749  1.00  0.00     0.005 C 
ENDBRANCH  29  31
ENDBRANCH   1  28
TORSDOF 7
