REMARK  7 active torsions:
REMARK  status: ('A' for Active; 'I' for Inactive)
REMARK    1  A    between atoms: C2_2  and  O1_3 
REMARK    2  A    between atoms: C2_2  and  C3_5 
REMARK    3  A    between atoms: C3_5  and  C4_6 
REMARK    4  A    between atoms: C3_5  and  N2_19 
REMARK    5  A    between atoms: C4_6  and  C5_7 
REMARK    6  A    between atoms: C4_6  and  N1_13 
REMARK    7  A    between atoms: C17_24  and  N4_25 
ROOT
HETATM    1  C3  UNL     1       0.707   0.812  -0.587  1.00  0.00     0.070 C 
ENDROOT
BRANCH   1   2
HETATM    2  C2  UNL     1       0.631   1.534  -1.910  1.00  0.00     0.166 C 
HETATM    3  C1  UNL     1       1.984   1.990  -2.409  1.00  0.00     0.046 C 
BRANCH   2   4
HETATM    4  O1  UNL     1      -0.266   2.513  -2.082  1.00  0.00    -0.390 OA
ATOM      5  H1  UNL     1      -1.116   2.227  -1.769  1.00  0.00     0.210 HD
ENDBRANCH   2   4
ENDBRANCH   1   2
BRANCH   1   6
HETATM    6  C4  UNL     1      -0.550   0.388   0.019  1.00  0.00     0.039 C 
BRANCH   6   7
HETATM    7  C5  UNL     1      -1.523  -0.513  -0.670  1.00  0.00     0.037 C 
HETATM    8  C6  UNL     1      -1.096  -1.867  -1.039  1.00  0.00     0.011 C 
HETATM    9  C7  UNL     1      -2.109  -2.380  -2.090  1.00  0.00     0.001 C 
HETATM   10  C8  UNL     1      -3.507  -2.275  -1.512  1.00  0.00     0.000 C 
HETATM   11  C9  UNL     1      -3.442  -1.984  -0.026  1.00  0.00     0.001 C 
HETATM   12  C10 UNL     1      -2.686  -0.728   0.311  1.00  0.00     0.011 C 
ENDBRANCH   6   7
BRANCH   6  13
HETATM   13  N1  UNL     1      -1.081   1.271   0.959  1.00  0.00    -0.352 N 
HETATM   14  C11 UNL     1      -0.392   1.503   2.194  1.00  0.00     0.126 C 
HETATM   15  C12 UNL     1      -1.402   2.196   3.061  1.00  0.00     0.024 C 
HETATM   16  C13 UNL     1      -2.611   2.377   2.191  1.00  0.00     0.061 C 
HETATM   17  C14 UNL     1      -1.960   2.311   0.770  1.00  0.00     0.271 C 
HETATM   18  F1  UNL     1      -1.250   3.546   0.815  1.00  0.00    -0.227 F 
ENDBRANCH   6  13
ENDBRANCH   1   6
BRANCH   1  19
HETATM   19  N2  UNL     1       1.849  -0.073  -0.630  1.00  0.00    -0.291 N 
HETATM   20  C15 UNL     1       2.307  -0.692  -1.733  1.00  0.00     0.191 A 
HETATM   21  N3  UNL     1       3.392  -1.410  -1.438  1.00  0.00    -0.346 N 
HETATM   22  C16 UNL     1       3.684  -1.288  -0.134  1.00  0.00     0.122 A 
ATOM     23  H3  UNL     1       3.922  -1.970  -2.106  1.00  0.00     0.167 HD
HETATM   24  C17 UNL     1       4.688  -1.816   0.652  1.00  0.00     0.131 A 
HETATM   25  C19 UNL     1       2.695  -0.437   0.363  1.00  0.00     0.145 A 
HETATM   26  N5  UNL     1       4.682  -1.475   1.947  1.00  0.00    -0.337 N 
HETATM   27  C18 UNL     1       3.744  -0.658   2.455  1.00  0.00     0.183 A 
ATOM     28  H5  UNL     1       5.407  -1.844   2.562  1.00  0.00     0.168 HD
HETATM   29  N6  UNL     1       2.792  -0.168   1.668  1.00  0.00    -0.336 N 
ATOM     30  H6  UNL     1       2.095   0.449   2.084  1.00  0.00     0.168 HD
BRANCH  24  31
HETATM   31  N4  UNL     1       5.589  -2.610   0.138  1.00  0.00    -0.383 N 
ATOM     32  H42 UNL     1       5.594  -2.870  -0.848  1.00  0.00     0.157 HD
ATOM     33  H41 UNL     1       6.331  -3.000   0.719  1.00  0.00     0.157 HD
ENDBRANCH  24  31
ENDBRANCH   1  19
TORSDOF 7
