REMARK  4 active torsions:
REMARK  status: ('A' for Active; 'I' for Inactive)
REMARK    1  A    between atoms: C2_2  and  C3_3 
REMARK    2  A    between atoms: C3_3  and  O1_4 
REMARK    3  A    between atoms: C4_7  and  C5_8 
REMARK    4  A    between atoms: C10_16  and  O5_17 
ROOT
HETATM    1  C5  UNL     1       2.025  -1.001   0.269  1.00  0.00     0.108 C 
HETATM    2  C6  UNL     1       2.462  -1.490  -1.069  1.00  0.00     0.182 C 
HETATM    3  O3  UNL     1       3.791  -1.245  -0.656  1.00  0.00    -0.370 OA
HETATM    4  C7  UNL     1       3.289  -0.160   0.049  1.00  0.00     0.238 C 
HETATM    5  C8  UNL     1       3.936   0.172   1.287  1.00  0.00     0.091 C 
HETATM    6  N1  UNL     1       4.448   0.440   2.281  1.00  0.00    -0.195 NA
ENDROOT
BRANCH   1   7
HETATM    7  C4  UNL     1       0.834  -0.123   0.337  1.00  0.00     0.273 C 
HETATM    8  O2  UNL     1      -0.330  -0.678  -0.146  1.00  0.00    -0.322 OA
HETATM    9  C3  UNL     1      -1.390   0.104   0.294  1.00  0.00     0.192 C 
HETATM   10  C10 UNL     1      -1.198   1.561   0.034  1.00  0.00     0.204 C 
HETATM   11  C9  UNL     1       0.228   2.007   0.023  1.00  0.00     0.208 C 
HETATM   12  O4  UNL     1       1.085   1.028  -0.441  1.00  0.00    -0.358 OA
BRANCH   9  13
HETATM   13  C2  UNL     1      -2.679  -0.324  -0.424  1.00  0.00     0.067 C 
HETATM   14  C1  UNL     1      -2.971  -1.783  -0.163  1.00  0.00     0.010 C 
ENDBRANCH   9  13
BRANCH   9  15
HETATM   15  O1  UNL     1      -1.511  -0.081   1.665  1.00  0.00    -0.363 OA
ATOM     16  H1  UNL     1      -0.714   0.184   2.109  1.00  0.00     0.213 HD
ENDBRANCH   9  15
BRANCH  10  17
HETATM   17  O5  UNL     1      -1.860   2.293   1.029  1.00  0.00    -0.388 OA
ATOM     18  H5  UNL     1      -1.738   3.220   0.863  1.00  0.00     0.210 HD
ENDBRANCH  10  17
ENDBRANCH   1   7
TORSDOF 4
