REMARK  9 active torsions:
REMARK  status: ('A' for Active; 'I' for Inactive)
REMARK    1  A    between atoms: N1_3  and  C3_4 
REMARK    2  A    between atoms: C3_4  and  C4_5 
REMARK    3  A    between atoms: C4_5  and  C5_6 
REMARK    4  A    between atoms: C5_6  and  C6_7 
REMARK    5  A    between atoms: C6_7  and  N2_8 
REMARK    6  A    between atoms: N4_15  and  C10_16 
REMARK    7  A    between atoms: C10_16  and  C11_17 
REMARK    8  A    between atoms: C11_17  and  C12_18 
REMARK    9  A    between atoms: C12_18  and  N5_19 
ROOT
HETATM    1  C1  UNL     1       1.021  -1.020   2.719  1.00  0.00     0.034 A 
HETATM    2  C2  UNL     1      -0.220  -1.214   2.140  1.00  0.00     0.093 A 
HETATM    3  N1  UNL     1      -0.538  -0.455   1.072  1.00  0.00    -0.353 N 
HETATM    4  C9  UNL     1       0.327   0.450   0.598  1.00  0.00     0.184 A 
HETATM    5  N4  UNL     1       1.543   0.675   1.127  1.00  0.00    -0.353 N 
HETATM    6  C16 UNL     1       1.887  -0.068   2.194  1.00  0.00     0.093 A 
ENDROOT
BRANCH   3   7
HETATM    7  C3  UNL     1      -1.848  -0.681   0.485  1.00  0.00     0.129 C 
BRANCH   7   8
HETATM    8  C4  UNL     1      -2.882   0.233   1.149  1.00  0.00     0.022 C 
BRANCH   8   9
HETATM    9  C5  UNL     1      -4.235   0.016   0.563  1.00  0.00     0.022 C 
BRANCH   9  10
HETATM   10  C6  UNL     1      -4.294   0.295  -0.912  1.00  0.00     0.131 C 
BRANCH  10  11
HETATM   11  N2  UNL     1      -5.672   0.045  -1.351  1.00  0.00    -0.331 N 
HETATM   12  C7  UNL     1      -6.641   0.966  -1.369  1.00  0.00     0.208 A 
HETATM   13  N3  UNL     1      -7.757   0.377  -1.827  1.00  0.00    -0.256 N 
HETATM   14  O1  UNL     1      -7.457  -0.862  -2.073  1.00  0.00    -0.232 OA
ATOM     15  H3  UNL     1      -8.667   0.819  -1.957  1.00  0.00     0.195 HD
HETATM   16  C8  UNL     1      -6.198  -1.099  -1.796  1.00  0.00     0.262 A 
ENDBRANCH  10  11
ENDBRANCH   9  10
ENDBRANCH   8   9
ENDBRANCH   7   8
ENDBRANCH   3   7
BRANCH   5  17
HETATM   17  C10 UNL     1       2.465   1.660   0.617  1.00  0.00     0.130 C 
BRANCH  17  18
HETATM   18  C11 UNL     1       3.393   1.190  -0.441  1.00  0.00     0.040 C 
BRANCH  18  19
HETATM   19  C12 UNL     1       4.254   0.056   0.066  1.00  0.00     0.131 C 
BRANCH  19  20
HETATM   20  N5  UNL     1       5.154  -0.374  -0.979  1.00  0.00    -0.352 N 
HETATM   21  C13 UNL     1       6.376   0.118  -1.189  1.00  0.00     0.108 A 
HETATM   22  C14 UNL     1       6.888  -0.566  -2.276  1.00  0.00     0.106 A 
HETATM   23  N6  UNL     1       5.955  -1.453  -2.691  1.00  0.00    -0.361 N 
HETATM   24  C15 UNL     1       4.895  -1.322  -1.883  1.00  0.00     0.182 A 
ATOM     25  H6  UNL     1       6.042  -2.101  -3.474  1.00  0.00     0.166 HD
ENDBRANCH  19  20
ENDBRANCH  18  19
ENDBRANCH  17  18
ENDBRANCH   5  17
TORSDOF 9
