REMARK  8 active torsions:
REMARK  status: ('A' for Active; 'I' for Inactive)
REMARK    1  A    between atoms: C2_2  and  C3_3 
REMARK    2  A    between atoms: C3_3  and  C4_4 
REMARK    3  A    between atoms: C4_4  and  C5_5 
REMARK    4  A    between atoms: C4_4  and  C10_14 
REMARK    5  A    between atoms: N2_10  and  C8_11 
REMARK    6  A    between atoms: C8_11  and  C9_12 
REMARK    7  A    between atoms: C10_14  and  C11_15 
REMARK    8  A    between atoms: C11_15  and  N3_16 
ROOT
HETATM    1  C4  UNL     1       0.344   1.032   0.694  1.00  0.00     0.033 C 
ENDROOT
BRANCH   1   2
HETATM    2  C3  UNL     1       0.865   1.796   1.863  1.00  0.00     0.036 C 
BRANCH   2   3
HETATM    3  C2  UNL     1      -0.068   2.868   2.236  1.00  0.00    -0.036 C 
HETATM    4  C1  UNL     1       0.277   4.143   2.229  1.00  0.00     0.007 C 
ENDBRANCH   2   3
ENDBRANCH   1   2
BRANCH   1   5
HETATM    5  C5  UNL     1       1.258  -0.068   0.280  1.00  0.00     0.121 C 
HETATM    6  N1  UNL     1       2.190   0.121  -0.603  1.00  0.00    -0.178 N 
HETATM    7  O1  UNL     1       2.417   1.334  -1.227  1.00  0.00    -0.257 OA
HETATM    8  N2  UNL     1       3.102  -0.807  -1.082  1.00  0.00    -0.294 N 
HETATM    9  C6  UNL     1       3.229   1.139  -2.348  1.00  0.00     0.225 C 
HETATM   10  C7  UNL     1       3.857  -0.203  -2.160  1.00  0.00     0.174 C 
BRANCH   8  11
HETATM   11  C8  UNL     1       3.228  -2.154  -0.547  1.00  0.00     0.214 C 
BRANCH  11  12
HETATM   12  C9  UNL     1       4.512  -2.352   0.162  1.00  0.00     0.252 C 
HETATM   13  O2  UNL     1       4.802  -3.403   0.683  1.00  0.00    -0.305 OA
ENDBRANCH  11  12
ENDBRANCH   8  11
ENDBRANCH   1   5
BRANCH   1  14
HETATM   14  C10 UNL     1      -1.066   0.526   0.903  1.00  0.00     0.030 C 
BRANCH  14  15
HETATM   15  C11 UNL     1      -1.558  -0.246  -0.303  1.00  0.00     0.126 C 
BRANCH  15  16
HETATM   16  N3  UNL     1      -2.904  -0.728  -0.100  1.00  0.00    -0.352 N 
HETATM   17  C12 UNL     1      -4.129  -0.017  -0.447  1.00  0.00     0.126 C 
HETATM   18  C13 UNL     1      -5.100  -1.142  -0.731  1.00  0.00     0.029 C 
HETATM   19  C14 UNL     1      -4.676  -2.271   0.192  1.00  0.00     0.104 C 
HETATM   20  C15 UNL     1      -3.251  -1.982   0.473  1.00  0.00     0.219 C 
HETATM   21  O3  UNL     1      -2.486  -2.743   1.120  1.00  0.00    -0.273 OA
ENDBRANCH  15  16
ENDBRANCH  14  15
ENDBRANCH   1  14
TORSDOF 8
