REMARK  16 active torsions:
REMARK  status: ('A' for Active; 'I' for Inactive)
REMARK    1  A    between atoms: N1_2  and  C3_4 
REMARK    2  A    between atoms: C3_4  and  O1_5 
REMARK    3  A    between atoms: C3_4  and  C4_7 
REMARK    4  A    between atoms: C5_10  and  N3_11 
REMARK       I    between atoms: N3_11  and  C6_13 
REMARK    5  A    between atoms: C6_13  and  C7_15 
REMARK    6  A    between atoms: C14_23  and  C15_24 
REMARK    7  A    between atoms: C15_24  and  C16_26 
REMARK    8  A    between atoms: C16_26  and  C17_27 
REMARK    9  A    between atoms: C17_27  and  C18_28 
REMARK   10  A    between atoms: C18_28  and  C19_29 
REMARK   11  A    between atoms: C19_29  and  C20_30 
REMARK   12  A    between atoms: C20_30  and  C21_31 
REMARK   13  A    between atoms: C21_31  and  C22_32 
REMARK   14  A    between atoms: C22_32  and  C23_33 
REMARK   15  A    between atoms: C23_33  and  C24_34 
REMARK       I    between atoms: C24_34  and  N4_36 
REMARK   16  A    between atoms: N4_36  and  C25_38 
ROOT
HETATM    1  C4  UNL     1      -3.731   2.385   0.153  1.00  0.00     0.096 A 
HETATM    2  N2  UNL     1      -4.927   1.956   0.504  1.00  0.00    -0.338 N 
ATOM      3  H2  UNL     1      -5.634   2.678   0.646  1.00  0.00     0.167 HD
HETATM    4  C5  UNL     1      -5.341   0.675   0.701  1.00  0.00     0.109 A 
HETATM    5  C12 UNL     1      -4.391  -0.286   0.508  1.00  0.00     0.068 A 
HETATM    6  C13 UNL     1      -3.100   0.099   0.134  1.00  0.00     0.022 A 
HETATM    7  S1  UNL     1      -1.695  -0.809  -0.186  1.00  0.00    -0.086 SA
HETATM    8  C14 UNL     1      -0.634   0.467  -0.557  1.00  0.00     0.052 A 
HETATM    9  C26 UNL     1      -1.427   1.583  -0.417  1.00  0.00     0.038 A 
HETATM   10  C27 UNL     1      -2.705   1.396  -0.059  1.00  0.00     0.014 A 
ENDROOT
BRANCH   8  11
HETATM   11  C15 UNL     1       0.792   0.368  -0.936  1.00  0.00     0.166 C 
HETATM   12  O3  UNL     1       1.399   1.413  -1.169  1.00  0.00    -0.292 OA
BRANCH  11  13
HETATM   13  C16 UNL     1       1.386  -1.013  -1.003  1.00  0.00     0.084 C 
BRANCH  13  14
HETATM   14  C17 UNL     1       2.821  -0.980  -1.362  1.00  0.00     0.008 C 
BRANCH  14  15
HETATM   15  C18 UNL     1       3.743  -0.263  -0.457  1.00  0.00     0.000 C 
BRANCH  15  16
HETATM   16  C19 UNL     1       3.787  -0.788   0.949  1.00  0.00     0.000 C 
BRANCH  16  17
HETATM   17  C20 UNL     1       4.773   0.055   1.732  1.00  0.00     0.000 C 
BRANCH  17  18
HETATM   18  C21 UNL     1       6.154   0.014   1.170  1.00  0.00     0.000 C 
BRANCH  18  19
HETATM   19  C22 UNL     1       6.730  -1.383   1.145  1.00  0.00     0.009 C 
BRANCH  19  20
HETATM   20  C23 UNL     1       8.138  -1.251   0.546  1.00  0.00     0.103 C 
BRANCH  20  21
HETATM   21  C24 UNL     1       8.807  -2.550   0.469  1.00  0.00     0.235 C 
HETATM   22  O4  UNL     1       8.231  -3.614   0.866  1.00  0.00    -0.273 OA
HETATM   23  N4  UNL     1      10.105  -2.683  -0.041  1.00  0.00    -0.157 N 
ATOM     24  H4  UNL     1      10.504  -3.621  -0.071  1.00  0.00     0.187 HD
BRANCH  23  25
HETATM   25  C25 UNL     1      10.831  -1.719  -0.473  1.00  0.00     0.716 A 
HETATM   26  N5  UNL     1      10.579  -0.400  -0.555  1.00  0.00    -0.115 N 
HETATM   27  N6  UNL     1      11.655   0.163  -1.072  1.00  0.00    -0.213 N 
ATOM     28  H5  UNL     1       9.721   0.074  -0.272  1.00  0.00     0.207 HD
HETATM   29  N7  UNL     1      12.577  -0.743  -1.321  1.00  0.00    -0.213 N 
ATOM     30  H6  UNL     1      11.758   1.161  -1.253  1.00  0.00     0.210 HD
HETATM   31  N8  UNL     1      12.085  -1.902  -0.958  1.00  0.00    -0.115 N 
ATOM     32  H7  UNL     1      13.500  -0.575  -1.721  1.00  0.00     0.210 HD
ATOM     33  H8  UNL     1      12.567  -2.798  -1.029  1.00  0.00     0.207 HD
ENDBRANCH  23  25
ENDBRANCH  20  21
ENDBRANCH  19  20
ENDBRANCH  18  19
ENDBRANCH  17  18
ENDBRANCH  16  17
ENDBRANCH  15  16
ENDBRANCH  14  15
ENDBRANCH  13  14
ENDBRANCH  11  13
ENDBRANCH   8  11
BRANCH   1  34
HETATM   34  C3  UNL     1      -3.439   3.786  -0.023  1.00  0.00     0.165 C 
BRANCH  34  35
HETATM   35  N1  UNL     1      -4.234   4.904   0.107  1.00  0.00    -0.369 N 
HETATM   36  C1  UNL     1      -5.606   5.067   0.455  1.00  0.00     0.151 C 
HETATM   37  C2  UNL     1      -3.555   6.248  -0.158  1.00  0.00     0.151 C 
ENDBRANCH  34  35
BRANCH  34  38
HETATM   38  O1  UNL     1      -2.200   4.090  -0.370  1.00  0.00    -0.344 OA
ATOM     39  H1  UNL     1      -1.652   3.319  -0.460  1.00  0.00     0.219 HD
ENDBRANCH  34  38
ENDBRANCH   1  34
BRANCH   4  40
HETATM   40  N3  UNL     1      -6.549   0.397   1.045  1.00  0.00    -0.313 N 
HETATM   41  C6  UNL     1      -6.966  -0.946   1.247  1.00  0.00     0.227 C 
HETATM   42  O2  UNL     1      -6.965  -1.369   2.439  1.00  0.00    -0.273 OA
ATOM     43  H3  UNL     1      -7.220   1.155   1.175  1.00  0.00     0.170 HD
BRANCH  41  44
HETATM   44  C7  UNL     1      -7.386  -1.820   0.120  1.00  0.00     0.078 C 
HETATM   45  C8  UNL     1      -7.766  -3.167   0.671  1.00  0.00     0.014 C 
HETATM   46  C9  UNL     1      -8.904  -3.692  -0.147  1.00  0.00     0.001 C 
HETATM   47  C10 UNL     1      -9.300  -2.559  -1.082  1.00  0.00     0.001 C 
HETATM   48  C11 UNL     1      -8.653  -1.320  -0.526  1.00  0.00     0.014 C 
ENDBRANCH  41  44
ENDBRANCH   4  40
TORSDOF 16
