REMARK  13 active torsions:
REMARK  status: ('A' for Active; 'I' for Inactive)
REMARK    1  A    between atoms: O1_2  and  C2_3 
REMARK    2  A    between atoms: C2_3  and  C3_4 
REMARK    3  A    between atoms: C3_4  and  N1_5 
REMARK    4  A    between atoms: N2_8  and  S1_9 
REMARK    5  A    between atoms: S1_9  and  C6_12 
REMARK    6  A    between atoms: C8_16  and  N4_17 
REMARK    7  A    between atoms: N4_17  and  C9_19 
REMARK    8  A    between atoms: C9_19  and  C10_20 
REMARK    9  A    between atoms: C10_20  and  C11_21 
REMARK   10  A    between atoms: C11_21  and  C12_22 
REMARK   11  A    between atoms: C12_22  and  C13_23 
REMARK   12  A    between atoms: C13_23  and  C14_24 
REMARK   13  A    between atoms: C16_31  and  N7_32 
ROOT
HETATM    1  C6  UNL     1      -1.508   1.174   2.125  1.00  0.00     0.091 A 
HETATM    2  C7  UNL     1      -0.533   1.357   1.172  1.00  0.00     0.114 A 
HETATM    3  N3  UNL     1       0.324   0.353   0.830  1.00  0.00    -0.350 N 
ATOM      4  H3  UNL     1       1.032   0.535   0.118  1.00  0.00     0.166 HD
HETATM    5  C8  UNL     1       0.273  -0.866   1.393  1.00  0.00     0.123 A 
HETATM    6  C18 UNL     1      -0.697  -1.084   2.356  1.00  0.00     0.079 A 
HETATM    7 CL3  UNL     1      -0.835  -2.662   3.152  1.00  0.00    -0.080 Cl
HETATM    8  C19 UNL     1      -1.559  -0.076   2.702  1.00  0.00     0.054 A 
ENDROOT
BRANCH   5   9
HETATM    9  N4  UNL     1       1.038  -1.838   1.125  1.00  0.00    -0.375 N 
ATOM     10  H4  UNL     1       0.869  -2.701   1.642  1.00  0.00     0.161 HD
BRANCH   9  11
HETATM   11  C9  UNL     1       2.122  -1.867   0.172  1.00  0.00     0.121 C 
BRANCH  11  12
HETATM   12  C10 UNL     1       3.464  -1.734   0.803  1.00  0.00     0.020 C 
BRANCH  12  13
HETATM   13  C11 UNL     1       4.533  -1.786  -0.251  1.00  0.00     0.002 C 
BRANCH  13  14
HETATM   14  C12 UNL     1       4.407  -0.692  -1.256  1.00  0.00     0.006 C 
BRANCH  14  15
HETATM   15  C13 UNL     1       5.502  -0.749  -2.308  1.00  0.00     0.059 C 
BRANCH  15  16
HETATM   16  C14 UNL     1       6.851  -0.622  -1.680  1.00  0.00     0.037 A 
HETATM   17  N5  UNL     1       7.610  -1.726  -1.539  1.00  0.00    -0.334 N 
HETATM   18  C15 UNL     1       8.820  -1.577  -0.967  1.00  0.00     0.180 A 
ATOM     19  H5  UNL     1       7.281  -2.639  -1.853  1.00  0.00     0.168 HD
HETATM   20 CL1  UNL     1       9.806  -3.031  -0.787  1.00  0.00    -0.045 Cl
HETATM   21  N6  UNL     1       9.300  -0.392  -0.535  1.00  0.00    -0.318 N 
HETATM   22  C16 UNL     1       8.568   0.732  -0.660  1.00  0.00     0.125 A 
ATOM     23  H6  UNL     1      10.226  -0.347  -0.110  1.00  0.00     0.170 HD
HETATM   24  C17 UNL     1       7.326   0.597  -1.244  1.00  0.00     0.100 A 
HETATM   25 CL2  UNL     1       6.356   2.061  -1.415  1.00  0.00    -0.078 Cl
BRANCH  22  26
HETATM   26  N7  UNL     1       9.015   1.871  -0.251  1.00  0.00    -0.384 N 
ATOM     27  H72 UNL     1       9.934   1.971   0.181  1.00  0.00     0.157 HD
ATOM     28  H71 UNL     1       8.461   2.722  -0.346  1.00  0.00     0.157 HD
ENDBRANCH  22  26
ENDBRANCH  15  16
ENDBRANCH  14  15
ENDBRANCH  13  14
ENDBRANCH  12  13
ENDBRANCH  11  12
ENDBRANCH   9  11
ENDBRANCH   5   9
BRANCH   1  29
HETATM   29  S1  UNL     1      -2.595   2.430   2.574  1.00  0.00     0.245 S 
HETATM   30  O2  UNL     1      -2.945   2.339   4.050  1.00  0.00    -0.206 OA
HETATM   31  O3  UNL     1      -1.886   3.768   2.430  1.00  0.00    -0.206 OA
BRANCH  29  32
HETATM   32  N2  UNL     1      -4.031   2.515   1.668  1.00  0.00    -0.203 NA
HETATM   33  C5  UNL     1      -4.790   1.331   1.807  1.00  0.00     0.138 C 
HETATM   34  C4  UNL     1      -4.867   0.412   0.647  1.00  0.00     0.288 C 
HETATM   35  N1  UNL     1      -4.713   0.955  -0.651  1.00  0.00     0.092 N 
HETATM   36  C21 UNL     1      -4.860   2.384  -0.623  1.00  0.00     0.288 C 
HETATM   37  C20 UNL     1      -3.826   2.962   0.328  1.00  0.00     0.138 C 
BRANCH  35  38
HETATM   38  C3  UNL     1      -5.797   0.457  -1.514  1.00  0.00     0.298 C 
BRANCH  38  39
HETATM   39  C2  UNL     1      -5.640  -1.006  -1.761  1.00  0.00     0.197 C 
BRANCH  39  40
HETATM   40  O1  UNL     1      -6.618  -1.520  -2.564  1.00  0.00    -0.394 OA
HETATM   41  C1  UNL     1      -7.903  -1.392  -2.085  1.00  0.00     0.201 C 
ENDBRANCH  39  40
ENDBRANCH  38  39
ENDBRANCH  35  38
ENDBRANCH  29  32
ENDBRANCH   1  29
TORSDOF 13
