REMARK  1 active torsions:
REMARK  status: ('A' for Active; 'I' for Inactive)
REMARK    1  A    between atoms: C2_2  and  C3_3 
ROOT
HETATM    1  C3  UNL     1      -1.499  -0.726   0.472  1.00  0.00     0.180 C 
HETATM    2  C4  UNL     1      -2.377  -1.512   1.457  1.00  0.00     0.084 C 
HETATM    3  O1  UNL     1      -1.404   0.492   1.027  1.00  0.00    -0.347 OA
HETATM    4  C5  UNL     1      -1.871   1.608   0.486  1.00  0.00     0.121 C 
HETATM    5  C6  UNL     1      -2.640   2.372   1.581  1.00  0.00     0.040 C 
HETATM    6  C7  UNL     1      -0.668   2.514   0.170  1.00  0.00     0.036 C 
HETATM    7  C8  UNL     1      -0.061   2.218  -1.151  1.00  0.00     0.036 C 
HETATM    8  C9  UNL     1       1.107   1.302  -1.137  1.00  0.00    -0.082 C 
HETATM    9  C10 UNL     1       1.954   1.385  -2.158  1.00  0.00     0.015 C 
HETATM   10  C11 UNL     1       1.362   0.318  -0.049  1.00  0.00     0.048 C 
HETATM   11  C12 UNL     1       2.864   0.195   0.152  1.00  0.00     0.012 C 
HETATM   12  C13 UNL     1       3.022  -0.496   1.498  1.00  0.00     0.001 C 
HETATM   13  C14 UNL     1       2.418  -1.866   1.384  1.00  0.00     0.003 C 
HETATM   14  C15 UNL     1       1.820  -2.081   0.042  1.00  0.00     0.038 C 
HETATM   15  C16 UNL     1       0.733  -1.026  -0.279  1.00  0.00     0.068 C 
HETATM   16  C17 UNL     1       0.530  -1.244  -1.777  1.00  0.00     0.047 C 
HETATM   17  O2  UNL     1      -0.301  -1.364   0.490  1.00  0.00    -0.341 OA
ENDROOT
BRANCH   1  18
HETATM   18  C2  UNL     1      -2.214  -0.808  -0.825  1.00  0.00     0.030 C 
HETATM   19  C1  UNL     1      -2.878  -1.914  -1.128  1.00  0.00     0.012 C 
ENDBRANCH   1  18
TORSDOF 1
