REMARK  6 active torsions:
REMARK  status: ('A' for Active; 'I' for Inactive)
REMARK    1  A    between atoms: C2_5  and  C3_6 
REMARK    2  A    between atoms: N3_13  and  N4_15 
REMARK    3  A    between atoms: N5_17  and  N6_19 
REMARK    4  A    between atoms: N6_19  and  C6_20 
REMARK    5  A    between atoms: C6_20  and  C7_21 
REMARK    6  A    between atoms: C8_22  and  O4_23 
ROOT
HETATM    1  N4  UNL     1       0.141  -0.710  -1.306  1.00  0.00    -0.216 N 
ATOM      2  H4  UNL     1       0.612  -1.306  -1.987  1.00  0.00     0.211 HD
HETATM    3  N5  UNL     1      -1.088  -0.413  -1.429  1.00  0.00    -0.162 N 
ATOM      4  H5  UNL     1      -1.578  -0.797  -2.237  1.00  0.00     0.225 HD
ENDROOT
BRANCH   1   5
HETATM    5  N3  UNL     1       0.822  -0.190  -0.203  1.00  0.00    -0.265 N 
HETATM    6  C5  UNL     1       2.126  -0.085  -0.278  1.00  0.00     0.186 C 
HETATM    7  C1  UNL     1       2.843  -0.499  -1.478  1.00  0.00     0.287 C 
HETATM    8  N2  UNL     1       2.873   0.441   0.824  1.00  0.00    -0.368 N 
HETATM    9  O1  UNL     1       2.204  -0.963  -2.456  1.00  0.00    -0.264 OA
HETATM   10  N1  UNL     1       4.258  -0.354  -1.482  1.00  0.00    -0.338 N 
HETATM   11  C2  UNL     1       4.912  -0.243  -0.194  1.00  0.00     0.203 C 
ATOM     12  H1  UNL     1       4.789  -0.329  -2.353  1.00  0.00     0.163 HD
HETATM   13  C4  UNL     1       4.227   0.883   0.549  1.00  0.00     0.157 C 
ATOM     14  H2  UNL     1       2.472   0.502   1.760  1.00  0.00     0.161 HD
ATOM     15  H3  UNL     1       0.319   0.099   0.636  1.00  0.00     0.190 HD
BRANCH  11  16
HETATM   16  C3  UNL     1       6.360  -0.076  -0.298  1.00  0.00     0.198 C 
HETATM   17  O2  UNL     1       6.937  -0.038  -1.399  1.00  0.00    -0.646 OA
HETATM   18  O3  UNL     1       7.106   0.042   0.863  1.00  0.00    -0.646 OA
ENDBRANCH  11  16
ENDBRANCH   1   5
BRANCH   3  19
HETATM   19  N6  UNL     1      -1.775   0.331  -0.625  1.00  0.00    -0.321 NA
BRANCH  19  20
HETATM   20  C6  UNL     1      -2.692   0.730   0.042  1.00  0.00     0.232 C 
BRANCH  20  21
HETATM   21  C7  UNL     1      -4.013   0.145   0.209  1.00  0.00     0.114 A 
HETATM   22  C8  UNL     1      -4.946   0.779   1.044  1.00  0.00     0.162 A 
HETATM   23  N7  UNL     1      -6.182   0.306   1.251  1.00  0.00    -0.288 N 
HETATM   24  C9  UNL     1      -6.538  -0.835   0.625  1.00  0.00     0.329 A 
ATOM     25  H7  UNL     1      -6.835   0.794   1.864  1.00  0.00     0.172 HD
HETATM   26  O5  UNL     1      -7.681  -1.342   0.769  1.00  0.00    -0.247 OA
HETATM   27  N8  UNL     1      -5.678  -1.456  -0.170  1.00  0.00    -0.275 N 
HETATM   28  C10 UNL     1      -4.412  -1.011  -0.410  1.00  0.00     0.266 A 
ATOM     29  H8  UNL     1      -5.981  -2.316  -0.628  1.00  0.00     0.173 HD
HETATM   30  O6  UNL     1      -3.652  -1.640  -1.166  1.00  0.00    -0.267 OA
BRANCH  22  31
HETATM   31  O4  UNL     1      -4.579   1.961   1.694  1.00  0.00    -0.345 OA
ATOM     32  H4  UNL     1      -5.211   2.390   2.259  1.00  0.00     0.219 HD
ENDBRANCH  22  31
ENDBRANCH  20  21
ENDBRANCH  19  20
ENDBRANCH   3  19
TORSDOF 6
