REMARK  7 active torsions:
REMARK  status: ('A' for Active; 'I' for Inactive)
REMARK    1  A    between atoms: O1_1  and  C1_3 
REMARK    2  A    between atoms: C1_3  and  C2_4 
REMARK    3  A    between atoms: N1_6  and  C4_7 
REMARK    4  A    between atoms: N2_9  and  C6_10 
REMARK    5  A    between atoms: N3_13  and  C8_14 
REMARK    6  A    between atoms: C14_22  and  O2_23 
REMARK    7  A    between atoms: C15_25  and  O3_26 
ROOT
HETATM    1  C4  UNL     1       2.601   0.611   0.551  1.00  0.00     0.151 C 
HETATM    2  C5  UNL     1       1.566  -0.075  -0.346  1.00  0.00     0.304 C 
HETATM    3  N2  UNL     1       0.362   0.472   0.306  1.00  0.00     0.128 N 
HETATM    4  C14 UNL     1       0.620   1.880   0.410  1.00  0.00     0.388 C 
HETATM    5  C15 UNL     1       2.146   2.013   0.546  1.00  0.00     0.202 C 
ENDROOT
BRANCH   3   6
HETATM    6  C6  UNL     1      -0.810   0.136  -0.476  1.00  0.00     0.250 C 
HETATM    7  C7  UNL     1      -0.989  -1.351  -0.526  1.00  0.00     0.128 C 
HETATM    8  S1  UNL     1      -2.396  -1.633   0.624  1.00  0.00    -0.080 SA
HETATM    9  N3  UNL     1      -2.862   0.060   0.774  1.00  0.00    -0.252 NA
HETATM   10  C13 UNL     1      -2.047   0.814  -0.127  1.00  0.00     0.139 C 
BRANCH   9  11
HETATM   11  C8  UNL     1      -4.259   0.251   0.463  1.00  0.00     0.075 C 
HETATM   12  C9  UNL     1      -4.663  -0.236  -0.896  1.00  0.00     0.027 C 
HETATM   13  C10 UNL     1      -5.640  -1.375  -0.642  1.00  0.00     0.081 C 
HETATM   14  C11 UNL     1      -6.314  -0.935   0.642  1.00  0.00     0.245 C 
HETATM   15  F1  UNL     1      -7.026  -1.925   1.244  1.00  0.00    -0.206 F 
HETATM   16  F2  UNL     1      -7.053   0.194   0.363  1.00  0.00    -0.206 F 
HETATM   17  C12 UNL     1      -5.085  -0.521   1.464  1.00  0.00     0.099 C 
ENDBRANCH   9  11
ENDBRANCH   3   6
BRANCH   4  18
HETATM   18  O2  UNL     1       0.157   2.621  -0.685  1.00  0.00    -0.366 OA
ATOM     19  H2  UNL     1       0.328   3.553  -0.616  1.00  0.00     0.212 HD
ENDBRANCH   4  18
BRANCH   1  20
HETATM   20  N1  UNL     1       3.946   0.339   0.179  1.00  0.00    -0.342 N 
HETATM   21  C3  UNL     1       4.723  -0.571   0.846  1.00  0.00     0.119 A 
HETATM   22  C2  UNL     1       5.973  -0.626   0.271  1.00  0.00     0.049 A 
HETATM   23  N4  UNL     1       5.937   0.247  -0.733  1.00  0.00    -0.353 N 
HETATM   24  C16 UNL     1       4.711   0.834  -0.793  1.00  0.00     0.183 A 
ATOM     25  H4  UNL     1       6.713   0.446  -1.364  1.00  0.00     0.166 HD
BRANCH  22  26
HETATM   26  C1  UNL     1       7.094  -1.503   0.715  1.00  0.00     0.222 C 
BRANCH  26  27
HETATM   27  O1  UNL     1       6.574  -2.719   1.189  1.00  0.00    -0.395 OA
ATOM     28  H1  UNL     1       7.288  -3.278   1.472  1.00  0.00     0.209 HD
ENDBRANCH  26  27
ENDBRANCH  22  26
ENDBRANCH   1  20
BRANCH   5  29
HETATM   29  O3  UNL     1       2.572   2.807  -0.484  1.00  0.00    -0.389 OA
ATOM     30  H3  UNL     1       2.279   3.711  -0.487  1.00  0.00     0.210 HD
ENDBRANCH   5  29
TORSDOF 7
