REMARK  8 active torsions:
REMARK  status: ('A' for Active; 'I' for Inactive)
REMARK    1  A    between atoms: C2_2  and  O2_4 
REMARK    2  A    between atoms: O2_4  and  C3_5 
REMARK    3  A    between atoms: C3_5  and  C4_6 
REMARK    4  A    between atoms: C5_8  and  C6_9 
REMARK    5  A    between atoms: N1_12  and  C9_13 
REMARK    6  A    between atoms: C15_22  and  O5_23 
REMARK    7  A    between atoms: C16_25  and  O6_26 
REMARK    8  A    between atoms: C17_28  and  O7_29 
ROOT
HETATM    1  C4  UNL     1       2.930  -0.436   0.574  1.00  0.00     0.178 C 
HETATM    2  O3  UNL     1       1.587  -0.205   0.282  1.00  0.00    -0.368 OA
HETATM    3  C5  UNL     1       0.946  -1.433   0.469  1.00  0.00     0.188 C 
HETATM    4  C15 UNL     1       1.367  -2.436  -0.578  1.00  0.00     0.183 C 
HETATM    5  C16 UNL     1       2.873  -2.539  -0.683  1.00  0.00     0.181 C 
HETATM    6  C17 UNL     1       3.536  -1.183  -0.567  1.00  0.00     0.180 C 
ENDROOT
BRANCH   3   7
HETATM    7  C6  UNL     1      -0.513  -1.208   0.340  1.00  0.00    -0.010 A 
HETATM    8  C7  UNL     1      -1.473  -1.953  -0.296  1.00  0.00     0.028 A 
HETATM    9  C8  UNL     1      -2.685  -1.310  -0.127  1.00  0.00     0.092 A 
HETATM   10  N1  UNL     1      -2.510  -0.198   0.589  1.00  0.00    -0.353 N 
HETATM   11  C14 UNL     1      -1.218  -0.125   0.874  1.00  0.00     0.101 A 
BRANCH  10  12
HETATM   12  C9  UNL     1      -3.559   0.729   0.963  1.00  0.00     0.191 C 
HETATM   13  C10 UNL     1      -4.918   0.098   0.950  1.00  0.00     0.036 C 
HETATM   14  C11 UNL     1      -5.806   0.595  -0.150  1.00  0.00     0.029 C 
HETATM   15  C12 UNL     1      -5.093   0.940  -1.411  1.00  0.00     0.174 C 
HETATM   16  O4  UNL     1      -3.920   1.629  -1.248  1.00  0.00    -0.325 OA
HETATM   17  C13 UNL     1      -3.597   1.934   0.049  1.00  0.00     0.375 C 
HETATM   18  F1  UNL     1      -2.326   2.517   0.028  1.00  0.00    -0.173 F 
HETATM   19  F2  UNL     1      -4.441   2.857   0.633  1.00  0.00    -0.173 F 
ENDBRANCH  10  12
ENDBRANCH   3   7
BRANCH   4  20
HETATM   20  O5  UNL     1       0.826  -2.152  -1.827  1.00  0.00    -0.390 OA
ATOM     21  H5  UNL     1       1.091  -2.783  -2.486  1.00  0.00     0.210 HD
ENDBRANCH   4  20
BRANCH   1  22
HETATM   22  C3  UNL     1       3.673   0.846   0.869  1.00  0.00     0.213 C 
BRANCH  22  23
HETATM   23  O2  UNL     1       3.651   1.745  -0.200  1.00  0.00    -0.319 OA
BRANCH  23  24
HETATM   24  C2  UNL     1       4.291   2.967  -0.078  1.00  0.00     0.254 C 
HETATM   25  C1  UNL     1       4.292   3.966  -1.206  1.00  0.00     0.126 C 
HETATM   26  O1  UNL     1       4.873   3.217   1.007  1.00  0.00    -0.266 OA
ENDBRANCH  23  24
ENDBRANCH  22  23
ENDBRANCH   1  22
BRANCH   5  27
HETATM   27  O6  UNL     1       3.434  -3.379   0.247  1.00  0.00    -0.390 OA
ATOM     28  H6  UNL     1       4.380  -3.444   0.181  1.00  0.00     0.210 HD
ENDBRANCH   5  27
BRANCH   6  29
HETATM   29  O7  UNL     1       4.894  -1.355  -0.313  1.00  0.00    -0.390 OA
ATOM     30  H7  UNL     1       5.280  -1.831  -1.039  1.00  0.00     0.210 HD
ENDBRANCH   6  29
TORSDOF 8
