REMARK  8 active torsions:
REMARK  status: ('A' for Active; 'I' for Inactive)
REMARK    1  A    between atoms: C4_5  and  O1_6 
REMARK    2  A    between atoms: C5_8  and  S2_9 
REMARK    3  A    between atoms: C7_12  and  C8_13 
REMARK    4  A    between atoms: C8_13  and  O3_14 
REMARK    5  A    between atoms: C10_17  and  O4_18 
REMARK    6  A    between atoms: C10_17  and  C11_20 
REMARK    7  A    between atoms: C11_20  and  O6_22 
REMARK    8  A    between atoms: O6_22  and  C12_23 
ROOT
HETATM    1  C1  UNL     1      -1.266  -3.551  -2.968  1.00  0.00     0.033 C 
HETATM    2  C2  UNL     1      -0.779  -2.771  -2.033  1.00  0.00     0.044 C 
HETATM    3  S1  UNL     1       0.965  -2.779  -1.551  1.00  0.00    -0.121 SA
HETATM    4  C3  UNL     1       0.951  -1.654  -0.099  1.00  0.00     0.094 C 
HETATM    5  C4  UNL     1       2.380  -1.330   0.204  1.00  0.00     0.171 C 
HETATM    6  C5  UNL     1       2.606  -0.090   0.982  1.00  0.00     0.212 C 
HETATM    7  O2  UNL     1       1.725   0.938   0.836  1.00  0.00    -0.365 OA
HETATM    8  C7  UNL     1       0.385   0.536   0.699  1.00  0.00     0.155 C 
HETATM    9  C9  UNL     1       0.323  -0.315  -0.514  1.00  0.00     0.085 C 
HETATM   10  C10 UNL     1      -0.922  -0.422  -1.276  1.00  0.00     0.224 C 
HETATM   11  C14 UNL     1      -1.581  -1.790  -1.253  1.00  0.00     0.316 C 
HETATM   12  F1  UNL     1      -1.907  -2.258  -0.036  1.00  0.00    -0.196 F 
HETATM   13  F2  UNL     1      -2.776  -1.633  -1.969  1.00  0.00    -0.196 F 
ENDROOT
BRANCH  10  14
HETATM   14  O4  UNL     1      -0.609  -0.295  -2.671  1.00  0.00    -0.374 OA
ATOM     15  H4  UNL     1      -1.417  -0.364  -3.166  1.00  0.00     0.211 HD
ENDBRANCH  10  14
BRANCH  10  16
HETATM   16  C11 UNL     1      -1.957   0.602  -1.023  1.00  0.00     0.300 C 
HETATM   17  O5  UNL     1      -2.353   1.367  -1.946  1.00  0.00    -0.262 OA
BRANCH  16  18
HETATM   18  O6  UNL     1      -2.582   0.831   0.193  1.00  0.00    -0.319 OA
BRANCH  18  19
HETATM   19  C12 UNL     1      -3.570   1.827   0.383  1.00  0.00     0.174 C 
HETATM   20  C13 UNL     1      -3.002   3.171   0.070  1.00  0.00     0.034 C 
ENDBRANCH  18  19
ENDBRANCH  16  18
ENDBRANCH  10  16
BRANCH   8  21
HETATM   21  C8  UNL     1       0.031  -0.127   2.001  1.00  0.00     0.196 C 
BRANCH  21  22
HETATM   22  O3  UNL     1       0.194   0.871   2.996  1.00  0.00    -0.398 OA
ATOM     23  H3  UNL     1      -0.030   0.452   3.819  1.00  0.00     0.209 HD
ENDBRANCH  21  22
ENDBRANCH   8  21
BRANCH   5  24
HETATM   24  O1  UNL     1       3.006  -2.408   0.828  1.00  0.00    -0.391 OA
ATOM     25  H1  UNL     1       3.913  -2.202   1.020  1.00  0.00     0.210 HD
ENDBRANCH   5  24
BRANCH   6  26
HETATM   26  S2  UNL     1       4.259   0.554   0.496  1.00  0.00    -0.139 SA
HETATM   27  C6  UNL     1       4.577   2.073   1.424  1.00  0.00     0.092 C 
ENDBRANCH   6  26
TORSDOF 8
