REMARK  12 active torsions:
REMARK  status: ('A' for Active; 'I' for Inactive)
REMARK    1  A    between atoms: O1_2  and  C2_3 
REMARK    2  A    between atoms: C4_5  and  C5_6 
REMARK    3  A    between atoms: C5_6  and  C6_7 
REMARK       I    between atoms: C6_7  and  N1_9 
REMARK    4  A    between atoms: N1_9  and  C7_11 
REMARK    5  A    between atoms: C7_11  and  C8_12 
REMARK    6  A    between atoms: C8_12  and  C9_13 
REMARK    7  A    between atoms: C9_13  and  N2_14 
REMARK    8  A    between atoms: C15_20  and  C16_21 
REMARK    9  A    between atoms: C18_23  and  N3_24 
REMARK   10  A    between atoms: N6_36  and  C24_37 
REMARK   11  A    between atoms: C24_37  and  C25_38 
REMARK   12  A    between atoms: C25_38  and  N7_39 
ROOT
HETATM    1  C16 UNL     1      -2.869  -0.451  -1.063  1.00  0.00     0.077 A 
HETATM    2  C17 UNL     1      -3.078  -1.825  -1.153  1.00  0.00     0.065 A 
HETATM    3  C18 UNL     1      -2.328  -2.942  -1.459  1.00  0.00     0.114 A 
HETATM    4  N4  UNL     1      -2.914  -4.161  -1.470  1.00  0.00    -0.345 N 
ATOM      5  H4  UNL     1      -2.348  -4.980  -1.694  1.00  0.00     0.167 HD
HETATM    6  C19 UNL     1      -4.217  -4.326  -1.195  1.00  0.00     0.015 A 
HETATM    7  C20 UNL     1      -4.825  -5.680  -1.206  1.00  0.00     0.069 C 
HETATM    8  C21 UNL     1      -5.005  -3.245  -0.891  1.00  0.00    -0.011 A 
HETATM    9  C22 UNL     1      -6.459  -3.336  -0.575  1.00  0.00     0.052 C 
HETATM   10  C23 UNL     1      -4.451  -1.964  -0.863  1.00  0.00     0.072 A 
HETATM   11  N5  UNL     1      -4.951  -0.756  -0.644  1.00  0.00    -0.297 N 
ATOM     12  H5  UNL     1      -5.928  -0.573  -0.417  1.00  0.00     0.187 HD
HETATM   13  N6  UNL     1      -4.023   0.186  -0.757  1.00  0.00    -0.288 N 
ENDROOT
BRANCH   1  14
HETATM   14  C15 UNL     1      -1.545   0.170  -1.077  1.00  0.00    -0.004 A 
HETATM   15  C14 UNL     1      -0.457  -0.356  -0.442  1.00  0.00     0.021 A 
HETATM   16  C4  UNL     1       0.828   0.126  -0.532  1.00  0.00    -0.046 A 
HETATM   17  C3  UNL     1       1.034   1.247  -1.333  1.00  0.00     0.044 A 
HETATM   18  C2  UNL     1      -0.013   1.839  -2.005  1.00  0.00     0.069 A 
HETATM   19  C30 UNL     1      -1.273   1.280  -1.858  1.00  0.00     0.050 A 
BRANCH  16  20
HETATM   20  C5  UNL     1       1.981  -0.531   0.141  1.00  0.00     0.141 C 
BRANCH  20  21
HETATM   21  C6  UNL     1       3.254   0.143  -0.130  1.00  0.00     0.221 C 
HETATM   22  O2  UNL     1       3.525   1.184   0.564  1.00  0.00    -0.273 OA
HETATM   23  N1  UNL     1       4.156  -0.298  -1.097  1.00  0.00    -0.361 N 
ATOM     24  H1  UNL     1       3.879  -1.120  -1.634  1.00  0.00     0.162 HD
BRANCH  23  25
HETATM   25  C7  UNL     1       5.441   0.279  -1.425  1.00  0.00     0.124 C 
BRANCH  25  26
HETATM   26  C8  UNL     1       6.430   0.145  -0.253  1.00  0.00     0.050 C 
BRANCH  26  27
HETATM   27  C9  UNL     1       7.708   0.786  -0.678  1.00  0.00     0.274 C 
BRANCH  27  28
HETATM   28  N2  UNL     1       8.801   0.691   0.236  1.00  0.00     0.088 N 
HETATM   29  C10 UNL     1       9.307  -0.686   0.288  1.00  0.00     0.272 C 
HETATM   30  C11 UNL     1       9.977  -0.840   1.628  1.00  0.00     0.032 C 
HETATM   31  C12 UNL     1       9.053  -0.024   2.509  1.00  0.00     0.032 C 
HETATM   32  C13 UNL     1       8.548   1.076   1.586  1.00  0.00     0.272 C 
ENDBRANCH  27  28
ENDBRANCH  26  27
ENDBRANCH  25  26
ENDBRANCH  23  25
ENDBRANCH  20  21
ENDBRANCH  16  20
BRANCH  18  33
HETATM   33  O1  UNL     1       0.264   2.936  -2.772  1.00  0.00    -0.356 OA
HETATM   34  C1  UNL     1      -0.607   3.705  -3.535  1.00  0.00     0.210 C 
ENDBRANCH  18  33
ENDBRANCH   1  14
BRANCH  13  35
HETATM   35  C24 UNL     1      -4.276   1.574  -0.549  1.00  0.00     0.179 C 
BRANCH  35  36
HETATM   36  C25 UNL     1      -4.168   1.995   0.905  1.00  0.00     0.294 C 
BRANCH  36  37
HETATM   37  N7  UNL     1      -5.096   1.298   1.759  1.00  0.00     0.094 N 
HETATM   38  C26 UNL     1      -6.473   1.600   1.551  1.00  0.00     0.298 C 
HETATM   39  C27 UNL     1      -6.868   3.026   1.763  1.00  0.00     0.198 C 
HETATM   40  O3  UNL     1      -6.523   3.384   3.054  1.00  0.00    -0.388 OA
HETATM   41  C28 UNL     1      -5.958   2.367   3.792  1.00  0.00     0.198 C 
HETATM   42  C29 UNL     1      -4.768   1.709   3.132  1.00  0.00     0.298 C 
ENDBRANCH  36  37
ENDBRANCH  35  36
ENDBRANCH  13  35
BRANCH   3  43
HETATM   43  N3  UNL     1      -1.106  -2.853  -1.833  1.00  0.00    -0.385 N 
ATOM     44  H32 UNL     1      -0.664  -1.934  -1.825  1.00  0.00     0.157 HD
ATOM     45  H31 UNL     1      -0.552  -3.679  -2.059  1.00  0.00     0.157 HD
ENDBRANCH   3  43
TORSDOF 12
