REMARK  1 active torsions:
REMARK  status: ('A' for Active; 'I' for Inactive)
REMARK    1  A    between atoms: N2_3  and  C2_5 
ROOT
HETATM    1  N1  UNL     1       3.460   0.160  -0.721  1.00  0.00    -0.172 NA
HETATM    2  C1  UNL     1       2.384   0.383  -0.323  1.00  0.00     0.177 C 
HETATM    3  N2  UNL     1       1.094   0.650   0.147  1.00  0.00    -0.324 N 
ATOM      4  H2  UNL     1       0.865   1.595   0.455  1.00  0.00     0.172 HD
ENDROOT
BRANCH   3   5
HETATM    5  C2  UNL     1       0.066  -0.383   0.210  1.00  0.00     0.092 A 
HETATM    6  C3  UNL     1      -1.293  -0.018   0.725  1.00  0.00     0.028 A 
HETATM    7  C4  UNL     1      -1.060  -0.383  -0.749  1.00  0.00     0.028 A 
ENDBRANCH   3   5
TORSDOF 1
