REMARK  3 active torsions:
REMARK  status: ('A' for Active; 'I' for Inactive)
REMARK    1  A    between atoms: C5_5  and  C6_6 
REMARK    2  A    between atoms: C7_7  and  C8_8 
REMARK    3  A    between atoms: N2_11  and  C9_12 
ROOT
HETATM    1  C8  UNL     1       0.493  -0.282  -0.039  1.00  0.00     0.114 A 
HETATM    2  N1  UNL     1       1.454   0.662   0.052  1.00  0.00    -0.284 N 
ATOM      3  H1  UNL     1       1.281   1.655   0.206  1.00  0.00     0.188 HD
HETATM    4  N2  UNL     1       2.643   0.122  -0.085  1.00  0.00    -0.255 N 
HETATM    5  C15 UNL     1       2.501  -1.202  -0.273  1.00  0.00     0.070 A 
HETATM    6  C16 UNL     1       3.381  -2.240  -0.468  1.00  0.00     0.032 A 
HETATM    7  C17 UNL     1       2.962  -3.543  -0.638  1.00  0.00     0.002 A 
HETATM    8  C18 UNL     1       1.599  -3.770  -0.605  1.00  0.00     0.001 A 
HETATM    9  C19 UNL     1       0.679  -2.784  -0.416  1.00  0.00     0.017 A 
HETATM   10  C20 UNL     1       1.143  -1.482  -0.247  1.00  0.00     0.029 A 
ENDROOT
BRANCH   1  11
HETATM   11  C7  UNL     1      -0.933  -0.073   0.061  1.00  0.00    -0.041 C 
HETATM   12  C6  UNL     1      -2.123   0.117   0.137  1.00  0.00    -0.060 C 
BRANCH  12  13
HETATM   13  C5  UNL     1      -3.538   0.367   0.224  1.00  0.00     0.018 A 
HETATM   14  C4  UNL     1      -4.299  -0.075   1.277  1.00  0.00     0.021 A 
HETATM   15  C3  UNL     1      -5.671   0.169   1.357  1.00  0.00     0.008 A 
HETATM   16  C2  UNL     1      -6.281   0.878   0.344  1.00  0.00    -0.062 A 
HETATM   17  C1  UNL     1      -7.733   1.155   0.396  1.00  0.00     0.048 C 
HETATM   18  C22 UNL     1      -5.500   1.312  -0.702  1.00  0.00     0.008 A 
HETATM   19  C21 UNL     1      -4.146   1.067  -0.775  1.00  0.00     0.021 A 
ENDBRANCH  12  13
ENDBRANCH   1  11
BRANCH   4  20
HETATM   20  C9  UNL     1       3.891   0.802  -0.047  1.00  0.00     0.057 A 
HETATM   21  C10 UNL     1       4.832   0.657  -1.020  1.00  0.00     0.031 A 
HETATM   22  C11 UNL     1       6.045   1.313  -0.990  1.00  0.00     0.002 A 
HETATM   23  C12 UNL     1       6.309   2.149   0.074  1.00  0.00     0.000 A 
HETATM   24  C13 UNL     1       5.386   2.329   1.087  1.00  0.00     0.002 A 
HETATM   25  C14 UNL     1       4.185   1.655   1.018  1.00  0.00     0.031 A 
ENDBRANCH   4  20
TORSDOF 3
