REMARK  2 active torsions:
REMARK  status: ('A' for Active; 'I' for Inactive)
REMARK    1  A    between atoms: C12_12  and  C14_14 
REMARK    2  A    between atoms: C18_19  and  O2_20 
ROOT
HETATM    1  C1  UNL     1      -3.459  -0.422   1.068  1.00  0.00     0.015 C 
HETATM    2  C2  UNL     1      -2.622  -0.349  -0.192  1.00  0.00    -0.044 C 
HETATM    3  C3  UNL     1      -3.175  -1.281  -1.222  1.00  0.00     0.015 C 
HETATM    4  C4  UNL     1      -2.649   1.113  -0.669  1.00  0.00     0.010 C 
HETATM    5  C5  UNL     1      -1.324   1.590  -1.184  1.00  0.00     0.012 C 
HETATM    6  C6  UNL     1      -0.217   1.579  -0.114  1.00  0.00    -0.017 C 
HETATM    7  C7  UNL     1      -0.126   2.932   0.500  1.00  0.00     0.018 C 
HETATM    8  C8  UNL     1      -0.762   0.626   0.924  1.00  0.00     0.017 C 
HETATM    9  C9  UNL     1      -1.166  -0.574   0.106  1.00  0.00    -0.006 C 
HETATM   10  C10 UNL     1      -0.759  -1.780   0.790  1.00  0.00     0.006 C 
HETATM   11  C11 UNL     1       0.694  -1.722   1.153  1.00  0.00     0.017 C 
HETATM   12  C12 UNL     1       1.673  -1.254   0.169  1.00  0.00     0.018 C 
HETATM   13  C13 UNL     1       1.515  -2.033  -1.124  1.00  0.00     0.023 C 
HETATM   14  C15 UNL     1       1.948   0.183  -0.012  1.00  0.00    -0.007 C 
HETATM   15  C16 UNL     1       2.528   0.787   1.234  1.00  0.00     0.018 C 
HETATM   16  C17 UNL     1       3.151   0.210  -1.000  1.00  0.00     0.018 C 
HETATM   17  C18 UNL     1       0.999   1.048  -0.746  1.00  0.00     0.135 C 
ENDROOT
BRANCH  12  18
HETATM   18  C14 UNL     1       2.988  -1.775   0.753  1.00  0.00     0.241 C 
HETATM   19  O1  UNL     1       3.531  -2.769   0.369  1.00  0.00    -0.306 OA
ENDBRANCH  12  18
BRANCH  17  20
HETATM   20  O2  UNL     1       1.715   2.194  -1.196  1.00  0.00    -0.394 OA
ATOM     21  H2  UNL     1       2.501   1.851  -1.605  1.00  0.00     0.210 HD
ENDBRANCH  17  20
TORSDOF 2
