REMARK  12 active torsions:
REMARK  status: ('A' for Active; 'I' for Inactive)
REMARK    1  A    between atoms: C5_7  and  N2_8 
REMARK    2  A    between atoms: C6_13  and  C7_14 
REMARK    3  A    between atoms: C7_14  and  N5_15 
REMARK    4  A    between atoms: C7_14  and  C12_26 
REMARK    5  A    between atoms: N5_15  and  C8_17 
REMARK    6  A    between atoms: C12_26  and  N13_40 
REMARK    7  A    between atoms: N8_27  and  N9_29 
REMARK    8  A    between atoms: N9_29  and  C13_31 
REMARK    9  A    between atoms: N13_40  and  O2_42 
REMARK   10  A    between atoms: O2_42  and  C17_43 
REMARK   11  A    between atoms: C17_43  and  C18_45 
REMARK   12  A    between atoms: C18_45  and  O4_47 
ROOT
HETATM    1  C13 UNL     1       3.103  -2.104  -0.268  1.00  0.00     0.166 A 
HETATM    2  N10 UNL     1       3.357  -3.157  -1.043  1.00  0.00    -0.322 N 
ATOM      3  H10 UNL     1       3.137  -3.132  -2.039  1.00  0.00     0.169 HD
HETATM    4  C14 UNL     1       3.889  -4.216  -0.511  1.00  0.00     0.146 A 
HETATM    5  N11 UNL     1       4.214  -5.431  -1.258  1.00  0.00    -0.080 NA
HETATM    6  C15 UNL     1       4.162  -4.187   0.834  1.00  0.00     0.129 A 
HETATM    7  C16 UNL     1       4.751  -5.230   1.668  1.00  0.00     0.110 C 
HETATM    8  N12 UNL     1       5.225  -6.042   2.339  1.00  0.00    -0.191 NA
HETATM    9  S1  UNL     1       3.633  -2.624   1.268  1.00  0.00    -0.038 SA
ENDROOT
BRANCH   1  10
HETATM   10  N9  UNL     1       2.570  -0.956  -0.635  1.00  0.00    -0.278 N 
ATOM     11  H9  UNL     1       2.299  -0.790  -1.604  1.00  0.00     0.189 HD
BRANCH  10  12
HETATM   12  N8  UNL     1       2.386   0.027   0.341  1.00  0.00    -0.283 N 
HETATM   13  C12 UNL     1       1.429   0.873   0.235  1.00  0.00     0.147 C 
ATOM     14  H8  UNL     1       3.016   0.071   1.142  1.00  0.00     0.188 HD
BRANCH  13  15
HETATM   15  C7  UNL     1       0.490   0.849  -0.907  1.00  0.00     0.240 C 
BRANCH  15  16
HETATM   16  C6  UNL     1      -0.896   0.632  -0.379  1.00  0.00     0.145 A 
HETATM   17  N4  UNL     1      -1.617   1.604   0.191  1.00  0.00    -0.270 N 
HETATM   18  N3  UNL     1      -2.763   1.105   0.560  1.00  0.00    -0.219 N 
ATOM     19  H4  UNL     1      -1.320   2.572   0.316  1.00  0.00     0.190 HD
HETATM   20  N2  UNL     1      -2.787  -0.170   0.234  1.00  0.00    -0.172 N 
ATOM     21  H3  UNL     1      -3.514   1.616   1.023  1.00  0.00     0.210 HD
HETATM   22  N14 UNL     1      -1.638  -0.472  -0.346  1.00  0.00    -0.262 N 
ATOM     23  H14 UNL     1      -1.368  -1.388  -0.704  1.00  0.00     0.190 HD
BRANCH  20  24
HETATM   24  C5  UNL     1      -3.893  -1.066   0.481  1.00  0.00     0.141 A 
HETATM   25  C3  UNL     1      -4.796  -1.615  -0.388  1.00  0.00     0.043 A 
HETATM   26  N1  UNL     1      -5.703  -2.398   0.103  1.00  0.00    -0.355 N 
HETATM   27  C4  UNL     1      -4.712  -1.296  -1.869  1.00  0.00     0.071 C 
HETATM   28  C2  UNL     1      -5.734  -2.644   1.399  1.00  0.00     0.049 A 
ATOM     29  H1  UNL     1      -6.395  -2.825  -0.513  1.00  0.00     0.166 HD
HETATM   30  C1  UNL     1      -6.690  -3.514   2.180  1.00  0.00     0.076 C 
HETATM   31  S2  UNL     1      -4.405  -1.715   1.972  1.00  0.00    -0.054 SA
ENDBRANCH  20  24
ENDBRANCH  15  16
BRANCH  15  32
HETATM   32  N5  UNL     1       0.511   2.130  -1.563  1.00  0.00    -0.207 N 
ATOM     33  H5  UNL     1       1.060   2.867  -1.121  1.00  0.00     0.179 HD
BRANCH  32  34
HETATM   34  C8  UNL     1      -0.160   2.461  -2.765  1.00  0.00     0.681 A 
HETATM   35  N6  UNL     1      -0.054   3.719  -3.257  1.00  0.00    -0.156 N 
HETATM   36  C9  UNL     1      -0.675   4.067  -4.419  1.00  0.00     0.260 A 
ATOM     37  H6  UNL     1       0.497   4.413  -2.752  1.00  0.00     0.187 HD
HETATM   38  O1  UNL     1      -0.571   5.236  -4.866  1.00  0.00    -0.268 OA
HETATM   39  C10 UNL     1      -1.421   3.142  -5.109  1.00  0.00     0.092 A 
HETATM   40  C11 UNL     1      -1.515   1.874  -4.592  1.00  0.00     0.111 A 
HETATM   41  N7  UNL     1      -0.879   1.548  -3.419  1.00  0.00    -0.202 N 
ATOM     42  H7  UNL     1      -0.957   0.602  -3.046  1.00  0.00     0.183 HD
ENDBRANCH  32  34
ENDBRANCH  15  32
ENDBRANCH  13  15
BRANCH  13  43
HETATM   43  N13 UNL     1       1.271   1.858   1.245  1.00  0.00    -0.241 N 
ATOM     44  H13 UNL     1       0.532   2.555   1.150  1.00  0.00     0.196 HD
BRANCH  43  45
HETATM   45  O2  UNL     1       2.100   1.894   2.360  1.00  0.00    -0.196 OA
BRANCH  45  46
HETATM   46  C17 UNL     1       2.815   3.045   2.677  1.00  0.00     0.309 C 
HETATM   47  O3  UNL     1       2.667   4.027   1.906  1.00  0.00    -0.260 OA
BRANCH  46  48
HETATM   48  C18 UNL     1       3.716   3.130   3.863  1.00  0.00     0.215 C 
HETATM   49  C19 UNL     1       3.215   4.258   4.760  1.00  0.00     0.050 C 
BRANCH  48  50
HETATM   50  O4  UNL     1       3.749   1.962   4.582  1.00  0.00    -0.386 OA
ATOM     51  H4  UNL     1       4.323   2.016   5.337  1.00  0.00     0.210 HD
ENDBRANCH  48  50
ENDBRANCH  46  48
ENDBRANCH  45  46
ENDBRANCH  43  45
ENDBRANCH  13  43
ENDBRANCH  10  12
ENDBRANCH   1  10
TORSDOF 12
