REMARK  6 active torsions:
REMARK  status: ('A' for Active; 'I' for Inactive)
REMARK    1  A    between atoms: C2_2  and  N1_3 
REMARK    2  A    between atoms: C2_2  and  C12_22 
REMARK       I    between atoms: N1_3  and  C3_5 
REMARK    3  A    between atoms: C3_5  and  C4_7 
REMARK    4  A    between atoms: C4_7  and  C5_8 
REMARK    5  A    between atoms: C4_7  and  N2_12 
REMARK    6  A    between atoms: C5_8  and  C6_9 
REMARK       I    between atoms: N2_12  and  C7_14 
REMARK       I    between atoms: C7_14  and  N3_16 
REMARK       I    between atoms: C12_22  and  N4_24 
ROOT
HETATM    1  C1  UNL     1      -0.044  -3.587   1.073  1.00  0.00     0.042 C 
HETATM    2  C2  UNL     1       0.355  -2.419   0.201  1.00  0.00     0.172 C 
ENDROOT
BRANCH   2   3
HETATM    3  N1  UNL     1       1.807  -2.442   0.090  1.00  0.00    -0.346 N 
HETATM    4  C3  UNL     1       2.636  -1.411   0.551  1.00  0.00     0.241 C 
HETATM    5  O1  UNL     1       2.066  -0.414   1.077  1.00  0.00    -0.271 OA
ATOM      6  H1  UNL     1       2.244  -3.253  -0.347  1.00  0.00     0.163 HD
BRANCH   4   7
HETATM    7  C4  UNL     1       4.103  -1.413   0.462  1.00  0.00     0.188 C 
BRANCH   7   8
HETATM    8  C5  UNL     1       4.776  -2.387   1.409  1.00  0.00     0.148 C 
BRANCH   8   9
HETATM    9  C6  UNL     1       4.345  -3.763   1.126  1.00  0.00     0.175 C 
HETATM   10  O2  UNL     1       4.827  -4.325   0.106  1.00  0.00    -0.648 OA
HETATM   11  O3  UNL     1       3.444  -4.470   1.915  1.00  0.00    -0.648 OA
ENDBRANCH   8   9
ENDBRANCH   7   8
BRANCH   7  12
HETATM   12  N2  UNL     1       4.632  -0.096   0.898  1.00  0.00    -0.329 N 
HETATM   13  C7  UNL     1       5.439   0.621   0.008  1.00  0.00     0.319 C 
HETATM   14  O4  UNL     1       5.687   0.112  -1.142  1.00  0.00    -0.247 OA
HETATM   15  N3  UNL     1       5.979   1.876   0.343  1.00  0.00    -0.330 N 
HETATM   16  C8  UNL     1       5.727   2.473   1.621  1.00  0.00     0.153 C 
HETATM   17  C11 UNL     1       6.799   2.590  -0.616  1.00  0.00     0.153 C 
HETATM   18  C9  UNL     1       7.044   3.060   2.133  1.00  0.00     0.187 C 
HETATM   19  O5  UNL     1       7.715   3.786   1.179  1.00  0.00    -0.388 OA
HETATM   20  C10 UNL     1       8.075   3.006   0.077  1.00  0.00     0.187 C 
ATOM     21  H2  UNL     1       4.413   0.276   1.822  1.00  0.00     0.165 HD
ENDBRANCH   7  12
ENDBRANCH   4   7
ENDBRANCH   2   3
BRANCH   2  22
HETATM   22  C12 UNL     1      -0.323  -2.402  -1.110  1.00  0.00     0.244 C 
HETATM   23  O6  UNL     1       0.471  -2.354  -2.121  1.00  0.00    -0.271 OA
HETATM   24  N4  UNL     1      -1.670  -2.431  -1.386  1.00  0.00    -0.331 N 
HETATM   25  C13 UNL     1      -2.676  -1.789  -1.028  1.00  0.00     0.013 C 
ATOM     26  H4  UNL     1      -1.905  -3.165  -2.054  1.00  0.00     0.168 HD
HETATM   27  C14 UNL     1      -2.639  -0.673  -0.074  1.00  0.00     0.055 C 
HETATM   28  C24 UNL     1      -4.017  -2.167  -1.595  1.00  0.00     0.220 C 
HETATM   29  C15 UNL     1      -1.901   0.540  -0.523  1.00  0.00     0.006 C 
HETATM   30  C16 UNL     1      -2.620   1.449  -1.454  1.00  0.00     0.000 C 
HETATM   31  C17 UNL     1      -3.691   2.227  -0.700  1.00  0.00     0.000 C 
HETATM   32  C18 UNL     1      -4.793   2.529  -1.654  1.00  0.00     0.000 C 
HETATM   33  C19 UNL     1      -6.145   2.729  -1.070  1.00  0.00     0.000 C 
HETATM   34  C20 UNL     1      -6.407   2.179   0.274  1.00  0.00     0.000 C 
HETATM   35  C21 UNL     1      -6.699   0.751   0.423  1.00  0.00     0.002 C 
HETATM   36  C22 UNL     1      -6.877  -0.068  -0.793  1.00  0.00     0.026 C 
HETATM   37  C23 UNL     1      -6.035  -1.352  -0.777  1.00  0.00     0.168 C 
HETATM   38  O7  UNL     1      -4.908  -1.130  -1.562  1.00  0.00    -0.386 OA
ENDBRANCH   2  22
TORSDOF 6
