REMARK  12 active torsions:
REMARK  status: ('A' for Active; 'I' for Inactive)
REMARK    1  A    between atoms: C2_2  and  C3_3 
REMARK    2  A    between atoms: C3_3  and  C4_4 
REMARK    3  A    between atoms: C4_4  and  N1_5 
REMARK       I    between atoms: N1_5  and  C5_7 
REMARK       I    between atoms: C5_7  and  N2_9 
REMARK       I    between atoms: N3_12  and  C8_13 
REMARK    4  A    between atoms: C8_13  and  C9_15 
REMARK    5  A    between atoms: C9_15  and  C10_17 
REMARK    6  A    between atoms: C10_17  and  C11_18 
REMARK    7  A    between atoms: C10_17  and  N4_25 
REMARK    8  A    between atoms: C11_18  and  C12_19 
REMARK       I    between atoms: N4_25  and  C18_27 
REMARK    9  A    between atoms: C18_27  and  C19_29 
REMARK   10  A    between atoms: C19_29  and  C20_30 
REMARK   11  A    between atoms: C19_29  and  N5_37 
REMARK   12  A    between atoms: C20_30  and  C21_31 
ROOT
HETATM    1  C10 UNL     1      -0.944  -1.723   0.049  1.00  0.00     0.165 C 
ENDROOT
BRANCH   1   2
HETATM    2  C9  UNL     1       0.334  -1.084  -0.456  1.00  0.00     0.239 C 
HETATM    3  O3  UNL     1       0.161   0.016  -1.061  1.00  0.00    -0.285 OA
BRANCH   2   4
HETATM    4  C8  UNL     1       1.626  -1.623  -0.294  1.00  0.00     0.291 C 
HETATM    5  N3  UNL     1       2.826  -1.101  -0.839  1.00  0.00    -0.342 N 
HETATM    6  C7  UNL     1       2.959   0.025  -1.687  1.00  0.00     0.146 C 
HETATM    7  C28 UNL     1       4.102  -1.765  -0.487  1.00  0.00     0.146 C 
HETATM    8  C6  UNL     1       3.746   1.097  -0.909  1.00  0.00     0.147 C 
HETATM    9  N2  UNL     1       5.075   0.498  -0.742  1.00  0.00    -0.331 N 
HETATM   10  C5  UNL     1       6.209   1.247  -1.154  1.00  0.00     0.318 C 
HETATM   11  C29 UNL     1       5.202  -0.812  -0.184  1.00  0.00     0.147 C 
HETATM   12  N1  UNL     1       7.557   0.804  -1.037  1.00  0.00    -0.343 N 
HETATM   13  O1  UNL     1       6.006   2.399  -1.666  1.00  0.00    -0.247 OA
ATOM     14  H1  UNL     1       7.764  -0.109  -0.631  1.00  0.00     0.164 HD
HETATM   15  O2  UNL     1       1.772  -2.694   0.412  1.00  0.00    -0.264 OA
BRANCH  12  16
HETATM   16  C4  UNL     1       8.631   1.655  -1.496  1.00  0.00     0.124 C 
BRANCH  16  17
HETATM   17  C3  UNL     1       9.950   0.986  -1.269  1.00  0.00     0.019 C 
BRANCH  17  18
HETATM   18  C2  UNL     1      10.144   0.734   0.198  1.00  0.00    -0.003 C 
HETATM   19  C1  UNL     1      10.111   2.080   0.917  1.00  0.00     0.005 C 
ENDBRANCH  17  18
ENDBRANCH  16  17
ENDBRANCH  12  16
ENDBRANCH   2   4
ENDBRANCH   1   2
BRANCH   1  20
HETATM   20  C11 UNL     1      -0.792  -2.687   1.107  1.00  0.00     0.038 C 
BRANCH  20  21
HETATM   21  C12 UNL     1      -1.926  -3.406   1.730  1.00  0.00    -0.012 C 
HETATM   22  C13 UNL     1      -2.935  -2.613   2.433  1.00  0.00     0.005 C 
HETATM   23  C14 UNL     1      -4.172  -3.472   2.707  1.00  0.00     0.000 C 
HETATM   24  C15 UNL     1      -3.776  -4.895   2.845  1.00  0.00     0.000 C 
HETATM   25  C16 UNL     1      -2.455  -5.062   3.544  1.00  0.00     0.000 C 
HETATM   26  C17 UNL     1      -1.366  -4.425   2.746  1.00  0.00     0.005 C 
ENDBRANCH  20  21
ENDBRANCH   1  20
BRANCH   1  27
HETATM   27  N4  UNL     1      -1.833  -0.614   0.262  1.00  0.00    -0.347 N 
HETATM   28  C18 UNL     1      -2.772  -0.232  -0.746  1.00  0.00     0.243 C 
HETATM   29  O4  UNL     1      -2.816  -0.895  -1.811  1.00  0.00    -0.271 OA
ATOM     30  H4  UNL     1      -1.794  -0.095   1.139  1.00  0.00     0.163 HD
BRANCH  28  31
HETATM   31  C19 UNL     1      -3.691   0.947  -0.539  1.00  0.00     0.202 C 
BRANCH  31  32
HETATM   32  C20 UNL     1      -4.330   1.206  -1.837  1.00  0.00     0.041 C 
BRANCH  32  33
HETATM   33  C21 UNL     1      -5.280   2.306  -2.026  1.00  0.00    -0.012 C 
HETATM   34  C22 UNL     1      -6.543   2.301  -1.213  1.00  0.00     0.005 C 
HETATM   35  C23 UNL     1      -7.466   3.389  -1.775  1.00  0.00     0.000 C 
HETATM   36  C24 UNL     1      -6.821   4.734  -1.793  1.00  0.00     0.000 C 
HETATM   37  C25 UNL     1      -5.449   4.639  -1.191  1.00  0.00     0.000 C 
HETATM   38  C26 UNL     1      -4.632   3.681  -2.032  1.00  0.00     0.005 C 
ENDBRANCH  32  33
ENDBRANCH  31  32
BRANCH  31  39
HETATM   39  N5  UNL     1      -4.555   0.601   0.558  1.00  0.00    -0.257 N 
HETATM   40  C27 UNL     1      -4.559   1.101   1.804  1.00  0.00     0.220 A 
HETATM   41  N6  UNL     1      -5.522   0.488   2.504  1.00  0.00    -0.279 N 
HETATM   42  N7  UNL     1      -6.088  -0.371   1.677  1.00  0.00    -0.227 N 
ATOM     43  H6  UNL     1      -5.769   0.652   3.480  1.00  0.00     0.189 HD
HETATM   44  N8  UNL     1      -5.505  -0.303   0.506  1.00  0.00    -0.224 N 
ATOM     45  H7  UNL     1      -6.861  -0.993   1.914  1.00  0.00     0.210 HD
ATOM     46  H8  UNL     1      -5.749  -0.861  -0.312  1.00  0.00     0.210 HD
ENDBRANCH  31  39
ENDBRANCH  28  31
ENDBRANCH   1  27
TORSDOF 12
