REMARK  16 active torsions:
REMARK  status: ('A' for Active; 'I' for Inactive)
REMARK    1  A    between atoms: C2_2  and  C3_3 
REMARK    2  A    between atoms: C3_3  and  C4_4 
REMARK    3  A    between atoms: C4_4  and  C5_5 
REMARK    4  A    between atoms: C6_6  and  C7_7 
REMARK    5  A    between atoms: C7_7  and  C8_8 
REMARK    6  A    between atoms: C9_9  and  C10_10 
REMARK    7  A    between atoms: C10_10  and  C11_11 
REMARK    8  A    between atoms: C12_12  and  C13_13 
REMARK    9  A    between atoms: C13_13  and  C14_14 
REMARK   10  A    between atoms: C15_15  and  C16_16 
REMARK   11  A    between atoms: C16_16  and  C17_17 
REMARK   12  A    between atoms: C18_18  and  C19_19 
REMARK   13  A    between atoms: C20_20  and  C21_21 
REMARK   14  A    between atoms: C24_25  and  O2_26 
REMARK   15  A    between atoms: C26_30  and  O4_31 
REMARK   16  A    between atoms: O4_31  and  C27_32 
ROOT
HETATM    1  C17 UNL     1      -2.242  -0.597  -2.334  1.00  0.00    -0.023 C 
HETATM    2  C18 UNL     1      -3.145  -0.448  -1.421  1.00  0.00    -0.004 C 
ENDROOT
BRANCH   1   3
HETATM    3  C16 UNL     1      -0.807  -0.403  -2.061  1.00  0.00     0.054 C 
BRANCH   3   4
HETATM    4  C15 UNL     1      -0.277   0.693  -2.931  1.00  0.00    -0.027 C 
HETATM    5  C14 UNL     1       0.698   0.416  -3.773  1.00  0.00    -0.027 C 
BRANCH   5   6
HETATM    6  C13 UNL     1       1.248   1.487  -4.654  1.00  0.00     0.053 C 
BRANCH   6   7
HETATM    7  C12 UNL     1       2.706   1.650  -4.353  1.00  0.00    -0.027 C 
HETATM    8  C11 UNL     1       3.285   0.910  -3.441  1.00  0.00    -0.027 C 
BRANCH   8   9
HETATM    9  C10 UNL     1       4.750   1.109  -3.174  1.00  0.00     0.053 C 
BRANCH   9  10
HETATM   10  C9  UNL     1       5.456  -0.147  -3.442  1.00  0.00    -0.027 C 
HETATM   11  C8  UNL     1       6.164  -0.857  -2.622  1.00  0.00    -0.027 C 
BRANCH  11  12
HETATM   12  C7  UNL     1       6.380  -0.488  -1.209  1.00  0.00     0.053 C 
BRANCH  12  13
HETATM   13  C6  UNL     1       5.855  -1.534  -0.304  1.00  0.00    -0.027 C 
HETATM   14  C5  UNL     1       4.933  -1.357   0.581  1.00  0.00    -0.030 C 
BRANCH  14  15
HETATM   15  C4  UNL     1       4.187  -0.117   0.916  1.00  0.00     0.027 C 
BRANCH  15  16
HETATM   16  C3  UNL     1       4.380   0.243   2.371  1.00  0.00     0.003 C 
BRANCH  16  17
HETATM   17  C2  UNL     1       5.794   0.504   2.736  1.00  0.00    -0.004 C 
HETATM   18  C1  UNL     1       6.352   1.658   1.977  1.00  0.00     0.005 C 
ENDBRANCH  16  17
ENDBRANCH  15  16
ENDBRANCH  14  15
ENDBRANCH  12  13
ENDBRANCH  11  12
ENDBRANCH   9  10
ENDBRANCH   8   9
ENDBRANCH   6   7
ENDBRANCH   5   6
ENDBRANCH   3   4
ENDBRANCH   1   3
BRANCH   2  19
HETATM   19  C19 UNL     1      -2.945  -0.082  -0.026  1.00  0.00    -0.002 C 
HETATM   20  C20 UNL     1      -3.956   0.037   0.807  1.00  0.00     0.008 C 
BRANCH  20  21
HETATM   21  C21 UNL     1      -5.339  -0.194   0.363  1.00  0.00     0.182 C 
HETATM   22  O1  UNL     1      -5.622  -1.496   0.031  1.00  0.00    -0.371 OA
HETATM   23  C22 UNL     1      -5.622  -2.400   1.052  1.00  0.00     0.154 C 
HETATM   24  C23 UNL     1      -4.252  -2.895   1.452  1.00  0.00     0.042 C 
HETATM   25  C24 UNL     1      -6.389  -1.957   2.278  1.00  0.00     0.218 C 
HETATM   26  C25 UNL     1      -7.136  -0.733   1.896  1.00  0.00     0.190 C 
HETATM   27  O3  UNL     1      -8.329  -0.662   2.039  1.00  0.00    -0.292 OA
HETATM   28  C26 UNL     1      -6.352   0.394   1.334  1.00  0.00     0.236 C 
BRANCH  25  29
HETATM   29  O2  UNL     1      -7.183  -2.945   2.812  1.00  0.00    -0.385 OA
ATOM     30  H2  UNL     1      -7.665  -2.667   3.582  1.00  0.00     0.210 HD
ENDBRANCH  25  29
BRANCH  28  31
HETATM   31  O4  UNL     1      -5.665   0.989   2.447  1.00  0.00    -0.305 OA
BRANCH  31  32
HETATM   32  C27 UNL     1      -5.888   2.300   2.819  1.00  0.00     0.255 C 
HETATM   33  C28 UNL     1      -5.169   2.924   3.984  1.00  0.00     0.126 C 
HETATM   34  O5  UNL     1      -6.720   2.956   2.143  1.00  0.00    -0.266 OA
ENDBRANCH  31  32
ENDBRANCH  28  31
ENDBRANCH  20  21
ENDBRANCH   2  19
TORSDOF 16
