REMARK  15 active torsions:
REMARK  status: ('A' for Active; 'I' for Inactive)
REMARK    1  A    between atoms: O1_2  and  C2_3 
REMARK    2  A    between atoms: C4_5  and  C5_6 
REMARK    3  A    between atoms: C5_6  and  C17_18 
REMARK    4  A    between atoms: C6_7  and  C7_8 
REMARK    5  A    between atoms: C7_8  and  C8_9 
REMARK    6  A    between atoms: C8_9  and  C9_10 
REMARK    7  A    between atoms: C9_10  and  C11_12 
REMARK    8  A    between atoms: C11_12  and  C12_13 
REMARK    9  A    between atoms: C12_13  and  C13_14 
REMARK   10  A    between atoms: C13_14  and  C14_15 
REMARK   11  A    between atoms: C17_18  and  O2_19 
REMARK   12  A    between atoms: C17_18  and  C18_21 
REMARK   13  A    between atoms: C22_25  and  O3_26 
REMARK   14  A    between atoms: C25_29  and  O4_30 
REMARK   15  A    between atoms: C27_32  and  O5_33 
ROOT
HETATM    1  C5  UNL     1      -1.596  -0.374   0.006  1.00  0.00    -0.022 C 
HETATM    2  C6  UNL     1      -0.499  -0.884   0.539  1.00  0.00    -0.016 C 
ENDROOT
BRANCH   1   3
HETATM    3  C4  UNL     1      -2.714  -1.306  -0.239  1.00  0.00    -0.022 A 
HETATM    4  C3  UNL     1      -3.792  -0.987  -1.024  1.00  0.00     0.052 A 
HETATM    5  C2  UNL     1      -4.872  -1.845  -1.223  1.00  0.00     0.105 A 
HETATM    6  C27 UNL     1      -4.890  -3.080  -0.616  1.00  0.00     0.135 A 
HETATM    7  C25 UNL     1      -3.819  -3.421   0.176  1.00  0.00     0.105 A 
HETATM    8  C24 UNL     1      -2.746  -2.543   0.361  1.00  0.00     0.052 A 
BRANCH   5   9
HETATM    9  O1  UNL     1      -5.945  -1.486  -2.025  1.00  0.00    -0.353 OA
HETATM   10  C1  UNL     1      -5.930  -0.204  -2.656  1.00  0.00     0.210 C 
ENDBRANCH   5   9
BRANCH   6  11
HETATM   11  O5  UNL     1      -5.925  -3.955  -0.780  1.00  0.00    -0.351 OA
HETATM   12  C28 UNL     1      -7.073  -4.049   0.006  1.00  0.00     0.210 C 
ENDBRANCH   6  11
BRANCH   7  13
HETATM   13  O4  UNL     1      -3.833  -4.662   0.788  1.00  0.00    -0.353 OA
HETATM   14  C26 UNL     1      -2.770  -5.050   1.599  1.00  0.00     0.210 C 
ENDBRANCH   7  13
ENDBRANCH   1   3
BRANCH   1  15
HETATM   15  C17 UNL     1      -1.625   1.068  -0.219  1.00  0.00     0.158 C 
BRANCH  15  16
HETATM   16  O2  UNL     1      -2.017   1.381  -1.549  1.00  0.00    -0.390 OA
ATOM     17  H2  UNL     1      -2.036   2.319  -1.695  1.00  0.00     0.210 HD
ENDBRANCH  15  16
BRANCH  15  18
HETATM   18  C18 UNL     1      -2.377   1.898   0.758  1.00  0.00     0.048 C 
HETATM   19  C19 UNL     1      -3.828   1.694   0.952  1.00  0.00     0.010 C 
HETATM   20  C20 UNL     1      -4.276   2.942   1.744  1.00  0.00     0.003 C 
HETATM   21  C21 UNL     1      -3.360   4.037   1.303  1.00  0.00     0.032 C 
HETATM   22  C22 UNL     1      -2.266   3.402   0.492  1.00  0.00     0.127 C 
BRANCH  22  23
HETATM   23  O3  UNL     1      -2.406   3.706  -0.849  1.00  0.00    -0.390 OA
HETATM   24  C23 UNL     1      -1.284   4.393  -1.269  1.00  0.00     0.202 C 
ENDBRANCH  22  23
ENDBRANCH  15  18
ENDBRANCH   1  15
BRANCH   2  25
HETATM   25  C7  UNL     1       0.757  -0.253   0.905  1.00  0.00     0.028 C 
BRANCH  25  26
HETATM   26  C8  UNL     1       1.945  -0.763   0.136  1.00  0.00     0.008 C 
BRANCH  26  27
HETATM   27  C9  UNL     1       3.185  -0.026   0.580  1.00  0.00    -0.018 C 
HETATM   28  C10 UNL     1       3.519  -0.175   2.018  1.00  0.00     0.010 C 
BRANCH  27  29
HETATM   29  C11 UNL     1       4.374  -0.558  -0.234  1.00  0.00     0.004 C 
BRANCH  29  30
HETATM   30  C12 UNL     1       5.639   0.156   0.180  1.00  0.00     0.001 C 
BRANCH  30  31
HETATM   31  C13 UNL     1       6.832  -0.353  -0.623  1.00  0.00     0.004 C 
BRANCH  31  32
HETATM   32  C14 UNL     1       8.099   0.360  -0.211  1.00  0.00    -0.023 C 
HETATM   33  C15 UNL     1       9.297  -0.106  -0.972  1.00  0.00     0.009 C 
HETATM   34  C16 UNL     1       7.989   1.849  -0.358  1.00  0.00     0.009 C 
ENDBRANCH  31  32
ENDBRANCH  30  31
ENDBRANCH  29  30
ENDBRANCH  27  29
ENDBRANCH  26  27
ENDBRANCH  25  26
ENDBRANCH   2  25
TORSDOF 15
