REMARK  1 active torsions:
REMARK  status: ('A' for Active; 'I' for Inactive)
REMARK    1  A    between atoms: C1_2  and  C2_3 
REMARK       I    between atoms: C1_2  and  N1_10 
ROOT
HETATM    1  O1  UNL     1      -3.509   2.083   1.055  1.00  0.00    -0.267 OA
HETATM    2  C1  UNL     1      -3.475   0.982   0.455  1.00  0.00     0.258 C 
HETATM    3  N1  UNL     1      -2.302   0.460  -0.101  1.00  0.00    -0.325 N 
HETATM    4  C8  UNL     1      -1.009   1.115  -0.055  1.00  0.00     0.147 C 
HETATM    5  C9  UNL     1      -1.062   2.594   0.096  1.00  0.00     0.133 C 
HETATM    6  N2  UNL     1       0.173   3.189  -0.354  1.00  0.00    -0.418 N 
ATOM      7  H2  UNL     1       0.302   4.198  -0.424  1.00  0.00     0.153 HD
HETATM    8  C10 UNL     1       1.202   2.257  -0.695  1.00  0.00     0.141 C 
HETATM    9  C11 UNL     1       2.545   2.977  -0.589  1.00  0.00     0.251 C 
HETATM   10  N3  UNL     1       3.422   2.335   0.370  1.00  0.00    -0.074 N 
ATOM     11  H31 UNL     1       2.930   1.620   0.905  1.00  0.00     0.277 HD
ATOM     12  H32 UNL     1       3.664   2.966   1.134  1.00  0.00     0.277 HD
HETATM   13  C12 UNL     1       4.619   1.792  -0.275  1.00  0.00     0.234 C 
HETATM   14  C13 UNL     1       5.296   0.891   0.705  1.00  0.00     0.055 C 
HETATM   15  C14 UNL     1       5.087  -0.574   0.431  1.00  0.00     0.234 C 
HETATM   16  N4  UNL     1       3.737  -0.913   0.094  1.00  0.00    -0.073 N 
ATOM     17  H41 UNL     1       3.320  -0.264  -0.573  1.00  0.00     0.277 HD
ATOM     18  H42 UNL     1       3.085  -0.754   0.862  1.00  0.00     0.277 HD
HETATM   19  C15 UNL     1       3.731  -2.289  -0.377  1.00  0.00     0.258 C 
HETATM   20  C16 UNL     1       2.434  -2.955  -0.038  1.00  0.00     0.195 C 
HETATM   21  O2  UNL     1       1.367  -2.071  -0.040  1.00  0.00    -0.387 OA
HETATM   22  C17 UNL     1       0.271  -2.724   0.519  1.00  0.00     0.193 C 
HETATM   23  C18 UNL     1      -0.948  -2.651  -0.363  1.00  0.00     0.196 C 
HETATM   24  O3  UNL     1      -1.911  -1.787   0.142  1.00  0.00    -0.370 OA
HETATM   25  C19 UNL     1      -2.328  -0.840  -0.790  1.00  0.00     0.296 C 
ENDROOT
BRANCH   2  26
HETATM   26  C2  UNL     1      -4.714   0.230   0.344  1.00  0.00     0.070 A 
HETATM   27  C3  UNL     1      -5.117  -0.693   1.285  1.00  0.00     0.020 A 
HETATM   28  C4  UNL     1      -6.301  -1.383   1.137  1.00  0.00     0.001 A 
HETATM   29  C5  UNL     1      -7.123  -1.173   0.044  1.00  0.00     0.003 A 
HETATM   30  C6  UNL     1      -6.727  -0.255  -0.898  1.00  0.00     0.043 A 
HETATM   31  C7  UNL     1      -5.527   0.444  -0.748  1.00  0.00     0.132 A 
HETATM   32  F1  UNL     1      -5.168   1.342  -1.696  1.00  0.00    -0.205 F 
ENDBRANCH   2  26
TORSDOF 1
