REMARK  5 active torsions:
REMARK  status: ('A' for Active; 'I' for Inactive)
REMARK    1  A    between atoms: C4_4  and  C5_5 
REMARK    2  A    between atoms: C5_5  and  C6_6 
REMARK    3  A    between atoms: C6_6  and  C7_7 
REMARK    4  A    between atoms: C9_10  and  C10_11 
REMARK    5  A    between atoms: C13_14  and  O1_15 
ROOT
HETATM    1  C7  UNL     1       1.612  -0.974   0.263  1.00  0.00     0.019 C 
HETATM    2  C8  UNL     1       1.636  -2.257   0.902  1.00  0.00     0.095 C 
HETATM    3  N1  UNL     1       1.651  -3.297   1.426  1.00  0.00    -0.192 NA
HETATM    4  C9  UNL     1       0.483  -0.462  -0.187  1.00  0.00    -0.001 C 
ENDROOT
BRANCH   1   5
HETATM    5  C6  UNL     1       2.939  -0.266   0.143  1.00  0.00     0.053 C 
BRANCH   5   6
HETATM    6  C5  UNL     1       2.807   1.035  -0.532  1.00  0.00     0.032 C 
BRANCH   6   7
HETATM    7  C4  UNL     1       4.064   1.770  -0.696  1.00  0.00    -0.024 C 
HETATM    8  C2  UNL     1       5.302   1.515  -0.459  1.00  0.00    -0.091 C 
HETATM    9  C1  UNL     1       6.320   2.612  -0.794  1.00  0.00     0.042 C 
HETATM   10  C3  UNL     1       5.895   0.289   0.079  1.00  0.00     0.042 C 
ENDBRANCH   6   7
ENDBRANCH   5   6
ENDBRANCH   1   5
BRANCH   4  11
HETATM   11  C10 UNL     1      -0.798  -1.209  -0.040  1.00  0.00     0.046 C 
HETATM   12  C11 UNL     1      -1.830  -0.408   0.733  1.00  0.00     0.009 C 
HETATM   13  C12 UNL     1      -2.817  -1.279   1.429  1.00  0.00     0.054 C 
HETATM   14  C22 UNL     1      -2.412   0.723  -0.041  1.00  0.00     0.060 C 
HETATM   15  C13 UNL     1      -3.573  -2.241   0.620  1.00  0.00     0.148 C 
HETATM   16  C14 UNL     1      -2.761  -3.163  -0.238  1.00  0.00     0.083 C 
HETATM   17  C16 UNL     1      -4.476  -1.646  -0.379  1.00  0.00     0.294 C 
HETATM   18  C15 UNL     1      -2.545  -2.334  -1.463  1.00  0.00     0.165 C 
HETATM   19  O2  UNL     1      -3.772  -1.638  -1.575  1.00  0.00    -0.311 OA
HETATM   20  C17 UNL     1      -1.346  -1.446  -1.424  1.00  0.00     0.162 C 
HETATM   21  O4  UNL     1      -1.475  -0.250  -2.058  1.00  0.00    -0.352 OA
HETATM   22  C18 UNL     1      -2.234   0.708  -1.495  1.00  0.00     0.275 C 
HETATM   23  O5  UNL     1      -1.662   1.972  -1.886  1.00  0.00    -0.289 OA
HETATM   24  C19 UNL     1      -1.788   2.869  -0.844  1.00  0.00     0.265 C 
HETATM   25  O6  UNL     1      -1.829   4.103  -0.930  1.00  0.00    -0.265 OA
HETATM   26  C20 UNL     1      -1.866   2.087   0.408  1.00  0.00     0.090 C 
HETATM   27  C21 UNL     1      -2.803   2.787   1.346  1.00  0.00     0.021 C 
HETATM   28  O3  UNL     1      -5.649  -1.210  -0.266  1.00  0.00    -0.262 OA
BRANCH  15  29
HETATM   29  O1  UNL     1      -4.344  -3.034   1.473  1.00  0.00    -0.379 OA
ATOM     30  H1  UNL     1      -4.834  -3.657   0.949  1.00  0.00     0.211 HD
ENDBRANCH  15  29
ENDBRANCH   4  11
TORSDOF 5
