REMARK  3 active torsions:
REMARK  status: ('A' for Active; 'I' for Inactive)
REMARK    1  A    between atoms: C6_10  and  C7_11 
REMARK    2  A    between atoms: C7_11  and  C8_12 
REMARK    3  A    between atoms: C8_12  and  C9_13 
ROOT
HETATM    1  F1  UNL     1       1.221   0.481  -1.812  1.00  0.00    -0.204 F 
HETATM    2  C1  UNL     1       1.846   0.038  -0.682  1.00  0.00     0.146 A 
HETATM    3  C2  UNL     1       2.973  -0.731  -0.948  1.00  0.00     0.074 A 
HETATM    4 CL1  UNL     1       3.487  -1.110  -2.600  1.00  0.00    -0.081 Cl
HETATM    5  C3  UNL     1       3.709  -1.200   0.104  1.00  0.00     0.052 A 
HETATM    6  C4  UNL     1       3.310  -0.894   1.400  1.00  0.00     0.058 A 
HETATM    7 CL2  UNL     1       4.246  -1.499   2.752  1.00  0.00    -0.082 Cl
HETATM    8  C5  UNL     1       2.201  -0.137   1.654  1.00  0.00     0.065 A 
HETATM    9 CL3  UNL     1       1.748   0.219   3.318  1.00  0.00    -0.082 Cl
HETATM   10  C6  UNL     1       1.436   0.349   0.575  1.00  0.00     0.006 A 
ENDROOT
BRANCH  10  11
HETATM   11  C7  UNL     1       0.236   1.101   0.889  1.00  0.00     0.045 C 
BRANCH  11  12
HETATM   12  C8  UNL     1      -1.051   0.420   1.020  1.00  0.00     0.037 C 
BRANCH  12  13
HETATM   13  C9  UNL     1      -1.724  -0.278  -0.072  1.00  0.00     0.187 C 
HETATM   14  C10 UNL     1      -2.175   0.498  -1.285  1.00  0.00     0.060 C 
HETATM   15  C11 UNL     1      -3.590  -0.044  -1.091  1.00  0.00     0.235 C 
HETATM   16  N1  UNL     1      -3.162  -0.447   0.239  1.00  0.00    -0.071 N 
ATOM     17  H12 UNL     1      -3.479  -1.347   0.600  1.00  0.00     0.277 HD
ATOM     18  H11 UNL     1      -3.547   0.047   1.044  1.00  0.00     0.277 HD
ENDBRANCH  12  13
ENDBRANCH  11  12
ENDBRANCH  10  11
TORSDOF 3
