REMARK  13 active torsions:
REMARK  status: ('A' for Active; 'I' for Inactive)
REMARK    1  A    between atoms: C2_2  and  C3_3 
REMARK    2  A    between atoms: C5_6  and  C6_7 
REMARK    3  A    between atoms: C6_7  and  O2_8 
REMARK    4  A    between atoms: C7_10  and  O3_11 
REMARK    5  A    between atoms: C8_13  and  O4_14 
REMARK    6  A    between atoms: O4_14  and  C9_15 
REMARK    7  A    between atoms: C10_16  and  N1_17 
REMARK    8  A    between atoms: C12_22  and  N2_23 
REMARK    9  A    between atoms: C13_27  and  O5_28 
REMARK   10  A    between atoms: O5_28  and  C14_29 
REMARK   11  A    between atoms: C19_34  and  N3_35 
REMARK   12  A    between atoms: C20_39  and  N4_40 
REMARK   13  A    between atoms: N4_40  and  C21_42 
ROOT
HETATM    1  C9  UNL     1      -0.450  -0.444   1.163  1.00  0.00     0.180 C 
HETATM    2  C10 UNL     1      -0.028  -0.704   2.573  1.00  0.00     0.216 C 
HETATM    3  C11 UNL     1       1.300  -1.384   2.707  1.00  0.00     0.071 C 
HETATM    4  C12 UNL     1       2.000  -1.553   1.374  1.00  0.00     0.216 C 
HETATM    5  C13 UNL     1       2.020  -0.261   0.608  1.00  0.00     0.177 C 
HETATM    6  C20 UNL     1       0.593   0.048   0.226  1.00  0.00     0.139 C 
ENDROOT
BRANCH   1   7
HETATM    7  O4  UNL     1      -1.495   0.472   1.167  1.00  0.00    -0.349 OA
BRANCH   7   8
HETATM    8  C8  UNL     1      -2.690   0.026   0.690  1.00  0.00     0.295 C 
HETATM    9  C7  UNL     1      -3.674   0.035   1.861  1.00  0.00     0.204 C 
HETATM   10  C5  UNL     1      -4.816   0.991   1.557  1.00  0.00     0.182 C 
HETATM   11  O1  UNL     1      -5.374   0.551   0.380  1.00  0.00    -0.342 OA
HETATM   12  C3  UNL     1      -4.490   0.688  -0.649  1.00  0.00     0.182 C 
HETATM   13  C4  UNL     1      -4.816   1.930  -1.506  1.00  0.00     0.084 C 
HETATM   14  O6  UNL     1      -3.171   0.744  -0.380  1.00  0.00    -0.319 OA
BRANCH   9  15
HETATM   15  O3  UNL     1      -4.250  -1.223   2.041  1.00  0.00    -0.388 OA
ATOM     16  H3  UNL     1      -3.536  -1.820   2.231  1.00  0.00     0.210 HD
ENDBRANCH   9  15
BRANCH  10  17
HETATM   17  C6  UNL     1      -5.886   0.901   2.627  1.00  0.00     0.199 C 
BRANCH  17  18
HETATM   18  O2  UNL     1      -5.432   1.322   3.868  1.00  0.00    -0.398 OA
ATOM     19  H2  UNL     1      -6.103   1.266   4.539  1.00  0.00     0.209 HD
ENDBRANCH  17  18
ENDBRANCH  10  17
BRANCH  12  20
HETATM   20  C2  UNL     1      -4.743  -0.469  -1.582  1.00  0.00     0.030 C 
HETATM   21  C1  UNL     1      -5.934  -0.659  -2.134  1.00  0.00     0.012 C 
ENDBRANCH  12  20
ENDBRANCH   7   8
ENDBRANCH   1   7
BRANCH   2  22
HETATM   22  N1  UNL     1       0.064   0.558   3.286  1.00  0.00    -0.072 N 
ATOM     23  H13 UNL     1       0.676   1.224   2.816  1.00  0.00     0.274 HD
ATOM     24  H12 UNL     1      -0.801   1.096   3.234  1.00  0.00     0.274 HD
ATOM     25  H11 UNL     1       0.352   0.381   4.248  1.00  0.00     0.274 HD
ENDBRANCH   2  22
BRANCH   6  26
HETATM   26  N4  UNL     1       0.395  -0.212  -1.139  1.00  0.00    -0.413 N 
ATOM     27  H4  UNL     1       0.298   0.573  -1.782  1.00  0.00     0.153 HD
BRANCH  26  28
HETATM   28  C21 UNL     1       0.327  -1.513  -1.644  1.00  0.00     0.110 C 
HETATM   29  C22 UNL     1       0.091  -1.379  -3.164  1.00  0.00     0.026 C 
ENDBRANCH  26  28
ENDBRANCH   6  26
BRANCH   5  30
HETATM   30  O5  UNL     1       2.723  -0.452  -0.572  1.00  0.00    -0.374 OA
BRANCH  30  31
HETATM   31  C14 UNL     1       3.768   0.400  -0.765  1.00  0.00     0.152 C 
HETATM   32  C15 UNL     1       3.626   1.257  -2.009  1.00  0.00     0.034 C 
HETATM   33  C16 UNL     1       4.644   2.391  -1.830  1.00  0.00     0.003 C 
HETATM   34  C17 UNL     1       5.900   1.885  -1.172  1.00  0.00     0.002 C 
HETATM   35  C18 UNL     1       6.116   0.459  -1.611  1.00  0.00     0.035 C 
HETATM   36  C19 UNL     1       5.045  -0.386  -0.920  1.00  0.00     0.212 C 
BRANCH  36  37
HETATM   37  N3  UNL     1       4.835  -1.629  -1.643  1.00  0.00    -0.073 N 
ATOM     38  H33 UNL     1       4.105  -2.192  -1.207  1.00  0.00     0.274 HD
ATOM     39  H32 UNL     1       4.392  -1.461  -2.546  1.00  0.00     0.274 HD
ATOM     40  H31 UNL     1       5.699  -2.161  -1.748  1.00  0.00     0.274 HD
ENDBRANCH  36  37
ENDBRANCH  30  31
ENDBRANCH   5  30
BRANCH   4  41
HETATM   41  N2  UNL     1       3.311  -2.085   1.671  1.00  0.00    -0.072 N 
ATOM     42  H23 UNL     1       3.837  -1.519   2.337  1.00  0.00     0.274 HD
ATOM     43  H22 UNL     1       3.285  -2.940   2.227  1.00  0.00     0.274 HD
ATOM     44  H21 UNL     1       3.782  -2.199   0.774  1.00  0.00     0.274 HD
ENDBRANCH   4  41
TORSDOF 13
