REMARK  4 active torsions:
REMARK  status: ('A' for Active; 'I' for Inactive)
REMARK    1  A    between atoms: C1_4  and  N2_5 
REMARK    2  A    between atoms: C3_7  and  O1_8 
REMARK    3  A    between atoms: O1_8  and  C4_9 
REMARK    4  A    between atoms: C4_9  and  N3_10 
ROOT
HETATM    1  N2  UNL     1      -1.868  -0.383  -0.216  1.00  0.00    -0.289 N 
HETATM    2  C2  UNL     1      -0.841   0.476  -0.776  1.00  0.00     0.178 C 
HETATM    3  C3  UNL     1       0.425  -0.002  -0.107  1.00  0.00     0.159 C 
HETATM    4  C5  UNL     1      -0.138  -0.701   1.116  1.00  0.00     0.168 C 
HETATM    5  N4  UNL     1      -1.247  -1.438   0.503  1.00  0.00    -0.136 NA
ENDROOT
BRANCH   3   6
HETATM    6  O1  UNL     1       1.223   1.036   0.338  1.00  0.00    -0.356 OA
BRANCH   6   7
HETATM    7  C4  UNL     1       2.547   0.907  -0.037  1.00  0.00     0.397 C 
BRANCH   7   8
HETATM    8  N3  UNL     1       3.156  -0.312   0.477  1.00  0.00    -0.058 N 
ATOM      9  H33 UNL     1       3.054  -0.375   1.490  1.00  0.00     0.276 HD
ATOM     10  H32 UNL     1       2.616  -1.134   0.207  1.00  0.00     0.276 HD
ATOM     11  H31 UNL     1       4.133  -0.407   0.200  1.00  0.00     0.276 HD
ENDBRANCH   7   8
ENDBRANCH   6   7
ENDBRANCH   3   6
BRANCH   1  12
HETATM   12  C1  UNL     1      -3.284  -0.281  -0.308  1.00  0.00     0.189 C 
HETATM   13  N1  UNL     1      -3.916   0.835  -0.197  1.00  0.00    -0.394 N 
ATOM     14  H12 UNL     1      -3.361   1.675  -0.036  1.00  0.00     0.156 HD
ATOM     15  H11 UNL     1      -4.931   0.908  -0.263  1.00  0.00     0.156 HD
ENDBRANCH   1  12
TORSDOF 4
