REMARK  14 active torsions:
REMARK  status: ('A' for Active; 'I' for Inactive)
REMARK    1  A    between atoms: N3_8  and  C5_10 
REMARK    2  A    between atoms: C9_14  and  S1_15 
REMARK    3  A    between atoms: S1_15  and  N4_17 
REMARK    4  A    between atoms: S1_15  and  N5_21 
REMARK    5  A    between atoms: N4_17  and  O2_19 
REMARK    6  A    between atoms: N5_21  and  C10_23 
REMARK    7  A    between atoms: C10_23  and  C11_24 
REMARK    8  A    between atoms: C11_24  and  O3_25 
REMARK    9  A    between atoms: C11_24  and  C12_27 
REMARK       I    between atoms: C12_27  and  N6_29 
REMARK   10  A    between atoms: C16_33  and  C17_34 
REMARK   11  A    between atoms: C17_34  and  O6_36 
REMARK   12  A    between atoms: O6_36  and  N7_37 
REMARK   13  A    between atoms: C18_44  and  C19_45 
REMARK   14  A    between atoms: C19_45  and  N10_46 
ROOT
HETATM    1  C5  UNL     1       2.533   1.594   0.148  1.00  0.00     0.107 A 
HETATM    2  C6  UNL     1       1.980   1.699   1.414  1.00  0.00     0.049 A 
HETATM    3  C7  UNL     1       0.706   1.212   1.670  1.00  0.00     0.007 A 
HETATM    4  C8  UNL     1       0.006   0.625   0.649  1.00  0.00     0.042 A 
HETATM    5  C9  UNL     1       0.578   0.534  -0.594  1.00  0.00     0.131 A 
HETATM    6  N8  UNL     1       1.833   1.017  -0.835  1.00  0.00    -0.333 N 
ATOM      7  H8  UNL     1       2.238   0.937  -1.768  1.00  0.00     0.168 HD
ENDROOT
BRANCH   5   8
HETATM    8  S1  UNL     1      -0.325  -0.215  -1.884  1.00  0.00     0.173 S 
HETATM    9  O1  UNL     1       0.498  -1.374  -2.381  1.00  0.00    -0.220 OA
BRANCH   8  10
HETATM   10  N4  UNL     1      -0.472   0.782  -3.086  1.00  0.00    -0.206 N 
ATOM     11  H4  UNL     1      -0.667   1.769  -2.920  1.00  0.00     0.206 HD
BRANCH  10  12
HETATM   12  O2  UNL     1      -0.335   0.305  -4.358  1.00  0.00    -0.281 OA
ATOM     13  H2  UNL     1      -0.424   0.909  -5.086  1.00  0.00     0.245 HD
ENDBRANCH  10  12
ENDBRANCH   8  10
BRANCH   8  14
HETATM   14  N5  UNL     1      -1.848  -0.719  -1.289  1.00  0.00    -0.327 N 
ATOM     15  H5  UNL     1      -2.217  -0.461  -0.374  1.00  0.00     0.171 HD
BRANCH  14  16
HETATM   16  C10 UNL     1      -2.554  -1.560  -2.245  1.00  0.00     0.172 C 
BRANCH  16  17
HETATM   17  C11 UNL     1      -3.884  -1.952  -1.624  1.00  0.00     0.228 C 
BRANCH  17  18
HETATM   18  O3  UNL     1      -3.598  -2.634  -0.468  1.00  0.00    -0.384 OA
ATOM     19  H3  UNL     1      -4.430  -2.879  -0.080  1.00  0.00     0.210 HD
ENDBRANCH  17  18
BRANCH  17  20
HETATM   20  C12 UNL     1      -4.745  -0.773  -1.467  1.00  0.00     0.251 C 
HETATM   21  O4  UNL     1      -5.011  -0.141  -2.570  1.00  0.00    -0.270 OA
HETATM   22  N6  UNL     1      -5.286  -0.291  -0.270  1.00  0.00    -0.336 N 
HETATM   23  C13 UNL     1      -5.203  -0.711   1.091  1.00  0.00     0.127 C 
HETATM   24  C16 UNL     1      -6.164   0.898  -0.213  1.00  0.00     0.189 C 
HETATM   25  C14 UNL     1      -4.851   0.619   1.794  1.00  0.00     0.022 C 
HETATM   26  C15 UNL     1      -5.846   1.536   1.119  1.00  0.00     0.037 C 
BRANCH  24  27
HETATM   27  C17 UNL     1      -7.573   0.439  -0.241  1.00  0.00     0.303 C 
HETATM   28  O5  UNL     1      -8.531   1.250  -0.201  1.00  0.00    -0.261 OA
BRANCH  27  29
HETATM   29  O6  UNL     1      -7.874  -0.913  -0.313  1.00  0.00    -0.205 OA
BRANCH  29  30
HETATM   30  N7  UNL     1      -9.157  -1.348  -0.340  1.00  0.00    -0.302 N 
ATOM     31  H72 UNL     1      -9.904  -0.655  -0.306  1.00  0.00     0.184 HD
ATOM     32  H71 UNL     1      -9.378  -2.342  -0.393  1.00  0.00     0.184 HD
ENDBRANCH  29  30
ENDBRANCH  27  29
ENDBRANCH  24  27
ENDBRANCH  17  20
ENDBRANCH  16  17
ENDBRANCH  14  16
ENDBRANCH   8  14
ENDBRANCH   5   8
BRANCH   1  33
HETATM   33  N3  UNL     1       3.823   2.113  -0.062  1.00  0.00    -0.327 N 
HETATM   34  C4  UNL     1       4.863   1.392   0.075  1.00  0.00     0.139 A 
HETATM   35  C3  UNL     1       4.830   0.064   0.435  1.00  0.00     0.122 A 
HETATM   36  N9  UNL     1       6.071   1.982  -0.150  1.00  0.00    -0.329 N 
HETATM   37  N2  UNL     1       3.861  -0.802   0.721  1.00  0.00    -0.346 N 
HETATM   38  C20 UNL     1       6.010  -0.665   0.566  1.00  0.00     0.140 A 
HETATM   39  C2  UNL     1       4.406  -2.001   1.014  1.00  0.00     0.184 A 
ATOM     40  H2  UNL     1       2.863  -0.592   0.719  1.00  0.00     0.167 HD
HETATM   41  N1  UNL     1       5.742  -1.930   0.921  1.00  0.00    -0.332 N 
HETATM   42  C1  UNL     1       6.711  -2.979   1.151  1.00  0.00     0.158 C 
HETATM   43  N11 UNL     1       7.145  -0.002   0.325  1.00  0.00    -0.329 N 
HETATM   44  C18 UNL     1       7.197   1.282  -0.023  1.00  0.00     0.110 A 
ATOM     45  H11 UNL     1       8.025  -0.511   0.413  1.00  0.00     0.168 HD
ATOM     46  H9  UNL     1       6.113   2.965  -0.417  1.00  0.00     0.168 HD
ATOM     47  H3  UNL     1       3.928   3.091  -0.331  1.00  0.00     0.169 HD
BRANCH  44  48
HETATM   48  C19 UNL     1       8.492   1.973  -0.281  1.00  0.00     0.305 C 
BRANCH  48  49
HETATM   49  N10 UNL     1       9.022   2.605   0.906  1.00  0.00    -0.073 N 
ATOM     50 3H10 UNL     1       8.341   3.241   1.320  1.00  0.00     0.274 HD
ATOM     51 2H10 UNL     1       9.107   1.937   1.672  1.00  0.00     0.274 HD
ATOM     52 1H10 UNL     1       9.908   3.078   0.729  1.00  0.00     0.274 HD
ENDBRANCH  48  49
ENDBRANCH  44  48
ENDBRANCH   1  33
TORSDOF 14
