REMARK  15 active torsions:
REMARK  status: ('A' for Active; 'I' for Inactive)
REMARK    1  A    between atoms: C2_2  and  O1_3 
REMARK    2  A    between atoms: C2_2  and  C3_5 
REMARK    3  A    between atoms: C3_5  and  O2_6 
REMARK    4  A    between atoms: C3_5  and  N1_8 
REMARK    5  A    between atoms: C4_9  and  C5_10 
REMARK    6  A    between atoms: C5_10  and  N2_11 
REMARK    7  A    between atoms: N2_11  and  C6_13 
REMARK    8  A    between atoms: C7_16  and  C8_17 
REMARK    9  A    between atoms: C8_17  and  C9_18 
REMARK       I    between atoms: C9_18  and  N4_20 
REMARK   10  A    between atoms: N4_20  and  C10_22 
REMARK   11  A    between atoms: C12_29  and  C13_30 
REMARK   12  A    between atoms: C16_37  and  O6_38 
REMARK   13  A    between atoms: C20_45  and  N10_46 
REMARK   14  A    between atoms: N10_46  and  N11_47 
REMARK   15  A    between atoms: N10_46  and  O7_50 
ROOT
HETATM    1  C6  UNL     1       0.474  -1.122  -0.304  1.00  0.00     0.147 A 
HETATM    2  N3  UNL     1       1.268  -0.069  -0.364  1.00  0.00    -0.341 N 
ATOM      3  H3  UNL     1       0.850   0.850  -0.510  1.00  0.00     0.167 HD
HETATM    4  C7  UNL     1       2.619  -0.156  -0.240  1.00  0.00     0.052 A 
HETATM    5  C12 UNL     1       3.208  -1.386  -0.046  1.00  0.00     0.132 A 
HETATM    6  N8  UNL     1       2.414  -2.499   0.019  1.00  0.00    -0.254 N 
HETATM    7  C14 UNL     1       2.967  -3.703   0.193  1.00  0.00     0.258 A 
HETATM    8  O5  UNL     1       4.206  -3.882   0.311  1.00  0.00    -0.267 OA
HETATM    9  C15 UNL     1       2.172  -4.861   0.251  1.00  0.00     0.130 A 
HETATM   10  C16 UNL     1       0.819  -4.669   0.119  1.00  0.00     0.146 A 
HETATM   11  N9  UNL     1       0.275  -3.466  -0.055  1.00  0.00    -0.320 N 
ATOM     12  H9  UNL     1      -0.736  -3.371  -0.148  1.00  0.00     0.169 HD
HETATM   13  C17 UNL     1       1.059  -2.381  -0.107  1.00  0.00     0.162 A 
ENDROOT
BRANCH   1  14
HETATM   14  N2  UNL     1      -0.798  -1.093  -0.413  1.00  0.00    -0.368 N 
ATOM     15  H2  UNL     1      -1.271  -1.994  -0.343  1.00  0.00     0.161 HD
BRANCH  14  16
HETATM   16  C5  UNL     1      -1.642   0.037  -0.620  1.00  0.00     0.178 C 
BRANCH  16  17
HETATM   17  C4  UNL     1      -2.788   0.111   0.342  1.00  0.00     0.033 A 
HETATM   18  N1  UNL     1      -4.062   0.404   0.095  1.00  0.00    -0.307 N 
HETATM   19  C20 UNL     1      -4.757   0.369   1.230  1.00  0.00     0.133 A 
HETATM   20  C19 UNL     1      -3.883   0.039   2.244  1.00  0.00     0.049 A 
HETATM   21  C18 UNL     1      -2.643  -0.123   1.681  1.00  0.00     0.030 A 
BRANCH  18  22
HETATM   22  C3  UNL     1      -4.587   0.715  -1.223  1.00  0.00     0.254 C 
BRANCH  22  23
HETATM   23  C2  UNL     1      -4.550   2.169  -1.567  1.00  0.00     0.163 C 
HETATM   24  C1  UNL     1      -5.540   3.020  -0.837  1.00  0.00     0.044 C 
BRANCH  23  25
HETATM   25  O1  UNL     1      -3.299   2.729  -1.462  1.00  0.00    -0.392 OA
ATOM     26  H1  UNL     1      -2.670   2.188  -1.926  1.00  0.00     0.210 HD
ENDBRANCH  23  25
ENDBRANCH  22  23
BRANCH  22  27
HETATM   27  O2  UNL     1      -5.859   0.175  -1.333  1.00  0.00    -0.374 OA
ATOM     28  H2  UNL     1      -5.883  -0.749  -1.114  1.00  0.00     0.212 HD
ENDBRANCH  22  27
ENDBRANCH  18  22
BRANCH  19  29
HETATM   29  N10 UNL     1      -6.175   0.622   1.410  1.00  0.00    -0.060 NA
BRANCH  29  30
HETATM   30  N11 UNL     1      -6.907  -0.558   1.371  1.00  0.00    -0.335 NA
ATOM     31 2H11 UNL     1      -6.791  -0.990   0.454  1.00  0.00     0.173 HD
ATOM     32 1H11 UNL     1      -7.903  -0.380   1.497  1.00  0.00     0.173 HD
ENDBRANCH  29  30
BRANCH  29  33
HETATM   33  O7  UNL     1      -6.328   1.191   2.617  1.00  0.00    -0.288 OA
ATOM     34  H7  UNL     1      -7.256   1.357   2.735  1.00  0.00     0.239 HD
ENDBRANCH  29  33
ENDBRANCH  19  29
ENDBRANCH  16  17
ENDBRANCH  14  16
ENDBRANCH   1  14
BRANCH   4  35
HETATM   35  C8  UNL     1       3.436   1.073  -0.280  1.00  0.00     0.163 C 
BRANCH  35  36
HETATM   36  C9  UNL     1       3.792   1.619   1.030  1.00  0.00     0.229 C 
HETATM   37  O3  UNL     1       3.425   0.974   2.069  1.00  0.00    -0.273 OA
HETATM   38  N4  UNL     1       4.510   2.819   1.138  1.00  0.00    -0.306 N 
ATOM     39  H4  UNL     1       3.988   3.669   1.351  1.00  0.00     0.171 HD
BRANCH  38  40
HETATM   40  C10 UNL     1       5.783   2.919   0.986  1.00  0.00     0.168 A 
HETATM   41  N5  UNL     1       6.718   2.012   0.707  1.00  0.00    -0.331 N 
HETATM   42  C11 UNL     1       7.954   2.399   0.611  1.00  0.00     0.189 A 
ATOM     43  H5  UNL     1       6.468   1.032   0.571  1.00  0.00     0.168 HD
HETATM   44  N6  UNL     1       8.237   3.688   0.794  1.00  0.00    -0.320 N 
HETATM   45  S1  UNL     1       6.731   4.365   1.109  1.00  0.00     0.024 SA
ATOM     46  H6  UNL     1       9.145   4.151   0.753  1.00  0.00     0.175 HD
ENDBRANCH  38  40
ENDBRANCH  35  36
ENDBRANCH   4  35
BRANCH   5  47
HETATM   47  C13 UNL     1       4.649  -1.528   0.065  1.00  0.00     0.284 C 
HETATM   48  N7  UNL     1       5.413  -1.591  -1.157  1.00  0.00    -0.056 NA
HETATM   49  O4  UNL     1       5.307  -1.602   1.128  1.00  0.00    -0.269 OA
ENDBRANCH   5  47
BRANCH  10  50
HETATM   50  O6  UNL     1      -0.019  -5.800   0.171  1.00  0.00    -0.346 OA
ATOM     51  H6  UNL     1      -0.955  -5.667   0.080  1.00  0.00     0.219 HD
ENDBRANCH  10  50
TORSDOF 15
