REMARK  6 active torsions:
REMARK  status: ('A' for Active; 'I' for Inactive)
REMARK    1  A    between atoms: N1_1  and  C1_4 
REMARK    2  A    between atoms: N3_10  and  C5_12 
REMARK    3  A    between atoms: C5_12  and  C6_13 
REMARK    4  A    between atoms: C8_17  and  C9_18 
REMARK    5  A    between atoms: C9_18  and  N5_19 
REMARK    6  A    between atoms: N5_19  and  C10_21 
ROOT
HETATM    1  C1  UNL     1       2.451   2.012   1.864  1.00  0.00     0.677 A 
HETATM    2  N2  UNL     1       3.689   1.871   1.359  1.00  0.00    -0.195 N 
ATOM      3  H2  UNL     1       4.441   2.449   1.735  1.00  0.00     0.184 HD
HETATM    4  C2  UNL     1       3.978   0.985   0.363  1.00  0.00     0.038 A 
HETATM    5  C3  UNL     1       2.988   0.205  -0.153  1.00  0.00     0.011 A 
HETATM    6  C4  UNL     1       1.709   0.350   0.367  1.00  0.00     0.125 A 
HETATM    7  N3  UNL     1       0.783  -0.397  -0.133  1.00  0.00    -0.369 N 
ATOM      8  H3  UNL     1       0.987  -1.063  -0.878  1.00  0.00     0.161 HD
HETATM    9  N8  UNL     1       1.476   1.240   1.352  1.00  0.00    -0.177 N 
ATOM     10  H8  UNL     1       0.529   1.331   1.721  1.00  0.00     0.186 HD
HETATM   11  C14 UNL     1       3.025  -0.809  -1.209  1.00  0.00     0.072 C 
HETATM   12  C15 UNL     1       4.345  -1.470  -1.406  1.00  0.00     0.237 C 
HETATM   13  N9  UNL     1       5.130  -1.353  -0.185  1.00  0.00    -0.074 N 
ATOM     14  H91 UNL     1       5.616  -2.214   0.067  1.00  0.00     0.277 HD
ATOM     15  H92 UNL     1       4.559  -1.278   0.657  1.00  0.00     0.277 HD
HETATM   16  C16 UNL     1       6.022  -0.225  -0.376  1.00  0.00     0.238 C 
HETATM   17  C17 UNL     1       5.407   1.074   0.039  1.00  0.00     0.085 C 
ENDROOT
BRANCH   7  18
HETATM   18  C5  UNL     1      -0.544  -0.257   0.397  1.00  0.00     0.187 C 
BRANCH  18  19
HETATM   19  C6  UNL     1      -1.509  -1.189  -0.225  1.00  0.00     0.088 A 
HETATM   20  C7  UNL     1      -1.314  -2.132  -1.200  1.00  0.00     0.124 A 
HETATM   21  N4  UNL     1      -2.503  -2.716  -1.418  1.00  0.00    -0.346 N 
HETATM   22  C8  UNL     1      -3.378  -2.145  -0.604  1.00  0.00     0.142 A 
ATOM     23  H4  UNL     1      -2.697  -3.461  -2.087  1.00  0.00     0.167 HD
HETATM   24  O1  UNL     1      -2.776  -1.233   0.106  1.00  0.00    -0.297 OA
BRANCH  22  25
HETATM   25  C9  UNL     1      -4.823  -2.467  -0.491  1.00  0.00     0.222 C 
BRANCH  25  26
HETATM   26  N5  UNL     1      -5.475  -1.648   0.497  1.00  0.00    -0.218 N 
ATOM     27  H5  UNL     1      -5.751  -2.041   1.397  1.00  0.00     0.178 HD
BRANCH  26  28
HETATM   28  C10 UNL     1      -5.706  -0.400   0.222  1.00  0.00     0.678 A 
HETATM   29  N6  UNL     1      -5.360   0.162  -0.951  1.00  0.00    -0.202 N 
HETATM   30  C11 UNL     1      -5.600   1.454  -1.234  1.00  0.00     0.107 A 
ATOM     31  H6  UNL     1      -4.897  -0.415  -1.653  1.00  0.00     0.183 HD
HETATM   32  C12 UNL     1      -6.227   2.239  -0.283  1.00  0.00     0.035 A 
HETATM   33  C13 UNL     1      -6.581   1.673   0.913  1.00  0.00     0.107 A 
HETATM   34  N7  UNL     1      -6.310   0.358   1.140  1.00  0.00    -0.202 N 
ATOM     35  H7  UNL     1      -6.575  -0.058   2.033  1.00  0.00     0.183 HD
ENDBRANCH  26  28
ENDBRANCH  25  26
ENDBRANCH  22  25
ENDBRANCH  18  19
ENDBRANCH   7  18
BRANCH   1  36
HETATM   36  N1  UNL     1       2.186   2.859   2.813  1.00  0.00    -0.234 N 
ATOM     37  H12 UNL     1       2.925   3.445   3.201  1.00  0.00     0.174 HD
ATOM     38  H11 UNL     1       1.247   2.966   3.196  1.00  0.00     0.174 HD
ENDBRANCH   1  36
TORSDOF 6
