REMARK  9 active torsions:
REMARK  status: ('A' for Active; 'I' for Inactive)
REMARK    1  A    between atoms: O1_2  and  C2_3 
REMARK    2  A    between atoms: C3_4  and  O2_5 
REMARK    3  A    between atoms: C4_7  and  C5_8 
REMARK    4  A    between atoms: C12_19  and  C13_20 
REMARK    5  A    between atoms: C13_20  and  N3_21 
REMARK    6  A    between atoms: C13_20  and  N5_25 
REMARK    7  A    between atoms: N5_25  and  C15_27 
REMARK    8  A    between atoms: C15_27  and  N6_28 
REMARK    9  A    between atoms: C15_27  and  O3_32 
ROOT
HETATM    1  C2  UNL     1      -0.223  -0.250  -1.390  1.00  0.00     0.118 A 
HETATM    2  C3  UNL     1       1.156  -0.511  -1.467  1.00  0.00     0.127 A 
HETATM    3  C4  UNL     1       2.014  -0.253  -0.420  1.00  0.00     0.069 A 
HETATM    4  N2  UNL     1       1.475   0.266   0.695  1.00  0.00    -0.363 N 
ATOM      5  H2  UNL     1       2.083   0.469   1.489  1.00  0.00     0.165 HD
HETATM    6  C11 UNL     1       0.156   0.528   0.799  1.00  0.00     0.106 A 
HETATM    7  C12 UNL     1      -0.737   0.273  -0.257  1.00  0.00     0.059 A 
ENDROOT
BRANCH   7   8
HETATM    8  C13 UNL     1      -1.999   0.595  -0.111  1.00  0.00     0.119 C 
BRANCH   8   9
HETATM    9  N3  UNL     1      -2.922   0.416  -1.143  1.00  0.00    -0.340 N 
HETATM   10  C14 UNL     1      -3.867   1.221  -1.448  1.00  0.00     0.191 C 
HETATM   11  N4  UNL     1      -4.749   0.949  -2.514  1.00  0.00    -0.097 NA
ATOM     12  H3  UNL     1      -2.835  -0.432  -1.703  1.00  0.00     0.167 HD
ENDBRANCH   8   9
BRANCH   8  13
HETATM   13  N5  UNL     1      -2.482   1.145   1.131  1.00  0.00    -0.327 N 
ATOM     14  H5  UNL     1      -2.089   2.029   1.455  1.00  0.00     0.165 HD
BRANCH  13  15
HETATM   15  C15 UNL     1      -3.480   0.516   1.927  1.00  0.00     0.425 C 
BRANCH  15  16
HETATM   16  N6  UNL     1      -3.039  -0.821   2.352  1.00  0.00    -0.035 N 
ATOM     17  H63 UNL     1      -2.769  -1.400   1.557  1.00  0.00     0.279 HD
ATOM     18  H62 UNL     1      -2.139  -0.788   2.831  1.00  0.00     0.279 HD
ATOM     19  H61 UNL     1      -3.754  -1.272   2.923  1.00  0.00     0.279 HD
ENDBRANCH  15  16
BRANCH  15  20
HETATM   20  O3  UNL     1      -3.784   1.207   3.086  1.00  0.00    -0.355 OA
ATOM     21  H3  UNL     1      -4.450   0.787   3.617  1.00  0.00     0.213 HD
ENDBRANCH  15  20
ENDBRANCH  13  15
ENDBRANCH   8  13
ENDBRANCH   7   8
BRANCH   1  22
HETATM   22  O1  UNL     1      -1.002  -0.547  -2.489  1.00  0.00    -0.352 OA
HETATM   23  C1  UNL     1      -1.517  -1.890  -2.583  1.00  0.00     0.210 C 
ENDBRANCH   1  22
BRANCH   2  24
HETATM   24  O2  UNL     1       1.686  -1.040  -2.621  1.00  0.00    -0.356 OA
ATOM     25  H2  UNL     1       2.618  -1.216  -2.673  1.00  0.00     0.218 HD
ENDBRANCH   2  24
BRANCH   3  26
HETATM   26  C5  UNL     1       3.311  -0.501  -0.500  1.00  0.00     0.045 C 
HETATM   27  C6  UNL     1       4.247  -0.249   0.564  1.00  0.00    -0.018 A 
HETATM   28  C7  UNL     1       4.538   1.013   1.015  1.00  0.00     0.014 A 
HETATM   29  C10 UNL     1       4.887  -1.310   1.167  1.00  0.00     0.099 A 
HETATM   30  C8  UNL     1       5.452   1.142   2.043  1.00  0.00     0.018 A 
HETATM   31  C9  UNL     1       6.056   0.044   2.603  1.00  0.00     0.087 A 
HETATM   32  N1  UNL     1       5.774  -1.177   2.165  1.00  0.00    -0.374 N 
ATOM     33  H1  UNL     1       6.221  -1.995   2.578  1.00  0.00     0.164 HD
ENDBRANCH   3  26
TORSDOF 9
