REMARK  6 active torsions:
REMARK  status: ('A' for Active; 'I' for Inactive)
REMARK       I    between atoms: C1_4  and  N3_6 
REMARK       I    between atoms: N3_6  and  C2_8 
REMARK    1  A    between atoms: C2_8  and  C3_10 
REMARK    2  A    between atoms: C4_14  and  C5_15 
REMARK    3  A    between atoms: C5_15  and  C6_16 
REMARK    4  A    between atoms: C6_16  and  N5_17 
REMARK    5  A    between atoms: C6_16  and  C7_21 
REMARK    6  A    between atoms: C7_21  and  N7_25 
ROOT
HETATM    1  C3  UNL     1       2.819   0.964  -1.022  1.00  0.00     0.182 A 
HETATM    2  N4  UNL     1       2.870   1.510  -2.242  1.00  0.00    -0.306 N 
ATOM      3  H4  UNL     1       3.687   1.692  -2.825  1.00  0.00     0.176 HD
HETATM    4  S1  UNL     1       1.250   1.823  -2.577  1.00  0.00     0.001 SA
HETATM    5  C4  UNL     1       0.580   1.234  -1.126  1.00  0.00     0.071 A 
HETATM    6  N8  UNL     1       1.654   0.830  -0.468  1.00  0.00    -0.334 N 
ATOM      7  H8  UNL     1       1.567   0.419   0.462  1.00  0.00     0.168 HD
ENDROOT
BRANCH   5   8
HETATM    8  C5  UNL     1      -0.854   1.165  -0.657  1.00  0.00     0.107 C 
BRANCH   8   9
HETATM    9  C6  UNL     1      -1.376  -0.178  -1.127  1.00  0.00     0.256 C 
BRANCH   9  10
HETATM   10  N5  UNL     1      -1.277  -0.216  -2.553  1.00  0.00    -0.068 N 
ATOM     11  H53 UNL     1      -1.748   0.569  -3.002  1.00  0.00     0.275 HD
ATOM     12  H52 UNL     1      -0.334  -0.020  -2.888  1.00  0.00     0.275 HD
ATOM     13  H51 UNL     1      -1.628  -1.120  -2.869  1.00  0.00     0.275 HD
ENDBRANCH   9  10
BRANCH   9  14
HETATM   14  C7  UNL     1      -2.711  -0.486  -0.613  1.00  0.00     0.104 C 
HETATM   15  N6  UNL     1      -3.690  -0.685  -1.428  1.00  0.00    -0.387 N 
ATOM     16  H62 UNL     1      -3.498  -0.619  -2.428  1.00  0.00     0.157 HD
ATOM     17  H61 UNL     1      -4.621  -0.900  -1.070  1.00  0.00     0.157 HD
BRANCH  14  18
HETATM   18  N7  UNL     1      -2.978  -0.578   0.776  1.00  0.00    -0.365 N 
HETATM   19  C8  UNL     1      -2.952  -1.860   1.453  1.00  0.00     0.150 C 
HETATM   20  C9  UNL     1      -3.737  -1.737   2.725  1.00  0.00     0.187 C 
HETATM   21  O2  UNL     1      -4.868  -0.959   2.536  1.00  0.00    -0.388 OA
HETATM   22  C10 UNL     1      -4.557   0.390   2.382  1.00  0.00     0.187 C 
HETATM   23  C11 UNL     1      -3.287   0.585   1.584  1.00  0.00     0.150 C 
ENDBRANCH  14  18
ENDBRANCH   9  14
ENDBRANCH   8   9
ENDBRANCH   5   8
BRANCH   1  24
HETATM   24  C2  UNL     1       4.065   0.530  -0.336  1.00  0.00     0.292 C 
HETATM   25  N3  UNL     1       5.326   0.686  -0.958  1.00  0.00    -0.295 N 
HETATM   26  C1  UNL     1       6.488   0.266  -0.285  1.00  0.00     0.188 C 
ATOM     27  H3  UNL     1       5.392   1.100  -1.888  1.00  0.00     0.171 HD
HETATM   28  N1  UNL     1       7.629   0.413  -0.862  1.00  0.00    -0.373 N 
HETATM   29  N2  UNL     1       6.473  -0.319   1.011  1.00  0.00    -0.064 NA
ATOM     30  H12 UNL     1       8.471   0.109  -0.374  1.00  0.00     0.158 HD
ATOM     31  H11 UNL     1       7.640   0.833  -1.792  1.00  0.00     0.158 HD
HETATM   32  O1  UNL     1       4.021   0.015   0.810  1.00  0.00    -0.264 OA
ENDBRANCH   1  24
TORSDOF 6
