REMARK  3 active torsions:
REMARK  status: ('A' for Active; 'I' for Inactive)
REMARK       I    between atoms: C1_4  and  N3_6 
REMARK    1  A    between atoms: N3_6  and  C2_8 
REMARK    2  A    between atoms: C3_11  and  N5_12 
REMARK    3  A    between atoms: N5_12  and  N6_13 
ROOT
HETATM    1  C2  UNL     1       0.338   0.371   0.656  1.00  0.00     0.683 A 
HETATM    2  N4  UNL     1      -0.257  -0.730   0.506  1.00  0.00    -0.199 N 
ATOM      3  H4  UNL     1       0.281  -1.568   0.726  1.00  0.00     0.180 HD
HETATM    4  C3  UNL     1      -1.607  -0.939   0.060  1.00  0.00     0.290 A 
HETATM    5  C4  UNL     1      -2.255   0.345  -0.219  1.00  0.00     0.231 A 
HETATM    6  O1  UNL     1      -3.457   0.284  -0.622  1.00  0.00    -0.286 OA
HETATM    7  C5  UNL     1      -1.567   1.602  -0.045  1.00  0.00     0.181 A 
HETATM    8  N7  UNL     1      -2.282   2.794  -0.343  1.00  0.00    -0.078 NA
HETATM    9  N8  UNL     1      -0.353   1.590   0.365  1.00  0.00    -0.175 N 
ATOM     10  H8  UNL     1       0.136   2.477   0.488  1.00  0.00     0.185 HD
ENDROOT
BRANCH   1  11
HETATM   11  N3  UNL     1       1.700   0.467   1.112  1.00  0.00    -0.164 N 
HETATM   12  C1  UNL     1       2.771   0.340   0.200  1.00  0.00     0.200 C 
HETATM   13  N1  UNL     1       2.537   0.199  -1.050  1.00  0.00    -0.373 N 
HETATM   14  N2  UNL     1       4.113   0.365   0.640  1.00  0.00    -0.063 NA
ATOM     15  H12 UNL     1       3.310   0.107  -1.709  1.00  0.00     0.158 HD
ATOM     16  H11 UNL     1       1.568   0.181  -1.368  1.00  0.00     0.158 HD
ATOM     17  H3  UNL     1       1.893   0.628   2.101  1.00  0.00     0.187 HD
ENDBRANCH   1  11
BRANCH   4  18
HETATM   18  N5  UNL     1      -1.637  -1.843  -1.073  1.00  0.00    -0.114 NA
BRANCH  18  19
HETATM   19  N6  UNL     1      -1.077  -3.057  -0.646  1.00  0.00    -0.346 N 
ATOM     20  H62 UNL     1      -0.720  -3.251   0.290  1.00  0.00     0.172 HD
ATOM     21  H61 UNL     1      -1.098  -3.693  -1.443  1.00  0.00     0.172 HD
ENDBRANCH  18  19
ENDBRANCH   4  18
TORSDOF 3
