REMARK  5 active torsions:
REMARK  status: ('A' for Active; 'I' for Inactive)
REMARK    1  A    between atoms: N1_1  and  C1_4 
REMARK    2  A    between atoms: C2_7  and  C3_8 
REMARK    3  A    between atoms: C3_8  and  S1_9 
REMARK    4  A    between atoms: S1_9  and  C4_10 
REMARK    5  A    between atoms: N9_26  and  O2_27 
ROOT
HETATM    1  C1  UNL     1      -2.279  -0.357  -1.269  1.00  0.00     0.713 A 
HETATM    2  N2  UNL     1      -0.961  -0.107  -1.150  1.00  0.00    -0.177 N 
ATOM      3  H2  UNL     1      -0.352  -0.325  -1.938  1.00  0.00     0.185 HD
HETATM    4  C2  UNL     1      -0.412   0.416  -0.042  1.00  0.00     0.123 A 
HETATM    5  N6  UNL     1      -1.227   0.699   0.992  1.00  0.00    -0.174 N 
ATOM      6  H6  UNL     1      -0.832   1.096   1.845  1.00  0.00     0.185 HD
HETATM    7  C6  UNL     1      -2.554   0.469   0.924  1.00  0.00     0.751 A 
HETATM    8  N7  UNL     1      -3.050  -0.055  -0.207  1.00  0.00     0.096 N 
HETATM    9  N8  UNL     1      -4.376  -0.198  -0.053  1.00  0.00    -0.213 N 
ATOM     10  H8  UNL     1      -5.030  -0.571  -0.741  1.00  0.00     0.193 HD
HETATM   11  C7  UNL     1      -4.678   0.242   1.178  1.00  0.00     0.382 A 
HETATM   12  O1  UNL     1      -5.831   0.261   1.673  1.00  0.00    -0.242 OA
HETATM   13  N9  UNL     1      -3.567   0.660   1.802  1.00  0.00     0.008 N 
ENDROOT
BRANCH   4  14
HETATM   14  C3  UNL     1       1.047   0.679   0.056  1.00  0.00     0.160 C 
BRANCH  14  15
HETATM   15  S1  UNL     1       1.879  -0.788   0.718  1.00  0.00    -0.085 SA
BRANCH  15  16
HETATM   16  C4  UNL     1       3.640  -0.530   0.858  1.00  0.00     0.160 A 
HETATM   17  N3  UNL     1       4.383   0.529   0.561  1.00  0.00    -0.331 N 
HETATM   18  C5  UNL     1       5.682   0.282   0.829  1.00  0.00     0.199 A 
ATOM     19  H3  UNL     1       4.023   1.405   0.184  1.00  0.00     0.168 HD
HETATM   20  N4  UNL     1       5.698  -0.982   1.305  1.00  0.00    -0.294 N 
HETATM   21  N5  UNL     1       4.476  -1.473   1.325  1.00  0.00    -0.279 N 
ATOM     22  H4  UNL     1       6.534  -1.483   1.605  1.00  0.00     0.187 HD
ATOM     23  H5  UNL     1       4.210  -2.406   1.640  1.00  0.00     0.189 HD
ENDBRANCH  15  16
ENDBRANCH  14  15
ENDBRANCH   4  14
BRANCH   1  24
HETATM   24  N1  UNL     1      -2.768  -0.862  -2.355  1.00  0.00    -0.232 N 
ATOM     25  H12 UNL     1      -2.184  -1.091  -3.159  1.00  0.00     0.174 HD
ATOM     26  H11 UNL     1      -3.766  -1.051  -2.445  1.00  0.00     0.174 HD
ENDBRANCH   1  24
BRANCH  13  27
HETATM   27  O2  UNL     1      -3.447   1.181   3.072  1.00  0.00    -0.265 OA
ATOM     28  H2  UNL     1      -4.158   1.315   3.688  1.00  0.00     0.246 HD
ENDBRANCH  13  27
TORSDOF 5
