REMARK  6 active torsions:
REMARK  status: ('A' for Active; 'I' for Inactive)
REMARK    1  A    between atoms: C3_3  and  N1_4 
REMARK    2  A    between atoms: C5_8  and  C6_9 
REMARK    3  A    between atoms: C8_13  and  N4_14 
REMARK    4  A    between atoms: N4_14  and  N5_16 
REMARK    5  A    between atoms: C10_21  and  O1_22 
REMARK    6  A    between atoms: C11_25  and  C12_26 
ROOT
HETATM    1  C1  UNL     1       5.463  -1.926   2.250  1.00  0.00     0.014 C 
HETATM    2  C2  UNL     1       4.494  -2.493   1.810  1.00  0.00    -0.096 C 
HETATM    3  C3  UNL     1       3.311  -3.176   1.290  1.00  0.00     0.242 C 
ENDROOT
BRANCH   3   4
HETATM    4  N1  UNL     1       2.453  -2.278   0.560  1.00  0.00    -0.278 N 
HETATM    5  N2  UNL     1       2.500  -2.011  -0.721  1.00  0.00    -0.307 N 
HETATM    6  C4  UNL     1       1.543  -1.128  -1.038  1.00  0.00     0.125 A 
ATOM      7  H2  UNL     1       3.166  -2.415  -1.380  1.00  0.00     0.186 HD
HETATM    8  C5  UNL     1       0.855  -0.830   0.139  1.00  0.00     0.064 A 
HETATM    9  C11 UNL     1       1.432  -1.554   1.128  1.00  0.00     0.105 A 
BRANCH   8  10
HETATM   10  C6  UNL     1      -0.253   0.093   0.182  1.00  0.00     0.165 A 
HETATM   11  N3  UNL     1      -0.632   0.682  -0.942  1.00  0.00    -0.333 N 
HETATM   12  C7  UNL     1      -1.704   1.598  -0.996  1.00  0.00     0.080 A 
ATOM     13  H3  UNL     1      -0.129   0.465  -1.803  1.00  0.00     0.168 HD
HETATM   14  C8  UNL     1      -2.037   2.155  -2.147  1.00  0.00     0.138 C 
HETATM   15  C9  UNL     1      -2.428   1.916   0.226  1.00  0.00     0.132 A 
HETATM   16  N6  UNL     1      -3.513   2.825   0.248  1.00  0.00    -0.095 NA
HETATM   17  C10 UNL     1      -2.040   1.317   1.360  1.00  0.00     0.212 A 
HETATM   18  O2  UNL     1      -0.997   0.458   1.277  1.00  0.00    -0.268 OA
BRANCH  14  19
HETATM   19  N4  UNL     1      -1.350   1.867  -3.359  1.00  0.00    -0.316 N 
ATOM     20  H4  UNL     1      -0.438   2.295  -3.518  1.00  0.00     0.185 HD
BRANCH  19  21
HETATM   21  N5  UNL     1      -1.874   1.023  -4.339  1.00  0.00    -0.345 N 
ATOM     22  H52 UNL     1      -2.787   0.604  -4.164  1.00  0.00     0.176 HD
ATOM     23  H51 UNL     1      -1.381   0.817  -5.208  1.00  0.00     0.176 HD
ENDBRANCH  19  21
ENDBRANCH  14  19
BRANCH  17  24
HETATM   24  O1  UNL     1      -2.728   1.615   2.536  1.00  0.00    -0.339 OA
ATOM     25  H1  UNL     1      -2.453   1.190   3.340  1.00  0.00     0.220 HD
ENDBRANCH  17  24
ENDBRANCH   8  10
BRANCH   9  26
HETATM   26  C12 UNL     1       1.110  -1.621   2.539  1.00  0.00     0.290 C 
HETATM   27  O3  UNL     1       0.211  -0.994   3.083  1.00  0.00    -0.300 OA
ENDBRANCH   9  26
ENDBRANCH   3   4
TORSDOF 6
