REMARK  4 active torsions:
REMARK  status: ('A' for Active; 'I' for Inactive)
REMARK    1  A    between atoms: O1_2  and  C2_3 
REMARK       I    between atoms: C2_3  and  N1_5 
REMARK    2  A    between atoms: N1_5  and  C3_7 
REMARK    3  A    between atoms: C6_14  and  N4_15 
REMARK    4  A    between atoms: N4_15  and  N5_17 
ROOT
HETATM    1  C3  UNL     1       0.209  -0.715  -0.170  1.00  0.00     0.147 C 
HETATM    2  C4  UNL     1      -0.314  -1.868   0.447  1.00  0.00     0.151 C 
HETATM    3  N2  UNL     1       0.584  -2.929   0.728  1.00  0.00    -0.080 NA
HETATM    4  N3  UNL     1      -1.619  -2.016   0.793  1.00  0.00    -0.307 N 
ATOM      5  H3  UNL     1      -1.847  -2.901   1.246  1.00  0.00     0.170 HD
HETATM    6  C5  UNL     1      -2.675  -1.162   0.628  1.00  0.00     0.292 C 
HETATM    7  O3  UNL     1      -3.764  -1.567   1.111  1.00  0.00    -0.264 OA
HETATM    8  C6  UNL     1      -2.713   0.071   0.011  1.00  0.00     0.192 C 
HETATM    9  N6  UNL     1      -1.756   0.649  -0.747  1.00  0.00    -0.302 N 
ATOM     10  H6  UNL     1      -1.981   1.544  -1.182  1.00  0.00     0.171 HD
HETATM   11  C7  UNL     1      -0.528   0.141  -0.976  1.00  0.00     0.277 C 
HETATM   12  O4  UNL     1       0.051   0.473  -2.067  1.00  0.00    -0.266 OA
ENDROOT
BRANCH   1  13
HETATM   13  N1  UNL     1       1.565  -0.513   0.060  1.00  0.00    -0.295 N 
HETATM   14  C2  UNL     1       2.352   0.635  -0.115  1.00  0.00     0.365 C 
HETATM   15  O2  UNL     1       1.872   1.704  -0.524  1.00  0.00    -0.238 OA
ATOM     16  H1  UNL     1       2.067  -1.328   0.412  1.00  0.00     0.171 HD
BRANCH  14  17
HETATM   17  O1  UNL     1       3.725   0.654   0.158  1.00  0.00    -0.309 OA
HETATM   18  C1  UNL     1       4.519   1.788  -0.011  1.00  0.00     0.215 C 
ENDBRANCH  14  17
ENDBRANCH   1  13
BRANCH   8  19
HETATM   19  N4  UNL     1      -3.790   0.749   0.179  1.00  0.00    -0.287 N 
ATOM     20  H4  UNL     1      -4.532   0.340   0.747  1.00  0.00     0.188 HD
BRANCH  19  21
HETATM   21  N5  UNL     1      -4.003   2.007  -0.367  1.00  0.00    -0.343 N 
ATOM     22  H52 UNL     1      -3.250   2.401  -0.932  1.00  0.00     0.176 HD
ATOM     23  H51 UNL     1      -4.859   2.546  -0.234  1.00  0.00     0.176 HD
ENDBRANCH  19  21
ENDBRANCH   8  19
TORSDOF 4
