REMARK  1 active torsions:
REMARK  status: ('A' for Active; 'I' for Inactive)
REMARK       I    between atoms: C1_4  and  N3_6 
REMARK    1  A    between atoms: C3_12  and  N6_13 
ROOT
HETATM    1  N1  UNL     1      -2.222   0.011  -0.907  1.00  0.00    -0.372 N 
ATOM      2  H11 UNL     1      -1.877  -0.470  -1.738  1.00  0.00     0.158 HD
ATOM      3  H12 UNL     1      -3.195   0.311  -0.846  1.00  0.00     0.158 HD
HETATM    4  C1  UNL     1      -1.413   0.235   0.063  1.00  0.00     0.207 C 
HETATM    5  N2  UNL     1      -1.892   0.902   1.216  1.00  0.00    -0.062 NA
HETATM    6  N3  UNL     1      -0.063  -0.181  -0.021  1.00  0.00    -0.190 N 
HETATM    7  N4  UNL     1       0.376  -1.395   0.316  1.00  0.00    -0.008 NA
HETATM    8  N5  UNL     1       1.683  -1.470   0.123  1.00  0.00    -0.246 N 
ATOM      9  H5  UNL     1       2.277  -2.281   0.297  1.00  0.00     0.187 HD
HETATM   10  C2  UNL     1       2.080  -0.273  -0.347  1.00  0.00     0.303 A 
HETATM   11  O1  UNL     1       3.264   0.063  -0.658  1.00  0.00    -0.263 OA
HETATM   12  C3  UNL     1       0.985   0.557  -0.445  1.00  0.00     0.192 A 
ENDROOT
BRANCH  12  13
HETATM   13  N6  UNL     1       0.992   1.777  -0.858  1.00  0.00    -0.380 N 
ATOM     14  H62 UNL     1       0.181   2.392  -0.931  1.00  0.00     0.158 HD
ATOM     15  H61 UNL     1       1.784   2.335  -1.178  1.00  0.00     0.158 HD
ENDBRANCH  12  13
TORSDOF 1
