REMARK  7 active torsions:
REMARK  status: ('A' for Active; 'I' for Inactive)
REMARK    1  A    between atoms: C2_2  and  C3_3 
REMARK    2  A    between atoms: C3_3  and  N1_4 
REMARK       I    between atoms: N2_7  and  C6_8 
REMARK    3  A    between atoms: C6_8  and  C7_10 
REMARK    4  A    between atoms: C7_10  and  C8_11 
REMARK    5  A    between atoms: C16_20  and  C17_21 
REMARK    6  A    between atoms: N3_24  and  C20_25 
REMARK    7  A    between atoms: C27_35  and  O5_36 
ROOT
HETATM    1  C8  UNL     1      -1.831  -0.938  -0.175  1.00  0.00     0.000 C 
HETATM    2  C9  UNL     1      -1.108  -0.644  -1.444  1.00  0.00     0.045 C 
HETATM    3  C10 UNL     1       0.191   0.049  -1.022  1.00  0.00     0.208 C 
HETATM    4  F1  UNL     1      -0.034   1.392  -0.738  1.00  0.00    -0.246 F 
HETATM    5  C11 UNL     1       0.509  -0.694   0.247  1.00  0.00     0.127 C 
HETATM    6  C12 UNL     1       1.159  -2.021  -0.091  1.00  0.00     0.047 C 
HETATM    7  C13 UNL     1       2.613  -2.043   0.293  1.00  0.00     0.045 C 
HETATM    8  C14 UNL     1       3.272  -0.679   0.243  1.00  0.00     0.101 A 
HETATM    9  C15 UNL     1       4.494  -0.615  -0.670  1.00  0.00     0.050 A 
HETATM   10  C16 UNL     1       4.642  -0.526   0.802  1.00  0.00     0.030 A 
HETATM   11  O3  UNL     1       2.386   0.373   0.251  1.00  0.00    -0.228 OA
HETATM   12  O4  UNL     1       1.380   0.065   1.053  1.00  0.00    -0.226 OA
HETATM   13  C25 UNL     1      -0.796  -0.856   0.944  1.00  0.00     0.049 C 
ENDROOT
BRANCH   1  14
HETATM   14  C7  UNL     1      -2.948  -0.001   0.164  1.00  0.00     0.108 C 
BRANCH  14  15
HETATM   15  C6  UNL     1      -4.042   0.055  -0.809  1.00  0.00     0.220 C 
HETATM   16  N2  UNL     1      -5.281  -0.633  -0.714  1.00  0.00    -0.346 N 
HETATM   17  C5  UNL     1      -6.283  -0.492  -1.774  1.00  0.00     0.156 C 
HETATM   18  C26 UNL     1      -5.638  -1.492   0.379  1.00  0.00     0.190 C 
HETATM   19  C4  UNL     1      -7.443  -1.353  -1.400  1.00  0.00     0.295 C 
HETATM   20  N1  UNL     1      -8.015  -0.986  -0.113  1.00  0.00     0.120 N 
HETATM   21  C27 UNL     1      -7.035  -1.218   0.930  1.00  0.00     0.374 C 
HETATM   22  O1  UNL     1      -3.855   0.795  -1.835  1.00  0.00    -0.273 OA
BRANCH  20  23
HETATM   23  C3  UNL     1      -8.364   0.426  -0.196  1.00  0.00     0.275 C 
BRANCH  23  24
HETATM   24  C2  UNL     1      -9.107   0.933   1.002  1.00  0.00     0.026 C 
HETATM   25  C1  UNL     1      -9.382   2.414   0.760  1.00  0.00     0.007 C 
ENDBRANCH  23  24
ENDBRANCH  20  23
BRANCH  21  26
HETATM   26  O5  UNL     1      -7.415  -2.405   1.603  1.00  0.00    -0.366 OA
ATOM     27  H5  UNL     1      -6.773  -2.557   2.286  1.00  0.00     0.212 HD
ENDBRANCH  21  26
ENDBRANCH  14  15
ENDBRANCH   1  14
BRANCH  10  28
HETATM   28  C17 UNL     1       5.039   0.764   1.462  1.00  0.00    -0.004 C 
HETATM   29  C18 UNL     1       5.048   1.963   0.593  1.00  0.00     0.035 C 
HETATM   30  C19 UNL     1       6.321   2.210  -0.177  1.00  0.00     0.273 C 
HETATM   31  N3  UNL     1       7.510   1.775   0.424  1.00  0.00     0.097 N 
HETATM   32  C23 UNL     1       7.351   1.682   1.856  1.00  0.00     0.273 C 
HETATM   33  C24 UNL     1       6.309   0.661   2.242  1.00  0.00     0.035 C 
BRANCH  31  34
HETATM   34  C20 UNL     1       8.189   0.664  -0.070  1.00  0.00     0.270 C 
HETATM   35  C21 UNL     1       8.764   0.652  -1.432  1.00  0.00     0.205 C 
HETATM   36  O2  UNL     1       9.978   1.198  -0.979  1.00  0.00    -0.387 OA
HETATM   37  C22 UNL     1       9.662   0.690   0.281  1.00  0.00     0.205 C 
ENDBRANCH  31  34
ENDBRANCH  10  28
TORSDOF 7
