REMARK  7 active torsions:
REMARK  status: ('A' for Active; 'I' for Inactive)
REMARK    1  A    between atoms: C2_2  and  C3_3 
REMARK    2  A    between atoms: C5_5  and  N1_6 
REMARK    3  A    between atoms: N1_6  and  C6_8 
REMARK    4  A    between atoms: C14_20  and  C15_21 
REMARK    5  A    between atoms: C15_21  and  N4_22 
REMARK    6  A    between atoms: N6_30  and  C20_31 
REMARK    7  A    between atoms: C20_31  and  C21_32 
ROOT
HETATM    1  C15 UNL     1      -0.619   1.270   1.730  1.00  0.00     0.133 C 
ENDROOT
BRANCH   1   2
HETATM    2  C14 UNL     1       0.799   1.480   1.519  1.00  0.00    -0.008 A 
HETATM    3  C3  UNL     1       1.443   1.900   0.409  1.00  0.00    -0.023 A 
HETATM    4  C4  UNL     1       2.848   2.038   0.352  1.00  0.00     0.042 A 
HETATM    5  C5  UNL     1       3.607   1.743   1.451  1.00  0.00     0.050 A 
HETATM    6  C12 UNL     1       2.998   1.318   2.594  1.00  0.00     0.031 A 
HETATM    7  C13 UNL     1       1.651   1.195   2.619  1.00  0.00     0.016 A 
BRANCH   3   8
HETATM    8  C2  UNL     1       0.759   2.277  -0.837  1.00  0.00     0.002 C 
HETATM    9  C1  UNL     1       1.334   2.039  -1.999  1.00  0.00     0.012 C 
ENDBRANCH   3   8
BRANCH   5  10
HETATM   10  N1  UNL     1       5.012   1.887   1.371  1.00  0.00    -0.192 N 
ATOM     11  H1  UNL     1       5.429   2.712   1.802  1.00  0.00     0.184 HD
BRANCH  10  12
HETATM   12  C6  UNL     1       5.799   1.053   0.794  1.00  0.00     0.683 A 
HETATM   13  N2  UNL     1       7.128   1.325   0.797  1.00  0.00    -0.196 N 
HETATM   14  C7  UNL     1       8.009   0.489   0.208  1.00  0.00     0.024 A 
ATOM     15  H2  UNL     1       7.466   2.173   1.251  1.00  0.00     0.184 HD
HETATM   16  C8  UNL     1       9.457   0.838   0.242  1.00  0.00     0.068 C 
HETATM   17  C9  UNL     1       7.581  -0.657  -0.411  1.00  0.00     0.050 A 
HETATM   18  C10 UNL     1       6.223  -0.928  -0.410  1.00  0.00     0.024 A 
HETATM   19  C11 UNL     1       5.748  -2.178  -1.083  1.00  0.00     0.068 C 
HETATM   20  N3  UNL     1       5.385  -0.067   0.189  1.00  0.00    -0.196 N 
ATOM     21  H3  UNL     1       4.387  -0.276   0.183  1.00  0.00     0.184 HD
ENDBRANCH  10  12
ENDBRANCH   5  10
ENDBRANCH   1   2
BRANCH   1  22
HETATM   22  N4  UNL     1      -1.268   0.137   1.144  1.00  0.00    -0.206 N 
HETATM   23  C16 UNL     1      -0.982  -1.113   1.605  1.00  0.00     0.336 A 
HETATM   24  O1  UNL     1      -0.076  -1.318   2.484  1.00  0.00    -0.260 OA
HETATM   25  C17 UNL     1      -1.693  -2.163   1.102  1.00  0.00     0.331 A 
HETATM   26  O2  UNL     1      -1.424  -3.326   1.530  1.00  0.00    -0.261 OA
HETATM   27  N5  UNL     1      -2.666  -2.054   0.176  1.00  0.00    -0.145 N 
HETATM   28  C18 UNL     1      -3.309  -3.208  -0.362  1.00  0.00     0.179 C 
HETATM   29  C19 UNL     1      -2.945  -0.803  -0.268  1.00  0.00     0.711 A 
HETATM   30  N6  UNL     1      -3.863  -0.382  -1.144  1.00  0.00    -0.186 N 
HETATM   31  N7  UNL     1      -2.224   0.256   0.239  1.00  0.00    -0.086 N 
HETATM   32  C27 UNL     1      -3.753   0.989  -1.230  1.00  0.00     0.129 A 
HETATM   33  C28 UNL     1      -2.758   1.335  -0.382  1.00  0.00     0.153 A 
BRANCH  30  34
HETATM   34  C20 UNL     1      -4.928  -1.032  -1.858  1.00  0.00     0.185 C 
BRANCH  34  35
HETATM   35  C21 UNL     1      -6.234  -0.747  -1.156  1.00  0.00    -0.039 A 
HETATM   36  C22 UNL     1      -6.935   0.390  -1.576  1.00  0.00     0.012 A 
HETATM   37  C23 UNL     1      -8.137   0.792  -1.037  1.00  0.00     0.043 A 
HETATM   38  C24 UNL     1      -8.680   0.015  -0.017  1.00  0.00     0.116 A 
HETATM   39  F1  UNL     1      -9.862   0.415   0.509  1.00  0.00    -0.206 F 
HETATM   40  C25 UNL     1      -8.006  -1.101   0.405  1.00  0.00     0.043 A 
HETATM   41  C26 UNL     1      -6.786  -1.479  -0.166  1.00  0.00     0.012 A 
ENDBRANCH  34  35
ENDBRANCH  30  34
ENDBRANCH   1  22
TORSDOF 7
