REMARK  6 active torsions:
REMARK  status: ('A' for Active; 'I' for Inactive)
REMARK    1  A    between atoms: O1_2  and  C2_3 
REMARK    2  A    between atoms: C7_8  and  O2_9 
REMARK    3  A    between atoms: C9_11  and  C10_12 
REMARK    4  A    between atoms: N1_14  and  N2_15 
REMARK    5  A    between atoms: N2_15  and  C12_16 
REMARK    6  A    between atoms: N3_27  and  C20_28 
ROOT
HETATM    1  C20 UNL     1      -0.471  -2.524   2.934  1.00  0.00     0.256 C 
HETATM    2  C21 UNL     1      -0.352  -3.702   2.112  1.00  0.00     0.079 C 
HETATM    3  N4  UNL     1      -0.273  -4.671   1.458  1.00  0.00    -0.196 NA
ENDROOT
BRANCH   1   4
HETATM    4  N3  UNL     1       0.376  -1.414   2.446  1.00  0.00    -0.299 N 
HETATM    5  C9  UNL     1       0.058  -0.370   1.552  1.00  0.00     0.065 C 
HETATM    6  C5  UNL     1       1.334   0.152   1.045  1.00  0.00     0.011 A 
HETATM    7  C4  UNL     1       2.294  -0.208   1.915  1.00  0.00     0.048 A 
HETATM    8  C6  UNL     1       1.653   1.007  -0.029  1.00  0.00     0.054 A 
HETATM    9  C3  UNL     1       3.627   0.217   1.844  1.00  0.00     0.057 A 
HETATM   10  C22 UNL     1       1.715  -1.212   2.845  1.00  0.00     0.260 C 
HETATM   11  C2  UNL     1       3.959   1.080   0.771  1.00  0.00     0.102 A 
HETATM   12  C7  UNL     1       2.929   1.432  -0.123  1.00  0.00     0.102 A 
HETATM   13  O5  UNL     1       2.345  -1.760   3.811  1.00  0.00    -0.267 OA
BRANCH   5  14
HETATM   14  C10 UNL     1      -1.033  -0.425   0.634  1.00  0.00     0.061 A 
HETATM   15  C11 UNL     1      -0.967  -1.010  -0.601  1.00  0.00     0.148 A 
HETATM   16  N1  UNL     1      -1.986  -0.950  -1.515  1.00  0.00    -0.198 N 
HETATM   17  C13 UNL     1      -3.153  -0.266  -1.179  1.00  0.00     0.083 A 
HETATM   18  C14 UNL     1      -4.216  -0.218  -2.066  1.00  0.00     0.035 A 
HETATM   19  C18 UNL     1      -3.249   0.323   0.053  1.00  0.00     0.046 A 
HETATM   20  C15 UNL     1      -5.376   0.424  -1.702  1.00  0.00     0.021 A 
HETATM   21  C16 UNL     1      -5.504   1.024  -0.474  1.00  0.00     0.012 A 
HETATM   22 BR1  UNL     1      -7.119   1.906   0.073  1.00  0.00    -0.051 Br
HETATM   23  C17 UNL     1      -4.431   0.967   0.395  1.00  0.00     0.037 A 
HETATM   24  C19 UNL     1      -2.201   0.242   0.941  1.00  0.00     0.198 A 
HETATM   25  O4  UNL     1      -2.392   0.814   2.043  1.00  0.00    -0.286 OA
BRANCH  16  26
HETATM   26  N2  UNL     1      -2.028  -1.634  -2.643  1.00  0.00    -0.290 NA
BRANCH  26  27
HETATM   27  C12 UNL     1      -2.070  -2.323  -3.784  1.00  0.00     0.467 C 
HETATM   28  O3  UNL     1      -2.240  -1.946  -5.001  1.00  0.00    -0.266 OA
ENDBRANCH  26  27
ENDBRANCH  16  26
ENDBRANCH   5  14
BRANCH  11  29
HETATM   29  O1  UNL     1       5.169   1.499   0.661  1.00  0.00    -0.353 OA
HETATM   30  C1  UNL     1       6.427   1.769   0.782  1.00  0.00     0.210 C 
ENDBRANCH  11  29
BRANCH  12  31
HETATM   31  O2  UNL     1       3.286   2.277  -1.165  1.00  0.00    -0.353 OA
HETATM   32  C8  UNL     1       2.401   2.738  -2.149  1.00  0.00     0.210 C 
ENDBRANCH  12  31
ENDBRANCH   1   4
TORSDOF 6
