REMARK  12 active torsions:
REMARK  status: ('A' for Active; 'I' for Inactive)
REMARK    1  A    between atoms: C4_4  and  N1_5 
REMARK    2  A    between atoms: N1_5  and  N2_7 
REMARK       I    between atoms: N2_7  and  C5_9 
REMARK    3  A    between atoms: C5_9  and  C6_11 
REMARK    4  A    between atoms: C7_12  and  C8_13 
REMARK    5  A    between atoms: C8_13  and  O2_14 
REMARK    6  A    between atoms: C8_13  and  O3_16 
REMARK    7  A    between atoms: N4_23  and  N5_24 
REMARK    8  A    between atoms: C10_26  and  C11_27 
REMARK    9  A    between atoms: C14_30  and  N6_31 
REMARK   10  A    between atoms: C16_37  and  N7_38 
REMARK   11  A    between atoms: N7_38  and  O9_39 
REMARK   12  A    between atoms: N7_38  and  O10_41 
ROOT
HETATM    1  C1  UNL     1      -0.251  -3.838  -1.424  1.00  0.00     0.050 C 
HETATM    2  C2  UNL     1      -0.815  -2.838  -0.470  1.00  0.00    -0.027 A 
HETATM    3  C3  UNL     1      -0.025  -1.970   0.244  1.00  0.00     0.060 A 
HETATM    4  C4  UNL     1      -0.527  -1.047   1.123  1.00  0.00     0.145 A 
HETATM    5  N4  UNL     1      -1.860  -0.989   1.294  1.00  0.00    -0.201 N 
HETATM    6  C15 UNL     1      -2.658  -1.841   0.596  1.00  0.00     0.294 A 
HETATM    7  O8  UNL     1      -3.924  -1.813   0.735  1.00  0.00    -0.264 OA
HETATM    8  C16 UNL     1      -2.178  -2.775  -0.292  1.00  0.00     0.141 A 
ENDROOT
BRANCH   4   9
HETATM    9  N1  UNL     1       0.308  -0.165   1.857  1.00  0.00    -0.281 N 
ATOM     10  H1  UNL     1      -0.126   0.508   2.489  1.00  0.00     0.188 HD
BRANCH   9  11
HETATM   11  N2  UNL     1       1.707  -0.181   1.748  1.00  0.00    -0.264 N 
HETATM   12  C5  UNL     1       2.386   0.456   0.683  1.00  0.00     0.276 C 
HETATM   13  O1  UNL     1       1.679   1.067  -0.190  1.00  0.00    -0.266 OA
ATOM     14  H2  UNL     1       2.252  -0.668   2.460  1.00  0.00     0.190 HD
BRANCH  12  15
HETATM   15  C6  UNL     1       3.825   0.443   0.552  1.00  0.00     0.110 A 
HETATM   16  C7  UNL     1       4.559   1.256  -0.307  1.00  0.00     0.149 A 
HETATM   17  O4  UNL     1       5.844   0.946  -0.194  1.00  0.00    -0.235 OA
HETATM   18  N3  UNL     1       6.019   0.008   0.656  1.00  0.00    -0.249 N 
HETATM   19  C9  UNL     1       4.795  -0.342   1.151  1.00  0.00     0.139 A 
ATOM     20  H3  UNL     1       6.914  -0.406   0.918  1.00  0.00     0.196 HD
HETATM   21  S1  UNL     1       4.602  -1.525   2.251  1.00  0.00    -0.057 SA
BRANCH  16  22
HETATM   22  C8  UNL     1       4.112   2.302  -1.219  1.00  0.00     0.316 C 
BRANCH  22  23
HETATM   23  O2  UNL     1       5.008   3.395  -1.050  1.00  0.00    -0.365 OA
ATOM     24  H2  UNL     1       4.717   4.077  -1.644  1.00  0.00     0.213 HD
ENDBRANCH  22  23
BRANCH  22  25
HETATM   25  O3  UNL     1       4.302   1.910  -2.557  1.00  0.00    -0.365 OA
ATOM     26  H3  UNL     1       4.011   2.592  -3.151  1.00  0.00     0.213 HD
ENDBRANCH  22  25
ENDBRANCH  16  22
ENDBRANCH  12  15
ENDBRANCH   9  11
ENDBRANCH   4   9
BRANCH   5  27
HETATM   27  N5  UNL     1      -2.500  -0.128   2.138  1.00  0.00    -0.298 N 
HETATM   28  C10 UNL     1      -2.998   1.012   2.017  1.00  0.00     0.145 C 
ATOM     29  H5  UNL     1      -2.593  -0.500   3.083  1.00  0.00     0.186 HD
BRANCH  28  30
HETATM   30  C11 UNL     1      -3.082   1.882   0.881  1.00  0.00     0.095 A 
HETATM   31  C12 UNL     1      -2.616   1.697  -0.387  1.00  0.00     0.043 A 
HETATM   32  C13 UNL     1      -2.951   2.842  -1.132  1.00  0.00     0.065 A 
HETATM   33  C14 UNL     1      -3.608   3.655  -0.252  1.00  0.00     0.215 A 
HETATM   34  O7  UNL     1      -3.674   3.078   0.915  1.00  0.00    -0.287 OA
BRANCH  33  35
HETATM   35  N6  UNL     1      -4.147   4.953  -0.565  1.00  0.00    -0.090 N 
HETATM   36  O5  UNL     1      -4.021   5.400  -1.725  1.00  0.00    -0.530 OA
HETATM   37  O6  UNL     1      -4.785   5.669   0.414  1.00  0.00    -0.530 OA
ENDBRANCH  33  35
ENDBRANCH  28  30
ENDBRANCH   5  27
BRANCH   8  38
HETATM   38  N7  UNL     1      -3.029  -3.657  -1.018  1.00  0.00    -0.030 NA
BRANCH  38  39
HETATM   39  O9  UNL     1      -2.601  -4.935  -0.889  1.00  0.00    -0.284 OA
ATOM     40  H9  UNL     1      -3.169  -5.523  -1.373  1.00  0.00     0.240 HD
ENDBRANCH  38  39
BRANCH  38  41
HETATM   41  O10 UNL     1      -4.300  -3.615  -0.551  1.00  0.00    -0.284 OA
ATOM     42  H10 UNL     1      -4.868  -4.203  -1.035  1.00  0.00     0.240 HD
ENDBRANCH  38  41
ENDBRANCH   8  38
TORSDOF 12
