REMARK  6 active torsions:
REMARK  status: ('A' for Active; 'I' for Inactive)
REMARK    1  A    between atoms: C11_11  and  C12_12 
REMARK       I    between atoms: C12_12  and  N1_14 
REMARK    2  A    between atoms: N1_14  and  C13_16 
REMARK    3  A    between atoms: C13_16  and  C14_17 
REMARK    4  A    between atoms: C13_16  and  C16_20 
REMARK    5  A    between atoms: C14_17  and  C15_18 
REMARK       I    between atoms: C16_20  and  N2_22 
REMARK    6  A    between atoms: N2_22  and  C17_24 
ROOT
HETATM    1  C12 UNL     1      -1.304  -0.426  -0.744  1.00  0.00     0.223 C 
HETATM    2  O1  UNL     1      -0.888  -1.122  -1.725  1.00  0.00    -0.273 OA
HETATM    3  N1  UNL     1      -0.399  -0.245   0.328  1.00  0.00    -0.347 N 
ATOM      4  H1  UNL     1      -0.690   0.306   1.136  1.00  0.00     0.163 HD
ENDROOT
BRANCH   3   5
HETATM    5  C13 UNL     1       0.964  -0.836   0.308  1.00  0.00     0.177 C 
BRANCH   5   6
HETATM    6  C14 UNL     1       1.094  -1.794   1.438  1.00  0.00     0.046 C 
BRANCH   6   7
HETATM    7  C15 UNL     1       2.335  -2.547   1.628  1.00  0.00     0.088 C 
HETATM    8  S1  UNL     1       2.715  -3.639   0.199  1.00  0.00    -0.098 SA
ENDBRANCH   6   7
ENDBRANCH   5   6
BRANCH   5   9
HETATM    9  C16 UNL     1       1.963   0.256   0.283  1.00  0.00     0.240 C 
HETATM   10  O2  UNL     1       1.446   1.438   0.374  1.00  0.00    -0.271 OA
HETATM   11  N2  UNL     1       3.343   0.172   0.176  1.00  0.00    -0.355 N 
ATOM     12  H2  UNL     1       3.755  -0.758   0.100  1.00  0.00     0.162 HD
BRANCH  11  13
HETATM   13  C17 UNL     1       4.248   1.313   0.164  1.00  0.00     0.084 C 
HETATM   14  C18 UNL     1       4.999   1.456  -1.113  1.00  0.00     0.025 C 
HETATM   15  C19 UNL     1       6.327   0.795  -1.156  1.00  0.00     0.002 C 
HETATM   16  C20 UNL     1       7.129   1.238   0.075  1.00  0.00     0.000 C 
HETATM   17  C21 UNL     1       6.394   0.571   1.246  1.00  0.00     0.002 C 
HETATM   18  C22 UNL     1       5.084   1.259   1.392  1.00  0.00     0.025 C 
ENDBRANCH  11  13
ENDBRANCH   5   9
ENDBRANCH   3   5
BRANCH   1  19
HETATM   19  C11 UNL     1      -2.690   0.165  -0.741  1.00  0.00     0.090 C 
HETATM   20  C2  UNL     1      -3.449  -0.228  -1.958  1.00  0.00    -0.035 C 
HETATM   21  C1  UNL     1      -2.928   0.574  -3.138  1.00  0.00     0.015 C 
HETATM   22  C3  UNL     1      -3.406  -1.686  -2.305  1.00  0.00     0.015 C 
HETATM   23  C4  UNL     1      -4.917   0.112  -1.734  1.00  0.00     0.010 C 
HETATM   24  C5  UNL     1      -5.405  -0.825  -0.662  1.00  0.00     0.006 C 
HETATM   25  C6  UNL     1      -4.752  -0.412   0.622  1.00  0.00    -0.010 C 
HETATM   26  C7  UNL     1      -5.523   0.738   1.215  1.00  0.00     0.005 C 
HETATM   27  C10 UNL     1      -3.320  -0.086   0.572  1.00  0.00     0.003 C 
HETATM   28  C8  UNL     1      -4.529   1.845   1.295  1.00  0.00     0.001 C 
HETATM   29  C9  UNL     1      -3.197   1.156   1.436  1.00  0.00     0.006 C 
ENDBRANCH   1  19
TORSDOF 6
