REMARK  9 active torsions:
REMARK  status: ('A' for Active; 'I' for Inactive)
REMARK       I    between atoms: C1_4  and  N3_6 
REMARK    1  A    between atoms: N3_6  and  N4_8 
REMARK    2  A    between atoms: C2_10  and  O1_11 
REMARK    3  A    between atoms: C2_10  and  C3_13 
REMARK    4  A    between atoms: C3_13  and  N5_14 
REMARK    5  A    between atoms: C3_13  and  C4_18 
REMARK    6  A    between atoms: C5_20  and  N6_21 
REMARK    7  A    between atoms: N6_21  and  C6_23 
REMARK    8  A    between atoms: C7_26  and  N8_27 
REMARK    9  A    between atoms: C8_32  and  N10_33 
ROOT
HETATM    1  C4  UNL     1       0.322   0.879  -1.178  1.00  0.00     0.262 C 
HETATM    2  O2  UNL     1      -0.666   0.694  -0.185  1.00  0.00    -0.304 OA
HETATM    3  C5  UNL     1      -1.927   0.900  -0.746  1.00  0.00     0.241 C 
HETATM    4  N12 UNL     1      -1.763   1.588  -1.854  1.00  0.00    -0.290 N 
ATOM      5  H12 UNL     1      -2.519   1.884  -2.472  1.00  0.00     0.172 HD
HETATM    6  C9  UNL     1      -0.391   1.861  -2.070  1.00  0.00     0.257 C 
HETATM    7  O3  UNL     1       0.164   2.708  -2.813  1.00  0.00    -0.270 OA
ENDROOT
BRANCH   1   8
HETATM    8  C3  UNL     1       1.582   1.504  -0.619  1.00  0.00     0.297 C 
BRANCH   8   9
HETATM    9  C2  UNL     1       2.128   0.771   0.514  1.00  0.00     0.164 C 
HETATM   10  N4  UNL     1       3.311   0.340   0.555  1.00  0.00    -0.279 N 
ATOM     11  H4  UNL     1       3.560  -0.157   1.410  1.00  0.00     0.189 HD
BRANCH  10  12
HETATM   12  N3  UNL     1       4.320   0.436  -0.377  1.00  0.00    -0.272 N 
HETATM   13  C1  UNL     1       5.425   1.323  -0.238  1.00  0.00     0.200 C 
HETATM   14  N1  UNL     1       6.561   0.980  -0.782  1.00  0.00    -0.372 N 
HETATM   15  N2  UNL     1       5.364   2.545   0.451  1.00  0.00    -0.062 NA
ATOM     16  H12 UNL     1       7.353   1.615  -0.682  1.00  0.00     0.158 HD
ATOM     17  H11 UNL     1       6.605   0.092  -1.282  1.00  0.00     0.158 HD
ATOM     18  H3  UNL     1       4.274  -0.156  -1.206  1.00  0.00     0.189 HD
ENDBRANCH  10  12
BRANCH   9  19
HETATM   19  O1  UNL     1       1.307   0.528   1.618  1.00  0.00    -0.347 OA
ATOM     20  H1  UNL     1       0.415   0.853   1.587  1.00  0.00     0.219 HD
ENDBRANCH   9  19
ENDBRANCH   8   9
BRANCH   8  21
HETATM   21  N5  UNL     1       2.513   1.641  -1.702  1.00  0.00    -0.065 N 
ATOM     22  H53 UNL     1       3.384   2.064  -1.381  1.00  0.00     0.275 HD
ATOM     23  H52 UNL     1       2.867   0.730  -1.995  1.00  0.00     0.275 HD
ATOM     24  H51 UNL     1       2.130   2.155  -2.496  1.00  0.00     0.275 HD
ENDBRANCH   8  21
ENDBRANCH   1   8
BRANCH   3  25
HETATM   25  N6  UNL     1      -3.211   0.508  -0.320  1.00  0.00    -0.153 N 
ATOM     26  H6  UNL     1      -3.929   1.232  -0.329  1.00  0.00     0.188 HD
BRANCH  25  27
HETATM   27  C6  UNL     1      -3.582  -0.649   0.077  1.00  0.00     0.714 A 
HETATM   28  N7  UNL     1      -4.840  -0.911   0.463  1.00  0.00    -0.021 N 
HETATM   29  C7  UNL     1      -5.229  -2.118   0.875  1.00  0.00     0.705 A 
ATOM     30  H7  UNL     1      -5.526  -0.157   0.440  1.00  0.00     0.203 HD
HETATM   31  N9  UNL     1      -4.342  -3.122   0.910  1.00  0.00    -0.022 N 
HETATM   32  C8  UNL     1      -3.076  -2.894   0.530  1.00  0.00     0.705 A 
ATOM     33  H9  UNL     1      -4.627  -4.050   1.222  1.00  0.00     0.203 HD
HETATM   34  N11 UNL     1      -2.694  -1.654   0.112  1.00  0.00    -0.021 N 
ATOM     35  H11 UNL     1      -1.729  -1.490  -0.175  1.00  0.00     0.203 HD
BRANCH  29  36
HETATM   36  N8  UNL     1      -6.470  -2.339   1.247  1.00  0.00    -0.234 N 
ATOM     37  H82 UNL     1      -7.145  -1.575   1.220  1.00  0.00     0.174 HD
ATOM     38  H81 UNL     1      -6.768  -3.262   1.562  1.00  0.00     0.174 HD
ENDBRANCH  29  36
BRANCH  32  39
HETATM   39  N10 UNL     1      -2.187  -3.807   0.540  1.00  0.00    -0.234 N 
ATOM     40 2H10 UNL     1      -2.473  -4.735   0.853  1.00  0.00     0.174 HD
ATOM     41 1H10 UNL     1      -1.224  -3.634   0.251  1.00  0.00     0.174 HD
ENDBRANCH  32  39
ENDBRANCH  25  27
ENDBRANCH   3  25
TORSDOF 9
