REMARK  8 active torsions:
REMARK  status: ('A' for Active; 'I' for Inactive)
REMARK    1  A    between atoms: C2_2  and  O2_4 
REMARK    2  A    between atoms: O2_4  and  C3_5 
REMARK    3  A    between atoms: C3_5  and  C4_6 
REMARK    4  A    between atoms: C4_6  and  O3_7 
REMARK    5  A    between atoms: C4_6  and  C7_11 
REMARK    6  A    between atoms: O3_7  and  C5_8 
REMARK    7  A    between atoms: C9_13  and  O5_14 
REMARK    8  A    between atoms: O5_14  and  C10_15 
ROOT
HETATM    1  C7  UNL     1      -0.636   0.536   0.119  1.00  0.00     0.036 C 
HETATM    2  C8  UNL     1      -0.579   0.481   1.668  1.00  0.00     0.025 C 
HETATM    3  C9  UNL     1      -1.483   1.779  -0.113  1.00  0.00     0.147 C 
HETATM    4  C12 UNL     1      -0.855   2.781  -1.069  1.00  0.00     0.034 C 
HETATM    5  C13 UNL     1      -0.241   2.199  -2.266  1.00  0.00     0.011 C 
HETATM    6  C14 UNL     1       0.570   0.964  -1.940  1.00  0.00     0.016 C 
HETATM    7  C15 UNL     1       1.980   1.093  -2.559  1.00  0.00     0.010 C 
HETATM    8  C16 UNL     1       2.467  -0.338  -2.556  1.00  0.00     0.014 C 
HETATM    9  C17 UNL     1       2.756  -0.671  -1.109  1.00  0.00    -0.019 C 
HETATM   10  C18 UNL     1       2.805  -2.145  -0.950  1.00  0.00     0.020 C 
HETATM   11  C19 UNL     1       4.264  -0.292  -0.998  1.00  0.00     0.021 C 
HETATM   12  C20 UNL     1       4.615  -0.226   0.476  1.00  0.00     0.079 C 
HETATM   13  C21 UNL     1       3.612  -0.888   1.329  1.00  0.00     0.131 C 
HETATM   14  O7  UNL     1       3.950  -1.711   2.140  1.00  0.00    -0.298 OA
HETATM   15  C22 UNL     1       2.128  -0.561   1.220  1.00  0.00     0.113 C 
HETATM   16  C23 UNL     1       1.956   0.120  -0.109  1.00  0.00    -0.061 C 
HETATM   17  C24 UNL     1       0.704   0.766  -0.449  1.00  0.00    -0.059 C 
ENDROOT
BRANCH   1  18
HETATM   18  C4  UNL     1      -1.434  -0.639  -0.294  1.00  0.00     0.171 C 
BRANCH  18  19
HETATM   19  C3  UNL     1      -2.840  -0.679   0.311  1.00  0.00     0.212 C 
BRANCH  19  20
HETATM   20  O2  UNL     1      -2.874  -1.259   1.589  1.00  0.00    -0.319 OA
BRANCH  20  21
HETATM   21  C2  UNL     1      -4.080  -1.365   2.265  1.00  0.00     0.254 C 
HETATM   22  C1  UNL     1      -4.148  -1.976   3.623  1.00  0.00     0.126 C 
HETATM   23  O1  UNL     1      -5.128  -0.942   1.730  1.00  0.00    -0.266 OA
ENDBRANCH  20  21
ENDBRANCH  19  20
ENDBRANCH  18  19
BRANCH  18  24
HETATM   24  O3  UNL     1      -0.960  -1.894  -0.402  1.00  0.00    -0.313 OA
BRANCH  24  25
HETATM   25  C5  UNL     1      -0.974  -2.709  -1.473  1.00  0.00     0.255 C 
HETATM   26  C6  UNL     1      -0.457  -4.082  -1.594  1.00  0.00     0.126 C 
HETATM   27  O4  UNL     1      -1.506  -2.179  -2.454  1.00  0.00    -0.266 OA
ENDBRANCH  24  25
ENDBRANCH  18  24
ENDBRANCH   1  18
BRANCH   3  28
HETATM   28  O5  UNL     1      -1.638   2.584   1.062  1.00  0.00    -0.315 OA
BRANCH  28  29
HETATM   29  C10 UNL     1      -2.807   3.101   1.526  1.00  0.00     0.255 C 
HETATM   30  C11 UNL     1      -2.757   3.914   2.782  1.00  0.00     0.126 C 
HETATM   31  O6  UNL     1      -3.880   2.913   0.939  1.00  0.00    -0.266 OA
ENDBRANCH  28  29
ENDBRANCH   3  28
TORSDOF 8
