REMARK  13 active torsions:
REMARK  status: ('A' for Active; 'I' for Inactive)
REMARK       I    between atoms: C2_2  and  N1_4 
REMARK    1  A    between atoms: N1_4  and  O2_5 
REMARK    2  A    between atoms: N1_4  and  C3_7 
REMARK    3  A    between atoms: C3_7  and  C5_9 
REMARK    4  A    between atoms: C5_9  and  C7_11 
REMARK       I    between atoms: C7_11  and  N2_13 
REMARK    5  A    between atoms: N2_13  and  N3_15 
REMARK       I    between atoms: N3_15  and  C8_17 
REMARK    6  A    between atoms: C8_17  and  C9_19 
REMARK    7  A    between atoms: N4_21  and  C11_22 
REMARK    8  A    between atoms: C11_22  and  C12_23 
REMARK    9  A    between atoms: C12_23  and  O5_24 
REMARK   10  A    between atoms: C12_23  and  C13_26 
REMARK   11  A    between atoms: C16_29  and  O6_30 
REMARK   12  A    between atoms: C18_34  and  C19_35 
REMARK   13  A    between atoms: C21_37  and  C22_38 
ROOT
HETATM    1  C9  UNL     1       1.567   0.923   0.705  1.00  0.00     0.136 A 
HETATM    2  C10 UNL     1       0.488   0.896  -0.130  1.00  0.00     0.148 A 
HETATM    3  N4  UNL     1      -0.367   1.914   0.177  1.00  0.00    -0.284 N 
HETATM    4  N8  UNL     1       0.217   2.540   1.200  1.00  0.00    -0.240 N 
ATOM      5  H8  UNL     1      -0.172   3.357   1.671  1.00  0.00     0.208 HD
HETATM    6  N9  UNL     1       1.360   1.969   1.525  1.00  0.00    -0.280 N 
ATOM      7  H9  UNL     1       1.984   2.270   2.274  1.00  0.00     0.189 HD
ENDROOT
BRANCH   3   8
HETATM    8  C11 UNL     1      -1.618   2.237  -0.467  1.00  0.00     0.184 C 
BRANCH   8   9
HETATM    9  C12 UNL     1      -2.745   1.519   0.232  1.00  0.00     0.177 C 
BRANCH   9  10
HETATM   10  O5  UNL     1      -2.712   1.983   1.563  1.00  0.00    -0.390 OA
ATOM     11  H5  UNL     1      -3.422   1.531   2.003  1.00  0.00     0.210 HD
ENDBRANCH   9  10
BRANCH   9  12
HETATM   12  C13 UNL     1      -4.040   1.862  -0.336  1.00  0.00     0.121 C 
HETATM   13  C14 UNL     1      -4.522   3.296  -0.224  1.00  0.00     0.051 C 
HETATM   14  C15 UNL     1      -5.823   3.117  -1.036  1.00  0.00     0.077 C 
HETATM   15  C16 UNL     1      -5.659   1.599  -1.268  1.00  0.00     0.191 C 
HETATM   16  O7  UNL     1      -4.305   1.487  -1.660  1.00  0.00    -0.333 OA
HETATM   17  C17 UNL     1      -5.261   1.115   0.037  1.00  0.00     0.021 C 
HETATM   18  C18 UNL     1      -5.580   0.448   1.110  1.00  0.00     0.043 C 
BRANCH  15  19
HETATM   19  O6  UNL     1      -6.571   1.014  -2.042  1.00  0.00    -0.362 OA
ATOM     20  H6  UNL     1      -6.470   0.080  -2.185  1.00  0.00     0.213 HD
ENDBRANCH  15  19
BRANCH  18  21
HETATM   21  C19 UNL     1      -6.882  -0.205   1.210  1.00  0.00     0.058 A 
HETATM   22  C20 UNL     1      -7.492  -1.015   0.285  1.00  0.00     0.074 A 
HETATM   23  C21 UNL     1      -8.734  -1.356   0.820  1.00  0.00     0.141 A 
HETATM   24  O8  UNL     1      -8.814  -0.772   1.973  1.00  0.00    -0.234 OA
HETATM   25  N7  UNL     1      -7.755  -0.090   2.242  1.00  0.00    -0.261 N 
ATOM     26  H7  UNL     1      -7.598   0.449   3.093  1.00  0.00     0.195 HD
BRANCH  23  27
HETATM   27  C22 UNL     1      -9.731  -2.210   0.176  1.00  0.00     0.146 C 
HETATM   28  N5  UNL     1     -10.835  -2.426   0.771  1.00  0.00    -0.385 N 
ATOM     29  H52 UNL     1     -11.028  -2.012   1.683  1.00  0.00     0.157 HD
ATOM     30  H51 UNL     1     -11.530  -3.022   0.322  1.00  0.00     0.157 HD
HETATM   31  N6  UNL     1      -9.462  -2.786  -1.092  1.00  0.00    -0.080 NA
ENDBRANCH  23  27
ENDBRANCH  18  21
ENDBRANCH   9  12
ENDBRANCH   8   9
ENDBRANCH   3   8
BRANCH   1  32
HETATM   32  C8  UNL     1       2.720   0.036   0.714  1.00  0.00     0.289 C 
HETATM   33  N3  UNL     1       2.851  -0.983  -0.252  1.00  0.00    -0.262 N 
ATOM     34  H3  UNL     1       2.128  -1.104  -0.961  1.00  0.00     0.190 HD
HETATM   35  O4  UNL     1       3.597   0.187   1.589  1.00  0.00    -0.264 OA
BRANCH  33  36
HETATM   36  N2  UNL     1       3.960  -1.826  -0.246  1.00  0.00    -0.267 N 
HETATM   37  C7  UNL     1       5.250  -1.280  -0.442  1.00  0.00     0.241 C 
HETATM   38  O3  UNL     1       5.401  -0.056  -0.622  1.00  0.00    -0.271 OA
ATOM     39  H2  UNL     1       3.843  -2.829  -0.101  1.00  0.00     0.190 HD
BRANCH  37  40
HETATM   40  C5  UNL     1       6.423  -2.175  -0.432  1.00  0.00     0.100 C 
HETATM   41  C6  UNL     1       6.190  -3.185  -1.563  1.00  0.00     0.022 C 
BRANCH  40  42
HETATM   42  C3  UNL     1       7.741  -1.484  -0.592  1.00  0.00     0.126 C 
HETATM   43  C4  UNL     1       8.850  -2.550  -0.439  1.00  0.00     0.036 C 
BRANCH  42  44
HETATM   44  N1  UNL     1       8.001  -0.529   0.452  1.00  0.00    -0.224 N 
HETATM   45  C2  UNL     1       8.358   0.793   0.150  1.00  0.00     0.239 C 
HETATM   46  C1  UNL     1       8.590   1.769   1.272  1.00  0.00     0.119 C 
HETATM   47  O1  UNL     1       8.489   1.182  -1.016  1.00  0.00    -0.272 OA
BRANCH  44  48
HETATM   48  O2  UNL     1       7.885  -0.918   1.734  1.00  0.00    -0.284 OA
ATOM     49  H2  UNL     1       7.643  -1.814   1.939  1.00  0.00     0.245 HD
ENDBRANCH  44  48
ENDBRANCH  42  44
ENDBRANCH  40  42
ENDBRANCH  37  40
ENDBRANCH  33  36
ENDBRANCH   1  32
TORSDOF 13
