REMARK  9 active torsions:
REMARK  status: ('A' for Active; 'I' for Inactive)
REMARK    1  A    between atoms: C2_2  and  C4_4 
REMARK    2  A    between atoms: C4_4  and  C5_5 
REMARK    3  A    between atoms: C7_9  and  C8_10 
REMARK    4  A    between atoms: C8_10  and  N2_11 
REMARK    5  A    between atoms: C8_10  and  C16_21 
REMARK    6  A    between atoms: N2_11  and  C9_13 
REMARK    7  A    between atoms: C9_13  and  C10_14 
REMARK    8  A    between atoms: N4_28  and  C21_29 
REMARK    9  A    between atoms: C21_29  and  C22_30 
REMARK       I    between atoms: C22_30  and  N5_32 
ROOT
HETATM    1  C5  UNL     1      -1.952  -1.921   1.092  1.00  0.00     0.089 A 
HETATM    2  C6  UNL     1      -0.676  -2.351   0.957  1.00  0.00     0.115 A 
HETATM    3  N1  UNL     1       0.278  -1.542   0.505  1.00  0.00    -0.349 N 
ATOM      4  H1  UNL     1       1.222  -1.920   0.423  1.00  0.00     0.167 HD
HETATM    5  C7  UNL     1       0.077  -0.215   0.136  1.00  0.00     0.138 A 
HETATM    6  N4  UNL     1      -1.156   0.247   0.250  1.00  0.00    -0.288 N 
HETATM    7  C25 UNL     1      -2.127  -0.564   0.705  1.00  0.00     0.269 A 
HETATM    8  O2  UNL     1      -3.283  -0.093   0.801  1.00  0.00    -0.266 OA
ENDROOT
BRANCH   5   9
HETATM    9  C8  UNL     1       1.163   0.380  -0.248  1.00  0.00     0.085 C 
BRANCH   9  10
HETATM   10  N2  UNL     1       2.362  -0.488  -0.207  1.00  0.00    -0.382 N 
ATOM     11  H2  UNL     1       2.318  -1.428  -0.600  1.00  0.00     0.160 HD
BRANCH  10  12
HETATM   12  C9  UNL     1       3.580  -0.022   0.377  1.00  0.00     0.158 C 
BRANCH  12  13
HETATM   13  C10 UNL     1       4.554  -1.150   0.289  1.00  0.00    -0.040 A 
HETATM   14  C11 UNL     1       4.598  -2.067   1.318  1.00  0.00     0.012 A 
HETATM   15  C12 UNL     1       5.464  -3.139   1.301  1.00  0.00     0.043 A 
HETATM   16  C13 UNL     1       6.301  -3.292   0.233  1.00  0.00     0.116 A 
HETATM   17  F1  UNL     1       7.153  -4.370   0.244  1.00  0.00    -0.206 F 
HETATM   18  C14 UNL     1       6.285  -2.389  -0.818  1.00  0.00     0.043 A 
HETATM   19  C15 UNL     1       5.405  -1.328  -0.768  1.00  0.00     0.012 A 
ENDBRANCH  12  13
ENDBRANCH  10  12
ENDBRANCH   9  10
BRANCH   9  20
HETATM   20  C16 UNL     1       1.518   1.675  -0.710  1.00  0.00     0.009 A 
HETATM   21  C17 UNL     1       1.447   2.091  -2.023  1.00  0.00     0.016 A 
HETATM   22  C18 UNL     1       1.876   3.326  -2.413  1.00  0.00     0.018 A 
HETATM   23  C19 UNL     1       2.406   4.226  -1.502  1.00  0.00     0.087 A 
HETATM   24  N3  UNL     1       2.460   3.787  -0.233  1.00  0.00    -0.374 N 
HETATM   25  C20 UNL     1       2.060   2.604   0.194  1.00  0.00     0.101 A 
ATOM     26  H3  UNL     1       2.845   4.426   0.463  1.00  0.00     0.164 HD
ENDBRANCH   9  20
ENDBRANCH   5   9
BRANCH   6  27
HETATM   27  C21 UNL     1      -1.523   1.584  -0.122  1.00  0.00     0.236 C 
BRANCH  27  28
HETATM   28  C22 UNL     1      -2.071   1.722  -1.488  1.00  0.00     0.237 C 
HETATM   29  O1  UNL     1      -2.117   0.736  -2.234  1.00  0.00    -0.272 OA
HETATM   30  N5  UNL     1      -2.540   2.979  -1.930  1.00  0.00    -0.359 N 
HETATM   31  C23 UNL     1      -2.455   4.093  -1.000  1.00  0.00     0.152 C 
HETATM   32  C24 UNL     1      -3.094   3.215  -3.229  1.00  0.00     0.152 C 
ENDBRANCH  27  28
ENDBRANCH   6  27
BRANCH   1  33
HETATM   33  C4  UNL     1      -3.020  -2.476   1.561  1.00  0.00    -0.133 C 
BRANCH  33  34
HETATM   34  C2  UNL     1      -4.157  -3.075   2.064  1.00  0.00     0.049 C 
HETATM   35  C1  UNL     1      -4.545  -2.813   3.516  1.00  0.00     0.022 C 
HETATM   36  C3  UNL     1      -5.377  -2.653   1.165  1.00  0.00     0.022 C 
ENDBRANCH  33  34
ENDBRANCH   1  33
TORSDOF 9
