REMARK  3 active torsions:
REMARK  status: ('A' for Active; 'I' for Inactive)
REMARK    1  A    between atoms: C2_2  and  O1_5 
REMARK    2  A    between atoms: O1_5  and  C5_6 
REMARK    3  A    between atoms: C5_6  and  C6_7 
ROOT
HETATM    1  C6  UNL     1       1.543  -1.040  -0.741  1.00  0.00     0.133 C 
HETATM    2  C7  UNL     1       2.020  -1.442   0.639  1.00  0.00     0.206 C 
HETATM    3  O2  UNL     1       3.059  -0.525   0.956  1.00  0.00    -0.320 OA
HETATM    4  C8  UNL     1       3.353   0.272  -0.143  1.00  0.00     0.213 C 
HETATM    5  N1  UNL     1       4.069   1.370  -0.168  1.00  0.00    -0.365 N 
ATOM      6  H11 UNL     1       4.285   1.955  -0.975  1.00  0.00     0.159 HD
ATOM      7  H12 UNL     1       4.527   1.817   0.626  1.00  0.00     0.159 HD
HETATM    8  N2  UNL     1       2.714  -0.352  -1.252  1.00  0.00    -0.348 N 
ATOM      9  H2  UNL     1       3.022  -0.321  -2.224  1.00  0.00     0.163 HD
ENDROOT
BRANCH   1  10
HETATM   10  C5  UNL     1       0.430   0.003  -0.579  1.00  0.00     0.196 C 
BRANCH  10  11
HETATM   11  O1  UNL     1      -0.669  -0.645  -0.100  1.00  0.00    -0.379 OA
BRANCH  11  12
HETATM   12  C2  UNL     1      -1.780   0.100   0.119  1.00  0.00     0.050 C 
HETATM   13  C1  UNL     1      -2.328   0.797  -1.101  1.00  0.00     0.045 C 
HETATM   14  C3  UNL     1      -1.530   1.171   1.171  1.00  0.00     0.045 C 
HETATM   15  C4  UNL     1      -2.875  -0.817   0.648  1.00  0.00     0.045 C 
ENDBRANCH  11  12
ENDBRANCH  10  11
ENDBRANCH   1  10
TORSDOF 3
