REMARK  2 active torsions:
REMARK  status: ('A' for Active; 'I' for Inactive)
REMARK    1  A    between atoms: N1_1  and  C1_4 
REMARK    2  A    between atoms: N4_12  and  C4_14 
ROOT
HETATM    1  C1  UNL     1      -3.056  -1.005   0.770  1.00  0.00     0.694 A 
HETATM    2  N2  UNL     1      -3.389   0.179   0.223  1.00  0.00    -0.141 N 
ATOM      3  H2  UNL     1      -4.361   0.486   0.244  1.00  0.00     0.189 HD
HETATM    4  C2  UNL     1      -2.458   0.964  -0.351  1.00  0.00     0.352 A 
HETATM    5  O1  UNL     1      -2.782   2.085  -0.867  1.00  0.00    -0.246 OA
HETATM    6  N3  UNL     1      -1.148   0.598  -0.404  1.00  0.00    -0.140 N 
ATOM      7  H3  UNL     1      -0.447   1.197  -0.840  1.00  0.00     0.189 HD
HETATM    8  C3  UNL     1      -0.816  -0.578   0.138  1.00  0.00     0.697 A 
HETATM    9  N4  UNL     1       0.412  -0.966   0.112  1.00  0.00    -0.205 N 
ATOM     10  H4  UNL     1       0.669  -1.862   0.526  1.00  0.00     0.179 HD
HETATM   11  N6  UNL     1      -1.768  -1.368   0.719  1.00  0.00    -0.022 N 
ATOM     12  H6  UNL     1      -1.489  -2.261   1.126  1.00  0.00     0.203 HD
ENDROOT
BRANCH   9  13
HETATM   13  C4  UNL     1       1.414  -0.153  -0.490  1.00  0.00     0.262 C 
HETATM   14  C5  UNL     1       1.932   0.908   0.403  1.00  0.00     0.176 C 
HETATM   15  O2  UNL     1       1.363   1.381   1.347  1.00  0.00    -0.293 OA
HETATM   16  C6  UNL     1       3.276   1.264  -0.094  1.00  0.00     0.203 C 
HETATM   17  N5  UNL     1       3.786  -0.058  -0.494  1.00  0.00    -0.352 N 
HETATM   18  C7  UNL     1       2.692  -0.930  -0.714  1.00  0.00     0.248 C 
ATOM     19  H5  UNL     1       4.770  -0.306  -0.596  1.00  0.00     0.162 HD
HETATM   20  O3  UNL     1       2.731  -2.131  -1.037  1.00  0.00    -0.271 OA
ENDBRANCH   9  13
BRANCH   1  21
HETATM   21  N1  UNL     1      -3.939  -1.767   1.323  1.00  0.00    -0.234 N 
ATOM     22  H12 UNL     1      -4.920  -1.491   1.362  1.00  0.00     0.174 HD
ATOM     23  H11 UNL     1      -3.687  -2.664   1.737  1.00  0.00     0.174 HD
ENDBRANCH   1  21
TORSDOF 2
