REMARK  3 active torsions:
REMARK  status: ('A' for Active; 'I' for Inactive)
REMARK    1  A    between atoms: N1_1  and  N2_4 
REMARK       I    between atoms: C1_6  and  N4_8 
REMARK    2  A    between atoms: N4_8  and  N5_10 
REMARK       I    between atoms: N5_10  and  C2_12 
REMARK    3  A    between atoms: C2_12  and  C3_14 
ROOT
HETATM    1  N2  UNL     1      -2.195  -0.961   0.044  1.00  0.00    -0.279 N 
ATOM      2  H2  UNL     1      -1.945  -1.822  -0.443  1.00  0.00     0.189 HD
HETATM    3  C1  UNL     1      -1.622   0.148  -0.271  1.00  0.00     0.221 C 
HETATM    4  N3  UNL     1      -2.002   1.322   0.433  1.00  0.00    -0.061 NA
HETATM    5  N4  UNL     1      -0.630   0.195  -1.304  1.00  0.00    -0.269 N 
ATOM      6  H4  UNL     1      -0.877  -0.001  -2.274  1.00  0.00     0.190 HD
ENDROOT
BRANCH   5   7
HETATM    7  N5  UNL     1       0.674   0.513  -0.954  1.00  0.00    -0.260 N 
HETATM    8  C2  UNL     1       1.461  -0.296  -0.112  1.00  0.00     0.325 C 
HETATM    9  O1  UNL     1       1.013  -1.362   0.372  1.00  0.00    -0.261 OA
ATOM     10  H5  UNL     1       1.081   1.372  -1.323  1.00  0.00     0.190 HD
BRANCH   8  11
HETATM   11  C3  UNL     1       2.826   0.065   0.238  1.00  0.00     0.324 C 
HETATM   12  N6  UNL     1       3.656  -0.725   1.057  1.00  0.00    -0.053 NA
HETATM   13  O2  UNL     1       3.284   1.155  -0.228  1.00  0.00    -0.266 OA
ENDBRANCH   8  11
ENDBRANCH   5   7
BRANCH   1  14
HETATM   14  N1  UNL     1      -3.155  -0.983   1.048  1.00  0.00    -0.343 N 
ATOM     15  H12 UNL     1      -3.394  -0.114   1.525  1.00  0.00     0.176 HD
ATOM     16  H11 UNL     1      -3.609  -1.862   1.298  1.00  0.00     0.176 HD
ENDBRANCH   1  14
TORSDOF 3
