REMARK  0 active torsions:
REMARK  status: ('A' for Active; 'I' for Inactive)
ROOT
HETATM    1  N1  UNL     1      -2.269   1.725   0.697  1.00  0.00    -0.232 N 
ATOM      2  H11 UNL     1      -3.175   1.262   0.767  1.00  0.00     0.174 HD
ATOM      3  H12 UNL     1      -1.971   2.666   0.955  1.00  0.00     0.174 HD
HETATM    4  C1  UNL     1      -1.315   1.012   0.193  1.00  0.00     0.705 C 
HETATM    5  N2  UNL     1      -0.053   1.656   0.096  1.00  0.00    -0.128 N 
ATOM      6  H2  UNL     1      -0.146   2.672   0.110  1.00  0.00     0.205 HD
HETATM    7  N3  UNL     1       1.294   1.259  -0.014  1.00  0.00    -0.248 N 
ATOM      8  H3  UNL     1       1.913   2.056  -0.164  1.00  0.00     0.191 HD
HETATM    9  C2  UNL     1       2.012   0.034   0.030  1.00  0.00     0.316 C 
HETATM   10  O1  UNL     1       3.254   0.149   0.201  1.00  0.00    -0.262 OA
HETATM   11  C3  UNL     1       1.554  -1.348  -0.089  1.00  0.00     0.309 C 
HETATM   12  O2  UNL     1       2.531  -2.165  -0.043  1.00  0.00    -0.276 OA
HETATM   13  C4  UNL     1       0.261  -2.017  -0.247  1.00  0.00     0.316 C 
HETATM   14  O3  UNL     1       0.320  -3.257  -0.332  1.00  0.00    -0.262 OA
HETATM   15  N4  UNL     1      -1.064  -1.549  -0.325  1.00  0.00    -0.248 N 
ATOM     16  H4  UNL     1      -1.714  -2.301  -0.553  1.00  0.00     0.191 HD
HETATM   17  N5  UNL     1      -1.735  -0.313  -0.171  1.00  0.00    -0.128 N 
ATOM     18  H5  UNL     1      -2.735  -0.376  -0.360  1.00  0.00     0.205 HD
ENDROOT
TORSDOF 0
