REMARK  6 active torsions:
REMARK  status: ('A' for Active; 'I' for Inactive)
REMARK    1  A    between atoms: C1_4  and  C2_5 
REMARK    2  A    between atoms: C1_4  and  N3_13 
REMARK    3  A    between atoms: C2_5  and  C3_6 
REMARK    4  A    between atoms: C3_6  and  C4_7 
REMARK    5  A    between atoms: C4_7  and  C5_8 
REMARK    6  A    between atoms: C5_8  and  N2_9 
ROOT
HETATM    1  N1  UNL     1       1.562  -0.871  -1.927  1.00  0.00    -0.389 N 
ATOM      2  H11 UNL     1       0.925  -0.336  -2.517  1.00  0.00     0.157 HD
ATOM      3  H12 UNL     1       2.431  -1.195  -2.352  1.00  0.00     0.157 HD
HETATM    4  C1  UNL     1       1.370  -1.124  -0.685  1.00  0.00     0.072 C 
ENDROOT
BRANCH   4   5
HETATM    5  C2  UNL     1       2.282  -1.890   0.159  1.00  0.00     0.076 C 
BRANCH   5   6
HETATM    6  C3  UNL     1       3.709  -1.614  -0.076  1.00  0.00     0.009 C 
BRANCH   6   7
HETATM    7  C4  UNL     1       4.256  -0.285   0.237  1.00  0.00     0.027 C 
BRANCH   7   8
HETATM    8  C5  UNL     1       3.722   0.921  -0.424  1.00  0.00     0.229 C 
BRANCH   8   9
HETATM    9  N2  UNL     1       4.519   2.061   0.116  1.00  0.00    -0.079 N 
ATOM     10  H23 UNL     1       4.515   2.117   1.134  1.00  0.00     0.274 HD
ATOM     11  H22 UNL     1       5.526   1.945   0.005  1.00  0.00     0.274 HD
ATOM     12  H21 UNL     1       4.150   2.895  -0.341  1.00  0.00     0.274 HD
ENDBRANCH   8   9
ENDBRANCH   7   8
ENDBRANCH   6   7
ENDBRANCH   5   6
ENDBRANCH   4   5
BRANCH   4  13
HETATM   13  N3  UNL     1       0.143  -0.667  -0.085  1.00  0.00    -0.368 N 
HETATM   14  C6  UNL     1      -0.515  -1.587   0.806  1.00  0.00     0.143 C 
HETATM   15  C7  UNL     1      -1.923  -1.104   1.056  1.00  0.00     0.142 C 
HETATM   16  N4  UNL     1      -2.547  -0.507  -0.073  1.00  0.00    -0.386 N 
HETATM   17  C8  UNL     1      -3.934  -0.442   0.058  1.00  0.00     0.058 C 
HETATM   18  C12 UNL     1      -1.862   0.552  -0.699  1.00  0.00     0.101 C 
HETATM   19  C9  UNL     1      -4.625   0.841  -0.157  1.00  0.00     0.044 C 
HETATM   20  C10 UNL     1      -3.858   1.847  -0.978  1.00  0.00     0.007 C 
HETATM   21  C11 UNL     1      -2.461   1.912  -0.381  1.00  0.00     0.027 C 
HETATM   22  C13 UNL     1      -0.393   0.632  -0.361  1.00  0.00     0.149 C 
ENDBRANCH   4  13
TORSDOF 6
