REMARK  12 active torsions:
REMARK  status: ('A' for Active; 'I' for Inactive)
REMARK    1  A    between atoms: C2_2  and  C3_3 
REMARK    2  A    between atoms: C3_3  and  C5_5 
REMARK    3  A    between atoms: C7_10  and  C8_11 
REMARK    4  A    between atoms: C8_11  and  C9_12 
REMARK    5  A    between atoms: C13_19  and  C14_20 
REMARK    6  A    between atoms: C14_20  and  C15_21 
REMARK    7  A    between atoms: C17_28  and  C18_29 
REMARK    8  A    between atoms: C18_29  and  C19_30 
REMARK    9  A    between atoms: C23_37  and  C24_38 
REMARK   10  A    between atoms: C24_38  and  C25_39 
REMARK   11  A    between atoms: C29_46  and  C30_47 
REMARK   12  A    between atoms: C30_47  and  C31_48 
ROOT
HETATM    1  C5  UNL     1      -2.374  -0.878  -1.106  1.00  0.00     0.328 C 
HETATM    2  N1  UNL     1      -1.603   0.283  -1.266  1.00  0.00    -0.329 N 
ATOM      3  H1  UNL     1      -0.843   0.120  -1.927  1.00  0.00     0.164 HD
HETATM    4  C6  UNL     1      -1.566   1.581  -0.795  1.00  0.00     0.242 C 
HETATM    5  O1  UNL     1      -1.179   2.466  -1.663  1.00  0.00    -0.271 OA
HETATM    6  C7  UNL     1      -1.882   2.191   0.520  1.00  0.00     0.177 C 
HETATM    7  N2  UNL     1      -0.784   2.068   1.453  1.00  0.00    -0.346 N 
ATOM      8  H2  UNL     1      -0.907   1.309   2.124  1.00  0.00     0.163 HD
HETATM    9  C12 UNL     1       0.394   2.763   1.624  1.00  0.00     0.241 C 
HETATM   10  O2  UNL     1       0.650   3.242   2.796  1.00  0.00    -0.271 OA
HETATM   11  C13 UNL     1       1.498   3.097   0.692  1.00  0.00     0.186 C 
HETATM   12  N3  UNL     1       2.753   2.473   1.177  1.00  0.00    -0.346 N 
ATOM     13  H3  UNL     1       3.363   3.049   1.757  1.00  0.00     0.163 HD
HETATM   14  C16 UNL     1       3.173   1.174   0.913  1.00  0.00     0.241 C 
HETATM   15  O5  UNL     1       3.449   0.463   1.962  1.00  0.00    -0.271 OA
HETATM   16  C17 UNL     1       3.340   0.500  -0.394  1.00  0.00     0.177 C 
HETATM   17  N4  UNL     1       2.158  -0.174  -0.815  1.00  0.00    -0.346 N 
ATOM     18  H4  UNL     1       1.325   0.387  -0.633  1.00  0.00     0.163 HD
HETATM   19  C22 UNL     1       1.833  -1.384  -1.404  1.00  0.00     0.241 C 
HETATM   20  O6  UNL     1       1.590  -1.468  -2.675  1.00  0.00    -0.271 OA
HETATM   21  C23 UNL     1       1.694  -2.745  -0.775  1.00  0.00     0.177 C 
HETATM   22  N5  UNL     1       0.308  -3.172  -0.816  1.00  0.00    -0.346 N 
ATOM     23  H5  UNL     1       0.022  -3.539  -1.723  1.00  0.00     0.163 HD
HETATM   24  C28 UNL     1      -0.700  -3.181   0.125  1.00  0.00     0.252 C 
HETATM   25  O7  UNL     1      -1.147  -4.327   0.525  1.00  0.00    -0.271 OA
HETATM   26  C29 UNL     1      -1.402  -2.021   0.799  1.00  0.00     0.316 C 
HETATM   27  N6  UNL     1      -2.554  -1.570   0.096  1.00  0.00     0.121 N 
HETATM   28  C34 UNL     1      -3.322  -2.783  -0.205  1.00  0.00     0.314 C 
ENDROOT
BRANCH   1  29
HETATM   29  C3  UNL     1      -3.669  -0.614  -1.828  1.00  0.00     0.034 C 
HETATM   30  C4  UNL     1      -4.423   0.605  -1.360  1.00  0.00     0.014 C 
BRANCH  29  31
HETATM   31  C2  UNL     1      -3.374  -0.326  -3.320  1.00  0.00     0.004 C 
HETATM   32  C1  UNL     1      -4.672  -0.152  -4.028  1.00  0.00     0.005 C 
ENDBRANCH  29  31
ENDBRANCH   1  29
BRANCH  26  33
HETATM   33  C30 UNL     1      -1.738  -2.439   2.188  1.00  0.00     0.049 C 
BRANCH  33  34
HETATM   34  C31 UNL     1      -2.412  -1.476   3.069  1.00  0.00    -0.020 C 
HETATM   35  C32 UNL     1      -3.737  -0.979   2.645  1.00  0.00     0.009 C 
HETATM   36  C33 UNL     1      -2.629  -2.109   4.479  1.00  0.00     0.009 C 
ENDBRANCH  33  34
ENDBRANCH  26  33
BRANCH   6  37
HETATM   37  C8  UNL     1      -2.297   3.641   0.263  1.00  0.00     0.038 C 
BRANCH  37  38
HETATM   38  C9  UNL     1      -2.671   4.272   1.574  1.00  0.00    -0.020 C 
HETATM   39  C10 UNL     1      -3.075   5.727   1.318  1.00  0.00     0.009 C 
HETATM   40  C11 UNL     1      -3.873   3.536   2.198  1.00  0.00     0.009 C 
ENDBRANCH  37  38
ENDBRANCH   6  37
BRANCH  21  41
HETATM   41  C24 UNL     1       2.508  -3.666  -1.704  1.00  0.00     0.038 C 
BRANCH  41  42
HETATM   42  C25 UNL     1       2.506  -5.091  -1.268  1.00  0.00    -0.020 C 
HETATM   43  C26 UNL     1       3.076  -5.356   0.083  1.00  0.00     0.009 C 
HETATM   44  C27 UNL     1       3.370  -5.857  -2.282  1.00  0.00     0.009 C 
ENDBRANCH  41  42
ENDBRANCH  21  41
BRANCH  11  45
HETATM   45  C14 UNL     1       1.726   4.621   0.667  1.00  0.00     0.147 C 
BRANCH  45  46
HETATM   46  C15 UNL     1       2.836   4.923  -0.271  1.00  0.00     0.175 C 
HETATM   47  O3  UNL     1       4.024   4.682   0.039  1.00  0.00    -0.648 OA
HETATM   48  O4  UNL     1       2.639   5.486  -1.539  1.00  0.00    -0.648 OA
ENDBRANCH  45  46
ENDBRANCH  11  45
BRANCH  16  49
HETATM   49  C18 UNL     1       4.545  -0.373  -0.451  1.00  0.00     0.038 C 
BRANCH  49  50
HETATM   50  C19 UNL     1       5.874   0.241  -0.307  1.00  0.00    -0.020 C 
HETATM   51  C20 UNL     1       6.235   0.979   0.918  1.00  0.00     0.009 C 
HETATM   52  C21 UNL     1       6.243   1.131  -1.492  1.00  0.00     0.009 C 
ENDBRANCH  49  50
ENDBRANCH  16  49
TORSDOF 12
