REMARK  14 active torsions:
REMARK  status: ('A' for Active; 'I' for Inactive)
REMARK    1  A    between atoms: C2_2  and  C3_3 
REMARK    2  A    between atoms: C3_3  and  C5_5 
REMARK    3  A    between atoms: C6_8  and  O1_9 
REMARK    4  A    between atoms: C7_11  and  C8_12 
REMARK    5  A    between atoms: C8_12  and  C9_13 
REMARK    6  A    between atoms: C13_20  and  C14_21 
REMARK    7  A    between atoms: C14_21  and  C15_22 
REMARK    8  A    between atoms: C23_36  and  C24_37 
REMARK    9  A    between atoms: C24_37  and  C25_38 
REMARK   10  A    between atoms: C25_38  and  C26_39 
REMARK   11  A    between atoms: C26_39  and  C27_40 
REMARK   12  A    between atoms: C27_40  and  N5_41 
REMARK   13  A    between atoms: C29_49  and  C30_50 
REMARK   14  A    between atoms: C30_50  and  C31_51 
ROOT
HETATM    1  C5  UNL     1      -0.008  -2.815   0.040  1.00  0.00     0.084 C 
HETATM    2  N1  UNL     1      -0.882  -2.341   1.083  1.00  0.00    -0.334 N 
ATOM      3  H1  UNL     1      -0.957  -3.023   1.837  1.00  0.00     0.168 HD
HETATM    4  C6  UNL     1      -1.649  -1.217   1.348  1.00  0.00     0.163 C 
HETATM    5  C7  UNL     1      -2.952  -0.721   0.888  1.00  0.00     0.063 C 
HETATM    6  N2  UNL     1      -3.002  -0.277  -0.492  1.00  0.00    -0.325 N 
ATOM      7  H2  UNL     1      -2.337  -0.700  -1.140  1.00  0.00     0.169 HD
HETATM    8  C12 UNL     1      -3.899   0.701  -1.027  1.00  0.00     0.244 C 
HETATM    9  O2  UNL     1      -4.515   0.348  -2.061  1.00  0.00    -0.271 OA
HETATM   10  C13 UNL     1      -4.105   2.018  -0.433  1.00  0.00     0.177 C 
HETATM   11  N3  UNL     1      -2.820   2.789  -0.475  1.00  0.00    -0.348 N 
ATOM     12  H3  UNL     1      -2.210   2.660  -1.282  1.00  0.00     0.163 HD
HETATM   13  C18 UNL     1      -2.405   3.678   0.530  1.00  0.00     0.218 C 
HETATM   14  O3  UNL     1      -2.145   4.895   0.204  1.00  0.00    -0.274 OA
HETATM   15  C19 UNL     1      -2.223   3.376   1.967  1.00  0.00     0.104 C 
HETATM   16  C20 UNL     1      -0.753   3.438   2.287  1.00  0.00     0.029 C 
HETATM   17  C21 UNL     1       0.139   2.995   1.147  1.00  0.00     0.123 C 
HETATM   18  N4  UNL     1       1.483   3.420   1.532  1.00  0.00    -0.359 N 
ATOM     19  H4  UNL     1       1.660   4.424   1.565  1.00  0.00     0.162 HD
HETATM   20  C22 UNL     1       2.549   2.576   1.859  1.00  0.00     0.240 C 
HETATM   21  O4  UNL     1       3.201   2.735   2.953  1.00  0.00    -0.271 OA
HETATM   22  C23 UNL     1       3.047   1.429   1.014  1.00  0.00     0.177 C 
HETATM   23  N6  UNL     1       3.465   0.303   1.828  1.00  0.00    -0.342 N 
ATOM     24  H6  UNL     1       3.565   0.503   2.823  1.00  0.00     0.163 HD
HETATM   25  C28 UNL     1       3.749  -1.001   1.461  1.00  0.00     0.268 C 
HETATM   26  O5  UNL     1       4.931  -1.399   1.808  1.00  0.00    -0.266 OA
HETATM   27  C29 UNL     1       2.996  -2.050   0.757  1.00  0.00     0.102 C 
HETATM   28  N7  UNL     1       2.289  -1.686  -0.435  1.00  0.00    -0.313 N 
HETATM   29  C34 UNL     1       2.977  -1.084  -1.595  1.00  0.00     0.160 C 
HETATM   30  C35 UNL     1       0.858  -1.847  -0.626  1.00  0.00     0.271 C 
HETATM   31  O6  UNL     1       0.395  -1.011  -1.484  1.00  0.00    -0.266 OA
ENDROOT
BRANCH  22  32
HETATM   32  C24 UNL     1       4.276   2.039   0.315  1.00  0.00     0.035 C 
BRANCH  32  33
HETATM   33  C25 UNL     1       3.936   3.214  -0.520  1.00  0.00     0.004 C 
BRANCH  33  34
HETATM   34  C26 UNL     1       5.132   3.805  -1.218  1.00  0.00     0.027 C 
BRANCH  34  35
HETATM   35  C27 UNL     1       6.207   4.282  -0.300  1.00  0.00     0.229 C 
BRANCH  35  36
HETATM   36  N5  UNL     1       7.296   4.824  -1.085  1.00  0.00    -0.079 N 
ATOM     37  H53 UNL     1       7.644   4.159  -1.776  1.00  0.00     0.274 HD
ATOM     38  H52 UNL     1       6.985   5.552  -1.729  1.00  0.00     0.274 HD
ATOM     39  H51 UNL     1       8.031   5.150  -0.457  1.00  0.00     0.274 HD
ENDBRANCH  35  36
ENDBRANCH  34  35
ENDBRANCH  33  34
ENDBRANCH  32  33
ENDBRANCH  22  32
BRANCH  27  40
HETATM   40  C30 UNL     1       3.633  -3.375   0.747  1.00  0.00     0.012 C 
BRANCH  40  41
HETATM   41  C31 UNL     1       4.933  -3.713   0.211  1.00  0.00     0.002 C 
HETATM   42  C32 UNL     1       5.251  -3.518  -1.223  1.00  0.00     0.013 C 
HETATM   43  C33 UNL     1       5.048  -5.261   0.416  1.00  0.00     0.013 C 
ENDBRANCH  40  41
ENDBRANCH  27  40
BRANCH   1  44
HETATM   44  C3  UNL     1      -0.563  -3.934  -0.772  1.00  0.00     0.037 C 
HETATM   45  C4  UNL     1      -1.945  -3.804  -1.309  1.00  0.00     0.016 C 
BRANCH  44  46
HETATM   46  C2  UNL     1       0.301  -4.465  -1.887  1.00  0.00     0.006 C 
HETATM   47  C1  UNL     1       0.334  -3.639  -3.122  1.00  0.00     0.006 C 
ENDBRANCH  44  46
ENDBRANCH   1  44
BRANCH  10  48
HETATM   48  C14 UNL     1      -5.188   2.895  -0.860  1.00  0.00     0.038 C 
BRANCH  48  49
HETATM   49  C15 UNL     1      -5.349   3.487  -2.170  1.00  0.00    -0.020 C 
HETATM   50  C16 UNL     1      -5.513   2.740  -3.420  1.00  0.00     0.009 C 
HETATM   51  C17 UNL     1      -6.627   4.392  -2.076  1.00  0.00     0.009 C 
ENDBRANCH  48  49
ENDBRANCH  10  48
BRANCH   4  52
HETATM   52  O1  UNL     1      -1.107  -0.378   2.217  1.00  0.00    -0.345 OA
ATOM     53  H1  UNL     1      -1.633   0.392   2.399  1.00  0.00     0.219 HD
ENDBRANCH   4  52
BRANCH   5  54
HETATM   54  C8  UNL     1      -4.170  -1.508   1.229  1.00  0.00     0.065 C 
BRANCH  54  55
HETATM   55  C9  UNL     1      -4.527  -1.714   2.645  1.00  0.00    -0.017 C 
HETATM   56  C10 UNL     1      -5.851  -2.526   2.637  1.00  0.00     0.010 C 
HETATM   57  C11 UNL     1      -3.571  -2.552   3.463  1.00  0.00     0.010 C 
ENDBRANCH  54  55
ENDBRANCH   5  54
TORSDOF 14
