REMARK  6 active torsions:
REMARK  status: ('A' for Active; 'I' for Inactive)
REMARK    1  A    between atoms: C2_2  and  O1_4 
REMARK    2  A    between atoms: O1_4  and  C4_5 
REMARK    3  A    between atoms: C4_5  and  C5_6 
REMARK    4  A    between atoms: C5_6  and  O2_7 
REMARK    5  A    between atoms: C5_6  and  C6_9 
REMARK    6  A    between atoms: C6_9  and  N1_10 
ROOT
HETATM    1  N1  UNL     1      -1.031   0.082   0.247  1.00  0.00     0.124 N 
HETATM    2  C7  UNL     1      -0.899  -1.246   0.636  1.00  0.00     0.276 C 
HETATM    3  C8  UNL     1      -2.097  -2.130   0.574  1.00  0.00     0.036 C 
HETATM    4  C9  UNL     1      -3.292  -1.614  -0.128  1.00  0.00     0.016 C 
HETATM    5  C10 UNL     1      -3.078  -1.587  -1.632  1.00  0.00     0.010 C 
HETATM    6  C11 UNL     1      -1.965  -0.611  -1.927  1.00  0.00     0.069 C 
HETATM    7  C12 UNL     1      -1.900   0.421  -0.829  1.00  0.00     0.455 C 
HETATM    8  N2  UNL     1      -3.245   0.793  -0.351  1.00  0.00     0.118 N 
HETATM    9  C13 UNL     1      -3.106   2.000   0.423  1.00  0.00     0.312 C 
HETATM   10  C14 UNL     1      -3.821  -0.303   0.400  1.00  0.00     0.279 C 
ENDROOT
BRANCH   1  11
HETATM   11  C6  UNL     1       0.227   0.721   0.022  1.00  0.00     0.308 C 
BRANCH  11  12
HETATM   12  C5  UNL     1       1.088   0.983   1.211  1.00  0.00     0.170 C 
BRANCH  12  13
HETATM   13  C4  UNL     1       2.246   1.850   0.796  1.00  0.00     0.201 C 
BRANCH  13  14
HETATM   14  O1  UNL     1       3.199   1.378   0.014  1.00  0.00    -0.384 OA
BRANCH  14  15
HETATM   15  C2  UNL     1       4.039   0.384   0.295  1.00  0.00     0.113 C 
HETATM   16  C1  UNL     1       3.939  -0.694  -0.782  1.00  0.00     0.039 C 
HETATM   17  C3  UNL     1       5.513   0.803   0.292  1.00  0.00     0.039 C 
ENDBRANCH  14  15
ENDBRANCH  13  14
ENDBRANCH  12  13
BRANCH  12  18
HETATM   18  O2  UNL     1       1.537  -0.110   1.906  1.00  0.00    -0.392 OA
ATOM     19  H2  UNL     1       0.806  -0.657   2.168  1.00  0.00     0.210 HD
ENDBRANCH  12  18
ENDBRANCH  11  12
ENDBRANCH   1  11
TORSDOF 6
