REMARK  5 active torsions:
REMARK  status: ('A' for Active; 'I' for Inactive)
REMARK    1  A    between atoms: O1_1  and  C1_3 
REMARK    2  A    between atoms: C1_3  and  C2_4 
REMARK    3  A    between atoms: C1_3  and  C8_12 
REMARK    4  A    between atoms: C2_4  and  C3_5 
REMARK    5  A    between atoms: C3_5  and  N1_6 
ROOT
HETATM    1  C1  UNL     1       0.172  -2.486  -0.127  1.00  0.00     0.158 C 
ENDROOT
BRANCH   1   2
HETATM    2  O1  UNL     1       0.504  -3.605  -1.082  1.00  0.00    -0.390 OA
ATOM      3  H1  UNL     1      -0.308  -4.097  -1.075  1.00  0.00     0.210 HD
ENDBRANCH   1   2
BRANCH   1   4
HETATM    4  C2  UNL     1       1.434  -1.721  -0.138  1.00  0.00     0.067 C 
BRANCH   4   5
HETATM    5  C3  UNL     1       1.627  -0.567   0.755  1.00  0.00     0.275 C 
BRANCH   5   6
HETATM    6  N1  UNL     1       2.994  -0.015   0.502  1.00  0.00     0.092 N 
HETATM    7  C4  UNL     1       3.252   1.034   1.433  1.00  0.00     0.298 C 
HETATM    8  C5  UNL     1       4.221   2.084   1.000  1.00  0.00     0.198 C 
HETATM    9  O2  UNL     1       3.940   2.552  -0.282  1.00  0.00    -0.388 OA
HETATM   10  C6  UNL     1       3.983   1.510  -1.204  1.00  0.00     0.198 C 
HETATM   11  C7  UNL     1       3.116   0.352  -0.866  1.00  0.00     0.298 C 
ENDBRANCH   5   6
ENDBRANCH   4   5
ENDBRANCH   1   4
BRANCH   1  12
HETATM   12  C8  UNL     1      -1.078  -1.979  -0.724  1.00  0.00     0.094 C 
HETATM   13  N2  UNL     1      -1.863  -0.955  -0.299  1.00  0.00    -0.371 N 
HETATM   14  C9  UNL     1      -1.604   0.406  -0.403  1.00  0.00     0.063 C 
HETATM   15  C14 UNL     1      -3.117  -1.274   0.294  1.00  0.00     0.127 C 
HETATM   16  C10 UNL     1      -2.742   1.218  -0.994  1.00  0.00     0.044 C 
HETATM   17  C11 UNL     1      -3.480   1.862   0.152  1.00  0.00     0.005 C 
HETATM   18  C12 UNL     1      -4.263   0.867   0.967  1.00  0.00     0.002 C 
HETATM   19  C13 UNL     1      -3.438  -0.318   1.417  1.00  0.00     0.020 C 
ENDBRANCH   1  12
TORSDOF 5
