REMARK  10 active torsions:
REMARK  status: ('A' for Active; 'I' for Inactive)
REMARK    1  A    between atoms: C2_2  and  C3_3 
REMARK    2  A    between atoms: C3_3  and  C4_4 
REMARK    3  A    between atoms: C4_4  and  C5_5 
REMARK    4  A    between atoms: C5_5  and  C6_6 
REMARK    5  A    between atoms: C6_6  and  C7_7 
REMARK    6  A    between atoms: C7_7  and  C8_8 
REMARK    7  A    between atoms: C8_8  and  O2_10 
REMARK    8  A    between atoms: O2_10  and  C9_11 
REMARK    9  A    between atoms: C19_21  and  O3_22 
REMARK   10  A    between atoms: O3_22  and  C20_23 
ROOT
HETATM    1  C9  UNL     1       0.287   1.368   0.103  1.00  0.00     0.137 C 
HETATM    2  C10 UNL     1       0.076   2.883  -0.126  1.00  0.00     0.037 C 
HETATM    3  C11 UNL     1      -1.211   3.242   0.492  1.00  0.00    -0.012 C 
HETATM    4  C12 UNL     1      -1.042   4.369   1.522  1.00  0.00     0.010 C 
HETATM    5  C13 UNL     1      -1.679   1.951   1.176  1.00  0.00    -0.003 C 
HETATM    6  C14 UNL     1      -3.136   2.022   1.231  1.00  0.00     0.006 C 
HETATM    7  C15 UNL     1      -3.841   0.872   1.838  1.00  0.00     0.011 C 
HETATM    8  C16 UNL     1      -3.853  -0.399   1.114  1.00  0.00    -0.031 C 
HETATM    9  C17 UNL     1      -4.712  -0.307  -0.101  1.00  0.00     0.013 C 
HETATM   10  C18 UNL     1      -3.990   0.154  -1.303  1.00  0.00     0.034 C 
HETATM   11  C19 UNL     1      -2.495   0.118  -1.354  1.00  0.00     0.141 C 
HETATM   12  C22 UNL     1      -1.732  -0.258  -0.116  1.00  0.00    -0.002 C 
HETATM   13  C23 UNL     1      -0.595  -1.224  -0.560  1.00  0.00     0.019 C 
HETATM   14  C24 UNL     1      -0.978   0.813   0.572  1.00  0.00     0.031 C 
HETATM   15  C25 UNL     1      -2.606  -1.125   0.716  1.00  0.00    -0.019 C 
HETATM   16  C26 UNL     1      -3.036  -2.297  -0.203  1.00  0.00     0.018 C 
HETATM   17  C27 UNL     1      -2.517  -1.676   2.026  1.00  0.00    -0.038 C 
HETATM   18  C28 UNL     1      -1.803  -1.183   3.216  1.00  0.00     0.015 C 
HETATM   19  C29 UNL     1      -2.342  -3.217   2.175  1.00  0.00     0.015 C 
HETATM   20  C30 UNL     1      -4.057  -1.492   2.097  1.00  0.00     0.020 C 
ENDROOT
BRANCH   1  21
HETATM   21  O2  UNL     1       0.987   0.928  -0.981  1.00  0.00    -0.316 OA
BRANCH  21  22
HETATM   22  C8  UNL     1       2.341   0.655  -1.025  1.00  0.00     0.259 C 
HETATM   23  O1  UNL     1       2.962   0.838   0.052  1.00  0.00    -0.265 OA
BRANCH  22  24
HETATM   24  C7  UNL     1       2.953   0.182  -2.286  1.00  0.00     0.111 C 
BRANCH  24  25
HETATM   25  C6  UNL     1       4.397  -0.117  -2.236  1.00  0.00     0.010 C 
BRANCH  25  26
HETATM   26  C5  UNL     1       4.841  -1.181  -1.296  1.00  0.00     0.000 C 
BRANCH  26  27
HETATM   27  C4  UNL     1       6.364  -1.387  -1.359  1.00  0.00     0.000 C 
BRANCH  27  28
HETATM   28  C3  UNL     1       6.667  -2.487  -0.364  1.00  0.00    -0.000 C 
BRANCH  28  29
HETATM   29  C2  UNL     1       6.258  -2.139   1.049  1.00  0.00    -0.005 C 
HETATM   30  C1  UNL     1       6.939  -0.919   1.579  1.00  0.00     0.005 C 
ENDBRANCH  28  29
ENDBRANCH  27  28
ENDBRANCH  26  27
ENDBRANCH  25  26
ENDBRANCH  24  25
ENDBRANCH  22  24
ENDBRANCH  21  22
ENDBRANCH   1  21
BRANCH  11  31
HETATM   31  O3  UNL     1      -2.134   1.342  -1.960  1.00  0.00    -0.316 OA
BRANCH  31  32
HETATM   32  C20 UNL     1      -1.708   1.414  -3.245  1.00  0.00     0.255 C 
HETATM   33  C21 UNL     1      -1.329   2.723  -3.890  1.00  0.00     0.126 C 
HETATM   34  O4  UNL     1      -1.600   0.400  -3.988  1.00  0.00    -0.266 OA
ENDBRANCH  31  32
ENDBRANCH  11  31
TORSDOF 10
