REMARK  2 active torsions:
REMARK  status: ('A' for Active; 'I' for Inactive)
REMARK    1  A    between atoms: C3_6  and  N2_7 
REMARK    2  A    between atoms: N3_10  and  C6_11 
ROOT
HETATM    1  N2  UNL     1       2.118   0.513   0.120  1.00  0.00    -0.214 N 
HETATM    2  C4  UNL     1       1.237   0.452   1.263  1.00  0.00     0.171 C 
HETATM    3  C5  UNL     1      -0.128  -0.091   0.899  1.00  0.00     0.293 C 
HETATM    4  N3  UNL     1      -0.625   0.684  -0.201  1.00  0.00     0.096 N 
HETATM    5  C12 UNL     1       0.211   0.496  -1.330  1.00  0.00     0.293 C 
HETATM    6  C13 UNL     1       1.593   1.071  -1.106  1.00  0.00     0.171 C 
ENDROOT
BRANCH   1   7
HETATM    7  C3  UNL     1       3.452   0.031   0.230  1.00  0.00     0.680 A 
HETATM    8  N1  UNL     1       4.340   0.104  -0.776  1.00  0.00    -0.201 N 
HETATM    9  C2  UNL     1       5.587  -0.344  -0.683  1.00  0.00     0.126 A 
ATOM     10  H1  UNL     1       4.041   0.525  -1.656  1.00  0.00     0.183 HD
HETATM   11  C1  UNL     1       6.036  -0.925   0.495  1.00  0.00     0.042 A 
HETATM   12 BR1  UNL     1       7.826  -1.575   0.655  1.00  0.00    -0.048 Br
HETATM   13  C14 UNL     1       5.126  -1.002   1.532  1.00  0.00     0.126 A 
HETATM   14  N4  UNL     1       3.877  -0.530   1.376  1.00  0.00    -0.201 N 
ATOM     15  H4  UNL     1       3.226  -0.600   2.158  1.00  0.00     0.183 HD
ENDBRANCH   1   7
BRANCH   4  16
HETATM   16  C6  UNL     1      -2.026   0.604  -0.413  1.00  0.00     0.223 C 
HETATM   17  C7  UNL     1      -2.526  -0.777  -0.753  1.00  0.00     0.036 C 
HETATM   18  C8  UNL     1      -3.338  -1.370   0.395  1.00  0.00     0.002 C 
HETATM   19  C9  UNL     1      -4.595  -0.545   0.535  1.00  0.00     0.000 C 
HETATM   20  C10 UNL     1      -4.316   0.926   0.348  1.00  0.00     0.002 C 
HETATM   21  C11 UNL     1      -2.851   1.139   0.703  1.00  0.00     0.036 C 
ENDBRANCH   4  16
TORSDOF 2
