REMARK  4 active torsions:
REMARK  status: ('A' for Active; 'I' for Inactive)
REMARK    1  A    between atoms: N1_2  and  C4_5 
REMARK    2  A    between atoms: C4_5  and  C5_6 
REMARK    3  A    between atoms: C5_6  and  N2_7 
REMARK    4  A    between atoms: N2_7  and  C6_9 
ROOT
HETATM    1  N2  UNL     1       0.821  -0.203  -0.435  1.00  0.00    -0.400 N 
ATOM      2  H2  UNL     1       0.319  -0.370  -1.307  1.00  0.00     0.155 HD
ENDROOT
BRANCH   1   3
HETATM    3  C5  UNL     1       0.127  -0.091   0.820  1.00  0.00     0.144 C 
BRANCH   3   4
HETATM    4  C4  UNL     1      -1.281  -0.547   0.763  1.00  0.00     0.255 C 
BRANCH   4   5
HETATM    5  N1  UNL     1      -2.193   0.077  -0.124  1.00  0.00    -0.077 N 
HETATM    6  C1  UNL     1      -2.093  -0.420  -1.482  1.00  0.00     0.271 C 
HETATM    7  C2  UNL     1      -3.524  -0.433   0.322  1.00  0.00     0.271 C 
HETATM    8  C3  UNL     1      -2.318   1.492  -0.016  1.00  0.00     0.271 C 
ENDBRANCH   4   5
ENDBRANCH   3   4
ENDBRANCH   1   3
BRANCH   1   9
HETATM    9  C6  UNL     1       2.216  -0.073  -0.409  1.00  0.00     0.179 C 
HETATM   10  C7  UNL     1       2.943  -1.131   0.377  1.00  0.00     0.074 C 
HETATM   11  C8  UNL     1       4.308  -0.539   0.400  1.00  0.00    -0.006 C 
HETATM   12  C9  UNL     1       4.208   0.781   0.228  1.00  0.00     0.081 C 
HETATM   13  N3  UNL     1       2.805   1.125   0.084  1.00  0.00    -0.378 N 
ATOM     14  H3  UNL     1       2.349   2.015   0.288  1.00  0.00     0.161 HD
ENDBRANCH   1   9
TORSDOF 4
