REMARK  9 active torsions:
REMARK  status: ('A' for Active; 'I' for Inactive)
REMARK    1  A    between atoms: C2_2  and  N1_3 
REMARK    2  A    between atoms: C10_11  and  C11_12 
REMARK    3  A    between atoms: C11_12  and  C12_13 
REMARK    4  A    between atoms: C12_13  and  C13_14 
REMARK    5  A    between atoms: N2_17  and  C16_18 
REMARK    6  A    between atoms: N4_26  and  C21_27 
REMARK    7  A    between atoms: C21_27  and  O1_28 
REMARK    8  A    between atoms: C21_27  and  N5_30 
REMARK    9  A    between atoms: N5_30  and  C22_32 
ROOT
HETATM    1  N1  UNL     1      -1.392   4.696  -1.087  1.00  0.00    -0.387 N 
HETATM    2  C3  UNL     1      -2.257   3.578  -1.251  1.00  0.00     0.147 C 
HETATM    3  C4  UNL     1      -1.829   2.572  -2.227  1.00  0.00     0.107 C 
HETATM    4  C5  UNL     1      -0.976   3.069  -3.372  1.00  0.00     0.032 C 
HETATM    5  C6  UNL     1       0.470   3.223  -3.036  1.00  0.00    -0.008 C 
HETATM    6  C7  UNL     1       0.744   4.480  -2.235  1.00  0.00     0.030 C 
HETATM    7  C8  UNL     1      -0.008   4.368  -0.949  1.00  0.00     0.086 C 
HETATM    8  C9  UNL     1       0.127   3.086  -0.239  1.00  0.00     0.056 C 
HETATM    9  C10 UNL     1       0.150   1.819  -1.064  1.00  0.00     0.038 C 
HETATM   10  C20 UNL     1       1.074   2.082  -2.287  1.00  0.00     0.036 C 
HETATM   11  N4  UNL     1      -1.077   1.414  -1.641  1.00  0.00    -0.332 N 
ENDROOT
BRANCH   9  12
HETATM   12  C11 UNL     1       0.931   0.846  -0.241  1.00  0.00     0.032 C 
BRANCH  12  13
HETATM   13  C12 UNL     1       0.358   0.567   1.126  1.00  0.00     0.007 C 
BRANCH  13  14
HETATM   14  C13 UNL     1       1.243  -0.437   1.830  1.00  0.00    -0.011 C 
HETATM   15  C14 UNL     1       0.733  -0.776   3.211  1.00  0.00     0.024 C 
HETATM   16  C15 UNL     1       1.428  -2.034   3.679  1.00  0.00     0.124 C 
HETATM   17  N2  UNL     1       2.742  -2.077   3.088  1.00  0.00    -0.371 N 
HETATM   18  C18 UNL     1       3.483  -0.863   2.837  1.00  0.00     0.124 C 
HETATM   19  C19 UNL     1       2.658   0.100   1.994  1.00  0.00     0.024 C 
BRANCH  17  20
HETATM   20  C16 UNL     1       3.312  -3.320   2.742  1.00  0.00     0.068 C 
HETATM   21  C17 UNL     1       3.429  -4.478   3.668  1.00  0.00     0.088 C 
HETATM   22  N3  UNL     1       3.772  -3.481   1.530  1.00  0.00    -0.389 N 
ATOM     23  H32 UNL     1       3.692  -2.687   0.895  1.00  0.00     0.157 HD
ATOM     24  H31 UNL     1       4.184  -4.380   1.280  1.00  0.00     0.157 HD
ENDBRANCH  17  20
ENDBRANCH  13  14
ENDBRANCH  12  13
ENDBRANCH   9  12
BRANCH  11  25
HETATM   25  C21 UNL     1      -1.691   0.170  -1.773  1.00  0.00     0.216 C 
BRANCH  25  26
HETATM   26  O1  UNL     1      -2.875   0.235  -2.351  1.00  0.00    -0.333 OA
ATOM     27  H1  UNL     1      -3.294  -0.613  -2.441  1.00  0.00     0.220 HD
ENDBRANCH  25  26
BRANCH  25  28
HETATM   28  N5  UNL     1      -1.347  -1.124  -1.442  1.00  0.00    -0.352 N 
ATOM     29  H5  UNL     1      -0.442  -1.270  -0.994  1.00  0.00     0.163 HD
BRANCH  28  30
HETATM   30  C22 UNL     1      -2.179  -2.304  -1.683  1.00  0.00     0.088 C 
HETATM   31  C23 UNL     1      -1.472  -3.369  -2.448  1.00  0.00     0.055 C 
HETATM   32  C24 UNL     1      -1.872  -4.722  -1.925  1.00  0.00     0.274 C 
HETATM   33  N6  UNL     1      -1.593  -4.952  -0.549  1.00  0.00     0.084 N 
HETATM   34  C25 UNL     1      -0.426  -5.731  -0.267  1.00  0.00     0.309 C 
HETATM   35  C26 UNL     1      -1.669  -3.756   0.226  1.00  0.00     0.274 C 
HETATM   36  C27 UNL     1      -2.726  -2.876  -0.406  1.00  0.00     0.055 C 
ENDBRANCH  28  30
ENDBRANCH  25  28
ENDBRANCH  11  25
BRANCH   1  37
HETATM   37  C2  UNL     1      -1.861   5.796  -0.344  1.00  0.00     0.054 C 
HETATM   38  C1  UNL     1      -2.026   5.474   1.111  1.00  0.00     0.054 C 
ENDBRANCH   1  37
TORSDOF 9
