REMARK  3 active torsions:
REMARK  status: ('A' for Active; 'I' for Inactive)
REMARK    1  A    between atoms: C2_2  and  N1_3 
REMARK    2  A    between atoms: N1_3  and  C3_5 
REMARK    3  A    between atoms: N5_15  and  C6_17 
ROOT
HETATM    1  C3  UNL     1      -1.237   0.020  -0.012  1.00  0.00     0.694 A 
HETATM    2  N2  UNL     1      -1.161  -1.087   0.748  1.00  0.00    -0.131 N 
ATOM      3  H2  UNL     1      -2.000  -1.494   1.162  1.00  0.00     0.205 HD
HETATM    4  N3  UNL     1       0.020  -1.633   0.946  1.00  0.00    -0.268 N 
ATOM      5  H3  UNL     1       0.082  -2.473   1.522  1.00  0.00     0.189 HD
HETATM    6  C4  UNL     1       1.156  -1.123   0.415  1.00  0.00     0.159 A 
HETATM    7  N4  UNL     1       2.262  -1.694   0.641  1.00  0.00    -0.381 N 
ATOM      8  H41 UNL     1       3.118  -1.310   0.241  1.00  0.00     0.157 HD
ATOM      9  H42 UNL     1       2.295  -2.532   1.221  1.00  0.00     0.157 HD
HETATM   10  C5  UNL     1       1.112   0.007  -0.367  1.00  0.00     0.166 A 
HETATM   11  N5  UNL     1       2.098   0.585  -0.923  1.00  0.00    -0.353 N 
ATOM     12  H5  UNL     1       1.839   1.413  -1.460  1.00  0.00     0.166 HD
HETATM   13  N6  UNL     1      -0.139   0.535  -0.541  1.00  0.00    -0.172 N 
ATOM     14  H6  UNL     1      -0.230   1.375  -1.112  1.00  0.00     0.186 HD
ENDROOT
BRANCH   1  15
HETATM   15  N1  UNL     1      -2.392   0.594  -0.234  1.00  0.00    -0.225 N 
ATOM     16  H1  UNL     1      -2.414   1.432  -0.815  1.00  0.00     0.177 HD
BRANCH  15  17
HETATM   17  C2  UNL     1      -3.622   0.104   0.298  1.00  0.00     0.134 C 
HETATM   18  C1  UNL     1      -4.673   1.197   0.105  1.00  0.00     0.027 C 
ENDBRANCH  15  17
ENDBRANCH   1  15
BRANCH  11  19
HETATM   19  C6  UNL     1       3.473   0.308  -0.943  1.00  0.00     0.058 C 
HETATM   20  C7  UNL     1       4.246   0.796   0.260  1.00  0.00     0.054 C 
ENDBRANCH  11  19
TORSDOF 3
