REMARK  9 active torsions:
REMARK  status: ('A' for Active; 'I' for Inactive)
REMARK    1  A    between atoms: C1_4  and  C2_6 
REMARK    2  A    between atoms: N3_8  and  C4_9 
REMARK    3  A    between atoms: C8_13  and  N4_14 
REMARK    4  A    between atoms: C10_16  and  C11_17 
REMARK    5  A    between atoms: C11_17  and  N6_21 
REMARK    6  A    between atoms: N6_21  and  N7_23 
REMARK       I    between atoms: N7_23  and  C12_25 
REMARK    7  A    between atoms: C12_25  and  C13_27 
REMARK    8  A    between atoms: C13_27  and  N8_28 
REMARK    9  A    between atoms: C16_31  and  O2_32 
ROOT
HETATM    1  N4  UNL     1      -0.962   0.845  -0.784  1.00  0.00    -0.251 N 
HETATM    2  C9  UNL     1       0.302   0.731  -0.348  1.00  0.00     0.153 A 
HETATM    3  C10 UNL     1       0.977   1.849  -0.736  1.00  0.00     0.111 A 
HETATM    4  N10 UNL     1       0.104   2.632  -1.407  1.00  0.00    -0.281 N 
ATOM      5  H10 UNL     1       0.302   3.541  -1.825  1.00  0.00     0.188 HD
HETATM    6  N11 UNL     1      -1.050   2.001  -1.419  1.00  0.00    -0.235 N 
ATOM      7  H11 UNL     1      -1.899   2.356  -1.859  1.00  0.00     0.209 HD
ENDROOT
BRANCH   3   8
HETATM    8  C11 UNL     1       2.379   2.109  -0.461  1.00  0.00     0.143 C 
HETATM    9  N5  UNL     1       2.885   3.206  -0.895  1.00  0.00    -0.383 N 
ATOM     10  H52 UNL     1       2.322   3.875  -1.420  1.00  0.00     0.157 HD
ATOM     11  H51 UNL     1       3.870   3.389  -0.702  1.00  0.00     0.157 HD
BRANCH   8  12
HETATM   12  N6  UNL     1       3.150   1.193   0.258  1.00  0.00    -0.281 N 
ATOM     13  H6  UNL     1       2.713   0.386   0.703  1.00  0.00     0.188 HD
BRANCH  12  14
HETATM   14  N7  UNL     1       4.520   1.397   0.359  1.00  0.00    -0.267 N 
HETATM   15  C12 UNL     1       5.226   0.949   1.489  1.00  0.00     0.255 C 
HETATM   16  O1  UNL     1       4.600   0.362   2.393  1.00  0.00    -0.270 OA
ATOM     17  H7  UNL     1       5.017   1.875  -0.392  1.00  0.00     0.190 HD
BRANCH  15  18
HETATM   18  C13 UNL     1       6.686   1.183   1.576  1.00  0.00     0.252 C 
BRANCH  18  19
HETATM   19  N8  UNL     1       7.343   0.122   0.845  1.00  0.00    -0.292 N 
HETATM   20  C14 UNL     1       7.620   0.210  -0.472  1.00  0.00     0.115 A 
HETATM   21  C15 UNL     1       8.237  -0.963  -0.831  1.00  0.00     0.076 A 
HETATM   22  C16 UNL     1       8.310  -1.731   0.308  1.00  0.00     0.156 A 
HETATM   23  N9  UNL     1       7.750  -1.032   1.322  1.00  0.00    -0.278 N 
ATOM     24  H9  UNL     1       7.660  -1.346   2.288  1.00  0.00     0.189 HD
BRANCH  22  25
HETATM   25  O2  UNL     1       8.871  -3.006   0.372  1.00  0.00    -0.345 OA
ATOM     26  H2  UNL     1       8.921  -3.536   1.159  1.00  0.00     0.219 HD
ENDBRANCH  22  25
ENDBRANCH  18  19
ENDBRANCH  15  18
ENDBRANCH  12  14
ENDBRANCH   8  12
ENDBRANCH   3   8
BRANCH   1  27
HETATM   27  C8  UNL     1      -1.967  -0.131  -0.573  1.00  0.00     0.059 A 
HETATM   28  C7  UNL     1      -1.595  -1.428  -0.313  1.00  0.00     0.032 A 
HETATM   29  C6  UNL     1      -2.539  -2.433  -0.101  1.00  0.00     0.005 A 
HETATM   30  C5  UNL     1      -3.878  -2.108  -0.155  1.00  0.00     0.032 A 
HETATM   31  C4  UNL     1      -4.283  -0.816  -0.414  1.00  0.00     0.059 A 
HETATM   32  C17 UNL     1      -3.310   0.135  -0.616  1.00  0.00     0.063 A 
BRANCH  31  33
HETATM   33  N3  UNL     1      -5.658  -0.462  -0.468  1.00  0.00    -0.251 N 
HETATM   34  C3  UNL     1      -6.631  -0.915   0.316  1.00  0.00     0.152 A 
HETATM   35  C2  UNL     1      -7.801  -0.289  -0.098  1.00  0.00     0.107 A 
HETATM   36  N13 UNL     1      -7.486   0.520  -1.120  1.00  0.00    -0.281 N 
HETATM   37  N12 UNL     1      -6.205   0.392  -1.311  1.00  0.00    -0.235 N 
ATOM     38  H13 UNL     1      -8.125   1.118  -1.644  1.00  0.00     0.188 HD
ATOM     39  H12 UNL     1      -5.684   0.894  -2.030  1.00  0.00     0.209 HD
BRANCH  35  40
HETATM   40  C1  UNL     1      -9.132  -0.464   0.467  1.00  0.00     0.139 C 
HETATM   41  N1  UNL     1      -9.279  -1.274   1.442  1.00  0.00    -0.386 N 
ATOM     42  H12 UNL     1     -10.211  -1.397   1.838  1.00  0.00     0.157 HD
ATOM     43  H11 UNL     1      -8.500  -1.802   1.836  1.00  0.00     0.157 HD
HETATM   44  N2  UNL     1     -10.216   0.271  -0.082  1.00  0.00    -0.081 NA
ENDBRANCH  35  40
ENDBRANCH  31  33
ENDBRANCH   1  27
TORSDOF 9
