REMARK  11 active torsions:
REMARK  status: ('A' for Active; 'I' for Inactive)
REMARK    1  A    between atoms: C2_2  and  C3_3 
REMARK    2  A    between atoms: C3_3  and  N1_4 
REMARK    3  A    between atoms: C3_3  and  C22_32 
REMARK       I    between atoms: N1_4  and  C4_6 
REMARK    4  A    between atoms: C4_6  and  C5_8 
REMARK    5  A    between atoms: C7_10  and  O2_11 
REMARK    6  A    between atoms: O2_11  and  C8_12 
REMARK    7  A    between atoms: C8_12  and  C9_13 
REMARK    8  A    between atoms: C9_13  and  O3_14 
REMARK    9  A    between atoms: C11_16  and  C12_17 
REMARK   10  A    between atoms: C18_26  and  C19_27 
REMARK   11  A    between atoms: C25_37  and  O4_38 
ROOT
HETATM    1  C5  UNL     1      -0.815   0.098   0.863  1.00  0.00     0.103 A 
HETATM    2  C6  UNL     1      -1.970   0.880   1.021  1.00  0.00     0.073 A 
HETATM    3  C7  UNL     1      -3.194   0.461   0.584  1.00  0.00     0.084 A 
HETATM    4  C11 UNL     1      -3.244  -0.799  -0.036  1.00  0.00     0.032 A 
HETATM    5  C18 UNL     1      -2.116  -1.563  -0.190  1.00  0.00     0.027 A 
HETATM    6  N2  UNL     1      -0.914  -1.099   0.264  1.00  0.00    -0.354 N 
ATOM      7  H2  UNL     1      -0.078  -1.672   0.146  1.00  0.00     0.166 HD
ENDROOT
BRANCH   1   8
HETATM    8  C4  UNL     1       0.440   0.636   1.365  1.00  0.00     0.269 C 
HETATM    9  N1  UNL     1       1.653  -0.087   1.270  1.00  0.00    -0.344 N 
ATOM     10  H1  UNL     1       1.624  -1.009   0.834  1.00  0.00     0.163 HD
HETATM   11  O1  UNL     1       0.497   1.765   1.903  1.00  0.00    -0.266 OA
BRANCH   9  12
HETATM   12  C3  UNL     1       2.914   0.387   1.743  1.00  0.00     0.152 C 
BRANCH  12  13
HETATM   13  C2  UNL     1       3.321  -0.439   2.971  1.00  0.00     0.028 C 
HETATM   14  C1  UNL     1       4.665   0.065   3.479  1.00  0.00     0.007 C 
ENDBRANCH  12  13
BRANCH  12  15
HETATM   15  C22 UNL     1       3.997   0.374   0.729  1.00  0.00     0.105 A 
HETATM   16  N3  UNL     1       4.920   1.303   0.454  1.00  0.00    -0.342 N 
HETATM   17  C23 UNL     1       5.733   0.914  -0.540  1.00  0.00     0.063 A 
ATOM     18  H3  UNL     1       4.996   2.197   0.940  1.00  0.00     0.167 HD
HETATM   19  C24 UNL     1       6.818   1.474  -1.192  1.00  0.00     0.068 A 
HETATM   20  C29 UNL     1       5.294  -0.339  -0.915  1.00  0.00     0.060 A 
HETATM   21  C25 UNL     1       7.493   0.838  -2.209  1.00  0.00     0.070 A 
HETATM   22  C27 UNL     1       7.043  -0.416  -2.574  1.00  0.00     0.039 A 
HETATM   23  C28 UNL     1       5.952  -0.998  -1.931  1.00  0.00     0.035 A 
HETATM   24  N4  UNL     1       4.241  -0.639  -0.128  1.00  0.00    -0.342 N 
ATOM     25  H4  UNL     1       3.706  -1.506  -0.174  1.00  0.00     0.167 HD
BRANCH  21  26
HETATM   26  O4  UNL     1       8.583   1.385  -2.871  1.00  0.00    -0.356 OA
HETATM   27  C26 UNL     1       9.052   2.674  -2.497  1.00  0.00     0.210 C 
ENDBRANCH  21  26
ENDBRANCH  12  15
ENDBRANCH   9  12
ENDBRANCH   1   8
BRANCH   3  28
HETATM   28  O2  UNL     1      -4.317   1.184   0.721  1.00  0.00    -0.348 OA
BRANCH  28  29
HETATM   29  C8  UNL     1      -4.662   2.396   1.232  1.00  0.00     0.201 C 
BRANCH  29  30
HETATM   30  C9  UNL     1      -4.057   3.620   0.617  1.00  0.00     0.193 C 
BRANCH  30  31
HETATM   31  O3  UNL     1      -4.328   3.790  -0.729  1.00  0.00    -0.394 OA
HETATM   32  C10 UNL     1      -5.682   3.901  -0.950  1.00  0.00     0.201 C 
ENDBRANCH  30  31
ENDBRANCH  29  30
ENDBRANCH  28  29
ENDBRANCH   3  28
BRANCH   5  33
HETATM   33  C19 UNL     1      -2.208  -2.898  -0.840  1.00  0.00     0.028 C 
HETATM   34  C20 UNL     1      -0.823  -3.410  -1.213  1.00  0.00     0.016 C 
HETATM   35  C21 UNL     1      -2.774  -3.894   0.178  1.00  0.00     0.016 C 
ENDBRANCH   5  33
BRANCH   4  36
HETATM   36  C12 UNL     1      -4.581  -1.209  -0.509  1.00  0.00     0.002 A 
HETATM   37  C13 UNL     1      -5.466  -1.880   0.304  1.00  0.00     0.039 A 
HETATM   38  C14 UNL     1      -6.730  -2.267  -0.098  1.00  0.00     0.056 A 
HETATM   39 CL1  UNL     1      -7.810  -3.116   0.980  1.00  0.00    -0.083 Cl
HETATM   40  C15 UNL     1      -7.136  -1.972  -1.376  1.00  0.00     0.057 A 
HETATM   41 CL2  UNL     1      -8.725  -2.434  -1.951  1.00  0.00    -0.082 Cl
HETATM   42  C16 UNL     1      -6.254  -1.298  -2.201  1.00  0.00     0.050 A 
HETATM   43  C17 UNL     1      -4.998  -0.918  -1.790  1.00  0.00     0.047 A 
HETATM   44 CL3  UNL     1      -3.971  -0.075  -2.915  1.00  0.00    -0.083 Cl
ENDBRANCH   4  36
TORSDOF 11
