REMARK  11 active torsions:
REMARK  status: ('A' for Active; 'I' for Inactive)
REMARK    1  A    between atoms: C2_2  and  C3_3 
REMARK    2  A    between atoms: C5_5  and  C6_6 
REMARK    3  A    between atoms: C6_6  and  N1_7 
REMARK    4  A    between atoms: N1_7  and  C7_8 
REMARK    5  A    between atoms: N1_7  and  C20_27 
REMARK    6  A    between atoms: C7_8  and  C8_9 
REMARK    7  A    between atoms: C8_9  and  C9_10 
REMARK    8  A    between atoms: N2_11  and  C10_13 
REMARK    9  A    between atoms: C20_27  and  C21_28 
REMARK   10  A    between atoms: C28_38  and  O1_39 
REMARK   11  A    between atoms: C30_41  and  O2_42 
ROOT
HETATM    1  C10 UNL     1       2.894  -1.727  -1.175  1.00  0.00     0.066 A 
HETATM    2  C11 UNL     1       2.240  -2.618  -2.057  1.00  0.00     0.087 A 
HETATM    3  C12 UNL     1       1.637  -2.122  -3.263  1.00  0.00     0.103 C 
HETATM    4  N3  UNL     1       1.146  -1.736  -4.252  1.00  0.00    -0.191 NA
HETATM    5  C13 UNL     1       2.192  -3.945  -1.743  1.00  0.00     0.113 A 
HETATM    6  N4  UNL     1       2.755  -4.408  -0.617  1.00  0.00    -0.364 N 
ATOM      7  H4  UNL     1       2.708  -5.404  -0.404  1.00  0.00     0.165 HD
HETATM    8  C14 UNL     1       3.375  -3.584   0.226  1.00  0.00     0.046 A 
HETATM    9  C15 UNL     1       3.929  -4.160   1.372  1.00  0.00     0.054 A 
HETATM   10  C16 UNL     1       4.590  -3.382   2.298  1.00  0.00     0.036 A 
HETATM   11 CL1  UNL     1       5.301  -4.080   3.753  1.00  0.00    -0.084 Cl
HETATM   12  C17 UNL     1       4.669  -2.033   2.032  1.00  0.00     0.025 A 
HETATM   13  C18 UNL     1       4.126  -1.452   0.906  1.00  0.00     0.018 A 
HETATM   14  C19 UNL     1       3.469  -2.235  -0.013  1.00  0.00     0.019 A 
ENDROOT
BRANCH   1  15
HETATM   15  N2  UNL     1       2.924  -0.558  -1.473  1.00  0.00    -0.367 N 
HETATM   16  C9  UNL     1       3.197   0.758  -1.389  1.00  0.00     0.063 C 
ATOM     17  H2  UNL     1       2.416  -0.582  -2.357  1.00  0.00     0.165 HD
BRANCH  16  18
HETATM   18  C8  UNL     1       2.212   1.603  -0.569  1.00  0.00     0.064 C 
BRANCH  18  19
HETATM   19  C7  UNL     1       0.823   1.508  -1.164  1.00  0.00     0.122 C 
BRANCH  19  20
HETATM   20  N1  UNL     1      -0.144   2.269  -0.460  1.00  0.00    -0.404 N 
BRANCH  20  21
HETATM   21  C6  UNL     1      -0.458   1.810   0.844  1.00  0.00     0.156 C 
BRANCH  21  22
HETATM   22  C5  UNL     1      -1.036   0.451   0.780  1.00  0.00    -0.037 A 
HETATM   23  C4  UNL     1      -1.851   0.121  -0.274  1.00  0.00     0.019 A 
HETATM   24  C3  UNL     1      -2.434  -1.131  -0.399  1.00  0.00    -0.022 A 
HETATM   25  C30 UNL     1      -2.155  -2.040   0.595  1.00  0.00     0.107 A 
HETATM   26  C28 UNL     1      -1.338  -1.755   1.681  1.00  0.00     0.102 A 
HETATM   27  C27 UNL     1      -0.776  -0.475   1.756  1.00  0.00     0.048 A 
BRANCH  24  28
HETATM   28  C2  UNL     1      -3.302  -1.418  -1.569  1.00  0.00     0.037 C 
HETATM   29  C1  UNL     1      -2.635  -2.240  -2.625  1.00  0.00     0.010 C 
ENDBRANCH  24  28
BRANCH  25  30
HETATM   30  O2  UNL     1      -2.706  -3.307   0.531  1.00  0.00    -0.353 OA
HETATM   31  C31 UNL     1      -2.114  -4.417  -0.087  1.00  0.00     0.210 C 
ENDBRANCH  25  30
BRANCH  26  32
HETATM   32  O1  UNL     1      -1.092  -2.705   2.651  1.00  0.00    -0.353 OA
HETATM   33  C29 UNL     1      -0.265  -2.394   3.739  1.00  0.00     0.210 C 
ENDBRANCH  26  32
ENDBRANCH  21  22
ENDBRANCH  20  21
BRANCH  20  34
HETATM   34  C20 UNL     1       0.034   3.674  -0.626  1.00  0.00     0.156 C 
BRANCH  34  35
HETATM   35  C21 UNL     1      -1.145   4.498  -0.284  1.00  0.00    -0.037 A 
HETATM   36  C22 UNL     1      -1.200   5.086   0.957  1.00  0.00     0.034 A 
HETATM   37  C23 UNL     1      -2.298   5.853   1.277  1.00  0.00     0.060 A 
HETATM   38 CL2  UNL     1      -2.400   6.622   2.863  1.00  0.00    -0.082 Cl
HETATM   39  C24 UNL     1      -3.349   6.060   0.409  1.00  0.00     0.089 A 
HETATM   40  N5  UNL     1      -4.467   6.853   0.763  1.00  0.00    -0.099 NA
HETATM   41  C25 UNL     1      -3.291   5.466  -0.842  1.00  0.00     0.060 A 
HETATM   42 CL3  UNL     1      -4.621   5.720  -1.958  1.00  0.00    -0.082 Cl
HETATM   43  C26 UNL     1      -2.187   4.695  -1.163  1.00  0.00     0.034 A 
ENDBRANCH  34  35
ENDBRANCH  20  34
ENDBRANCH  19  20
ENDBRANCH  18  19
ENDBRANCH  16  18
ENDBRANCH   1  15
TORSDOF 11
