REMARK  12 active torsions:
REMARK  status: ('A' for Active; 'I' for Inactive)
REMARK    1  A    between atoms: O1_2  and  C2_3 
REMARK    2  A    between atoms: C4_5  and  C5_6 
REMARK    3  A    between atoms: C5_6  and  C6_7 
REMARK    4  A    between atoms: C5_6  and  C23_33 
REMARK    5  A    between atoms: C7_8  and  O2_9 
REMARK    6  A    between atoms: O2_9  and  C8_10 
REMARK    7  A    between atoms: C16_22  and  C17_23 
REMARK    8  A    between atoms: C17_23  and  O3_24 
REMARK    9  A    between atoms: C23_33  and  C24_34 
REMARK   10  A    between atoms: C24_34  and  C25_35 
REMARK   11  A    between atoms: C30_40  and  O4_41 
REMARK   12  A    between atoms: C32_43  and  O5_44 
ROOT
HETATM    1  C8  UNL     1       1.759  -0.260  -1.985  1.00  0.00     0.104 A 
HETATM    2  C9  UNL     1       2.420   0.289  -3.103  1.00  0.00     0.071 A 
HETATM    3 CL1  UNL     1       1.774   0.000  -4.704  1.00  0.00    -0.081 Cl
HETATM    4  C10 UNL     1       3.557   1.047  -2.987  1.00  0.00     0.070 A 
HETATM    5  C11 UNL     1       4.050   1.261  -1.702  1.00  0.00     0.131 A 
HETATM    6  F1  UNL     1       5.149   2.047  -1.632  1.00  0.00    -0.205 F 
HETATM    7  C12 UNL     1       3.448   0.746  -0.569  1.00  0.00     0.037 A 
HETATM    8  C13 UNL     1       2.284  -0.024  -0.751  1.00  0.00    -0.006 A 
HETATM    9  C14 UNL     1       1.710  -0.587   0.473  1.00  0.00     0.062 C 
HETATM   10  C15 UNL     1       1.848   0.226   1.702  1.00  0.00     0.124 C 
HETATM   11  N1  UNL     1       2.878   1.201   1.746  1.00  0.00    -0.390 N 
ATOM     12  H1  UNL     1       2.873   1.987   2.396  1.00  0.00     0.159 HD
HETATM   13  C16 UNL     1       3.939   0.978   0.781  1.00  0.00     0.054 C 
ENDROOT
BRANCH   1  14
HETATM   14  O2  UNL     1       0.637  -0.996  -2.212  1.00  0.00    -0.320 OA
BRANCH  14  15
HETATM   15  C7  UNL     1      -0.666  -0.591  -2.451  1.00  0.00     0.143 C 
HETATM   16  C6  UNL     1      -1.377   0.215  -1.500  1.00  0.00     0.032 C 
BRANCH  16  17
HETATM   17  C5  UNL     1      -2.455  -0.013  -0.852  1.00  0.00    -0.046 C 
BRANCH  17  18
HETATM   18  C4  UNL     1      -3.346  -1.161  -0.826  1.00  0.00    -0.024 A 
HETATM   19  C3  UNL     1      -2.974  -2.410  -1.230  1.00  0.00     0.051 A 
HETATM   20  C2  UNL     1      -3.885  -3.472  -1.271  1.00  0.00     0.105 A 
HETATM   21  C32 UNL     1      -5.210  -3.300  -0.898  1.00  0.00     0.135 A 
HETATM   22  C30 UNL     1      -5.585  -2.054  -0.490  1.00  0.00     0.105 A 
HETATM   23  C29 UNL     1      -4.691  -1.018  -0.452  1.00  0.00     0.051 A 
BRANCH  20  24
HETATM   24  O1  UNL     1      -3.476  -4.719  -1.687  1.00  0.00    -0.353 OA
HETATM   25  C1  UNL     1      -2.132  -4.915  -2.064  1.00  0.00     0.210 C 
ENDBRANCH  20  24
BRANCH  21  26
HETATM   26  O5  UNL     1      -6.076  -4.383  -0.955  1.00  0.00    -0.351 OA
HETATM   27  C33 UNL     1      -6.762  -4.561  -2.201  1.00  0.00     0.210 C 
ENDBRANCH  21  26
BRANCH  22  28
HETATM   28  O4  UNL     1      -6.898  -1.815  -0.102  1.00  0.00    -0.353 OA
HETATM   29  C31 UNL     1      -7.330  -0.536   0.327  1.00  0.00     0.210 C 
ENDBRANCH  22  28
ENDBRANCH  17  18
BRANCH  17  30
HETATM   30  C23 UNL     1      -2.912   1.081   0.120  1.00  0.00     0.043 C 
BRANCH  30  31
HETATM   31  C24 UNL     1      -1.945   2.211   0.246  1.00  0.00     0.032 C 
BRANCH  31  32
HETATM   32  C25 UNL     1      -2.477   3.228   1.238  1.00  0.00    -0.024 C 
HETATM   33  C26 UNL     1      -2.716   4.478   0.933  1.00  0.00    -0.091 C 
HETATM   34  C27 UNL     1      -3.239   5.367   2.010  1.00  0.00     0.042 C 
HETATM   35  C28 UNL     1      -2.485   5.012  -0.419  1.00  0.00     0.042 C 
ENDBRANCH  31  32
ENDBRANCH  30  31
ENDBRANCH  17  30
ENDBRANCH  16  17
ENDBRANCH  14  15
ENDBRANCH   1  14
BRANCH  13  36
HETATM   36  C17 UNL     1       5.036   0.128   1.318  1.00  0.00     0.106 C 
HETATM   37  C18 UNL     1       5.640   0.786   2.578  1.00  0.00     0.045 C 
HETATM   38  C19 UNL     1       6.440  -0.252   3.293  1.00  0.00     0.009 C 
HETATM   39  C20 UNL     1       7.570  -0.730   2.405  1.00  0.00     0.079 C 
HETATM   40  C21 UNL     1       7.101  -1.147   1.053  1.00  0.00     0.246 C 
HETATM   41  F2  UNL     1       8.252  -1.319   0.270  1.00  0.00    -0.206 F 
HETATM   42  F3  UNL     1       6.490  -2.374   1.089  1.00  0.00    -0.206 F 
HETATM   43  C22 UNL     1       6.210  -0.076   0.393  1.00  0.00     0.123 C 
BRANCH  36  44
HETATM   44  O3  UNL     1       4.571  -1.118   1.756  1.00  0.00    -0.383 OA
ATOM     45  H3  UNL     1       5.271  -1.661   2.099  1.00  0.00     0.211 HD
ENDBRANCH  36  44
ENDBRANCH  13  36
TORSDOF 12
