REMARK  4 active torsions:
REMARK  status: ('A' for Active; 'I' for Inactive)
REMARK    1  A    between atoms: C2_2  and  N1_4 
REMARK       I    between atoms: N2_9  and  C8_10 
REMARK    2  A    between atoms: C8_10  and  C9_12 
REMARK    3  A    between atoms: C9_12  and  N3_13 
REMARK    4  A    between atoms: C9_12  and  C14_22 
REMARK       I    between atoms: N3_13  and  C10_15 
REMARK       I    between atoms: C10_15  and  N4_17 
ROOT
HETATM    1  C9  UNL     1       1.081  -0.228  -0.608  1.00  0.00     0.190 C 
ENDROOT
BRANCH   1   2
HETATM    2  C8  UNL     1      -0.275  -0.533  -0.142  1.00  0.00     0.244 C 
HETATM    3  N2  UNL     1      -1.494  -0.042  -0.660  1.00  0.00    -0.325 N 
HETATM    4  C7  UNL     1      -1.545   0.835  -1.791  1.00  0.00     0.128 C 
HETATM    5  C19 UNL     1      -2.670  -0.535   0.093  1.00  0.00     0.400 C 
HETATM    6  C6  UNL     1      -2.817   0.667  -2.600  1.00  0.00     0.022 C 
HETATM    7  C5  UNL     1      -4.068   0.738  -1.804  1.00  0.00     0.032 C 
HETATM    8  C4  UNL     1      -3.951   1.409  -0.471  1.00  0.00     0.275 C 
HETATM    9  N1  UNL     1      -3.363   0.622   0.563  1.00  0.00     0.109 N 
HETATM   10  O1  UNL     1      -0.340  -1.348   0.858  1.00  0.00    -0.271 OA
BRANCH   9  11
HETATM   11  C2  UNL     1      -4.237   0.369   1.677  1.00  0.00     0.217 C 
HETATM   12  C1  UNL     1      -3.446  -0.390   2.725  1.00  0.00     0.042 C 
HETATM   13  C3  UNL     1      -5.487  -0.389   1.290  1.00  0.00     0.042 C 
ENDBRANCH   9  11
ENDBRANCH   1   2
BRANCH   1  14
HETATM   14  N3  UNL     1       2.077  -1.072   0.065  1.00  0.00    -0.329 N 
HETATM   15  C10 UNL     1       2.928  -1.939  -0.666  1.00  0.00     0.319 C 
HETATM   16  O2  UNL     1       2.817  -1.975  -1.913  1.00  0.00    -0.247 OA
HETATM   17  N4  UNL     1       3.883  -2.748  -0.020  1.00  0.00    -0.325 N 
HETATM   18  C11 UNL     1       4.780  -3.650  -0.666  1.00  0.00     0.138 C 
HETATM   19  C13 UNL     1       4.070  -2.758   1.425  1.00  0.00     0.201 C 
HETATM   20  C12 UNL     1       6.203  -3.249  -0.251  1.00  0.00     0.095 C 
HETATM   21  S1  UNL     1       5.890  -2.989   1.543  1.00  0.00    -0.147 SA
ATOM     22  H3  UNL     1       2.158  -1.034   1.081  1.00  0.00     0.165 HD
ENDBRANCH   1  14
BRANCH   1  23
HETATM   23  C14 UNL     1       1.427   1.227  -0.407  1.00  0.00     0.114 C 
HETATM   24  C15 UNL     1       2.858   1.506  -0.901  1.00  0.00     0.180 C 
HETATM   25  O3  UNL     1       3.360   2.676  -0.332  1.00  0.00    -0.390 OA
HETATM   26  C16 UNL     1       2.338   3.607  -0.230  1.00  0.00     0.173 C 
HETATM   27  C17 UNL     1       1.451   3.229   0.942  1.00  0.00     0.105 C 
HETATM   28  C18 UNL     1       1.394   1.687   1.017  1.00  0.00     0.253 C 
HETATM   29  F1  UNL     1       0.272   1.366   1.712  1.00  0.00    -0.206 F 
HETATM   30  F2  UNL     1       2.507   1.312   1.741  1.00  0.00    -0.206 F 
ENDBRANCH   1  23
TORSDOF 4
