REMARK  2 active torsions:
REMARK  status: ('A' for Active; 'I' for Inactive)
REMARK    1  A    between atoms: C7_9  and  S1_10 
REMARK    2  A    between atoms: S1_10  and  C8_11 
ROOT
HETATM    1  C8  UNL     1       2.066  -0.579   0.028  1.00  0.00     0.005 A 
HETATM    2  C9  UNL     1       2.572  -1.095   1.244  1.00  0.00     0.020 A 
HETATM    3  C10 UNL     1       3.625  -1.930   1.334  1.00  0.00     0.024 A 
HETATM    4  C11 UNL     1       4.267  -2.321   0.187  1.00  0.00     0.044 A 
HETATM    5  C12 UNL     1       5.378  -3.220   0.239  1.00  0.00     0.099 C 
HETATM    6  N2  UNL     1       6.254  -3.955   0.289  1.00  0.00    -0.191 NA
HETATM    7  C13 UNL     1       3.836  -1.861  -1.040  1.00  0.00     0.024 A 
HETATM    8  C14 UNL     1       2.765  -1.013  -1.117  1.00  0.00     0.020 A 
ENDROOT
BRANCH   1   9
HETATM    9  S1  UNL     1       0.717   0.406   0.056  1.00  0.00    -0.089 SA
BRANCH   9  10
HETATM   10  C7  UNL     1      -0.728   0.889   0.046  1.00  0.00     0.034 A 
HETATM   11  C6  UNL     1      -0.892   2.380   0.144  1.00  0.00     0.027 A 
HETATM   12  C2  UNL     1       0.215   3.210   0.207  1.00  0.00    -0.046 A 
HETATM   13  C5  UNL     1      -2.116   2.996   0.169  1.00  0.00     0.147 A 
HETATM   14  C1  UNL     1       1.574   2.702   0.188  1.00  0.00     0.049 C 
HETATM   15  C3  UNL     1      -0.032   4.607   0.289  1.00  0.00     0.024 A 
HETATM   16  C4  UNL     1      -1.275   5.150   0.309  1.00  0.00     0.089 A 
HETATM   17  N1  UNL     1      -2.305   4.327   0.248  1.00  0.00    -0.356 N 
ATOM     18  H1  UNL     1      -3.253   4.703   0.261  1.00  0.00     0.166 HD
HETATM   19  S2  UNL     1      -3.598   2.094   0.105  1.00  0.00     0.246 S 
HETATM   20  C16 UNL     1      -3.210   0.419  -0.021  1.00  0.00     0.189 A 
HETATM   21  O2  UNL     1      -4.312   2.397   1.425  1.00  0.00    -0.214 OA
HETATM   22  O3  UNL     1      -4.472   2.547  -1.041  1.00  0.00    -0.214 OA
HETATM   23  C15 UNL     1      -1.915   0.002  -0.032  1.00  0.00     0.041 A 
HETATM   24  O1  UNL     1      -4.003  -0.638  -0.117  1.00  0.00    -0.297 OA
HETATM   25  C22 UNL     1      -1.940  -1.403  -0.142  1.00  0.00     0.013 A 
HETATM   26  C17 UNL     1      -3.305  -1.720  -0.190  1.00  0.00     0.088 A 
HETATM   27  C21 UNL     1      -1.019  -2.413  -0.207  1.00  0.00     0.015 A 
HETATM   28  C18 UNL     1      -3.739  -3.042  -0.301  1.00  0.00     0.038 A 
HETATM   29  C19 UNL     1      -2.815  -4.036  -0.364  1.00  0.00     0.003 A 
HETATM   30  C20 UNL     1      -1.486  -3.724  -0.318  1.00  0.00     0.001 A 
ENDBRANCH   9  10
ENDBRANCH   1   9
TORSDOF 2
