REMARK  5 active torsions:
REMARK  status: ('A' for Active; 'I' for Inactive)
REMARK    1  A    between atoms: C2_2  and  C3_3 
REMARK    2  A    between atoms: C10_10  and  C11_11 
REMARK    3  A    between atoms: C16_20  and  O2_21 
REMARK    4  A    between atoms: N1_23  and  C17_24 
REMARK    5  A    between atoms: C23_30  and  O3_31 
ROOT
HETATM    1  C3  UNL     1      -3.773   1.074  -0.243  1.00  0.00     0.015 C 
HETATM    2  C4  UNL     1      -3.110   2.225  -0.938  1.00  0.00     0.010 C 
HETATM    3  C5  UNL     1      -1.716   1.729  -1.393  1.00  0.00     0.020 C 
HETATM    4  C6  UNL     1      -1.651   0.373  -0.803  1.00  0.00     0.015 C 
HETATM    5  C7  UNL     1      -2.266  -0.569  -1.817  1.00  0.00    -0.015 C 
HETATM    6  C8  UNL     1      -2.304  -1.866  -1.774  1.00  0.00    -0.026 C 
HETATM    7  C9  UNL     1      -1.825  -2.854  -0.834  1.00  0.00     0.080 C 
HETATM    8  C10 UNL     1      -1.194  -2.419   0.430  1.00  0.00     0.193 C 
HETATM    9  O1  UNL     1      -2.033  -1.792   1.346  1.00  0.00    -0.365 OA
HETATM   10  C12 UNL     1      -2.989  -0.980   0.904  1.00  0.00     0.176 C 
HETATM   11  C13 UNL     1      -2.566   0.361   0.377  1.00  0.00     0.034 C 
HETATM   12  C14 UNL     1      -0.133  -1.438   0.137  1.00  0.00     0.048 A 
HETATM   13  C15 UNL     1      -0.339  -0.157  -0.421  1.00  0.00     0.020 A 
HETATM   14  C16 UNL     1       0.891   0.454  -0.542  1.00  0.00     0.152 A 
HETATM   15  N1  UNL     1       1.812  -0.421  -0.075  1.00  0.00    -0.303 N 
HETATM   16  C23 UNL     1       1.204  -1.548   0.329  1.00  0.00     0.155 A 
ENDROOT
BRANCH  15  17
HETATM   17  C17 UNL     1       3.224  -0.186  -0.017  1.00  0.00     0.094 C 
HETATM   18  C18 UNL     1       3.800   0.279  -1.332  1.00  0.00     0.026 C 
HETATM   19  C19 UNL     1       4.593   1.536  -1.232  1.00  0.00     0.002 C 
HETATM   20  C20 UNL     1       5.594   1.553  -0.121  1.00  0.00     0.000 C 
HETATM   21  C21 UNL     1       5.110   0.843   1.121  1.00  0.00     0.002 C 
HETATM   22  C22 UNL     1       3.577   0.803   1.102  1.00  0.00     0.026 C 
ENDBRANCH  15  17
BRANCH  14  23
HETATM   23  O2  UNL     1       1.134   1.701  -1.037  1.00  0.00    -0.345 OA
ATOM     24  H2  UNL     1       1.982   2.122  -1.120  1.00  0.00     0.219 HD
ENDBRANCH  14  23
BRANCH  16  25
HETATM   25  O3  UNL     1       1.869  -2.645   0.860  1.00  0.00    -0.345 OA
ATOM     26  H3  UNL     1       2.806  -2.722   0.995  1.00  0.00     0.219 HD
ENDBRANCH  16  25
BRANCH   8  27
HETATM   27  C11 UNL     1      -0.774  -3.660   1.161  1.00  0.00     0.423 C 
HETATM   28  F1  UNL     1      -2.013  -4.354   1.359  1.00  0.00    -0.167 F 
HETATM   29  F2  UNL     1      -0.088  -4.577   0.391  1.00  0.00    -0.167 F 
HETATM   30  F3  UNL     1      -0.328  -3.488   2.426  1.00  0.00    -0.167 F 
ENDBRANCH   8  27
BRANCH   1  31
HETATM   31  C2  UNL     1      -4.713   1.452   0.820  1.00  0.00    -0.032 C 
HETATM   32  C1  UNL     1      -5.087   2.683   1.070  1.00  0.00     0.007 C 
ENDBRANCH   1  31
TORSDOF 5
