REMARK  5 active torsions:
REMARK  status: ('A' for Active; 'I' for Inactive)
REMARK    1  A    between atoms: C3_4  and  N2_5 
REMARK    2  A    between atoms: N2_5  and  C4_7 
REMARK    3  A    between atoms: C4_7  and  C6_12 
REMARK    4  A    between atoms: N3_8  and  C5_10 
REMARK    5  A    between atoms: C11_20  and  O2_21 
ROOT
HETATM    1  N1  UNL     1       0.036  -2.638  -0.183  1.00  0.00    -0.191 NA
HETATM    2  C1  UNL     1      -0.484  -1.618   0.101  1.00  0.00     0.103 C 
HETATM    3  C2  UNL     1      -1.170  -0.350   0.448  1.00  0.00     0.085 A 
HETATM    4  C3  UNL     1      -0.501   0.588   1.158  1.00  0.00     0.097 A 
HETATM    5  S1  UNL     1      -1.691   1.845   1.319  1.00  0.00    -0.075 SA
HETATM    6  C12 UNL     1      -2.975   1.122   0.480  1.00  0.00    -0.007 A 
HETATM    7  C13 UNL     1      -2.460  -0.074   0.093  1.00  0.00    -0.021 A 
HETATM    8  C14 UNL     1      -3.387  -0.991  -0.709  1.00  0.00     0.041 C 
HETATM    9  C15 UNL     1      -4.368  -0.137  -1.437  1.00  0.00     0.005 C 
HETATM   10  C16 UNL     1      -5.210   0.531  -0.339  1.00  0.00     0.005 C 
HETATM   11  C17 UNL     1      -4.356   1.624   0.201  1.00  0.00     0.047 C 
ENDROOT
BRANCH   4  12
HETATM   12  N2  UNL     1       0.802   0.708   1.701  1.00  0.00    -0.335 N 
ATOM     13  H2  UNL     1       0.991   1.570   2.213  1.00  0.00     0.168 HD
BRANCH  12  14
HETATM   14  C4  UNL     1       1.874  -0.209   1.626  1.00  0.00     0.121 C 
HETATM   15  N3  UNL     1       1.921  -1.111   2.514  1.00  0.00    -0.320 N 
ATOM     16  H3  UNL     1       1.159  -1.064   3.190  1.00  0.00     0.169 HD
BRANCH  15  17
HETATM   17  C5  UNL     1       2.805  -2.145   2.742  1.00  0.00     0.354 C 
HETATM   18  O1  UNL     1       2.352  -3.340   2.732  1.00  0.00    -0.283 OA
ENDBRANCH  15  17
BRANCH  14  19
HETATM   19  C6  UNL     1       2.869  -0.091   0.592  1.00  0.00     0.045 A 
HETATM   20  C7  UNL     1       3.444  -1.154  -0.048  1.00  0.00     0.044 A 
HETATM   21  C8  UNL     1       4.407  -1.019  -1.024  1.00  0.00     0.058 A 
HETATM   22 CL1  UNL     1       5.079  -2.440  -1.778  1.00  0.00    -0.082 Cl
HETATM   23  C9  UNL     1       4.843   0.216  -1.408  1.00  0.00     0.080 A 
HETATM   24 CL2  UNL     1       6.058   0.443  -2.636  1.00  0.00    -0.081 Cl
HETATM   25  C10 UNL     1       4.291   1.334  -0.791  1.00  0.00     0.091 A 
HETATM   26 CL3  UNL     1       4.833   2.920  -1.266  1.00  0.00    -0.079 Cl
HETATM   27  C11 UNL     1       3.333   1.168   0.179  1.00  0.00     0.103 A 
BRANCH  27  28
HETATM   28  O2  UNL     1       2.819   2.298   0.759  1.00  0.00    -0.358 OA
ATOM     29  H2  UNL     1       3.133   3.150   0.480  1.00  0.00     0.217 HD
ENDBRANCH  27  28
ENDBRANCH  14  19
ENDBRANCH  12  14
ENDBRANCH   4  12
TORSDOF 5
