REMARK  16 active torsions:
REMARK  status: ('A' for Active; 'I' for Inactive)
REMARK    1  A    between atoms: C5_5  and  C6_6 
REMARK    2  A    between atoms: C6_6  and  C8_8 
REMARK    3  A    between atoms: C9_9  and  C10_10 
REMARK    4  A    between atoms: C10_10  and  O1_11 
REMARK    5  A    between atoms: C10_10  and  C11_13 
REMARK    6  A    between atoms: C11_13  and  C13_15 
REMARK    7  A    between atoms: C13_15  and  O2_16 
REMARK    8  A    between atoms: C13_15  and  C14_18 
REMARK    9  A    between atoms: C14_18  and  O3_20 
REMARK   10  A    between atoms: C14_18  and  S1_22 
REMARK   11  A    between atoms: S1_22  and  C16_23 
REMARK   12  A    between atoms: C17_25  and  C18_26 
REMARK   13  A    between atoms: C18_26  and  O5_27 
REMARK   14  A    between atoms: C19_29  and  O6_30 
REMARK   15  A    between atoms: C20_32  and  O7_33 
REMARK   16  A    between atoms: C21_35  and  O8_36 
ROOT
HETATM    1  C14 UNL     1      -1.745  -1.328   1.351  1.00  0.00     0.131 C 
HETATM    2  C15 UNL     1      -1.529  -1.669   2.788  1.00  0.00     0.061 C 
ENDROOT
BRANCH   1   3
HETATM    3  C13 UNL     1      -1.141  -0.088   0.853  1.00  0.00     0.169 C 
BRANCH   3   4
HETATM    4  C11 UNL     1       0.333   0.062   0.861  1.00  0.00     0.046 C 
HETATM    5  C12 UNL     1       0.944   0.315   2.200  1.00  0.00     0.015 C 
BRANCH   4   6
HETATM    6  C10 UNL     1       1.069  -1.019   0.084  1.00  0.00     0.147 C 
BRANCH   6   7
HETATM    7  C9  UNL     1       2.502  -0.620  -0.138  1.00  0.00     0.001 C 
HETATM    8  C8  UNL     1       3.425  -1.489  -0.495  1.00  0.00    -0.021 C 
BRANCH   8   9
HETATM    9  C6  UNL     1       4.846  -1.167  -0.729  1.00  0.00     0.033 C 
HETATM   10  C7  UNL     1       5.741  -1.952   0.203  1.00  0.00     0.017 C 
BRANCH   9  11
HETATM   11  C5  UNL     1       5.099   0.302  -0.675  1.00  0.00     0.129 C 
HETATM   12  C4  UNL     1       6.526   0.623  -1.066  1.00  0.00     0.035 C 
HETATM   13  C3  UNL     1       6.680   2.034  -0.532  1.00  0.00     0.034 C 
HETATM   14  C2  UNL     1       5.558   2.093   0.482  1.00  0.00     0.118 C 
HETATM   15  C1  UNL     1       4.479   3.054   0.100  1.00  0.00     0.039 C 
HETATM   16  O9  UNL     1       5.071   0.815   0.620  1.00  0.00    -0.380 OA
ENDBRANCH   9  11
ENDBRANCH   8   9
ENDBRANCH   6   7
BRANCH   6  17
HETATM   17  O1  UNL     1       0.537  -1.163  -1.200  1.00  0.00    -0.391 OA
ATOM     18  H1  UNL     1      -0.368  -1.415  -1.060  1.00  0.00     0.210 HD
ENDBRANCH   6  17
ENDBRANCH   4   6
ENDBRANCH   3   4
BRANCH   3  19
HETATM   19  O2  UNL     1      -1.634   1.003   1.614  1.00  0.00    -0.391 OA
ATOM     20  H2  UNL     1      -2.579   0.907   1.609  1.00  0.00     0.210 HD
ENDBRANCH   3  19
ENDBRANCH   1   3
BRANCH   1  21
HETATM   21  O3  UNL     1      -1.292  -2.439   0.620  1.00  0.00    -0.377 OA
ATOM     22  H3  UNL     1      -1.683  -3.242   0.943  1.00  0.00     0.211 HD
ENDBRANCH   1  21
BRANCH   1  23
HETATM   23  S1  UNL     1      -3.541  -1.278   1.115  1.00  0.00    -0.095 SA
BRANCH  23  24
HETATM   24  C16 UNL     1      -4.056  -1.289  -0.598  1.00  0.00     0.217 C 
HETATM   25  O4  UNL     1      -3.686  -0.117  -1.216  1.00  0.00    -0.363 OA
HETATM   26  C17 UNL     1      -4.399   1.008  -0.923  1.00  0.00     0.178 C 
HETATM   27  C19 UNL     1      -5.465   0.897   0.095  1.00  0.00     0.180 C 
HETATM   28  C20 UNL     1      -6.305  -0.353  -0.035  1.00  0.00     0.181 C 
HETATM   29  C21 UNL     1      -5.552  -1.448  -0.760  1.00  0.00     0.188 C 
BRANCH  26  30
HETATM   30  C18 UNL     1      -4.885   1.584  -2.253  1.00  0.00     0.198 C 
BRANCH  30  31
HETATM   31  O5  UNL     1      -5.599   2.748  -2.032  1.00  0.00    -0.398 OA
ATOM     32  H5  UNL     1      -5.901   3.106  -2.859  1.00  0.00     0.209 HD
ENDBRANCH  30  31
ENDBRANCH  26  30
BRANCH  27  33
HETATM   33  O6  UNL     1      -6.320   1.988   0.014  1.00  0.00    -0.390 OA
ATOM     34  H6  UNL     1      -7.005   1.917   0.668  1.00  0.00     0.210 HD
ENDBRANCH  27  33
BRANCH  28  35
HETATM   35  O7  UNL     1      -6.613  -0.780   1.255  1.00  0.00    -0.390 OA
ATOM     36  H7  UNL     1      -7.141  -1.566   1.173  1.00  0.00     0.210 HD
ENDBRANCH  28  35
BRANCH  29  37
HETATM   37  O8  UNL     1      -5.986  -2.716  -0.396  1.00  0.00    -0.389 OA
ATOM     38  H8  UNL     1      -6.925  -2.816  -0.498  1.00  0.00     0.210 HD
ENDBRANCH  29  37
ENDBRANCH  23  24
ENDBRANCH   1  23
TORSDOF 16
