REMARK  12 active torsions:
REMARK  status: ('A' for Active; 'I' for Inactive)
REMARK    1  A    between atoms: N1_1  and  C1_4 
REMARK    2  A    between atoms: C3_8  and  N3_9 
REMARK    3  A    between atoms: N3_9  and  C4_11 
REMARK    4  A    between atoms: C4_11  and  N4_12 
REMARK    5  A    between atoms: C4_11  and  C5_16 
REMARK    6  A    between atoms: C5_16  and  C6_17 
REMARK    7  A    between atoms: C6_17  and  N5_18 
REMARK    8  A    between atoms: N5_18  and  C7_21 
REMARK    9  A    between atoms: C7_21  and  O1_22 
REMARK   10  A    between atoms: C7_21  and  N6_24 
REMARK   11  A    between atoms: N6_24  and  C8_27 
REMARK   12  A    between atoms: C8_27  and  C9_28 
ROOT
HETATM    1  C5  UNL     1      -0.584  -1.058  -0.690  1.00  0.00     0.081 C 
ENDROOT
BRANCH   1   2
HETATM    2  C4  UNL     1      -1.954  -0.485  -0.689  1.00  0.00     0.283 C 
BRANCH   2   3
HETATM    3  N3  UNL     1      -2.600  -0.664   0.608  1.00  0.00    -0.360 N 
ATOM      4  H3  UNL     1      -2.058  -0.932   1.429  1.00  0.00     0.161 HD
BRANCH   3   5
HETATM    5  C3  UNL     1      -3.992  -0.457   0.698  1.00  0.00     0.061 A 
HETATM    6  C2  UNL     1      -4.618  -0.501   1.949  1.00  0.00     0.136 A 
HETATM    7  N2  UNL     1      -5.943  -0.319   2.072  1.00  0.00    -0.200 N 
HETATM    8  C1  UNL     1      -6.710  -0.088   0.997  1.00  0.00     0.675 A 
ATOM      9  H2  UNL     1      -6.372  -0.357   2.997  1.00  0.00     0.183 HD
HETATM   10  N9  UNL     1      -6.131  -0.042  -0.214  1.00  0.00    -0.200 N 
HETATM   11  C13 UNL     1      -4.786  -0.222  -0.384  1.00  0.00     0.136 A 
ATOM     12  H9  UNL     1      -6.713   0.133  -1.033  1.00  0.00     0.183 HD
BRANCH   8  13
HETATM   13  N1  UNL     1      -7.985   0.093   1.060  1.00  0.00    -0.234 N 
ATOM     14  H12 UNL     1      -8.425   0.058   1.980  1.00  0.00     0.174 HD
ATOM     15  H11 UNL     1      -8.569   0.269   0.242  1.00  0.00     0.174 HD
ENDBRANCH   8  13
ENDBRANCH   3   5
ENDBRANCH   2   3
BRANCH   2  16
HETATM   16  N4  UNL     1      -2.059   0.858  -1.085  1.00  0.00    -0.058 N 
ATOM     17  H43 UNL     1      -3.025   1.184  -1.088  1.00  0.00     0.276 HD
ATOM     18  H42 UNL     1      -1.691   1.497  -0.380  1.00  0.00     0.276 HD
ATOM     19  H41 UNL     1      -1.608   0.983  -1.991  1.00  0.00     0.276 HD
ENDBRANCH   2  16
ENDBRANCH   1   2
BRANCH   1  20
HETATM   20  C6  UNL     1       0.301  -0.438   0.325  1.00  0.00     0.241 C 
BRANCH  20  21
HETATM   21  N5  UNL     1       0.520   0.944   0.107  1.00  0.00    -0.023 N 
ATOM     22  H52 UNL     1      -0.357   1.463   0.057  1.00  0.00     0.282 HD
ATOM     23  H51 UNL     1       0.920   1.398   0.928  1.00  0.00     0.282 HD
BRANCH  21  24
HETATM   24  C7  UNL     1       1.332   1.151  -1.067  1.00  0.00     0.522 C 
BRANCH  24  25
HETATM   25  O1  UNL     1       1.465   2.540  -1.218  1.00  0.00    -0.349 OA
ATOM     26  H1  UNL     1       2.000   2.676  -1.991  1.00  0.00     0.213 HD
ENDBRANCH  24  25
BRANCH  24  27
HETATM   27  N6  UNL     1       2.590   0.506  -0.898  1.00  0.00    -0.016 N 
ATOM     28  H62 UNL     1       2.488  -0.508  -0.849  1.00  0.00     0.282 HD
ATOM     29  H61 UNL     1       3.158   0.565  -1.743  1.00  0.00     0.282 HD
BRANCH  27  30
HETATM   30  C8  UNL     1       3.283   1.017   0.234  1.00  0.00     0.313 C 
BRANCH  30  31
HETATM   31  C9  UNL     1       4.593   0.307   0.357  1.00  0.00     0.107 A 
HETATM   32  N7  UNL     1       5.503   0.658   1.288  1.00  0.00    -0.354 N 
HETATM   33  C10 UNL     1       6.676   0.007   1.386  1.00  0.00     0.090 A 
ATOM     34  H7  UNL     1       5.299   1.427   1.926  1.00  0.00     0.166 HD
HETATM   35  C11 UNL     1       7.013  -1.041   0.556  1.00  0.00     0.034 A 
HETATM   36  C12 UNL     1       6.067  -1.392  -0.398  1.00  0.00     0.090 A 
HETATM   37  N8  UNL     1       4.905  -0.712  -0.460  1.00  0.00    -0.354 N 
ATOM     38  H8  UNL     1       4.224  -0.987  -1.168  1.00  0.00     0.166 HD
ENDBRANCH  30  31
ENDBRANCH  27  30
ENDBRANCH  24  27
ENDBRANCH  21  24
ENDBRANCH  20  21
ENDBRANCH   1  20
TORSDOF 12
