REMARK  6 active torsions:
REMARK  status: ('A' for Active; 'I' for Inactive)
REMARK    1  A    between atoms: N1_2  and  C4_5 
REMARK    2  A    between atoms: C5_6  and  C6_7 
REMARK    3  A    between atoms: C6_7  and  N2_9 
REMARK    4  A    between atoms: C10_14  and  C11_15 
REMARK    5  A    between atoms: C11_15  and  N3_16 
REMARK       I    between atoms: N3_16  and  C12_18 
REMARK    6  A    between atoms: C12_18  and  C13_20 
ROOT
HETATM    1  N2  UNL     1       0.328  -1.908  -0.164  1.00  0.00    -0.328 N 
HETATM    2  C7  UNL     1       0.795  -2.880   0.765  1.00  0.00     0.221 C 
HETATM    3  O1  UNL     1       0.069  -3.370   1.687  1.00  0.00    -0.273 OA
HETATM    4  C8  UNL     1       2.215  -3.184   0.458  1.00  0.00     0.105 C 
HETATM    5  C9  UNL     1       2.501  -2.318  -0.748  1.00  0.00     0.036 C 
HETATM    6  C10 UNL     1       1.540  -1.151  -0.524  1.00  0.00     0.107 C 
ENDROOT
BRANCH   1   7
HETATM    7  C6  UNL     1      -1.024  -1.695  -0.657  1.00  0.00     0.184 C 
HETATM    8 BR1  UNL     1      -1.097  -1.869  -2.585  1.00  0.00    -0.064 Br
BRANCH   7   9
HETATM    9  C5  UNL     1      -1.506  -0.354  -0.307  1.00  0.00     0.035 C 
HETATM   10  C4  UNL     1      -2.751  -0.122   0.082  1.00  0.00     0.200 C 
BRANCH  10  11
HETATM   11  N1  UNL     1      -3.238   1.168   0.425  1.00  0.00    -0.059 N 
HETATM   12  C1  UNL     1      -2.952   1.400   1.831  1.00  0.00     0.277 C 
HETATM   13  C2  UNL     1      -4.668   1.280   0.249  1.00  0.00     0.277 C 
HETATM   14  C3  UNL     1      -2.548   2.200  -0.342  1.00  0.00     0.277 C 
ENDBRANCH  10  11
ENDBRANCH   7   9
ENDBRANCH   1   7
BRANCH   6  15
HETATM   15  C11 UNL     1       2.044  -0.390   0.662  1.00  0.00     0.148 C 
BRANCH  15  16
HETATM   16  N3  UNL     1       3.212   0.387   0.463  1.00  0.00    -0.357 N 
HETATM   17  C12 UNL     1       3.228   1.443  -0.485  1.00  0.00     0.250 C 
HETATM   18  O2  UNL     1       2.194   1.698  -1.159  1.00  0.00    -0.271 OA
ATOM     19  H3  UNL     1       4.051   0.185   1.007  1.00  0.00     0.162 HD
BRANCH  17  20
HETATM   20  C13 UNL     1       4.436   2.277  -0.723  1.00  0.00     0.269 C 
HETATM   21 CL1  UNL     1       4.082   3.489  -1.971  1.00  0.00    -0.098 Cl
HETATM   22 CL2  UNL     1       5.799   1.286  -1.321  1.00  0.00    -0.098 Cl
ENDBRANCH  17  20
ENDBRANCH  15  16
ENDBRANCH   6  15
TORSDOF 6
