REMARK  4 active torsions:
REMARK  status: ('A' for Active; 'I' for Inactive)
REMARK       I    between atoms: C1_4  and  N3_6 
REMARK    1  A    between atoms: N3_6  and  C2_8 
REMARK    2  A    between atoms: N4_11  and  S1_12 
REMARK    3  A    between atoms: S1_12  and  C5_15 
REMARK    4  A    between atoms: C7_21  and  N7_22 
ROOT
HETATM    1  C2  UNL     1      -1.574  -0.772   0.522  1.00  0.00     0.116 C 
HETATM    2  C3  UNL     1      -0.850   0.406   1.102  1.00  0.00     0.043 C 
HETATM    3  C4  UNL     1       0.436   0.712   0.362  1.00  0.00     0.110 C 
HETATM    4  N4  UNL     1       1.259  -0.479   0.435  1.00  0.00    -0.202 NA
HETATM    5  C6  UNL     1       0.663  -1.608  -0.250  1.00  0.00     0.142 C 
HETATM    6  C7  UNL     1      -0.705  -1.949   0.260  1.00  0.00     0.220 C 
ENDROOT
BRANCH   4   7
HETATM    7  S1  UNL     1       2.802  -0.220  -0.319  1.00  0.00     0.272 S 
HETATM    8  O1  UNL     1       3.535  -1.540  -0.248  1.00  0.00    -0.203 OA
HETATM    9  O2  UNL     1       2.526   0.064  -1.776  1.00  0.00    -0.203 OA
BRANCH   7  10
HETATM   10  C5  UNL     1       3.707   1.027   0.449  1.00  0.00     0.221 C 
HETATM   11  N5  UNL     1       4.512   0.763   1.421  1.00  0.00    -0.377 N 
ATOM     12  H52 UNL     1       4.602  -0.206   1.727  1.00  0.00     0.158 HD
ATOM     13  H51 UNL     1       5.048   1.502   1.876  1.00  0.00     0.158 HD
HETATM   14  N6  UNL     1       3.582   2.378   0.023  1.00  0.00    -0.069 NA
ENDBRANCH   7  10
ENDBRANCH   4   7
BRANCH   6  15
HETATM   15  N7  UNL     1      -1.355  -2.785  -0.734  1.00  0.00    -0.072 N 
ATOM     16  H73 UNL     1      -2.303  -3.049  -0.465  1.00  0.00     0.274 HD
ATOM     17  H72 UNL     1      -1.589  -2.273  -1.585  1.00  0.00     0.274 HD
ATOM     18  H71 UNL     1      -0.759  -3.593  -0.914  1.00  0.00     0.274 HD
ENDBRANCH   6  15
BRANCH   1  19
HETATM   19  N3  UNL     1      -2.292  -0.323  -0.660  1.00  0.00    -0.358 N 
HETATM   20  C1  UNL     1      -3.283   0.692  -0.552  1.00  0.00     0.182 C 
HETATM   21  N1  UNL     1      -4.461   0.339  -0.191  1.00  0.00    -0.374 N 
HETATM   22  N2  UNL     1      -3.035   2.062  -0.822  1.00  0.00    -0.064 NA
ATOM     23  H12 UNL     1      -5.172   1.067  -0.114  1.00  0.00     0.158 HD
ATOM     24  H11 UNL     1      -4.639  -0.646   0.003  1.00  0.00     0.158 HD
ATOM     25  H3  UNL     1      -2.085  -0.737  -1.569  1.00  0.00     0.162 HD
ENDBRANCH   1  19
TORSDOF 4
