REMARK  7 active torsions:
REMARK  status: ('A' for Active; 'I' for Inactive)
REMARK    1  A    between atoms: C2_2  and  C3_3 
REMARK    2  A    between atoms: C2_2  and  N2_9 
REMARK    3  A    between atoms: C3_3  and  N1_4 
REMARK    4  A    between atoms: N1_4  and  C4_7 
REMARK    5  A    between atoms: N3_11  and  C6_13 
REMARK    6  A    between atoms: C9_17  and  O1_18 
REMARK    7  A    between atoms: C10_20  and  O2_22 
ROOT
HETATM    1  N2  UNL     1       0.438   0.938   0.108  1.00  0.00    -0.306 N 
ATOM      2  H2  UNL     1       0.366   1.900   0.440  1.00  0.00     0.186 HD
HETATM    3  N3  UNL     1      -0.487   0.121   0.216  1.00  0.00    -0.301 N 
ATOM      4  H3  UNL     1      -0.261  -0.798  -0.163  1.00  0.00     0.182 HD
ENDROOT
BRANCH   3   5
HETATM    5  C6  UNL     1      -1.792   0.200   0.757  1.00  0.00     0.372 C 
HETATM    6  N4  UNL     1      -2.247  -1.078   1.293  1.00  0.00     0.114 N 
HETATM    7  C7  UNL     1      -1.869  -2.170   0.414  1.00  0.00     0.312 C 
HETATM    8  C8  UNL     1      -3.682  -0.936   1.275  1.00  0.00     0.309 C 
HETATM    9  C9  UNL     1      -3.966  -0.259  -0.044  1.00  0.00     0.184 C 
HETATM   10  C10 UNL     1      -2.770   0.633  -0.290  1.00  0.00     0.131 C 
HETATM   11  C11 UNL     1      -3.128   2.093  -0.080  1.00  0.00     0.053 C 
BRANCH   9  12
HETATM   12  O1  UNL     1      -4.127  -1.205  -1.039  1.00  0.00    -0.391 OA
ATOM     13  H1  UNL     1      -4.306  -0.779  -1.869  1.00  0.00     0.210 HD
ENDBRANCH   9  12
BRANCH  10  14
HETATM   14  O2  UNL     1      -2.289   0.507  -1.571  1.00  0.00    -0.383 OA
ATOM     15  H2  UNL     1      -2.910   0.782  -2.236  1.00  0.00     0.210 HD
ENDBRANCH  10  14
ENDBRANCH   3   5
BRANCH   1  16
HETATM   16  C2  UNL     1       1.633   0.415  -0.530  1.00  0.00     0.041 C 
HETATM   17  C1  UNL     1       1.542   0.060  -1.799  1.00  0.00     0.041 C 
BRANCH  16  18
HETATM   18  C3  UNL     1       2.885   0.284   0.255  1.00  0.00     0.289 C 
BRANCH  18  19
HETATM   19  N1  UNL     1       3.890  -0.293  -0.624  1.00  0.00    -0.070 N 
ATOM     20  H12 UNL     1       3.532  -1.130  -1.084  1.00  0.00     0.277 HD
ATOM     21  H11 UNL     1       4.038   0.297  -1.442  1.00  0.00     0.277 HD
BRANCH  19  22
HETATM   22  C4  UNL     1       5.144  -0.569   0.046  1.00  0.00     0.228 C 
HETATM   23  C5  UNL     1       5.802   0.752   0.397  1.00  0.00     0.034 C 
ENDBRANCH  19  22
ENDBRANCH  18  19
ENDBRANCH  16  18
ENDBRANCH   1  16
TORSDOF 7
