REMARK  14 active torsions:
REMARK  status: ('A' for Active; 'I' for Inactive)
REMARK    1  A    between atoms: O1_2  and  C2_3 
REMARK    2  A    between atoms: C3_4  and  O2_5 
REMARK    3  A    between atoms: C4_7  and  N1_8 
REMARK    4  A    between atoms: C9_20  and  S2_21 
REMARK    5  A    between atoms: S2_21  and  O5_24 
REMARK    6  A    between atoms: C14_30  and  N4_31 
REMARK    7  A    between atoms: N4_31  and  C15_33 
REMARK    8  A    between atoms: C18_41  and  O8_42 
REMARK    9  A    between atoms: O8_42  and  C19_43 
REMARK   10  A    between atoms: C19_43  and  C20_44 
REMARK   11  A    between atoms: C20_44  and  O9_45 
REMARK   12  A    between atoms: C20_44  and  C21_47 
REMARK   13  A    between atoms: C21_47  and  N7_48 
REMARK   14  A    between atoms: N7_48  and  S3_50 
ROOT
HETATM    1  C2  UNL     1       0.872   0.548  -2.447  1.00  0.00     0.192 C 
HETATM    2  C3  UNL     1       1.924  -0.238  -3.260  1.00  0.00     0.181 C 
HETATM    3  C4  UNL     1       1.374  -1.584  -3.505  1.00  0.00     0.222 C 
HETATM    4  C5  UNL     1      -0.011  -1.533  -2.859  1.00  0.00     0.071 C 
HETATM    5  C6  UNL     1      -0.930  -1.229  -3.944  1.00  0.00     0.091 C 
HETATM    6  S1  UNL     1      -2.698  -1.314  -3.539  1.00  0.00    -0.110 SA
HETATM    7  C7  UNL     1      -2.744  -1.912  -1.841  1.00  0.00     0.099 A 
HETATM    8  N2  UNL     1      -3.495  -2.891  -1.410  1.00  0.00    -0.291 N 
ATOM      9  H2  UNL     1      -4.153  -3.441  -1.962  1.00  0.00     0.188 HD
HETATM   10  N3  UNL     1      -3.247  -3.027  -0.166  1.00  0.00    -0.283 N 
HETATM   11  C8  UNL     1      -3.871  -4.016   0.722  1.00  0.00     0.179 C 
HETATM   12  C9  UNL     1      -2.306  -2.143   0.330  1.00  0.00     0.187 A 
HETATM   13  C11 UNL     1      -1.989  -1.406  -0.826  1.00  0.00     0.084 A 
HETATM   14  C12 UNL     1      -1.035  -0.273  -0.969  1.00  0.00     0.236 C 
HETATM   15  O6  UNL     1      -1.680   0.674  -1.838  1.00  0.00    -0.344 OA
HETATM   16  C13 UNL     1      -2.692   1.227  -1.083  1.00  0.00     0.225 C 
HETATM   17  C14 UNL     1      -2.100   1.236   0.305  1.00  0.00     0.251 C 
HETATM   18  O7  UNL     1      -1.005   0.427   0.164  1.00  0.00    -0.321 OA
HETATM   19  C18 UNL     1       0.221  -0.577  -1.711  1.00  0.00     0.157 C 
ENDROOT
BRANCH  19  20
HETATM   20  O8  UNL     1       1.239  -1.168  -0.987  1.00  0.00    -0.368 OA
BRANCH  20  21
HETATM   21  C19 UNL     1       1.959  -0.490  -0.108  1.00  0.00     0.202 C 
BRANCH  21  22
HETATM   22  C20 UNL     1       3.015  -1.297   0.641  1.00  0.00     0.160 C 
BRANCH  22  23
HETATM   23  O9  UNL     1       3.966  -1.881  -0.129  1.00  0.00    -0.392 OA
ATOM     24  H9  UNL     1       4.624  -2.384   0.337  1.00  0.00     0.210 HD
ENDBRANCH  22  23
BRANCH  22  25
HETATM   25  C21 UNL     1       3.710  -0.420   1.673  1.00  0.00     0.165 C 
BRANCH  25  26
HETATM   26  N7  UNL     1       4.585  -1.163   2.517  1.00  0.00    -0.317 N 
ATOM     27  H7  UNL     1       4.762  -2.167   2.478  1.00  0.00     0.172 HD
BRANCH  26  28
HETATM   28  S3  UNL     1       5.296  -0.022   3.632  1.00  0.00     0.222 S 
HETATM   29  C22 UNL     1       6.232   1.189   2.709  1.00  0.00     0.185 C 
HETATM   30  O10 UNL     1       4.225   0.719   4.378  1.00  0.00    -0.206 OA
HETATM   31  O11 UNL     1       6.171  -0.709   4.626  1.00  0.00    -0.206 OA
ENDBRANCH  26  28
ENDBRANCH  25  26
ENDBRANCH  22  25
ENDBRANCH  21  22
ENDBRANCH  20  21
ENDBRANCH  19  20
BRANCH  12  32
HETATM   32  S2  UNL     1      -1.638  -1.936   2.031  1.00  0.00     0.315 S 
HETATM   33  O3  UNL     1      -3.193  -1.502   2.697  1.00  0.00    -0.192 OA
HETATM   34  O4  UNL     1      -1.285  -3.964   2.101  1.00  0.00    -0.192 OA
BRANCH  32  35
HETATM   35  O5  UNL     1      -1.238  -2.192   3.499  1.00  0.00    -0.276 OA
HETATM   36  C10 UNL     1      -1.038  -1.194   4.412  1.00  0.00     0.226 C 
ENDBRANCH  32  35
ENDBRANCH  12  32
BRANCH  17  37
HETATM   37  N4  UNL     1      -1.728   2.536   0.765  1.00  0.00    -0.334 N 
ATOM     38  H4  UNL     1      -0.745   2.695   0.987  1.00  0.00     0.165 HD
BRANCH  37  39
HETATM   39  C15 UNL     1      -2.623   3.619   0.935  1.00  0.00     0.173 C 
HETATM   40  N5  UNL     1      -2.984   4.432   0.013  1.00  0.00    -0.361 N 
HETATM   41  C16 UNL     1      -3.903   5.424   0.505  1.00  0.00     0.142 C 
ATOM     42  H5  UNL     1      -2.659   4.382  -0.953  1.00  0.00     0.162 HD
HETATM   43  C17 UNL     1      -4.265   4.969   1.908  1.00  0.00     0.142 C 
HETATM   44  N6  UNL     1      -3.255   3.962   2.171  1.00  0.00    -0.361 N 
ATOM     45  H6  UNL     1      -3.033   3.565   3.084  1.00  0.00     0.162 HD
ENDBRANCH  37  39
ENDBRANCH  17  37
BRANCH   1  46
HETATM   46  O1  UNL     1       0.099   1.343  -3.228  1.00  0.00    -0.385 OA
HETATM   47  C1  UNL     1       0.354   2.674  -3.027  1.00  0.00     0.202 C 
ENDBRANCH   1  46
BRANCH   2  48
HETATM   48  O2  UNL     1       2.228   0.453  -4.434  1.00  0.00    -0.391 OA
ATOM     49  H2  UNL     1       2.875  -0.030  -4.934  1.00  0.00     0.210 HD
ENDBRANCH   2  48
BRANCH   3  50
HETATM   50  N1  UNL     1       2.132  -2.693  -3.050  1.00  0.00    -0.072 N 
ATOM     51  H13 UNL     1       3.075  -2.638  -3.435  1.00  0.00     0.274 HD
ATOM     52  H12 UNL     1       2.326  -2.584  -2.055  1.00  0.00     0.274 HD
ATOM     53  H11 UNL     1       1.752  -3.624  -3.219  1.00  0.00     0.274 HD
ENDBRANCH   3  50
TORSDOF 14
