REMARK  13 active torsions:
REMARK  status: ('A' for Active; 'I' for Inactive)
REMARK    1  A    between atoms: C2_2  and  C3_3 
REMARK    2  A    between atoms: C3_3  and  O1_4 
REMARK    3  A    between atoms: C3_3  and  C4_6 
REMARK       I    between atoms: C4_6  and  N1_8 
REMARK    4  A    between atoms: N1_8  and  C5_9 
REMARK    5  A    between atoms: C8_14  and  S2_15 
REMARK    6  A    between atoms: S2_15  and  C9_16 
REMARK       I    between atoms: N2_18  and  C11_19 
REMARK    7  A    between atoms: C14_26  and  N4_27 
REMARK    8  A    between atoms: N4_27  and  C15_29 
REMARK    9  A    between atoms: C15_29  and  O5_30 
REMARK   10  A    between atoms: C15_29  and  C16_32 
REMARK   11  A    between atoms: N7_37  and  N8_38 
REMARK   12  A    between atoms: C17_40  and  C18_41 
REMARK   13  A    between atoms: C21_50  and  C22_51 
ROOT
HETATM    1  C9  UNL     1      -1.303  -1.722   0.079  1.00  0.00     0.120 C 
HETATM    2  C10 UNL     1      -0.584  -2.798   0.920  1.00  0.00     0.147 C 
HETATM    3  N2  UNL     1      -0.711  -4.031   0.182  1.00  0.00    -0.327 N 
HETATM    4  C11 UNL     1      -0.671  -5.245   0.926  1.00  0.00     0.217 C 
HETATM    5  C12 UNL     1      -0.727  -6.570   0.321  1.00  0.00     0.117 C 
HETATM    6  O4  UNL     1      -0.580  -5.168   2.216  1.00  0.00    -0.274 OA
HETATM    7  C13 UNL     1      -0.862  -4.102  -1.262  1.00  0.00     0.362 C 
HETATM    8  N3  UNL     1      -1.937  -3.205  -1.706  1.00  0.00    -0.037 N 
ATOM      9  H31 UNL     1      -2.664  -3.697  -2.226  1.00  0.00     0.281 HD
ATOM     10  H32 UNL     1      -1.635  -2.573  -2.448  1.00  0.00     0.281 HD
HETATM   11  C14 UNL     1      -2.459  -2.501  -0.563  1.00  0.00     0.299 C 
ENDROOT
BRANCH  11  12
HETATM   12  N4  UNL     1      -3.638  -1.772  -0.815  1.00  0.00    -0.363 N 
ATOM     13  H4  UNL     1      -3.899  -1.485  -1.758  1.00  0.00     0.158 HD
BRANCH  12  14
HETATM   14  C15 UNL     1      -4.450  -1.454   0.318  1.00  0.00     0.287 C 
BRANCH  14  15
HETATM   15  O5  UNL     1      -3.606  -1.464   1.465  1.00  0.00    -0.370 OA
ATOM     16  H5  UNL     1      -4.146  -1.253   2.218  1.00  0.00     0.212 HD
ENDBRANCH  14  15
BRANCH  14  17
HETATM   17  C16 UNL     1      -4.976  -0.063   0.233  1.00  0.00     0.164 A 
HETATM   18  N5  UNL     1      -5.074   0.799   1.286  1.00  0.00    -0.267 N 
HETATM   19  N6  UNL     1      -5.576   1.905   0.867  1.00  0.00    -0.204 N 
ATOM     20  H5  UNL     1      -4.795   0.599   2.246  1.00  0.00     0.190 HD
HETATM   21  N7  UNL     1      -5.832   1.849  -0.449  1.00  0.00    -0.115 N 
ATOM     22  H6  UNL     1      -5.756   2.718   1.456  1.00  0.00     0.212 HD
HETATM   23  N11 UNL     1      -5.448   0.607  -0.829  1.00  0.00    -0.246 N 
ATOM     24  H11 UNL     1      -5.508   0.238  -1.778  1.00  0.00     0.192 HD
BRANCH  21  25
HETATM   25  N8  UNL     1      -6.332   2.894  -1.157  1.00  0.00    -0.272 N 
HETATM   26  C17 UNL     1      -7.336   3.617  -1.126  1.00  0.00     0.141 C 
ATOM     27  H8  UNL     1      -5.711   3.154  -1.923  1.00  0.00     0.189 HD
BRANCH  26  28
HETATM   28  C18 UNL     1      -8.434   3.556  -0.195  1.00  0.00     0.065 A 
HETATM   29  C19 UNL     1      -9.484   4.377  -0.129  1.00  0.00     0.119 A 
HETATM   30  N9  UNL     1     -10.284   3.980   0.864  1.00  0.00    -0.360 N 
HETATM   31  C20 UNL     1      -9.755   2.926   1.417  1.00  0.00     0.180 A 
ATOM     32  H9  UNL     1     -11.159   4.425   1.142  1.00  0.00     0.166 HD
HETATM   33  N10 UNL     1      -8.568   2.552   0.833  1.00  0.00    -0.350 N 
ATOM     34  H10 UNL     1      -7.949   1.775   1.064  1.00  0.00     0.166 HD
ENDBRANCH  26  28
ENDBRANCH  21  25
ENDBRANCH  14  17
ENDBRANCH  12  14
ENDBRANCH  11  12
BRANCH   1  35
HETATM   35  S2  UNL     1      -0.225  -1.281  -1.321  1.00  0.00    -0.113 SA
BRANCH  35  36
HETATM   36  C8  UNL     1       1.346  -0.588  -0.865  1.00  0.00     0.084 C 
HETATM   37  C7  UNL     1       2.607  -1.394  -0.979  1.00  0.00     0.201 C 
HETATM   38  C6  UNL     1       3.554  -0.693  -0.069  1.00  0.00     0.234 C 
HETATM   39  O3  UNL     1       2.874  -2.394  -1.643  1.00  0.00    -0.288 OA
HETATM   40  S1  UNL     1       5.239  -0.727  -0.682  1.00  0.00    -0.087 SA
HETATM   41  N12 UNL     1       3.160   0.674  -0.330  1.00  0.00    -0.286 N 
HETATM   42  C5  UNL     1       5.455   1.089  -0.953  1.00  0.00     0.323 C 
HETATM   43  C23 UNL     1       4.178   1.598  -0.394  1.00  0.00     0.272 C 
HETATM   44  O8  UNL     1       4.068   2.805  -0.008  1.00  0.00    -0.268 OA
HETATM   45  C21 UNL     1       1.693   0.606  -0.448  1.00  0.00     0.136 C 
BRANCH  42  46
HETATM   46  N1  UNL     1       6.542   1.560  -0.365  1.00  0.00    -0.387 NA
HETATM   47  C4  UNL     1       7.704   2.060   0.271  1.00  0.00     0.317 C 
HETATM   48  O2  UNL     1       8.096   1.762   1.407  1.00  0.00    -0.255 OA
BRANCH  47  49
HETATM   49  C3  UNL     1       8.533   3.039  -0.496  1.00  0.00     0.224 C 
BRANCH  49  50
HETATM   50  C2  UNL     1       9.986   2.683  -0.501  1.00  0.00     0.038 C 
HETATM   51  C1  UNL     1      10.614   2.638   0.862  1.00  0.00     0.008 C 
ENDBRANCH  49  50
BRANCH  49  52
HETATM   52  O1  UNL     1       8.022   3.071  -1.796  1.00  0.00    -0.385 OA
ATOM     53  H1  UNL     1       7.099   3.297  -1.793  1.00  0.00     0.210 HD
ENDBRANCH  49  52
ENDBRANCH  47  49
ENDBRANCH  42  46
BRANCH  45  54
HETATM   54  C22 UNL     1       0.807   1.723  -0.200  1.00  0.00     0.228 C 
HETATM   55  O6  UNL     1       1.214   2.829   0.220  1.00  0.00    -0.643 OA
HETATM   56  O7  UNL     1      -0.580   1.616  -0.426  1.00  0.00    -0.643 OA
ENDBRANCH  45  54
ENDBRANCH  35  36
ENDBRANCH   1  35
TORSDOF 13
