REMARK  5 active torsions:
REMARK  status: ('A' for Active; 'I' for Inactive)
REMARK    1  A    between atoms: C3_7  and  C4_8 
REMARK    2  A    between atoms: C7_11  and  N3_12 
REMARK       I    between atoms: N3_12  and  C8_14 
REMARK       I    between atoms: C8_14  and  N4_16 
REMARK    3  A    between atoms: N4_16  and  C9_18 
REMARK    4  A    between atoms: C10_21  and  S1_22 
REMARK    5  A    between atoms: S1_22  and  C11_23 
ROOT
HETATM    1  N3  UNL     1      -2.533  -0.649  -1.242  1.00  0.00    -0.305 N 
ATOM      2  H3  UNL     1      -2.733  -1.595  -1.567  1.00  0.00     0.171 HD
HETATM    3  C8  UNL     1      -1.192  -0.321  -0.914  1.00  0.00     0.326 C 
HETATM    4  O1  UNL     1      -0.859   0.830  -0.506  1.00  0.00    -0.247 OA
HETATM    5  N4  UNL     1      -0.202  -1.334  -1.055  1.00  0.00    -0.293 N 
ATOM      6  H4  UNL     1      -0.477  -2.232  -1.454  1.00  0.00     0.172 HD
ENDROOT
BRANCH   5   7
HETATM    7  C9  UNL     1       1.025  -1.169  -0.702  1.00  0.00     0.136 A 
HETATM    8  N5  UNL     1       1.536  -0.062  -0.167  1.00  0.00    -0.321 N 
HETATM    9  C10 UNL     1       2.818   0.077   0.190  1.00  0.00     0.147 A 
ATOM     10  H5  UNL     1       0.911   0.730  -0.020  1.00  0.00     0.169 HD
HETATM   11  N6  UNL     1       3.642  -0.954   0.003  1.00  0.00    -0.324 N 
HETATM   12  C14 UNL     1       3.186  -2.121  -0.541  1.00  0.00     0.143 A 
ATOM     13  H6  UNL     1       4.623  -0.871   0.269  1.00  0.00     0.169 HD
HETATM   14  N7  UNL     1       4.038  -3.226  -0.749  1.00  0.00    -0.081 NA
HETATM   15  C15 UNL     1       1.867  -2.254  -0.905  1.00  0.00     0.119 A 
HETATM   16 CL1  UNL     1       1.287  -3.749  -1.601  1.00  0.00    -0.077 Cl
BRANCH   9  17
HETATM   17  S1  UNL     1       3.391   1.600   0.893  1.00  0.00    -0.090 SA
BRANCH  17  18
HETATM   18  C11 UNL     1       5.138   1.589   1.294  1.00  0.00     0.047 C 
HETATM   19  C12 UNL     1       5.478   0.614   2.395  1.00  0.00     0.021 C 
HETATM   20  C13 UNL     1       5.963   1.422   0.060  1.00  0.00     0.021 C 
ENDBRANCH  17  18
ENDBRANCH   9  17
ENDBRANCH   5   7
BRANCH   1  21
HETATM   21  C7  UNL     1      -3.615   0.273  -1.141  1.00  0.00     0.084 A 
HETATM   22  C2  UNL     1      -3.939   1.158  -2.179  1.00  0.00     0.050 A 
HETATM   23  C1  UNL     1      -3.225   1.277  -3.476  1.00  0.00     0.072 C 
HETATM   24  N1  UNL     1      -5.006   1.843  -1.737  1.00  0.00    -0.303 N 
HETATM   25  N2  UNL     1      -5.343   1.439  -0.525  1.00  0.00    -0.302 N 
ATOM     26  H1  UNL     1      -5.488   2.572  -2.263  1.00  0.00     0.186 HD
HETATM   27  C3  UNL     1      -4.497   0.451  -0.105  1.00  0.00     0.058 A 
ATOM     28  H2  UNL     1      -6.122   1.811   0.019  1.00  0.00     0.186 HD
BRANCH  27  29
HETATM   29  C4  UNL     1      -4.530  -0.273   1.183  1.00  0.00     0.031 C 
HETATM   30  C5  UNL     1      -5.759   0.106   1.996  1.00  0.00     0.016 C 
HETATM   31  C6  UNL     1      -3.270  -0.112   2.003  1.00  0.00     0.016 C 
ENDBRANCH  27  29
ENDBRANCH   1  21
TORSDOF 5
