REMARK  6 active torsions:
REMARK  status: ('A' for Active; 'I' for Inactive)
REMARK    1  A    between atoms: C2_2  and  C4_4 
REMARK    2  A    between atoms: C6_8  and  O3_9 
REMARK    3  A    between atoms: O3_9  and  C7_10 
REMARK    4  A    between atoms: C7_10  and  C8_12 
REMARK    5  A    between atoms: C17_21  and  O5_22 
REMARK    6  A    between atoms: O5_22  and  C18_23 
ROOT
HETATM    1  C4  UNL     1      -2.544  -2.150  -0.764  1.00  0.00     0.122 C 
HETATM    2  C5  UNL     1      -3.186  -0.854  -1.186  1.00  0.00     0.270 C 
HETATM    3  O1  UNL     1      -4.028  -0.886  -2.121  1.00  0.00    -0.264 OA
HETATM    4  O2  UNL     1      -2.818   0.304  -0.528  1.00  0.00    -0.288 OA
HETATM    5  C6  UNL     1      -1.403   0.637  -0.378  1.00  0.00     0.284 C 
HETATM    6  C10 UNL     1      -0.679  -0.564  -0.828  1.00  0.00     0.064 C 
HETATM    7  C11 UNL     1       0.805  -0.589  -0.694  1.00  0.00    -0.006 C 
HETATM    8  C12 UNL     1       1.093  -2.097  -0.586  1.00  0.00     0.015 C 
HETATM    9  C13 UNL     1      -0.172  -2.811  -0.348  1.00  0.00     0.012 C 
HETATM   10  C14 UNL     1      -1.231  -1.771  -0.105  1.00  0.00    -0.018 C 
HETATM   11  C15 UNL     1      -1.463  -1.578   1.350  1.00  0.00     0.017 C 
HETATM   12  C16 UNL     1       1.337   0.014   0.545  1.00  0.00     0.047 C 
HETATM   13  C17 UNL     1       2.707   0.631   0.470  1.00  0.00     0.136 C 
HETATM   14  C20 UNL     1       3.579  -0.049  -0.539  1.00  0.00     0.060 C 
HETATM   15  C21 UNL     1       2.821   0.104  -1.815  1.00  0.00    -0.021 C 
HETATM   16  C22 UNL     1       1.520  -0.143  -1.913  1.00  0.00    -0.078 C 
HETATM   17  C23 UNL     1       0.838   0.025  -3.239  1.00  0.00     0.044 C 
ENDROOT
BRANCH   5  18
HETATM   18  O3  UNL     1      -1.144   1.831  -1.054  1.00  0.00    -0.289 OA
BRANCH  18  19
HETATM   19  C7  UNL     1      -0.906   3.055  -0.481  1.00  0.00     0.260 C 
HETATM   20  O4  UNL     1      -0.927   3.109   0.786  1.00  0.00    -0.265 OA
BRANCH  19  21
HETATM   21  C8  UNL     1      -0.630   4.286  -1.289  1.00  0.00     0.107 C 
HETATM   22  C9  UNL     1      -0.421   5.414  -0.304  1.00  0.00     0.015 C 
ENDBRANCH  19  21
ENDBRANCH  18  19
ENDBRANCH   5  18
BRANCH  13  23
HETATM   23  O5  UNL     1       3.272   0.749   1.744  1.00  0.00    -0.316 OA
BRANCH  23  24
HETATM   24  C18 UNL     1       3.554   1.966   2.350  1.00  0.00     0.255 C 
HETATM   25  C19 UNL     1       4.150   2.097   3.695  1.00  0.00     0.126 C 
HETATM   26  O6  UNL     1       3.274   2.984   1.691  1.00  0.00    -0.266 OA
ENDBRANCH  23  24
ENDBRANCH  13  23
BRANCH   1  27
HETATM   27  C2  UNL     1      -3.439  -2.952   0.066  1.00  0.00    -0.079 C 
HETATM   28  C1  UNL     1      -4.641  -2.495   0.366  1.00  0.00     0.015 C 
HETATM   29  C3  UNL     1      -3.008  -4.275   0.571  1.00  0.00     0.043 C 
ENDBRANCH   1  27
TORSDOF 6
