REMARK  9 active torsions:
REMARK  status: ('A' for Active; 'I' for Inactive)
REMARK       I    between atoms: N1_2  and  C2_4 
REMARK    1  A    between atoms: C2_4  and  C3_6 
REMARK    2  A    between atoms: C3_6  and  C4_7 
REMARK    3  A    between atoms: C3_6  and  N2_13 
REMARK    4  A    between atoms: C4_7  and  C5_8 
REMARK    5  A    between atoms: C10_15  and  C11_16 
REMARK    6  A    between atoms: C11_16  and  O3_17 
REMARK    7  A    between atoms: C11_16  and  C12_19 
REMARK    8  A    between atoms: C12_19  and  N3_20 
REMARK    9  A    between atoms: N3_20  and  C13_23 
ROOT
HETATM    1  C11 UNL     1      -0.634   2.168   0.215  1.00  0.00     0.196 C 
ENDROOT
BRANCH   1   2
HETATM    2  C10 UNL     1       0.468   1.188   0.296  1.00  0.00     0.074 A 
HETATM    3  C9  UNL     1       1.645   1.269  -0.425  1.00  0.00     0.142 A 
HETATM    4  N2  UNL     1       2.384   0.203  -0.077  1.00  0.00    -0.273 N 
HETATM    5  N6  UNL     1       1.694  -0.484   0.804  1.00  0.00    -0.240 N 
HETATM    6  N5  UNL     1       0.538   0.083   1.049  1.00  0.00    -0.286 N 
ATOM      7  H6  UNL     1       2.016  -1.347   1.241  1.00  0.00     0.208 HD
ATOM      8  H5  UNL     1      -0.176  -0.255   1.694  1.00  0.00     0.188 HD
BRANCH   4   9
HETATM    9  C3  UNL     1       3.735  -0.136  -0.596  1.00  0.00     0.203 C 
BRANCH   9  10
HETATM   10  C2  UNL     1       4.083  -1.508  -0.239  1.00  0.00     0.242 C 
HETATM   11  N1  UNL     1       4.439  -1.923   1.070  1.00  0.00    -0.364 N 
HETATM   12  C1  UNL     1       4.771  -3.291   1.381  1.00  0.00     0.149 C 
ATOM     13  H1  UNL     1       4.461  -1.229   1.817  1.00  0.00     0.161 HD
HETATM   14  O1  UNL     1       4.069  -2.403  -1.147  1.00  0.00    -0.271 OA
ENDBRANCH   9  10
BRANCH   9  15
HETATM   15  C4  UNL     1       4.713   0.920  -0.218  1.00  0.00     0.069 C 
BRANCH  15  16
HETATM   16  C5  UNL     1       6.050   0.803  -0.823  1.00  0.00     0.123 C 
HETATM   17  C6  UNL     1       6.863  -0.397  -0.524  1.00  0.00     0.034 C 
HETATM   18  C7  UNL     1       8.255   0.079  -1.003  1.00  0.00     0.029 C 
HETATM   19  C8  UNL     1       8.167   1.550  -0.767  1.00  0.00     0.168 C 
HETATM   20  O2  UNL     1       6.885   1.846  -0.380  1.00  0.00    -0.386 OA
ENDBRANCH  15  16
ENDBRANCH   9  15
ENDBRANCH   4   9
ENDBRANCH   1   2
BRANCH   1  21
HETATM   21  O3  UNL     1      -0.943   2.526  -1.094  1.00  0.00    -0.388 OA
ATOM     22  H3  UNL     1      -1.652   3.156  -1.146  1.00  0.00     0.210 HD
ENDBRANCH   1  21
BRANCH   1  23
HETATM   23  C12 UNL     1      -1.876   1.654   0.930  1.00  0.00     0.270 C 
BRANCH  23  24
HETATM   24  N3  UNL     1      -2.384   0.488   0.215  1.00  0.00    -0.066 N 
ATOM     25  H32 UNL     1      -2.565   0.701  -0.766  1.00  0.00     0.277 HD
ATOM     26  H31 UNL     1      -1.660  -0.219   0.092  1.00  0.00     0.277 HD
BRANCH  24  27
HETATM   27  C13 UNL     1      -3.543  -0.055   0.856  1.00  0.00     0.220 C 
HETATM   28  C14 UNL     1      -3.928  -1.338   0.183  1.00  0.00     0.019 C 
HETATM   29  C15 UNL     1      -4.317  -1.146  -1.238  1.00  0.00     0.013 C 
HETATM   30  C22 UNL     1      -5.043  -1.952   1.004  1.00  0.00     0.011 C 
HETATM   31  C16 UNL     1      -5.639  -0.462  -1.447  1.00  0.00     0.012 C 
HETATM   32  C17 UNL     1      -5.609   1.020  -1.380  1.00  0.00     0.237 C 
HETATM   33  C21 UNL     1      -6.726  -1.077  -0.556  1.00  0.00     0.011 C 
HETATM   34  N4  UNL     1      -4.682   1.578  -0.439  1.00  0.00    -0.069 N 
HETATM   35  C18 UNL     1      -4.663   0.934   0.834  1.00  0.00     0.217 C 
ATOM     36  H42 UNL     1      -3.744   1.601  -0.838  1.00  0.00     0.277 HD
ATOM     37  H41 UNL     1      -4.850   2.578  -0.327  1.00  0.00     0.277 HD
HETATM   38  C19 UNL     1      -5.990   0.368   1.252  1.00  0.00     0.039 C 
HETATM   39  C20 UNL     1      -6.238  -1.043   0.871  1.00  0.00    -0.012 C 
ENDBRANCH  24  27
ENDBRANCH  23  24
ENDBRANCH   1  23
TORSDOF 9
