REMARK  9 active torsions:
REMARK  status: ('A' for Active; 'I' for Inactive)
REMARK    1  A    between atoms: C2_3  and  N2_4 
REMARK       I    between atoms: N2_4  and  C3_6 
REMARK    2  A    between atoms: C3_6  and  C4_8 
REMARK    3  A    between atoms: C5_9  and  C6_10 
REMARK    4  A    between atoms: C9_15  and  C10_16 
REMARK    5  A    between atoms: C10_16  and  O3_17 
REMARK    6  A    between atoms: C11_19  and  O4_20 
REMARK    7  A    between atoms: C12_22  and  N3_23 
REMARK    8  A    between atoms: N3_23  and  C13_25 
REMARK    9  A    between atoms: C13_25  and  C14_26 
ROOT
HETATM    1  N1  UNL     1       8.522   3.068   1.903  1.00  0.00    -0.196 NA
HETATM    2  C1  UNL     1       8.112   2.031   1.622  1.00  0.00     0.078 C 
HETATM    3  C2  UNL     1       7.604   0.712   1.246  1.00  0.00     0.247 C 
ENDROOT
BRANCH   3   4
HETATM    4  N2  UNL     1       6.265   0.870   0.727  1.00  0.00    -0.345 N 
HETATM    5  C3  UNL     1       5.529  -0.257   0.280  1.00  0.00     0.241 C 
HETATM    6  O1  UNL     1       6.064  -1.390   0.345  1.00  0.00    -0.269 OA
ATOM      7  H2  UNL     1       5.846   1.799   0.682  1.00  0.00     0.163 HD
BRANCH   5   8
HETATM    8  C4  UNL     1       4.183  -0.163  -0.251  1.00  0.00     0.072 C 
HETATM    9  C5  UNL     1       3.522  -1.228  -0.661  1.00  0.00     0.011 C 
BRANCH   9  10
HETATM   10  C6  UNL     1       2.145  -1.102  -1.200  1.00  0.00     0.154 C 
HETATM   11  C7  UNL     1       2.134  -0.012  -2.246  1.00  0.00     0.112 C 
HETATM   12  S1  UNL     1       0.581  -0.277  -3.194  1.00  0.00    -0.132 SA
HETATM   13  C8  UNL     1      -0.597  -0.837  -1.904  1.00  0.00     0.214 C 
HETATM   14  O2  UNL     1      -0.711  -2.216  -1.917  1.00  0.00    -0.363 OA
HETATM   15  C20 UNL     1       0.038  -0.348  -0.596  1.00  0.00     0.186 C 
HETATM   16  C9  UNL     1      -1.241  -2.741  -0.762  1.00  0.00     0.177 C 
HETATM   17  C11 UNL     1      -1.838  -1.761   0.182  1.00  0.00     0.174 C 
HETATM   18  C12 UNL     1      -1.029  -0.540   0.462  1.00  0.00     0.140 C 
HETATM   19  O5  UNL     1       1.176  -1.005  -0.254  1.00  0.00    -0.370 OA
BRANCH  16  20
HETATM   20  C10 UNL     1      -2.361  -3.704  -1.176  1.00  0.00     0.198 C 
BRANCH  20  21
HETATM   21  O3  UNL     1      -1.896  -4.729  -1.969  1.00  0.00    -0.398 OA
ATOM     22  H3  UNL     1      -2.590  -5.325  -2.225  1.00  0.00     0.209 HD
ENDBRANCH  20  21
ENDBRANCH  16  20
BRANCH  17  23
HETATM   23  O4  UNL     1      -2.061  -2.441   1.403  1.00  0.00    -0.391 OA
ATOM     24  H4  UNL     1      -2.443  -1.814   2.007  1.00  0.00     0.210 HD
ENDBRANCH  17  23
BRANCH  18  25
HETATM   25  N3  UNL     1      -1.872   0.602   0.410  1.00  0.00    -0.408 N 
ATOM     26  H3  UNL     1      -1.728   1.340  -0.279  1.00  0.00     0.154 HD
BRANCH  25  27
HETATM   27  C13 UNL     1      -2.918   0.668   1.356  1.00  0.00     0.153 C 
BRANCH  27  28
HETATM   28  C14 UNL     1      -3.748   1.882   1.258  1.00  0.00    -0.041 A 
HETATM   29  C15 UNL     1      -3.385   2.950   0.465  1.00  0.00     0.009 A 
HETATM   30  C16 UNL     1      -4.172   4.096   0.366  1.00  0.00     0.001 A 
HETATM   31  C17 UNL     1      -5.356   4.204   1.067  1.00  0.00     0.000 A 
HETATM   32  C18 UNL     1      -5.721   3.136   1.861  1.00  0.00     0.001 A 
HETATM   33  C19 UNL     1      -4.935   1.997   1.956  1.00  0.00     0.009 A 
ENDBRANCH  27  28
ENDBRANCH  25  27
ENDBRANCH  18  25
ENDBRANCH   9  10
ENDBRANCH   5   8
ENDBRANCH   3   4
TORSDOF 9
