REMARK  3 active torsions:
REMARK  status: ('A' for Active; 'I' for Inactive)
REMARK    1  A    between atoms: C2_2  and  C4_4 
REMARK    2  A    between atoms: C7_7  and  O1_8 
REMARK    3  A    between atoms: C8_10  and  C9_11 
ROOT
HETATM    1  C4  UNL     1      -2.160  -0.861   0.288  1.00  0.00     0.114 C 
HETATM    2  C5  UNL     1      -0.855  -1.326  -0.279  1.00  0.00     0.072 C 
HETATM    3  C6  UNL     1       0.279  -0.377  -0.044  1.00  0.00    -0.009 A 
HETATM    4  C7  UNL     1       1.344  -0.917   0.617  1.00  0.00     0.079 A 
HETATM    5  C8  UNL     1       2.436  -0.109   0.956  1.00  0.00    -0.019 A 
HETATM    6  C12 UNL     1       2.433   1.247   0.622  1.00  0.00     0.035 A 
HETATM    7  C13 UNL     1       1.355   1.822  -0.052  1.00  0.00     0.046 A 
HETATM    8 CL1  UNL     1       1.232   3.539  -0.327  1.00  0.00    -0.083 Cl
HETATM    9  C14 UNL     1       0.336   0.986  -0.356  1.00  0.00     0.007 A 
HETATM   10  C15 UNL     1      -0.703   1.664  -1.129  1.00  0.00     0.004 A 
HETATM   11  C16 UNL     1      -0.167   2.586  -1.972  1.00  0.00     0.035 A 
HETATM   12  C17 UNL     1      -1.048   3.330  -2.719  1.00  0.00     0.033 A 
HETATM   13 BR1  UNL     1      -0.413   4.654  -3.925  1.00  0.00    -0.049 Br
HETATM   14  C18 UNL     1      -2.433   3.127  -2.604  1.00  0.00     0.053 A 
HETATM   15 CL2  UNL     1      -3.563   4.069  -3.549  1.00  0.00    -0.083 Cl
HETATM   16  C19 UNL     1      -2.917   2.173  -1.736  1.00  0.00     0.055 A 
HETATM   17  C20 UNL     1      -2.071   1.418  -0.979  1.00  0.00     0.041 A 
HETATM   18  N1  UNL     1      -2.660   0.407  -0.172  1.00  0.00    -0.381 N 
ATOM     19  H1  UNL     1      -3.609   0.619   0.137  1.00  0.00     0.160 HD
ENDROOT
BRANCH   1  20
HETATM   20  C2  UNL     1      -3.179  -1.927   0.235  1.00  0.00    -0.070 C 
HETATM   21  C1  UNL     1      -2.905  -3.081  -0.322  1.00  0.00     0.016 C 
HETATM   22  C3  UNL     1      -4.523  -1.697   0.805  1.00  0.00     0.044 C 
ENDBRANCH   1  20
BRANCH   4  23
HETATM   23  O1  UNL     1       1.340  -2.279   0.955  1.00  0.00    -0.360 OA
ATOM     24  H1  UNL     1       2.081  -2.655   1.415  1.00  0.00     0.217 HD
ENDBRANCH   4  23
BRANCH   5  25
HETATM   25  C9  UNL     1       3.602  -0.695   1.656  1.00  0.00     0.013 C 
HETATM   26  C10 UNL     1       4.530   0.434   2.090  1.00  0.00     0.015 C 
HETATM   27  C11 UNL     1       4.400  -1.550   0.680  1.00  0.00     0.015 C 
ENDBRANCH   5  25
TORSDOF 3
