REMARK  11 active torsions:
REMARK  status: ('A' for Active; 'I' for Inactive)
REMARK    1  A    between atoms: S1_2  and  O3_5 
REMARK    2  A    between atoms: O3_5  and  C2_6 
REMARK    3  A    between atoms: C2_6  and  C3_7 
REMARK    4  A    between atoms: C5_10  and  C6_11 
REMARK    5  A    between atoms: C6_11  and  C7_12 
REMARK    6  A    between atoms: C8_13  and  C9_14 
REMARK    7  A    between atoms: C10_15  and  C11_16 
REMARK    8  A    between atoms: C11_16  and  C12_17 
REMARK    9  A    between atoms: C12_17  and  O5_18 
REMARK   10  A    between atoms: C13_20  and  O6_21 
REMARK   11  A    between atoms: C14_23  and  O7_24 
ROOT
HETATM    1  C3  UNL     1      -2.589  -0.527   0.410  1.00  0.00     0.066 C 
HETATM    2  C4  UNL     1      -2.414  -1.906  -0.193  1.00  0.00     0.177 C 
HETATM    3  O4  UNL     1      -1.311  -1.940  -1.060  1.00  0.00    -0.382 OA
HETATM    4  C5  UNL     1      -0.140  -1.586  -0.388  1.00  0.00     0.156 C 
HETATM    5  C13 UNL     1      -0.207  -0.142   0.027  1.00  0.00     0.176 C 
HETATM    6  C14 UNL     1      -1.598   0.403  -0.247  1.00  0.00     0.157 C 
ENDROOT
BRANCH   4   7
HETATM    7  C6  UNL     1       0.995  -1.783  -1.398  1.00  0.00     0.062 C 
BRANCH   7   8
HETATM    8  C7  UNL     1       2.309  -1.437  -0.800  1.00  0.00    -0.015 C 
HETATM    9  C8  UNL     1       3.040  -0.480  -1.333  1.00  0.00     0.060 C 
BRANCH   9  10
HETATM   10  C9  UNL     1       4.303  -0.184  -0.718  1.00  0.00    -0.079 C 
HETATM   11  C10 UNL     1       5.370   0.046  -0.197  1.00  0.00    -0.100 C 
BRANCH  11  12
HETATM   12  C11 UNL     1       6.663   0.299   0.441  1.00  0.00     0.120 C 
BRANCH  12  13
HETATM   13  C12 UNL     1       7.253   1.622  -0.068  1.00  0.00     0.176 C 
BRANCH  13  14
HETATM   14  O5  UNL     1       8.463   1.843   0.540  1.00  0.00    -0.400 OA
ATOM     15  H5  UNL     1       8.828   2.662   0.225  1.00  0.00     0.209 HD
ENDBRANCH  13  14
ENDBRANCH  12  13
ENDBRANCH  11  12
ENDBRANCH   9  10
ENDBRANCH   7   8
ENDBRANCH   4   7
BRANCH   5  16
HETATM   16  O6  UNL     1       0.134  -0.031   1.364  1.00  0.00    -0.390 OA
ATOM     17  H6  UNL     1       0.092   0.881   1.626  1.00  0.00     0.210 HD
ENDBRANCH   5  16
BRANCH   6  18
HETATM   18  O7  UNL     1      -1.665   1.688   0.268  1.00  0.00    -0.392 OA
ATOM     19  H7  UNL     1      -1.041   2.273  -0.145  1.00  0.00     0.210 HD
ENDBRANCH   6  18
BRANCH   1  20
HETATM   20  C2  UNL     1      -4.010  -0.027   0.243  1.00  0.00     0.199 C 
BRANCH  20  21
HETATM   21  O3  UNL     1      -4.090   1.232   0.816  1.00  0.00    -0.275 OA
BRANCH  21  22
HETATM   22  S1  UNL     1      -5.640   1.868   0.676  1.00  0.00     0.261 S 
HETATM   23  C1  UNL     1      -6.622   0.890  -0.453  1.00  0.00     0.194 C 
HETATM   24  O1  UNL     1      -5.534   3.253   0.102  1.00  0.00    -0.199 OA
HETATM   25  O2  UNL     1      -6.339   1.949   1.985  1.00  0.00    -0.199 OA
ENDBRANCH  21  22
ENDBRANCH  20  21
ENDBRANCH   1  20
TORSDOF 11
