REMARK  9 active torsions:
REMARK  status: ('A' for Active; 'I' for Inactive)
REMARK    1  A    between atoms: O1_2  and  C2_3 
REMARK    2  A    between atoms: N1_5  and  C4_6 
REMARK    3  A    between atoms: C4_6  and  C5_7 
REMARK    4  A    between atoms: N2_12  and  C10_13 
REMARK    5  A    between atoms: C10_13  and  C11_14 
REMARK    6  A    between atoms: C11_14  and  C12_15 
REMARK    7  A    between atoms: C14_18  and  O3_19 
REMARK    8  A    between atoms: C15_21  and  O4_22 
REMARK    9  A    between atoms: C16_24  and  O5_25 
ROOT
HETATM    1  C10 UNL     1       1.162   1.192   0.570  1.00  0.00     0.122 C 
ENDROOT
BRANCH   1   2
HETATM    2  N2  UNL     1      -0.178   0.816   0.335  1.00  0.00    -0.384 N 
HETATM    3  C2  UNL     1      -1.008   0.707   1.477  1.00  0.00     0.246 C 
HETATM    4  C3  UNL     1      -2.013  -0.445   1.338  1.00  0.00     0.325 C 
HETATM    5  N1  UNL     1      -2.746  -0.324   0.094  1.00  0.00     0.094 N 
HETATM    6  C8  UNL     1      -1.908  -0.172  -1.043  1.00  0.00     0.292 C 
HETATM    7  C9  UNL     1      -0.448  -0.043  -0.756  1.00  0.00     0.149 C 
BRANCH   3   8
HETATM    8  O1  UNL     1      -1.650   1.851   1.869  1.00  0.00    -0.370 OA
HETATM    9  C1  UNL     1      -1.353   2.294   3.133  1.00  0.00     0.204 C 
ENDBRANCH   3   8
BRANCH   5  10
HETATM   10  C4  UNL     1      -3.678  -1.415   0.008  1.00  0.00     0.276 C 
BRANCH  10  11
HETATM   11  C5  UNL     1      -4.505  -1.391  -1.249  1.00  0.00     0.006 C 
HETATM   12  C6  UNL     1      -5.307  -0.099  -1.313  1.00  0.00     0.011 C 
HETATM   13  C7  UNL     1      -5.542  -2.512  -1.140  1.00  0.00     0.011 C 
ENDBRANCH  10  11
ENDBRANCH   5  10
ENDBRANCH   1   2
BRANCH   1  14
HETATM   14  C11 UNL     1       2.026   1.296  -0.633  1.00  0.00     0.054 C 
BRANCH  14  15
HETATM   15  C12 UNL     1       3.436   1.704  -0.358  1.00  0.00     0.154 C 
HETATM   16  O2  UNL     1       4.134   1.764  -1.563  1.00  0.00    -0.381 OA
HETATM   17  C13 UNL     1       4.237   0.544  -2.187  1.00  0.00     0.202 C 
HETATM   18  C14 UNL     1       4.777  -0.566  -1.348  1.00  0.00     0.173 C 
HETATM   19  C15 UNL     1       4.154  -0.616   0.051  1.00  0.00     0.180 C 
HETATM   20  C16 UNL     1       4.199   0.811   0.561  1.00  0.00     0.178 C 
BRANCH  18  21
HETATM   21  O3  UNL     1       4.564  -1.775  -1.982  1.00  0.00    -0.391 OA
ATOM     22  H3  UNL     1       4.908  -2.482  -1.448  1.00  0.00     0.210 HD
ENDBRANCH  18  21
BRANCH  19  23
HETATM   23  O4  UNL     1       4.970  -1.382   0.871  1.00  0.00    -0.390 OA
ATOM     24  H4  UNL     1       4.584  -1.413   1.738  1.00  0.00     0.210 HD
ENDBRANCH  19  23
BRANCH  20  25
HETATM   25  O5  UNL     1       3.908   0.938   1.896  1.00  0.00    -0.390 OA
ATOM     26  H5  UNL     1       4.394   0.369   2.481  1.00  0.00     0.210 HD
ENDBRANCH  20  25
ENDBRANCH  14  15
ENDBRANCH   1  14
TORSDOF 9
