REMARK  8 active torsions:
REMARK  status: ('A' for Active; 'I' for Inactive)
REMARK    1  A    between atoms: S1_2  and  C2_5 
REMARK    2  A    between atoms: C2_5  and  C3_6 
REMARK    3  A    between atoms: C3_6  and  N1_7 
REMARK    4  A    between atoms: N1_7  and  C4_10 
REMARK    5  A    between atoms: C4_10  and  C5_11 
REMARK    6  A    between atoms: C5_11  and  N2_12 
REMARK    7  A    between atoms: C7_18  and  N5_19 
REMARK    8  A    between atoms: C8_24  and  N7_25 
ROOT
HETATM    1  N2  UNL     1       1.233  -0.356  -0.215  1.00  0.00    -0.254 N 
HETATM    2  N3  UNL     1       2.294  -1.163  -0.289  1.00  0.00    -0.279 N 
ATOM      3  H3  UNL     1       2.261  -2.164  -0.480  1.00  0.00     0.189 HD
HETATM    4  C6  UNL     1       3.428  -0.439  -0.069  1.00  0.00     0.155 A 
HETATM    5  N4  UNL     1       4.733  -0.752  -0.034  1.00  0.00    -0.174 N 
ATOM      6  H4  UNL     1       5.029  -1.715  -0.196  1.00  0.00     0.186 HD
HETATM    7  C7  UNL     1       5.644   0.190   0.211  1.00  0.00     0.679 A 
HETATM    8  N6  UNL     1       5.301   1.492   0.434  1.00  0.00    -0.176 N 
ATOM      9  H6  UNL     1       6.019   2.192   0.620  1.00  0.00     0.186 HD
HETATM   10  C8  UNL     1       3.994   1.839   0.405  1.00  0.00     0.134 A 
HETATM   11  C9  UNL     1       3.060   0.870   0.153  1.00  0.00     0.123 A 
HETATM   12  C10 UNL     1       1.691   0.886   0.055  1.00  0.00     0.280 A 
HETATM   13  O3  UNL     1       0.954   1.910   0.195  1.00  0.00    -0.265 OA
ENDROOT
BRANCH   1  14
HETATM   14  C5  UNL     1      -0.149  -0.752  -0.400  1.00  0.00     0.180 C 
BRANCH  14  15
HETATM   15  C4  UNL     1      -0.700  -1.152   0.939  1.00  0.00     0.254 C 
BRANCH  15  16
HETATM   16  N1  UNL     1      -2.058  -1.579   0.905  1.00  0.00    -0.073 N 
ATOM     17  H12 UNL     1      -2.333  -2.052   1.766  1.00  0.00     0.277 HD
ATOM     18  H11 UNL     1      -2.200  -2.355   0.258  1.00  0.00     0.277 HD
BRANCH  16  19
HETATM   19  C3  UNL     1      -2.918  -0.455   0.604  1.00  0.00     0.247 C 
BRANCH  19  20
HETATM   20  C2  UNL     1      -4.340  -1.022   0.565  1.00  0.00     0.167 C 
BRANCH  20  21
HETATM   21  S1  UNL     1      -5.553   0.199   0.217  1.00  0.00     0.142 S 
HETATM   22  C1  UNL     1      -5.323   1.008  -1.333  1.00  0.00     0.161 C 
HETATM   23  O1  UNL     1      -6.898  -0.515   0.204  1.00  0.00    -0.228 OA
HETATM   24  O2  UNL     1      -5.633   1.172   1.361  1.00  0.00    -0.228 OA
ENDBRANCH  20  21
ENDBRANCH  19  20
ENDBRANCH  16  19
ENDBRANCH  15  16
ENDBRANCH  14  15
ENDBRANCH   1  14
BRANCH  10  25
HETATM   25  N7  UNL     1       3.647   3.076   0.610  1.00  0.00    -0.384 N 
ATOM     26  H72 UNL     1       4.343   3.798   0.798  1.00  0.00     0.157 HD
ATOM     27  H71 UNL     1       2.661   3.338   0.588  1.00  0.00     0.157 HD
ENDBRANCH  10  25
BRANCH   7  28
HETATM   28  N5  UNL     1       6.920  -0.089   0.246  1.00  0.00    -0.234 N 
ATOM     29  H52 UNL     1       7.176  -1.062   0.079  1.00  0.00     0.174 HD
ATOM     30  H51 UNL     1       7.617   0.632   0.433  1.00  0.00     0.174 HD
ENDBRANCH   7  28
TORSDOF 8
