REMARK  9 active torsions:
REMARK  status: ('A' for Active; 'I' for Inactive)
REMARK    1  A    between atoms: C5_5  and  C6_6 
REMARK    2  A    between atoms: C6_6  and  N1_7 
REMARK    3  A    between atoms: C7_8  and  S1_9 
REMARK    4  A    between atoms: S1_9  and  C8_10 
REMARK    5  A    between atoms: C14_21  and  S2_22 
REMARK    6  A    between atoms: S2_22  and  C15_23 
REMARK    7  A    between atoms: C15_23  and  C16_24 
REMARK       I    between atoms: C16_24  and  N4_26 
REMARK    8  A    between atoms: N4_26  and  C17_28 
REMARK    9  A    between atoms: C22_34  and  C23_35 
ROOT
HETATM    1  C17 UNL     1       5.750   0.377   0.014  1.00  0.00     0.035 A 
HETATM    2  C18 UNL     1       5.913   0.732  -1.298  1.00  0.00     0.031 A 
HETATM    3  C19 UNL     1       7.033   0.333  -2.048  1.00  0.00     0.026 A 
HETATM    4  C20 UNL     1       8.012  -0.437  -1.478  1.00  0.00     0.059 A 
HETATM    5  C21 UNL     1       9.151  -0.832  -2.272  1.00  0.00     0.100 C 
HETATM    6  N5  UNL     1      10.054  -1.137  -2.921  1.00  0.00    -0.191 NA
HETATM    7  C22 UNL     1       7.880  -0.812  -0.162  1.00  0.00     0.070 A 
HETATM    8  C24 UNL     1       6.782  -0.413   0.551  1.00  0.00     0.047 A 
ENDROOT
BRANCH   7   9
HETATM    9  C23 UNL     1       8.949  -1.650   0.451  1.00  0.00     0.419 C 
HETATM   10  F1  UNL     1       8.591  -1.918   1.773  1.00  0.00    -0.166 F 
HETATM   11  F2  UNL     1       9.179  -2.819  -0.221  1.00  0.00    -0.166 F 
HETATM   12  F3  UNL     1      10.120  -0.883   0.417  1.00  0.00    -0.166 F 
ENDBRANCH   7   9
BRANCH   1  13
HETATM   13  N4  UNL     1       4.649   0.724   0.828  1.00  0.00    -0.327 N 
HETATM   14  C16 UNL     1       3.411   1.231   0.434  1.00  0.00     0.231 C 
HETATM   15  O1  UNL     1       3.094   1.451  -0.735  1.00  0.00    -0.272 OA
ATOM     16  H4  UNL     1       4.775   0.586   1.831  1.00  0.00     0.169 HD
BRANCH  14  17
HETATM   17  C15 UNL     1       2.355   1.543   1.480  1.00  0.00     0.185 C 
BRANCH  17  18
HETATM   18  S2  UNL     1       1.497   0.014   1.801  1.00  0.00    -0.083 SA
BRANCH  18  19
HETATM   19  C14 UNL     1       0.510  -0.624   0.494  1.00  0.00     0.163 A 
HETATM   20  N1  UNL     1      -0.831  -0.574   0.216  1.00  0.00    -0.305 N 
HETATM   21  C7  UNL     1      -1.067  -1.220  -0.934  1.00  0.00     0.167 A 
HETATM   22  N2  UNL     1       0.152  -1.670  -1.367  1.00  0.00    -0.277 N 
HETATM   23  N3  UNL     1       1.074  -1.323  -0.533  1.00  0.00    -0.278 N 
ATOM     24  H2  UNL     1       0.308  -2.202  -2.223  1.00  0.00     0.189 HD
ATOM     25  H3  UNL     1       2.067  -1.537  -0.627  1.00  0.00     0.189 HD
BRANCH  20  26
HETATM   26  C6  UNL     1      -1.796  -0.002   1.080  1.00  0.00     0.138 C 
BRANCH  26  27
HETATM   27  C5  UNL     1      -2.343   1.351   0.843  1.00  0.00     0.004 C 
HETATM   28  C4  UNL     1      -3.118   1.548  -0.434  1.00  0.00     0.006 C 
HETATM   29  C3  UNL     1      -3.962   2.803  -0.224  1.00  0.00     0.005 C 
HETATM   30  C2  UNL     1      -3.187   3.996   0.160  1.00  0.00    -0.019 C 
HETATM   31  C1  UNL     1      -3.369   5.095  -0.901  1.00  0.00     0.010 C 
HETATM   32  C26 UNL     1      -1.765   3.773   0.495  1.00  0.00     0.005 C 
HETATM   33  C25 UNL     1      -1.317   2.436   0.887  1.00  0.00     0.006 C 
ENDBRANCH  26  27
ENDBRANCH  20  26
BRANCH  21  34
HETATM   34  S1  UNL     1      -2.576  -1.598  -1.814  1.00  0.00    -0.064 SA
BRANCH  34  35
HETATM   35  C8  UNL     1      -3.204  -3.198  -1.390  1.00  0.00     0.057 C 
HETATM   36  C9  UNL     1      -4.170  -3.452  -0.529  1.00  0.00    -0.055 C 
HETATM   37  C10 UNL     1      -5.010  -2.591   0.326  1.00  0.00     0.036 C 
HETATM   38  C13 UNL     1      -4.627  -4.869  -0.244  1.00  0.00     0.111 C 
HETATM   39  C11 UNL     1      -6.185  -3.463   0.775  1.00  0.00     0.006 C 
HETATM   40  C12 UNL     1      -6.122  -4.679  -0.136  1.00  0.00     0.025 C 
HETATM   41 CL1  UNL     1      -3.973  -5.427   1.298  1.00  0.00    -0.120 Cl
ENDBRANCH  34  35
ENDBRANCH  21  34
ENDBRANCH  18  19
ENDBRANCH  17  18
ENDBRANCH  14  17
ENDBRANCH   1  13
TORSDOF 9
