REMARK  8 active torsions:
REMARK  status: ('A' for Active; 'I' for Inactive)
REMARK       I    between atoms: C1_4  and  N2_5 
REMARK       I    between atoms: C1_4  and  N9_20 
REMARK    1  A    between atoms: N2_5  and  N3_7 
REMARK    2  A    between atoms: N4_9  and  N5_11 
REMARK       I    between atoms: N5_11  and  C2_13 
REMARK       I    between atoms: C2_13  and  N7_15 
REMARK    3  A    between atoms: N7_15  and  N8_17 
REMARK    4  A    between atoms: N9_20  and  O1_22 
REMARK    5  A    between atoms: O1_22  and  C3_23 
REMARK    6  A    between atoms: C3_23  and  N10_24 
REMARK    7  A    between atoms: C6_29  and  N12_30 
REMARK    8  A    between atoms: C7_35  and  N14_36 
ROOT
HETATM    1  N1  UNL     1       2.350   0.675  -1.922  1.00  0.00    -0.232 N 
ATOM      2  H11 UNL     1       1.955   1.262  -2.657  1.00  0.00     0.174 HD
ATOM      3  H12 UNL     1       3.319   0.364  -1.984  1.00  0.00     0.174 HD
HETATM    4  C1  UNL     1       1.642   0.326  -0.922  1.00  0.00     0.711 C 
HETATM    5  N2  UNL     1       2.187  -0.483   0.091  1.00  0.00    -0.115 N 
ATOM      6  H2  UNL     1       1.715  -1.364   0.296  1.00  0.00     0.207 HD
HETATM    7  N9  UNL     1       0.304   0.755  -0.836  1.00  0.00    -0.094 N 
ATOM      8  H9  UNL     1       0.111   1.757  -0.845  1.00  0.00     0.213 HD
ENDROOT
BRANCH   7   9
HETATM    9  O1  UNL     1      -0.743  -0.109  -0.742  1.00  0.00    -0.246 OA
BRANCH   9  10
HETATM   10  C3  UNL     1      -1.755   0.389  -1.558  1.00  0.00     0.335 C 
BRANCH  10  11
HETATM   11  N10 UNL     1      -2.930  -0.442  -1.548  1.00  0.00    -0.302 N 
HETATM   12  C4  UNL     1      -3.276  -1.471  -2.317  1.00  0.00     0.187 A 
HETATM   13  N11 UNL     1      -4.474  -1.952  -1.947  1.00  0.00    -0.346 N 
HETATM   14  C5  UNL     1      -4.938  -1.215  -0.896  1.00  0.00     0.123 A 
ATOM     15  H11 UNL     1      -4.958  -2.739  -2.380  1.00  0.00     0.167 HD
HETATM   16  C6  UNL     1      -6.087  -1.261  -0.133  1.00  0.00     0.145 A 
HETATM   17  C8  UNL     1      -3.953  -0.275  -0.665  1.00  0.00     0.156 A 
HETATM   18  N13 UNL     1      -6.254  -0.373   0.858  1.00  0.00    -0.175 N 
HETATM   19  C7  UNL     1      -5.300   0.557   1.101  1.00  0.00     0.679 A 
ATOM     20  H13 UNL     1      -7.099  -0.398   1.428  1.00  0.00     0.186 HD
HETATM   21  N15 UNL     1      -4.185   0.590   0.349  1.00  0.00    -0.174 N 
ATOM     22  H15 UNL     1      -3.482   1.300   0.553  1.00  0.00     0.186 HD
BRANCH  16  23
HETATM   23  N12 UNL     1      -6.998  -2.137  -0.353  1.00  0.00    -0.383 N 
ATOM     24 2H12 UNL     1      -6.871  -2.812  -1.107  1.00  0.00     0.157 HD
ATOM     25 1H12 UNL     1      -7.847  -2.171   0.211  1.00  0.00     0.157 HD
ENDBRANCH  16  23
BRANCH  19  26
HETATM   26  N14 UNL     1      -5.498   1.396   2.064  1.00  0.00    -0.234 N 
ATOM     27 2H14 UNL     1      -6.343   1.371   2.634  1.00  0.00     0.174 HD
ATOM     28 1H14 UNL     1      -4.779   2.096   2.247  1.00  0.00     0.174 HD
ENDBRANCH  19  26
ENDBRANCH  10  11
ENDBRANCH   9  10
ENDBRANCH   7   9
BRANCH   5  29
HETATM   29  N3  UNL     1       3.321  -0.173   0.835  1.00  0.00    -0.214 N 
HETATM   30  N4  UNL     1       4.326   0.425   0.381  1.00  0.00    -0.225 N 
ATOM     31  H4  UNL     1       4.359   0.723  -0.594  1.00  0.00     0.210 HD
ATOM     32  H3  UNL     1       3.336  -0.451   1.816  1.00  0.00     0.210 HD
BRANCH  30  33
HETATM   33  N5  UNL     1       5.399   0.673   1.242  1.00  0.00    -0.257 N 
HETATM   34  C2  UNL     1       6.661   0.125   0.863  1.00  0.00     0.222 C 
HETATM   35  N6  UNL     1       6.996   0.006  -0.496  1.00  0.00    -0.061 NA
HETATM   36  N7  UNL     1       7.496  -0.261   1.759  1.00  0.00    -0.279 N 
ATOM     37  H7  UNL     1       8.390  -0.647   1.455  1.00  0.00     0.189 HD
ATOM     38  H5  UNL     1       5.286   1.218   2.097  1.00  0.00     0.191 HD
BRANCH  36  39
HETATM   39  N8  UNL     1       7.242  -0.178   3.117  1.00  0.00    -0.343 N 
ATOM     40  H82 UNL     1       6.343   0.211   3.403  1.00  0.00     0.176 HD
ATOM     41  H81 UNL     1       7.905  -0.485   3.829  1.00  0.00     0.176 HD
ENDBRANCH  36  39
ENDBRANCH  30  33
ENDBRANCH   5  29
TORSDOF 8
