REMARK  1 active torsions:
REMARK  status: ('A' for Active; 'I' for Inactive)
REMARK    1  A    between atoms: C1_4  and  N2_5 
ROOT
HETATM    1  N2  UNL     1       0.994  -0.136  -0.103  1.00  0.00    -0.372 N 
HETATM    2  C2  UNL     1       0.419   0.930   0.737  1.00  0.00     0.128 C 
HETATM    3  C3  UNL     1      -0.986   0.490   1.042  1.00  0.00     0.005 C 
HETATM    4  C4  UNL     1      -1.832   0.712  -0.183  1.00  0.00     0.008 C 
HETATM    5  C5  UNL     1      -1.109  -0.160  -1.204  1.00  0.00     0.026 C 
HETATM    6  C6  UNL     1      -0.113  -0.993  -0.419  1.00  0.00     0.085 C 
HETATM    7  C7  UNL     1      -0.826  -1.039   0.944  1.00  0.00     0.031 C 
ENDROOT
BRANCH   1   8
HETATM    8  C1  UNL     1       2.341  -0.250  -0.487  1.00  0.00     0.171 C 
HETATM    9  N1  UNL     1       3.261   0.517  -0.075  1.00  0.00    -0.395 N 
ATOM     10  H12 UNL     1       2.991   1.256   0.574  1.00  0.00     0.156 HD
ATOM     11  H11 UNL     1       4.239   0.434  -0.354  1.00  0.00     0.156 HD
ENDBRANCH   1   8
TORSDOF 1
