REMARK  2 active torsions:
REMARK  status: ('A' for Active; 'I' for Inactive)
REMARK    1  A    between atoms: C9_9  and  N1_11 
REMARK    2  A    between atoms: N1_11  and  C11_13 
ROOT
HETATM    1  C1  UNL     1       4.857  -1.488   0.175  1.00  0.00     0.049 C 
HETATM    2  C2  UNL     1       3.483  -0.981   0.074  1.00  0.00    -0.053 A 
HETATM    3  C3  UNL     1       3.151   0.305   0.444  1.00  0.00     0.044 A 
HETATM    4  C4  UNL     1       1.838   0.783   0.345  1.00  0.00     0.079 A 
HETATM    5  C5  UNL     1       0.878  -0.039  -0.126  1.00  0.00     0.003 A 
HETATM    6  C6  UNL     1       1.172  -1.348  -0.511  1.00  0.00     0.019 A 
HETATM    7  C7  UNL     1       2.490  -1.778  -0.395  1.00  0.00    -0.055 A 
HETATM    8  C8  UNL     1       2.776  -3.163  -0.804  1.00  0.00     0.049 C 
HETATM    9  C9  UNL     1      -0.584   0.345  -0.290  1.00  0.00     0.055 C 
HETATM   10  C10 UNL     1      -0.674   0.558  -1.796  1.00  0.00     0.044 C 
HETATM   11  C15 UNL     1      -0.875   1.608   0.438  1.00  0.00     0.073 C 
HETATM   12  C16 UNL     1       0.253   2.608   0.463  1.00  0.00     0.063 C 
HETATM   13  C17 UNL     1      -0.056   3.558   1.630  1.00  0.00     0.046 C 
HETATM   14  C18 UNL     1       0.208   3.470  -0.788  1.00  0.00     0.046 C 
HETATM   15  O1  UNL     1       1.502   2.060   0.713  1.00  0.00    -0.340 OA
ENDROOT
BRANCH   9  16
HETATM   16  N1  UNL     1      -1.284  -0.734   0.209  1.00  0.00    -0.401 N 
ATOM     17  H1  UNL     1      -0.704  -1.447   0.652  1.00  0.00     0.155 HD
BRANCH  16  18
HETATM   18  C11 UNL     1      -2.608  -1.007   0.210  1.00  0.00     0.015 C 
HETATM   19  C12 UNL     1      -3.349  -1.146  -1.084  1.00  0.00     0.037 C 
HETATM   20  C13 UNL     1      -2.758  -2.399   0.893  1.00  0.00     0.037 C 
HETATM   21  C14 UNL     1      -3.408  -0.100   1.106  1.00  0.00     0.037 C 
ENDBRANCH  16  18
ENDBRANCH   9  16
TORSDOF 2
