REMARK  14 active torsions:
REMARK  status: ('A' for Active; 'I' for Inactive)
REMARK    1  A    between atoms: C2_3  and  N2_4 
REMARK    2  A    between atoms: N2_4  and  C3_5 
REMARK    3  A    between atoms: N2_4  and  C5_9 
REMARK    4  A    between atoms: C3_5  and  C4_6 
REMARK    5  A    between atoms: C4_6  and  O1_7 
REMARK    6  A    between atoms: C6_12  and  N4_13 
REMARK    7  A    between atoms: C8_22  and  C9_23 
REMARK    8  A    between atoms: C11_28  and  C12_29 
REMARK    9  A    between atoms: C12_29  and  N9_33 
REMARK   10  A    between atoms: N9_33  and  C13_35 
REMARK   11  A    between atoms: C13_35  and  C14_36 
REMARK   12  A    between atoms: C14_36  and  C15_38 
REMARK   13  A    between atoms: C15_38  and  O2_39 
REMARK   14  A    between atoms: C15_38  and  O3_41 
ROOT
HETATM    1  N1  UNL     1      -1.132   1.264   3.341  1.00  0.00    -0.196 NA
HETATM    2  C1  UNL     1      -1.967   0.627   2.835  1.00  0.00     0.079 C 
HETATM    3  C2  UNL     1      -2.994  -0.199   2.219  1.00  0.00     0.248 C 
ENDROOT
BRANCH   3   4
HETATM    4  N2  UNL     1      -3.207   0.045   0.815  1.00  0.00    -0.351 N 
BRANCH   4   5
HETATM    5  C3  UNL     1      -3.801   1.250   0.360  1.00  0.00     0.151 C 
BRANCH   5   6
HETATM    6  C4  UNL     1      -3.080   2.526   0.619  1.00  0.00     0.183 C 
BRANCH   6   7
HETATM    7  O1  UNL     1      -3.894   3.542   0.044  1.00  0.00    -0.399 OA
ATOM      8  H1  UNL     1      -3.434   4.356   0.209  1.00  0.00     0.209 HD
ENDBRANCH   6   7
ENDBRANCH   5   6
ENDBRANCH   4   5
BRANCH   4   9
HETATM    9  C5  UNL     1      -2.879  -1.003  -0.083  1.00  0.00     0.138 A 
HETATM   10  N3  UNL     1      -3.702  -2.115   0.009  1.00  0.00    -0.176 N 
HETATM   11  C6  UNL     1      -3.539  -3.196  -0.744  1.00  0.00     0.679 A 
ATOM     12  H3  UNL     1      -4.466  -2.102   0.685  1.00  0.00     0.186 HD
HETATM   13  N5  UNL     1      -2.534  -3.235  -1.645  1.00  0.00    -0.176 N 
HETATM   14  C7  UNL     1      -1.693  -2.213  -1.804  1.00  0.00     0.132 A 
ATOM     15  H5  UNL     1      -2.415  -4.069  -2.220  1.00  0.00     0.186 HD
HETATM   16  N6  UNL     1      -0.720  -2.232  -2.661  1.00  0.00    -0.384 N 
HETATM   17  C8  UNL     1      -1.900  -1.087  -0.986  1.00  0.00     0.098 A 
ATOM     18  H62 UNL     1      -0.570  -3.048  -3.254  1.00  0.00     0.157 HD
ATOM     19  H61 UNL     1      -0.077  -1.450  -2.783  1.00  0.00     0.157 HD
BRANCH  11  20
HETATM   20  N4  UNL     1      -4.348  -4.215  -0.607  1.00  0.00    -0.234 N 
ATOM     21  H42 UNL     1      -5.107  -4.186   0.074  1.00  0.00     0.174 HD
ATOM     22  H41 UNL     1      -4.223  -5.046  -1.186  1.00  0.00     0.174 HD
ENDBRANCH  11  20
BRANCH  17  23
HETATM   23  C9  UNL     1      -0.957  -0.000  -1.215  1.00  0.00     0.141 A 
HETATM   24  N7  UNL     1      -1.007   1.019  -2.055  1.00  0.00    -0.329 N 
HETATM   25  C10 UNL     1       0.128   1.754  -1.958  1.00  0.00     0.137 A 
ATOM     26  H7  UNL     1      -1.784   1.222  -2.683  1.00  0.00     0.168 HD
HETATM   27 CL1  UNL     1       0.435   3.191  -2.917  1.00  0.00    -0.062 Cl
HETATM   28  C11 UNL     1       0.942   1.160  -0.997  1.00  0.00     0.133 A 
HETATM   29  N10 UNL     1       0.246   0.098  -0.570  1.00  0.00    -0.226 N 
HETATM   30  C16 UNL     1       0.681  -0.812   0.422  1.00  0.00     0.191 C 
HETATM   31  N11 UNL     1       1.009  -1.584   1.243  1.00  0.00    -0.171 NA
BRANCH  28  32
HETATM   32  C12 UNL     1       2.267   1.625  -0.579  1.00  0.00     0.126 C 
HETATM   33  N8  UNL     1       2.824   2.654  -1.032  1.00  0.00    -0.384 N 
ATOM     34  H82 UNL     1       2.324   3.217  -1.720  1.00  0.00     0.157 HD
ATOM     35  H81 UNL     1       3.746   2.978  -0.741  1.00  0.00     0.157 HD
BRANCH  32  36
HETATM   36  N9  UNL     1       2.975   0.828   0.394  1.00  0.00    -0.372 N 
ATOM     37  H9  UNL     1       2.731   0.826   1.384  1.00  0.00     0.161 HD
BRANCH  36  38
HETATM   38  C13 UNL     1       4.062   0.028  -0.145  1.00  0.00     0.163 C 
BRANCH  38  39
HETATM   39  C14 UNL     1       4.744  -0.688   0.971  1.00  0.00     0.242 C 
HETATM   40  F1  UNL     1       5.769  -1.442   0.422  1.00  0.00    -0.243 F 
BRANCH  39  41
HETATM   41  C15 UNL     1       5.340   0.341   1.925  1.00  0.00     0.289 C 
BRANCH  41  42
HETATM   42  O2  UNL     1       5.961  -0.358   2.956  1.00  0.00    -0.368 OA
ATOM     43  H2  UNL     1       6.332   0.283   3.550  1.00  0.00     0.212 HD
ENDBRANCH  41  42
BRANCH  41  44
HETATM   44  O3  UNL     1       6.281   1.066   1.190  1.00  0.00    -0.368 OA
ATOM     45  H3  UNL     1       6.652   1.707   1.784  1.00  0.00     0.212 HD
ENDBRANCH  41  44
ENDBRANCH  39  41
ENDBRANCH  38  39
ENDBRANCH  36  38
ENDBRANCH  32  36
ENDBRANCH  28  32
ENDBRANCH  17  23
ENDBRANCH   4   9
ENDBRANCH   3   4
TORSDOF 14
