REMARK  3 active torsions:
REMARK  status: ('A' for Active; 'I' for Inactive)
REMARK    1  A    between atoms: C2_2  and  C3_10 
REMARK    2  A    between atoms: N1_3  and  N2_5 
REMARK    3  A    between atoms: N2_5  and  N3_7 
ROOT
HETATM    1  C1  UNL     1       2.377  -1.602  -0.007  1.00  0.00     0.065 C 
HETATM    2  C2  UNL     1       1.686  -0.298   0.339  1.00  0.00     0.005 C 
HETATM    3  N1  UNL     1       2.436   0.660   0.599  1.00  0.00    -0.295 N 
ATOM      4  H1  UNL     1       3.423   0.412   0.537  1.00  0.00     0.187 HD
ENDROOT
BRANCH   2   5
HETATM    5  C3  UNL     1       0.237  -0.308   0.327  1.00  0.00     0.032 C 
HETATM    6  C4  UNL     1      -0.442   0.966   0.676  1.00  0.00     0.010 C 
HETATM    7  C5  UNL     1      -1.953   0.641   0.708  1.00  0.00     0.001 C 
HETATM    8  C6  UNL     1      -2.350   0.430  -0.733  1.00  0.00     0.000 C 
HETATM    9  C7  UNL     1      -1.723  -0.912  -1.137  1.00  0.00     0.001 C 
HETATM   10  C8  UNL     1      -0.242  -0.825  -1.022  1.00  0.00     0.010 C 
ENDBRANCH   2   5
BRANCH   3  11
HETATM   11  N2  UNL     1       2.246   1.959   0.946  1.00  0.00    -0.249 N 
ATOM     12  H2  UNL     1       1.766   2.568   0.283  1.00  0.00     0.207 HD
BRANCH  11  13
HETATM   13  N3  UNL     1       2.636   2.467   2.062  1.00  0.00    -0.331 N 
ATOM     14  H32 UNL     1       3.114   1.844   2.713  1.00  0.00     0.178 HD
ATOM     15  H31 UNL     1       2.493   3.443   2.323  1.00  0.00     0.178 HD
ENDBRANCH  11  13
ENDBRANCH   3  11
TORSDOF 3
