REMARK  15 active torsions:
REMARK  status: ('A' for Active; 'I' for Inactive)
REMARK    1  A    between atoms: C2_2  and  C3_3 
REMARK    2  A    between atoms: C3_3  and  O1_4 
REMARK    3  A    between atoms: O1_4  and  C4_5 
REMARK    4  A    between atoms: C4_5  and  C5_6 
REMARK    5  A    between atoms: C5_6  and  C6_7 
REMARK    6  A    between atoms: C6_7  and  N1_8 
REMARK    7  A    between atoms: N1_8  and  C7_10 
REMARK    8  A    between atoms: N3_14  and  C9_16 
REMARK    9  A    between atoms: C9_16  and  C10_17 
REMARK   10  A    between atoms: C10_17  and  C11_18 
REMARK   11  A    between atoms: C11_18  and  N4_19 
REMARK   12  A    between atoms: N5_22  and  C14_23 
REMARK   13  A    between atoms: C14_23  and  C15_24 
REMARK   14  A    between atoms: C22_33  and  N7_34 
REMARK   15  A    between atoms: N7_34  and  C23_36 
ROOT
HETATM    1  C7  UNL     1      -3.648   0.996  -0.284  1.00  0.00     0.707 A 
HETATM    2  N2  UNL     1      -2.364   0.657  -0.620  1.00  0.00    -0.022 N 
ATOM      3  H2  UNL     1      -2.219  -0.037  -1.353  1.00  0.00     0.203 HD
HETATM    4  C8  UNL     1      -1.293   1.196  -0.029  1.00  0.00     0.707 A 
HETATM    5  N3  UNL     1      -0.080   0.934  -0.289  1.00  0.00    -0.225 N 
ATOM      6  H3  UNL     1       0.631   1.428   0.250  1.00  0.00     0.177 HD
HETATM    7  N6  UNL     1      -1.546   2.126   0.954  1.00  0.00    -0.022 N 
ATOM      8  H6  UNL     1      -0.755   2.560   1.430  1.00  0.00     0.203 HD
HETATM    9  C22 UNL     1      -2.775   2.484   1.311  1.00  0.00     0.707 A 
HETATM   10  N8  UNL     1      -3.817   1.899   0.672  1.00  0.00    -0.022 N 
ATOM     11  H8  UNL     1      -4.766   2.163   0.936  1.00  0.00     0.203 HD
ENDROOT
BRANCH   5  12
HETATM   12  C9  UNL     1       0.368   0.014  -1.264  1.00  0.00     0.140 C 
BRANCH  12  13
HETATM   13  C10 UNL     1       1.340   0.741  -2.186  1.00  0.00     0.050 C 
BRANCH  13  14
HETATM   14  C11 UNL     1       2.497   1.246  -1.368  1.00  0.00     0.274 C 
BRANCH  14  15
HETATM   15  N4  UNL     1       3.151   0.138  -0.739  1.00  0.00     0.094 N 
HETATM   16  C12 UNL     1       3.845  -0.749  -1.623  1.00  0.00     0.293 C 
HETATM   17  C13 UNL     1       5.297  -0.323  -1.821  1.00  0.00     0.157 C 
HETATM   18  N5  UNL     1       5.964  -0.471  -0.562  1.00  0.00    -0.370 N 
HETATM   19  C20 UNL     1       5.186  -0.275   0.581  1.00  0.00     0.093 C 
HETATM   20  C21 UNL     1       4.008   0.641   0.319  1.00  0.00     0.317 C 
BRANCH  18  21
HETATM   21  C14 UNL     1       7.037  -1.360  -0.534  1.00  0.00     0.068 C 
BRANCH  21  22
HETATM   22  C15 UNL     1       7.754  -1.541   0.749  1.00  0.00     0.024 C 
HETATM   23  C16 UNL     1       8.875  -2.562   0.497  1.00  0.00     0.010 C 
HETATM   24  C17 UNL     1      10.150  -1.923   0.944  1.00  0.00     0.001 C 
HETATM   25  C18 UNL     1       9.906  -0.452   0.683  1.00  0.00     0.001 C 
HETATM   26  C19 UNL     1       8.479  -0.295   1.191  1.00  0.00     0.010 C 
ENDBRANCH  21  22
ENDBRANCH  18  21
ENDBRANCH  14  15
ENDBRANCH  13  14
ENDBRANCH  12  13
ENDBRANCH   5  12
BRANCH   1  27
HETATM   27  N1  UNL     1      -4.579   0.413  -0.919  1.00  0.00    -0.225 N 
ATOM     28  H1  UNL     1      -4.308  -0.264  -1.632  1.00  0.00     0.177 HD
BRANCH  27  29
HETATM   29  C6  UNL     1      -5.987   0.632  -0.713  1.00  0.00     0.140 C 
BRANCH  29  30
HETATM   30  C5  UNL     1      -6.712  -0.441  -1.537  1.00  0.00     0.046 C 
BRANCH  30  31
HETATM   31  C4  UNL     1      -6.305  -1.799  -1.059  1.00  0.00     0.169 C 
BRANCH  31  32
HETATM   32  O1  UNL     1      -6.898  -2.837  -1.741  1.00  0.00    -0.391 OA
BRANCH  32  33
HETATM   33  C3  UNL     1      -8.264  -2.871  -1.681  1.00  0.00     0.167 C 
BRANCH  33  34
HETATM   34  C2  UNL     1      -8.831  -2.993  -0.286  1.00  0.00     0.022 C 
HETATM   35  C1  UNL     1     -10.354  -3.023  -0.369  1.00  0.00     0.007 C 
ENDBRANCH  33  34
ENDBRANCH  32  33
ENDBRANCH  31  32
ENDBRANCH  30  31
ENDBRANCH  29  30
ENDBRANCH  27  29
ENDBRANCH   1  27
BRANCH   9  36
HETATM   36  N7  UNL     1      -2.935   3.363   2.242  1.00  0.00    -0.220 N 
ATOM     37  H7  UNL     1      -2.095   3.751   2.670  1.00  0.00     0.178 HD
BRANCH  36  38
HETATM   38  C23 UNL     1      -4.198   3.837   2.722  1.00  0.00     0.099 A 
HETATM   39  C24 UNL     1      -4.340   5.290   2.949  1.00  0.00     0.028 A 
HETATM   40  C25 UNL     1      -4.938   4.725   1.715  1.00  0.00     0.028 A 
ENDBRANCH  36  38
ENDBRANCH   9  36
TORSDOF 15
