REMARK  13 active torsions:
REMARK  status: ('A' for Active; 'I' for Inactive)
REMARK    1  A    between atoms: C3_3  and  O1_4 
REMARK    2  A    between atoms: O1_4  and  C4_5 
REMARK    3  A    between atoms: C4_5  and  C5_6 
REMARK    4  A    between atoms: C5_6  and  O2_7 
REMARK    5  A    between atoms: O2_7  and  C6_8 
REMARK    6  A    between atoms: C6_8  and  C7_9 
REMARK    7  A    between atoms: C7_9  and  O3_10 
REMARK    8  A    between atoms: O3_10  and  C8_11 
REMARK    9  A    between atoms: C8_11  and  C9_12 
REMARK   10  A    between atoms: C9_12  and  N1_13 
REMARK   11  A    between atoms: C13_22  and  N4_23 
REMARK       I    between atoms: N4_23  and  C14_25 
REMARK   12  A    between atoms: C14_25  and  C15_27 
REMARK   13  A    between atoms: C15_27  and  C16_28 
ROOT
HETATM    1  C1  UNL     1       9.437   4.134  -1.746  1.00  0.00     0.014 C 
HETATM    2  C2  UNL     1       8.987   3.103  -2.169  1.00  0.00    -0.091 C 
HETATM    3  C3  UNL     1       8.431   1.823  -2.717  1.00  0.00     0.267 C 
ENDROOT
BRANCH   3   4
HETATM    4  O1  UNL     1       8.819   0.849  -1.873  1.00  0.00    -0.349 OA
BRANCH   4   5
HETATM    5  C4  UNL     1       8.445   0.901  -0.618  1.00  0.00     0.159 C 
BRANCH   5   6
HETATM    6  C5  UNL     1       7.163   0.499  -0.070  1.00  0.00     0.158 C 
BRANCH   6   7
HETATM    7  O2  UNL     1       5.948   0.937  -0.379  1.00  0.00    -0.359 OA
BRANCH   7   8
HETATM    8  C6  UNL     1       5.268   0.494  -1.433  1.00  0.00     0.200 C 
BRANCH   8   9
HETATM    9  C7  UNL     1       3.934   1.162  -1.675  1.00  0.00     0.194 C 
BRANCH   9  10
HETATM   10  O3  UNL     1       2.988   1.088  -0.738  1.00  0.00    -0.387 OA
BRANCH  10  11
HETATM   11  C8  UNL     1       3.219   1.574   0.501  1.00  0.00     0.187 C 
BRANCH  11  12
HETATM   12  C9  UNL     1       2.021   1.508   1.432  1.00  0.00     0.152 C 
BRANCH  12  13
HETATM   13  N1  UNL     1       1.524   0.161   1.640  1.00  0.00    -0.346 N 
HETATM   14  C10 UNL     1       2.119  -0.610   2.710  1.00  0.00     0.133 C 
HETATM   15  C11 UNL     1       2.539  -1.980   2.258  1.00  0.00     0.095 C 
HETATM   16  C12 UNL     1       1.363  -2.875   2.036  1.00  0.00     0.073 C 
HETATM   17  N2  UNL     1       1.356  -3.950   2.763  1.00  0.00    -0.389 N 
HETATM   18  N3  UNL     1       0.291  -2.676   1.151  1.00  0.00    -0.351 N 
ATOM     19  H22 UNL     1       2.135  -4.095   3.406  1.00  0.00     0.157 HD
ATOM     20  H21 UNL     1       0.553  -4.561   2.611  1.00  0.00     0.157 HD
HETATM   21  C13 UNL     1      -0.331  -1.469   0.696  1.00  0.00     0.279 C 
ATOM     22  H3  UNL     1      -0.111  -3.532   0.769  1.00  0.00     0.163 HD
HETATM   23  C26 UNL     1       0.507  -0.254   0.760  1.00  0.00     0.262 C 
HETATM   24  O5  UNL     1       0.258   0.590  -0.165  1.00  0.00    -0.269 OA
BRANCH  21  25
HETATM   25  N4  UNL     1      -1.612  -1.254   1.339  1.00  0.00    -0.332 N 
HETATM   26  C14 UNL     1      -2.784  -1.102   0.525  1.00  0.00     0.220 C 
HETATM   27  O4  UNL     1      -2.630  -1.167  -0.717  1.00  0.00    -0.274 OA
ATOM     28  H4  UNL     1      -1.680  -1.211   2.356  1.00  0.00     0.165 HD
BRANCH  26  29
HETATM   29  C15 UNL     1      -4.098  -0.877   1.138  1.00  0.00     0.112 C 
BRANCH  29  30
HETATM   30  C16 UNL     1      -5.228  -0.557   0.220  1.00  0.00    -0.031 C 
HETATM   31  C17 UNL     1      -4.931   0.694  -0.539  1.00  0.00     0.014 C 
HETATM   32  C18 UNL     1      -6.023   1.013  -1.547  1.00  0.00    -0.013 C 
HETATM   33  C19 UNL     1      -6.284  -0.194  -2.397  1.00  0.00     0.009 C 
HETATM   34  C23 UNL     1      -7.254   1.348  -0.720  1.00  0.00     0.009 C 
HETATM   35  C20 UNL     1      -6.718  -1.372  -1.569  1.00  0.00    -0.013 C 
HETATM   36  C21 UNL     1      -7.924  -1.061  -0.728  1.00  0.00     0.009 C 
HETATM   37  C25 UNL     1      -5.572  -1.729  -0.631  1.00  0.00     0.014 C 
HETATM   38  C22 UNL     1      -7.581   0.148   0.128  1.00  0.00    -0.013 C 
HETATM   39  C24 UNL     1      -6.487  -0.233   1.057  1.00  0.00     0.014 C 
ENDBRANCH  29  30
ENDBRANCH  26  29
ENDBRANCH  21  25
ENDBRANCH  12  13
ENDBRANCH  11  12
ENDBRANCH  10  11
ENDBRANCH   9  10
ENDBRANCH   8   9
ENDBRANCH   7   8
ENDBRANCH   6   7
ENDBRANCH   5   6
ENDBRANCH   4   5
ENDBRANCH   3   4
TORSDOF 13
