REMARK  3 active torsions:
REMARK  status: ('A' for Active; 'I' for Inactive)
REMARK    1  A    between atoms: C2_2  and  O1_4 
REMARK    2  A    between atoms: C2_2  and  C4_8 
REMARK    3  A    between atoms: O1_4  and  N1_5 
ROOT
HETATM    1  C4  UNL     1       0.305   0.188  -0.588  1.00  0.00     0.228 C 
HETATM    2  N2  UNL     1       0.896   1.099   0.304  1.00  0.00    -0.384 N 
ATOM      3  H2  UNL     1       0.472   2.010   0.479  1.00  0.00     0.156 HD
HETATM    4  C5  UNL     1       2.091   0.720   0.952  1.00  0.00     0.250 C 
HETATM    5  N3  UNL     1       2.854  -0.295   0.259  1.00  0.00    -0.107 NA
HETATM    6  N4  UNL     1       2.005  -1.363   0.016  1.00  0.00    -0.033 NA
HETATM    7  N5  UNL     1       0.926  -1.060  -0.732  1.00  0.00    -0.298 N 
ATOM      8  H5  UNL     1       0.562  -1.738  -1.402  1.00  0.00     0.179 HD
ENDROOT
BRANCH   1   9
HETATM    9  C2  UNL     1      -1.183  -0.065  -0.299  1.00  0.00     0.119 C 
HETATM   10  C1  UNL     1      -1.742  -1.001  -1.380  1.00  0.00     0.052 C 
HETATM   11  C3  UNL     1      -1.388  -0.657   1.057  1.00  0.00     0.052 C 
BRANCH   9  12
HETATM   12  O1  UNL     1      -1.941   1.095  -0.383  1.00  0.00    -0.273 OA
BRANCH  12  13
HETATM   13  N1  UNL     1      -1.521   1.966   0.529  1.00  0.00    -0.310 N 
ATOM     14  H12 UNL     1      -0.758   1.794   1.183  1.00  0.00     0.184 HD
ATOM     15  H11 UNL     1      -2.078   2.818   0.467  1.00  0.00     0.184 HD
ENDBRANCH  12  13
ENDBRANCH   9  12
ENDBRANCH   1   9
TORSDOF 3
