REMARK  3 active torsions:
REMARK  status: ('A' for Active; 'I' for Inactive)
REMARK    1  A    between atoms: O1_2  and  N1_3 
REMARK    2  A    between atoms: N1_3  and  C2_5 
REMARK    3  A    between atoms: C4_12  and  N5_13 
ROOT
HETATM    1  C2  UNL     1       0.322  -0.443  -0.116  1.00  0.00     0.719 A 
HETATM    2  N2  UNL     1      -0.502  -1.406   0.331  1.00  0.00    -0.161 N 
ATOM      3  H2  UNL     1      -0.173  -2.369   0.398  1.00  0.00     0.187 HD
HETATM    4  C3  UNL     1      -1.759  -1.097   0.689  1.00  0.00     0.221 A 
HETATM    5  N3  UNL     1      -2.621  -2.126   1.160  1.00  0.00    -0.062 NA
HETATM    6  N4  UNL     1      -2.147   0.187   0.584  1.00  0.00    -0.163 N 
ATOM      7  H4  UNL     1      -3.101   0.425   0.856  1.00  0.00     0.187 HD
HETATM    8  C4  UNL     1      -1.350   1.174   0.142  1.00  0.00     0.693 A 
HETATM    9  N6  UNL     1      -0.096   0.850  -0.213  1.00  0.00    -0.021 N 
ATOM     10  H6  UNL     1       0.541   1.570  -0.554  1.00  0.00     0.203 HD
ENDROOT
BRANCH   1  11
HETATM   11  N1  UNL     1       1.528  -0.751  -0.458  1.00  0.00    -0.096 N 
ATOM     12  H1  UNL     1       1.823  -1.724  -0.379  1.00  0.00     0.213 HD
BRANCH  11  13
HETATM   13  O1  UNL     1       2.422   0.161  -0.918  1.00  0.00    -0.272 OA
HETATM   14  C1  UNL     1       3.673   0.246  -0.238  1.00  0.00     0.238 C 
ENDBRANCH  11  13
ENDBRANCH   1  11
BRANCH   8  15
HETATM   15  N5  UNL     1      -1.778   2.386   0.064  1.00  0.00    -0.234 N 
ATOM     16  H52 UNL     1      -2.730   2.632   0.334  1.00  0.00     0.174 HD
ATOM     17  H51 UNL     1      -1.173   3.135  -0.272  1.00  0.00     0.174 HD
ENDBRANCH   8  15
TORSDOF 3
