REMARK  7 active torsions:
REMARK  status: ('A' for Active; 'I' for Inactive)
REMARK    1  A    between atoms: O1_2  and  C2_3 
REMARK    2  A    between atoms: C3_4  and  O2_5 
REMARK    3  A    between atoms: C4_7  and  O3_8 
REMARK    4  A    between atoms: C5_10  and  N1_11 
REMARK    5  A    between atoms: N2_13  and  C6_15 
REMARK    6  A    between atoms: C6_15  and  C7_16 
REMARK    7  A    between atoms: C12_23  and  O4_24 
ROOT
HETATM    1  C2  UNL     1      -3.115  -0.382  -0.771  1.00  0.00     0.139 A 
HETATM    2  C3  UNL     1      -1.962  -1.042  -1.110  1.00  0.00     0.138 A 
HETATM    3  C4  UNL     1      -0.768  -0.574  -0.602  1.00  0.00     0.131 A 
HETATM    4  C5  UNL     1      -0.731   0.544   0.239  1.00  0.00     0.104 A 
HETATM    5  C11 UNL     1      -1.899   1.197   0.570  1.00  0.00     0.078 A 
HETATM    6 BR1  UNL     1      -1.951   2.718   1.699  1.00  0.00    -0.045 Br
HETATM    7  C12 UNL     1      -3.108   0.723   0.055  1.00  0.00     0.124 A 
ENDROOT
BRANCH   4   8
HETATM    8  N1  UNL     1       0.507   1.031   0.767  1.00  0.00    -0.301 N 
HETATM    9  N2  UNL     1       1.509   0.277   0.815  1.00  0.00    -0.332 N 
ATOM     10  H2  UNL     1       1.453  -0.685   0.480  1.00  0.00     0.180 HD
ATOM     11  H1  UNL     1       0.575   1.991   1.104  1.00  0.00     0.186 HD
BRANCH   9  12
HETATM   12  C6  UNL     1       2.751   0.801   1.358  1.00  0.00     0.167 C 
BRANCH  12  13
HETATM   13  C7  UNL     1       3.647  -0.337   1.643  1.00  0.00     0.008 C 
HETATM   14  C8  UNL     1       4.817  -0.423   1.047  1.00  0.00    -0.023 C 
HETATM   15  C9  UNL     1       5.529   0.425   0.063  1.00  0.00     0.056 C 
HETATM   16  S1  UNL     1       6.148  -1.613   1.125  1.00  0.00    -0.134 SA
HETATM   17  C10 UNL     1       6.863  -0.211   0.270  1.00  0.00     0.084 C 
ENDBRANCH  12  13
ENDBRANCH   9  12
ENDBRANCH   4   8
BRANCH   3  18
HETATM   18  O3  UNL     1       0.421  -1.189  -0.902  1.00  0.00    -0.356 OA
ATOM     19  H3  UNL     1       1.243  -0.867  -0.552  1.00  0.00     0.218 HD
ENDBRANCH   3  18
BRANCH   2  20
HETATM   20  O2  UNL     1      -1.997  -2.150  -1.943  1.00  0.00    -0.356 OA
ATOM     21  H2  UNL     1      -1.198  -2.607  -2.178  1.00  0.00     0.218 HD
ENDBRANCH   2  20
BRANCH   7  22
HETATM   22  O4  UNL     1      -4.319   1.334   0.350  1.00  0.00    -0.352 OA
HETATM   23  C13 UNL     1      -4.744   2.372  -0.526  1.00  0.00     0.210 C 
ENDBRANCH   7  22
BRANCH   1  24
HETATM   24  O1  UNL     1      -4.312  -0.861  -1.288  1.00  0.00    -0.351 OA
HETATM   25  C1  UNL     1      -5.080  -1.845  -0.588  1.00  0.00     0.210 C 
ENDBRANCH   1  24
TORSDOF 7
