REMARK  6 active torsions:
REMARK  status: ('A' for Active; 'I' for Inactive)
REMARK    1  A    between atoms: C2_2  and  C3_3 
REMARK    2  A    between atoms: C8_10  and  O3_11 
REMARK    3  A    between atoms: C10_14  and  O5_15 
REMARK    4  A    between atoms: C16_21  and  O6_22 
REMARK    5  A    between atoms: C17_24  and  C18_25 
REMARK    6  A    between atoms: C18_25  and  O7_26 
ROOT
HETATM    1  C3  UNL     1      -1.999  -0.482   0.637  1.00  0.00     0.083 C 
HETATM    2  C4  UNL     1      -2.382  -1.915   1.010  1.00  0.00     0.051 C 
HETATM    3  O1  UNL     1      -0.612  -0.380   0.533  1.00  0.00    -0.369 OA
HETATM    4  C5  UNL     1      -0.131  -1.048  -0.579  1.00  0.00     0.150 C 
HETATM    5  C6  UNL     1       1.357  -1.034  -0.606  1.00  0.00     0.129 C 
HETATM    6  C7  UNL     1       2.021  -1.401   0.642  1.00  0.00     0.193 C 
HETATM    7  O2  UNL     1       1.453  -2.083   1.469  1.00  0.00    -0.292 OA
HETATM    8  C8  UNL     1       3.407  -0.908   0.847  1.00  0.00     0.339 C 
HETATM    9  O4  UNL     1       3.418   0.476   0.727  1.00  0.00    -0.291 OA
HETATM   10  C10 UNL     1       2.574   1.076  -0.208  1.00  0.00     0.190 C 
HETATM   11  C12 UNL     1       1.617   0.433  -0.845  1.00  0.00     0.020 C 
HETATM   12  C13 UNL     1       0.603   0.780  -1.848  1.00  0.00    -0.046 C 
HETATM   13  C14 UNL     1       0.656   1.836  -2.655  1.00  0.00     0.020 C 
HETATM   14  C15 UNL     1      -0.482  -0.237  -1.809  1.00  0.00     0.078 C 
HETATM   15  C16 UNL     1      -1.798   0.478  -1.669  1.00  0.00     0.138 C 
HETATM   16  C17 UNL     1      -2.701  -0.167  -0.642  1.00  0.00     0.077 C 
ENDROOT
BRANCH   1  17
HETATM   17  C2  UNL     1      -2.404   0.380   1.779  1.00  0.00     0.001 C 
HETATM   18  C1  UNL     1      -2.700  -0.101   2.981  1.00  0.00     0.010 C 
ENDBRANCH   1  17
BRANCH  16  19
HETATM   19  C18 UNL     1      -3.872   0.787  -0.432  1.00  0.00     0.174 C 
BRANCH  19  20
HETATM   20  O7  UNL     1      -4.505   1.060  -1.641  1.00  0.00    -0.400 OA
ATOM     21  H7  UNL     1      -5.235   1.654  -1.510  1.00  0.00     0.209 HD
ENDBRANCH  19  20
ENDBRANCH  16  19
BRANCH  15  22
HETATM   22  O6  UNL     1      -2.464   0.392  -2.905  1.00  0.00    -0.394 OA
ATOM     23  H6  UNL     1      -3.295   0.844  -2.817  1.00  0.00     0.210 HD
ENDBRANCH  15  22
BRANCH   8  24
HETATM   24  O3  UNL     1       3.985  -1.389   2.003  1.00  0.00    -0.359 OA
HETATM   25  C9  UNL     1       5.088  -2.203   1.764  1.00  0.00     0.205 C 
ENDBRANCH   8  24
BRANCH  10  26
HETATM   26  O5  UNL     1       2.718   2.439  -0.516  1.00  0.00    -0.335 OA
HETATM   27  C11 UNL     1       2.839   3.415   0.502  1.00  0.00     0.212 C 
ENDBRANCH  10  26
TORSDOF 6
