REMARK  5 active torsions:
REMARK  status: ('A' for Active; 'I' for Inactive)
REMARK    1  A    between atoms: C2_2  and  N1_3 
REMARK    2  A    between atoms: C2_2  and  C3_7 
REMARK    3  A    between atoms: C3_7  and  N4_13 
REMARK    4  A    between atoms: N2_8  and  N3_10 
REMARK    5  A    between atoms: N4_13  and  N5_15 
ROOT
HETATM    1  C3  UNL     1      -0.871   0.638   0.013  1.00  0.00     0.140 C 
HETATM    2  N2  UNL     1      -1.573   1.703  -0.222  1.00  0.00    -0.293 N 
ATOM      3  H2  UNL     1      -2.587   1.642  -0.129  1.00  0.00     0.187 HD
ENDROOT
BRANCH   1   4
HETATM    4  C2  UNL     1      -1.579  -0.607   0.403  1.00  0.00     0.249 C 
HETATM    5  C1  UNL     1      -3.056  -0.365   0.448  1.00  0.00     0.048 C 
BRANCH   4   6
HETATM    6  N1  UNL     1      -1.197  -1.656  -0.508  1.00  0.00    -0.069 N 
ATOM      7  H13 UNL     1      -1.698  -2.519  -0.296  1.00  0.00     0.275 HD
ATOM      8  H12 UNL     1      -1.562  -1.473  -1.443  1.00  0.00     0.275 HD
ATOM      9  H11 UNL     1      -0.191  -1.821  -0.539  1.00  0.00     0.275 HD
ENDBRANCH   4   6
ENDBRANCH   1   4
BRANCH   1  10
HETATM   10  N4  UNL     1       0.539   0.639  -0.092  1.00  0.00    -0.284 N 
ATOM     11  H4  UNL     1       1.046   1.518   0.008  1.00  0.00     0.188 HD
BRANCH  10  12
HETATM   12  N5  UNL     1       1.248  -0.532  -0.328  1.00  0.00    -0.275 N 
HETATM   13  C4  UNL     1       2.501  -0.669  -0.039  1.00  0.00     0.215 C 
HETATM   14  N6  UNL     1       3.117  -1.908  -0.325  1.00  0.00    -0.065 NA
HETATM   15  N7  UNL     1       3.162   0.432   0.543  1.00  0.00    -0.065 NA
ATOM     16  H5  UNL     1       0.757  -1.321  -0.749  1.00  0.00     0.189 HD
ENDBRANCH  10  12
ENDBRANCH   1  10
BRANCH   2  17
HETATM   17  N3  UNL     1      -1.023   2.916  -0.592  1.00  0.00    -0.344 N 
ATOM     18  H32 UNL     1      -0.008   2.959  -0.681  1.00  0.00     0.176 HD
ATOM     19  H31 UNL     1      -1.575   3.754  -0.777  1.00  0.00     0.176 HD
ENDBRANCH   2  17
TORSDOF 5
