REMARK  1 active torsions:
REMARK  status: ('A' for Active; 'I' for Inactive)
REMARK       I    between atoms: C1_4  and  N3_6 
REMARK    1  A    between atoms: N5_9  and  N6_10 
ROOT
HETATM    1  N1  UNL     1      -3.503   0.299   1.397  1.00  0.00    -0.372 N 
ATOM      2  H11 UNL     1      -3.066   0.957   2.042  1.00  0.00     0.158 HD
ATOM      3  H12 UNL     1      -4.475   0.011   1.512  1.00  0.00     0.158 HD
HETATM    4  C1  UNL     1      -2.819  -0.174   0.425  1.00  0.00     0.213 C 
HETATM    5  N2  UNL     1      -3.424  -1.085  -0.467  1.00  0.00    -0.062 NA
HETATM    6  N3  UNL     1      -1.471   0.225   0.266  1.00  0.00    -0.157 N 
HETATM    7  N4  UNL     1      -0.711   1.272   0.627  1.00  0.00    -0.203 N 
ATOM      8  H4  UNL     1      -0.903   2.127   1.150  1.00  0.00     0.211 HD
HETATM    9  N5  UNL     1       0.374   0.789   0.058  1.00  0.00    -0.122 N 
HETATM   10  C3  UNL     1      -0.350  -0.274  -0.321  1.00  0.00     0.387 A 
HETATM   11  O1  UNL     1      -0.158  -1.351  -0.965  1.00  0.00    -0.241 OA
ENDROOT
BRANCH   9  12
HETATM   12  N6  UNL     1       1.692   1.208  -0.081  1.00  0.00    -0.249 N 
HETATM   13  C2  UNL     1       2.707   0.445   0.105  1.00  0.00     0.217 C 
HETATM   14  N7  UNL     1       2.471  -0.899   0.473  1.00  0.00    -0.065 NA
HETATM   15  N8  UNL     1       4.033   0.898  -0.044  1.00  0.00    -0.065 NA
ATOM     16  H6  UNL     1       1.862   2.178  -0.346  1.00  0.00     0.191 HD
ENDBRANCH   9  12
TORSDOF 1
