REMARK  15 active torsions:
REMARK  status: ('A' for Active; 'I' for Inactive)
REMARK    1  A    between atoms: N1_1  and  C1_4 
REMARK    2  A    between atoms: C3_6  and  C4_7 
REMARK    3  A    between atoms: C5_10  and  C6_11 
REMARK    4  A    between atoms: C6_11  and  C7_12 
REMARK    5  A    between atoms: C6_11  and  N6_27 
REMARK    6  A    between atoms: C7_12  and  N3_13 
REMARK    7  A    between atoms: C9_17  and  C10_18 
REMARK    8  A    between atoms: C10_18  and  C11_19 
REMARK    9  A    between atoms: C11_19  and  O1_20 
REMARK   10  A    between atoms: C11_19  and  C12_22 
REMARK   11  A    between atoms: C12_22  and  O2_23 
REMARK   12  A    between atoms: C14_33  and  C15_34 
REMARK   13  A    between atoms: C15_34  and  N9_35 
REMARK   14  A    between atoms: C15_34  and  O3_39 
REMARK   15  A    between atoms: C17_47  and  N13_48 
ROOT
HETATM    1  C6  UNL     1      -0.127  -0.050  -0.163  1.00  0.00     0.182 C 
ENDROOT
BRANCH   1   2
HETATM    2  C5  UNL     1      -0.138   1.406   0.127  1.00  0.00     0.079 A 
HETATM    3  N2  UNL     1      -1.062   2.308  -0.351  1.00  0.00    -0.339 N 
HETATM    4  C4  UNL     1      -0.790   3.542   0.084  1.00  0.00     0.135 A 
ATOM      5  H2  UNL     1      -1.848   2.067  -0.955  1.00  0.00     0.167 HD
HETATM    6  N11 UNL     1       0.315   3.451   0.851  1.00  0.00    -0.327 N 
HETATM    7  C16 UNL     1       0.714   2.178   0.883  1.00  0.00     0.142 A 
ATOM      8  H11 UNL     1       0.771   4.228   1.329  1.00  0.00     0.168 HD
HETATM    9  N10 UNL     1       1.852   1.686   1.589  1.00  0.00    -0.080 NA
BRANCH   4  10
HETATM   10  C3  UNL     1      -1.503   4.791  -0.187  1.00  0.00     0.097 A 
HETATM   11  C2  UNL     1      -1.066   5.984   0.336  1.00  0.00     0.082 A 
HETATM   12  C1  UNL     1      -1.738   7.183   0.065  1.00  0.00     0.117 A 
HETATM   13  N14 UNL     1      -2.820   7.076  -0.728  1.00  0.00    -0.177 N 
HETATM   14  C17 UNL     1      -3.229   5.902  -1.228  1.00  0.00     0.678 A 
ATOM     15  H14 UNL     1      -3.348   7.919  -0.957  1.00  0.00     0.185 HD
HETATM   16  N12 UNL     1      -2.587   4.739  -0.973  1.00  0.00    -0.188 N 
ATOM     17  H12 UNL     1      -2.916   3.856  -1.364  1.00  0.00     0.184 HD
BRANCH  12  18
HETATM   18  N1  UNL     1      -1.338   8.304   0.551  1.00  0.00    -0.385 N 
ATOM     19  H12 UNL     1      -0.518   8.385   1.152  1.00  0.00     0.157 HD
ATOM     20  H11 UNL     1      -1.827   9.177   0.354  1.00  0.00     0.157 HD
ENDBRANCH  12  18
BRANCH  14  21
HETATM   21  N13 UNL     1      -4.257   5.877  -1.967  1.00  0.00    -0.234 N 
ATOM     22 2H13 UNL     1      -4.568   4.983  -2.348  1.00  0.00     0.174 HD
ATOM     23 1H13 UNL     1      -4.741   6.754  -2.159  1.00  0.00     0.174 HD
ENDBRANCH  14  21
ENDBRANCH   4  10
ENDBRANCH   1   2
BRANCH   1  24
HETATM   24  C7  UNL     1       1.082  -0.479  -0.955  1.00  0.00     0.183 C 
BRANCH  24  25
HETATM   25  N3  UNL     1       1.062  -1.919  -1.224  1.00  0.00    -0.284 N 
HETATM   26  C8  UNL     1       0.535  -2.584  -2.269  1.00  0.00     0.201 A 
HETATM   27  N4  UNL     1       0.739  -3.915  -2.117  1.00  0.00    -0.340 N 
HETATM   28  C9  UNL     1       1.394  -4.092  -0.980  1.00  0.00     0.099 A 
ATOM     29  H4  UNL     1       0.442  -4.648  -2.762  1.00  0.00     0.168 HD
HETATM   30  N5  UNL     1       1.580  -2.878  -0.455  1.00  0.00    -0.286 N 
ATOM     31  H5  UNL     1       2.060  -2.705   0.428  1.00  0.00     0.188 HD
BRANCH  28  32
HETATM   32  C10 UNL     1       1.872  -5.348  -0.320  1.00  0.00     0.111 C 
BRANCH  32  33
HETATM   33  C11 UNL     1       3.264  -5.710  -0.761  1.00  0.00     0.148 C 
BRANCH  33  34
HETATM   34  O1  UNL     1       3.363  -5.921  -2.125  1.00  0.00    -0.393 OA
ATOM     35  H1  UNL     1       4.242  -6.150  -2.403  1.00  0.00     0.210 HD
ENDBRANCH  33  34
BRANCH  33  36
HETATM   36  C12 UNL     1       4.251  -4.631  -0.301  1.00  0.00     0.196 C 
BRANCH  36  37
HETATM   37  O2  UNL     1       5.554  -4.990  -0.565  1.00  0.00    -0.398 OA
ATOM     38  H2  UNL     1       6.166  -4.321  -0.280  1.00  0.00     0.209 HD
ENDBRANCH  36  37
ENDBRANCH  33  36
ENDBRANCH  32  33
ENDBRANCH  28  32
ENDBRANCH  24  25
ENDBRANCH   1  24
BRANCH   1  39
HETATM   39  N6  UNL     1      -0.403  -0.899   0.951  1.00  0.00    -0.263 N 
HETATM   40  N7  UNL     1       0.415  -1.069   1.973  1.00  0.00    -0.292 N 
HETATM   41  C13 UNL     1      -0.060  -1.922   2.870  1.00  0.00     0.199 A 
ATOM     42  H7  UNL     1       1.314  -0.596   2.063  1.00  0.00     0.188 HD
HETATM   43  N8  UNL     1      -1.239  -2.322   2.410  1.00  0.00    -0.336 N 
HETATM   44  C14 UNL     1      -1.456  -1.698   1.233  1.00  0.00     0.157 A 
ATOM     45  H8  UNL     1      -1.869  -2.983   2.865  1.00  0.00     0.168 HD
BRANCH  44  46
HETATM   46  C15 UNL     1      -2.668  -1.879   0.425  1.00  0.00     0.386 C 
BRANCH  46  47
HETATM   47  N9  UNL     1      -3.326  -0.664   0.030  1.00  0.00    -0.046 N 
ATOM     48  H93 UNL     1      -3.533  -0.094   0.850  1.00  0.00     0.277 HD
ATOM     49  H92 UNL     1      -2.670  -0.051  -0.453  1.00  0.00     0.277 HD
ATOM     50  H91 UNL     1      -4.168  -0.790  -0.531  1.00  0.00     0.277 HD
ENDBRANCH  46  47
BRANCH  46  51
HETATM   51  O3  UNL     1      -3.588  -2.694   1.061  1.00  0.00    -0.364 OA
ATOM     52  H3  UNL     1      -4.372  -2.811   0.538  1.00  0.00     0.212 HD
ENDBRANCH  46  51
ENDBRANCH  44  46
ENDBRANCH   1  39
TORSDOF 15
