REMARK  15 active torsions:
REMARK  status: ('A' for Active; 'I' for Inactive)
REMARK    1  A    between atoms: C5_10  and  N4_11 
REMARK    2  A    between atoms: N4_11  and  N5_13 
REMARK    3  A    between atoms: C6_15  and  C7_16 
REMARK    4  A    between atoms: C6_15  and  C8_21 
REMARK    5  A    between atoms: C7_16  and  N6_17 
REMARK    6  A    between atoms: C10_23  and  C11_24 
REMARK       I    between atoms: C11_24  and  N7_26 
REMARK    7  A    between atoms: N7_26  and  C12_28 
REMARK    8  A    between atoms: C12_28  and  C13_29 
REMARK    9  A    between atoms: C13_29  and  O2_30 
REMARK       I    between atoms: N9_34  and  C14_35 
REMARK   10  A    between atoms: C14_35  and  O4_37 
REMARK   11  A    between atoms: O4_37  and  C15_38 
REMARK   12  A    between atoms: C15_38  and  C16_39 
REMARK   13  A    between atoms: C15_38  and  C17_42 
REMARK   14  A    between atoms: C16_39  and  O5_40 
REMARK   15  A    between atoms: C17_42  and  O6_43 
ROOT
HETATM    1  C8  UNL     1      -1.159   0.551   0.722  1.00  0.00     0.090 A 
HETATM    2  C9  UNL     1      -1.866   1.602   0.096  1.00  0.00     0.070 A 
HETATM    3  C10 UNL     1      -3.104   1.125  -0.193  1.00  0.00     0.118 A 
HETATM    4  N8  UNL     1      -3.135  -0.117   0.229  1.00  0.00    -0.284 N 
ATOM      5  H8  UNL     1      -3.946  -0.730   0.145  1.00  0.00     0.188 HD
HETATM    6  N9  UNL     1      -1.960  -0.486   0.789  1.00  0.00    -0.197 N 
HETATM    7  C14 UNL     1      -1.744  -1.785   1.319  1.00  0.00     0.387 C 
HETATM    8  O3  UNL     1      -0.735  -2.223   1.836  1.00  0.00    -0.236 OA
ENDROOT
BRANCH   1   9
HETATM    9  C6  UNL     1       0.222   0.704   1.174  1.00  0.00     0.080 C 
HETATM   10  N5  UNL     1       0.946  -0.155   1.761  1.00  0.00    -0.287 N 
ATOM     11  H5  UNL     1       0.558  -1.075   1.968  1.00  0.00     0.187 HD
BRANCH  10  12
HETATM   12  N4  UNL     1       2.250   0.127   2.127  1.00  0.00    -0.131 N 
ATOM     13  H4  UNL     1       2.447   0.573   3.023  1.00  0.00     0.205 HD
BRANCH  12  14
HETATM   14  C5  UNL     1       3.308  -0.207   1.251  1.00  0.00     0.711 C 
HETATM   15  N3  UNL     1       3.009  -0.990   0.275  1.00  0.00    -0.161 N 
HETATM   16  C4  UNL     1       3.831  -1.513  -0.774  1.00  0.00     0.204 C 
ATOM     17  H3  UNL     1       2.033  -1.284   0.244  1.00  0.00     0.187 HD
HETATM   18  N1  UNL     1       4.996  -1.046  -1.076  1.00  0.00    -0.340 N 
HETATM   19  N2  UNL     1       3.338  -2.602  -1.519  1.00  0.00    -0.063 NA
HETATM   20  C2  UNL     1       5.774   0.040  -0.520  1.00  0.00     0.117 C 
ATOM     21  H1  UNL     1       5.452  -1.532  -1.848  1.00  0.00     0.164 HD
HETATM   22  C1  UNL     1       7.194  -0.130  -1.020  1.00  0.00     0.059 C 
HETATM   23  C3  UNL     1       5.288   1.390  -0.963  1.00  0.00     0.059 C 
HETATM   24  N11 UNL     1       5.823  -0.020   0.928  1.00  0.00    -0.095 NA
HETATM   25  N10 UNL     1       4.597   0.332   1.504  1.00  0.00    -0.132 N 
ATOM     26  H10 UNL     1       4.635   1.077   2.200  1.00  0.00     0.201 HD
ENDBRANCH  12  14
ENDBRANCH  10  12
BRANCH   9  27
HETATM   27  C7  UNL     1       0.898   2.033   0.917  1.00  0.00     0.290 C 
BRANCH  27  28
HETATM   28  N6  UNL     1       1.013   2.217  -0.497  1.00  0.00    -0.074 N 
ATOM     29  H63 UNL     1       1.489   1.440  -0.956  1.00  0.00     0.274 HD
ATOM     30  H62 UNL     1       0.117   2.134  -0.977  1.00  0.00     0.274 HD
ATOM     31  H61 UNL     1       1.469   3.113  -0.670  1.00  0.00     0.274 HD
ENDBRANCH  27  28
ENDBRANCH   9  27
ENDBRANCH   1   9
BRANCH   3  32
HETATM   32  C11 UNL     1      -4.174   1.870  -0.847  1.00  0.00     0.269 C 
HETATM   33  O1  UNL     1      -5.264   1.304  -1.046  1.00  0.00    -0.266 OA
HETATM   34  N7  UNL     1      -3.984   3.204  -1.247  1.00  0.00    -0.354 N 
ATOM     35  H7  UNL     1      -3.085   3.655  -1.077  1.00  0.00     0.162 HD
BRANCH  34  36
HETATM   36  C12 UNL     1      -5.036   3.945  -1.893  1.00  0.00     0.149 C 
BRANCH  36  37
HETATM   37  C13 UNL     1      -4.538   5.337  -2.201  1.00  0.00     0.183 C 
BRANCH  37  38
HETATM   38  O2  UNL     1      -5.606   6.017  -2.831  1.00  0.00    -0.399 OA
ATOM     39  H2  UNL     1      -5.293   6.893  -3.025  1.00  0.00     0.209 HD
ENDBRANCH  37  38
ENDBRANCH  36  37
ENDBRANCH  34  36
ENDBRANCH   3  32
BRANCH   7  40
HETATM   40  O4  UNL     1      -2.786  -2.736   1.272  1.00  0.00    -0.293 OA
BRANCH  40  41
HETATM   41  C15 UNL     1      -2.676  -4.029   1.760  1.00  0.00     0.180 C 
BRANCH  41  42
HETATM   42  C16 UNL     1      -3.578  -4.307   2.949  1.00  0.00     0.199 C 
BRANCH  42  43
HETATM   43  O5  UNL     1      -4.905  -4.143   2.687  1.00  0.00    -0.398 OA
ATOM     44  H5  UNL     1      -5.469  -4.317   3.431  1.00  0.00     0.209 HD
ENDBRANCH  42  43
ENDBRANCH  41  42
BRANCH  41  45
HETATM   45  C17 UNL     1      -2.805  -5.103   0.706  1.00  0.00     0.199 C 
BRANCH  45  46
HETATM   46  O6  UNL     1      -2.669  -6.335   1.389  1.00  0.00    -0.398 OA
ATOM     47  H6  UNL     1      -2.750  -7.011   0.726  1.00  0.00     0.209 HD
ENDBRANCH  45  46
ENDBRANCH  41  45
ENDBRANCH  40  41
ENDBRANCH   7  40
TORSDOF 15
