REMARK  12 active torsions:
REMARK  status: ('A' for Active; 'I' for Inactive)
REMARK    1  A    between atoms: C2_2  and  C3_3 
REMARK    2  A    between atoms: C3_3  and  C5_5 
REMARK    3  A    between atoms: C7_10  and  C8_11 
REMARK    4  A    between atoms: C8_11  and  C9_12 
REMARK    5  A    between atoms: C17_24  and  O2_25 
REMARK    6  A    between atoms: C18_27  and  C19_28 
REMARK    7  A    between atoms: C19_28  and  C20_29 
REMARK    8  A    between atoms: C20_29  and  C21_30 
REMARK    9  A    between atoms: C21_30  and  C22_31 
REMARK   10  A    between atoms: C22_31  and  N4_32 
REMARK   11  A    between atoms: C24_40  and  C25_41 
REMARK   12  A    between atoms: C25_41  and  C26_42 
ROOT
HETATM    1  C5  UNL     1       1.141  -3.228  -0.164  1.00  0.00     0.158 C 
HETATM    2  N1  UNL     1       0.773  -2.109  -0.962  1.00  0.00    -0.347 N 
ATOM      3  H1  UNL     1      -0.077  -2.210  -1.517  1.00  0.00     0.163 HD
HETATM    4  C6  UNL     1       1.455  -0.867  -1.074  1.00  0.00     0.241 C 
HETATM    5  O1  UNL     1       1.474  -0.357  -2.228  1.00  0.00    -0.271 OA
HETATM    6  C7  UNL     1       2.122  -0.153   0.019  1.00  0.00     0.179 C 
HETATM    7  N3  UNL     1       1.385   0.775   0.782  1.00  0.00    -0.359 N 
ATOM      8  H3  UNL     1       1.851   1.023   1.655  1.00  0.00     0.162 HD
HETATM    9  C17 UNL     1       0.178   1.426   0.621  1.00  0.00     0.135 C 
HETATM   10  C18 UNL     1      -0.892   1.293  -0.386  1.00  0.00     0.159 C 
HETATM   11  N5  UNL     1      -2.216   1.484   0.251  1.00  0.00    -0.347 N 
ATOM     12  H5  UNL     1      -2.763   2.299  -0.026  1.00  0.00     0.163 HD
HETATM   13  C23 UNL     1      -2.768   0.625   1.205  1.00  0.00     0.241 C 
HETATM   14  O3  UNL     1      -3.240   1.144   2.280  1.00  0.00    -0.271 OA
HETATM   15  C24 UNL     1      -2.872  -0.855   1.118  1.00  0.00     0.173 C 
HETATM   16  N6  UNL     1      -1.898  -1.494   1.949  1.00  0.00    -0.383 N 
ATOM     17  H6  UNL     1      -1.720  -1.016   2.833  1.00  0.00     0.160 HD
HETATM   18  C29 UNL     1      -1.236  -2.521   1.784  1.00  0.00    -0.014 C 
HETATM   19  C30 UNL     1      -0.277  -2.928   2.876  1.00  0.00     0.063 C 
HETATM   20  C31 UNL     1      -1.335  -3.367   0.578  1.00  0.00     0.132 C 
HETATM   21  C32 UNL     1      -0.004  -4.022   0.349  1.00  0.00     0.155 C 
HETATM   22  O4  UNL     1       0.089  -5.211   0.599  1.00  0.00    -0.295 OA
ENDROOT
BRANCH   6  23
HETATM   23  C8  UNL     1       3.466   0.393  -0.398  1.00  0.00     0.075 C 
BRANCH  23  24
HETATM   24  C9  UNL     1       4.192   1.113   0.639  1.00  0.00    -0.028 A 
HETATM   25  C10 UNL     1       5.141   0.533   1.482  1.00  0.00     0.096 A 
HETATM   26  N2  UNL     1       5.590   1.452   2.332  1.00  0.00    -0.365 N 
HETATM   27  C11 UNL     1       4.969   2.619   2.078  1.00  0.00     0.042 A 
ATOM     28  H2  UNL     1       6.290   1.298   3.058  1.00  0.00     0.165 HD
HETATM   29  C12 UNL     1       5.075   3.871   2.646  1.00  0.00     0.030 A 
HETATM   30  C16 UNL     1       4.092   2.419   1.019  1.00  0.00    -0.002 A 
HETATM   31  C13 UNL     1       4.330   4.934   2.188  1.00  0.00     0.002 A 
HETATM   32  C14 UNL     1       3.449   4.747   1.126  1.00  0.00     0.001 A 
HETATM   33  C15 UNL     1       3.359   3.498   0.578  1.00  0.00     0.014 A 
ENDBRANCH  23  24
ENDBRANCH   6  23
BRANCH   9  34
HETATM   34  O2  UNL     1      -0.114   2.340   1.502  1.00  0.00    -0.348 OA
ATOM     35  H2  UNL     1      -0.944   2.788   1.391  1.00  0.00     0.219 HD
ENDBRANCH   9  34
BRANCH   1  36
HETATM   36  C3  UNL     1       1.964  -4.167  -1.057  1.00  0.00     0.011 C 
HETATM   37  C4  UNL     1       3.199  -3.479  -1.539  1.00  0.00     0.012 C 
BRANCH  36  38
HETATM   38  C2  UNL     1       1.046  -4.555  -2.221  1.00  0.00     0.002 C 
HETATM   39  C1  UNL     1       1.804  -5.490  -3.143  1.00  0.00     0.005 C 
ENDBRANCH  36  38
ENDBRANCH   1  36
BRANCH  10  40
HETATM   40  C19 UNL     1      -0.718   2.352  -1.435  1.00  0.00     0.033 C 
BRANCH  40  41
HETATM   41  C20 UNL     1      -0.779   3.750  -0.934  1.00  0.00     0.004 C 
BRANCH  41  42
HETATM   42  C21 UNL     1      -0.605   4.740  -2.075  1.00  0.00     0.027 C 
BRANCH  42  43
HETATM   43  C22 UNL     1      -1.654   4.610  -3.137  1.00  0.00     0.229 C 
BRANCH  43  44
HETATM   44  N4  UNL     1      -2.970   4.825  -2.585  1.00  0.00    -0.079 N 
ATOM     45  H43 UNL     1      -3.154   4.207  -1.795  1.00  0.00     0.274 HD
ATOM     46  H42 UNL     1      -3.034   5.719  -2.098  1.00  0.00     0.274 HD
ATOM     47  H41 UNL     1      -3.684   4.737  -3.308  1.00  0.00     0.274 HD
ENDBRANCH  43  44
ENDBRANCH  42  43
ENDBRANCH  41  42
ENDBRANCH  40  41
ENDBRANCH  10  40
BRANCH  15  48
HETATM   48  C25 UNL     1      -4.190  -1.422   1.533  1.00  0.00     0.038 C 
BRANCH  48  49
HETATM   49  C26 UNL     1      -5.398  -1.036   0.793  1.00  0.00    -0.020 C 
HETATM   50  C27 UNL     1      -5.795   0.391   0.749  1.00  0.00     0.009 C 
HETATM   51  C28 UNL     1      -6.567  -1.809   1.449  1.00  0.00     0.009 C 
ENDBRANCH  48  49
ENDBRANCH  15  48
TORSDOF 12
