REMARK  11 active torsions:
REMARK  status: ('A' for Active; 'I' for Inactive)
REMARK       I    between atoms: C2_2  and  N1_4 
REMARK    1  A    between atoms: N1_4  and  C3_6 
REMARK    2  A    between atoms: C3_6  and  C4_7 
REMARK    3  A    between atoms: C5_8  and  C6_9 
REMARK    4  A    between atoms: C6_9  and  N2_11 
REMARK       I    between atoms: N2_11  and  C8_13 
REMARK    5  A    between atoms: C8_13  and  C9_15 
REMARK    6  A    between atoms: C9_15  and  C11_17 
REMARK    7  A    between atoms: C14_20  and  C15_21 
REMARK    8  A    between atoms: N3_39  and  C31_40 
REMARK    9  A    between atoms: C31_40  and  C32_41 
REMARK   10  A    between atoms: C32_41  and  C33_42 
REMARK   11  A    between atoms: C33_42  and  N4_43 
ROOT
HETATM    1  C11 UNL     1       1.334  -0.579  -1.024  1.00  0.00     0.004 C 
HETATM    2  C12 UNL     1       1.406   0.802  -1.578  1.00  0.00     0.007 C 
HETATM    3  C13 UNL     1      -0.020   1.341  -1.521  1.00  0.00     0.022 C 
HETATM    4  C14 UNL     1      -0.899   0.098  -1.729  1.00  0.00     0.061 C 
HETATM    5  C16 UNL     1      -0.062  -1.076  -1.314  1.00  0.00     0.010 C 
HETATM    6  C17 UNL     1      -0.558  -1.827  -0.139  1.00  0.00     0.012 C 
HETATM    7  C18 UNL     1      -1.218  -1.011   0.934  1.00  0.00     0.053 C 
HETATM    8  C19 UNL     1      -2.109   0.082   0.460  1.00  0.00    -0.006 C 
HETATM    9  C20 UNL     1      -2.216   0.198  -1.046  1.00  0.00     0.051 C 
HETATM   10  C21 UNL     1      -3.230  -0.704  -1.666  1.00  0.00     0.013 C 
HETATM   11  C22 UNL     1      -4.596  -0.616  -1.059  1.00  0.00     0.012 C 
HETATM   12  C23 UNL     1      -4.748  -1.466   0.157  1.00  0.00    -0.016 C 
HETATM   13  C24 UNL     1      -4.489  -2.883  -0.146  1.00  0.00     0.012 C 
HETATM   14  C25 UNL     1      -5.670  -3.175  -1.097  1.00  0.00     0.001 C 
HETATM   15  C26 UNL     1      -6.794  -2.238  -0.619  1.00  0.00     0.005 C 
HETATM   16  C27 UNL     1      -6.221  -1.662   0.559  1.00  0.00    -0.004 C 
HETATM   17  C28 UNL     1      -6.529  -0.379   1.151  1.00  0.00     0.007 C 
HETATM   18  C29 UNL     1      -5.380  -0.436   2.190  1.00  0.00     0.027 C 
HETATM   19  C30 UNL     1      -4.171  -0.836   1.362  1.00  0.00     0.097 C 
HETATM   20  N3  UNL     1      -3.353   0.245   1.107  1.00  0.00    -0.362 N 
ENDROOT
BRANCH   1  21
HETATM   21  C9  UNL     1       2.426  -1.509  -1.385  1.00  0.00     0.078 C 
HETATM   22  C10 UNL     1       2.507  -1.840  -2.855  1.00  0.00     0.020 C 
BRANCH  21  23
HETATM   23  C8  UNL     1       3.735  -1.047  -0.937  1.00  0.00     0.222 C 
HETATM   24  N2  UNL     1       4.483   0.033  -1.451  1.00  0.00    -0.353 N 
ATOM     25  H2  UNL     1       4.084   0.565  -2.224  1.00  0.00     0.163 HD
HETATM   26  O2  UNL     1       4.296  -1.672   0.035  1.00  0.00    -0.273 OA
BRANCH  24  27
HETATM   27  C6  UNL     1       5.775   0.432  -0.954  1.00  0.00     0.103 C 
HETATM   28  C7  UNL     1       6.726   0.462  -2.132  1.00  0.00     0.036 C 
BRANCH  27  29
HETATM   29  C5  UNL     1       5.749   1.794  -0.353  1.00  0.00    -0.005 C 
HETATM   30  C4  UNL     1       6.785   2.172   0.383  1.00  0.00    -0.009 C 
BRANCH  30  31
HETATM   31  C3  UNL     1       7.976   1.365   0.668  1.00  0.00     0.149 C 
BRANCH  31  32
HETATM   32  N1  UNL     1       8.137   1.150   2.101  1.00  0.00    -0.358 N 
HETATM   33  C2  UNL     1       9.214   0.400   2.619  1.00  0.00     0.213 C 
HETATM   34  C1  UNL     1       9.331   0.211   4.079  1.00  0.00     0.117 C 
HETATM   35  O1  UNL     1      10.078  -0.112   1.872  1.00  0.00    -0.274 OA
ATOM     36  H1  UNL     1       7.455   1.551   2.744  1.00  0.00     0.162 HD
ENDBRANCH  31  32
ENDBRANCH  30  31
ENDBRANCH  27  29
ENDBRANCH  24  27
ENDBRANCH  21  23
ENDBRANCH   1  21
BRANCH   4  37
HETATM   37  C15 UNL     1      -1.150   0.062  -3.205  1.00  0.00     0.183 C 
HETATM   38  O3  UNL     1      -0.850  -0.901  -3.936  1.00  0.00    -0.647 OA
HETATM   39  O4  UNL     1      -1.752   1.156  -3.819  1.00  0.00    -0.647 OA
ENDBRANCH   4  37
BRANCH  20  40
HETATM   40  C31 UNL     1      -3.693   1.569   1.436  1.00  0.00     0.066 C 
BRANCH  40  41
HETATM   41  C32 UNL     1      -2.843   2.189   2.542  1.00  0.00     0.072 C 
BRANCH  41  42
HETATM   42  C33 UNL     1      -3.395   3.603   2.723  1.00  0.00     0.234 C 
BRANCH  42  43
HETATM   43  N4  UNL     1      -3.275   4.337   1.502  1.00  0.00    -0.079 N 
ATOM     44  H43 UNL     1      -2.317   4.343   1.153  1.00  0.00     0.274 HD
ATOM     45  H42 UNL     1      -3.716   3.852   0.720  1.00  0.00     0.274 HD
ATOM     46  H41 UNL     1      -3.643   5.280   1.623  1.00  0.00     0.274 HD
ENDBRANCH  42  43
ENDBRANCH  41  42
ENDBRANCH  40  41
ENDBRANCH  20  40
TORSDOF 11
