REMARK  11 active torsions:
REMARK  status: ('A' for Active; 'I' for Inactive)
REMARK    1  A    between atoms: C2_2  and  N1_3 
REMARK    2  A    between atoms: N1_3  and  C4_5 
REMARK    3  A    between atoms: C8_9  and  O1_10 
REMARK    4  A    between atoms: C18_21  and  C19_22 
REMARK    5  A    between atoms: C23_28  and  N3_29 
REMARK       I    between atoms: N3_29  and  C24_31 
REMARK    6  A    between atoms: C24_31  and  C25_33 
REMARK    7  A    between atoms: C25_33  and  C26_34 
REMARK    8  A    between atoms: C26_34  and  C27_35 
REMARK    9  A    between atoms: C27_35  and  C28_36 
REMARK       I    between atoms: C28_36  and  N4_38 
REMARK   10  A    between atoms: N4_38  and  N5_40 
REMARK   11  A    between atoms: N5_40  and  C29_42 
ROOT
HETATM    1  C4  UNL     1      -0.248  -1.433  -1.081  1.00  0.00     0.245 C 
HETATM    2  C5  UNL     1      -1.175  -2.552  -1.046  1.00  0.00     0.043 C 
HETATM    3  C6  UNL     1      -2.394  -2.484  -0.182  1.00  0.00    -0.002 C 
HETATM    4  C7  UNL     1      -2.924  -3.898  -0.246  1.00  0.00     0.037 C 
HETATM    5  C8  UNL     1      -4.271  -4.120   0.303  1.00  0.00     0.118 C 
HETATM    6  C9  UNL     1      -5.215  -3.153  -0.430  1.00  0.00     0.032 C 
HETATM    7  C10 UNL     1      -4.719  -1.782   0.008  1.00  0.00     0.012 C 
HETATM    8  C11 UNL     1      -3.373  -1.459  -0.654  1.00  0.00    -0.036 C 
HETATM    9  C12 UNL     1      -3.665  -1.626  -2.153  1.00  0.00     0.016 C 
HETATM   10  C13 UNL     1      -3.105  -0.054  -0.398  1.00  0.00     0.001 C 
HETATM   11  C14 UNL     1      -3.608   0.456   0.944  1.00  0.00     0.007 C 
HETATM   12  C15 UNL     1      -3.722   1.995   0.916  1.00  0.00     0.011 C 
HETATM   13  C16 UNL     1      -2.371   2.507   0.689  1.00  0.00    -0.028 C 
HETATM   14  C17 UNL     1      -1.518   2.490   1.884  1.00  0.00     0.016 C 
HETATM   15  C18 UNL     1      -2.202   3.813  -0.073  1.00  0.00     0.084 C 
HETATM   16  C20 UNL     1      -0.998   3.038  -0.688  1.00  0.00     0.020 C 
HETATM   17  C21 UNL     1      -1.903   1.932  -0.623  1.00  0.00     0.002 C 
HETATM   18  C22 UNL     1      -1.732   0.503  -0.742  1.00  0.00     0.020 C 
HETATM   19  C23 UNL     1      -0.607  -0.233  -0.174  1.00  0.00     0.122 C 
ENDROOT
BRANCH  19  20
HETATM   20  N3  UNL     1       0.625   0.432   0.018  1.00  0.00    -0.354 N 
HETATM   21  C24 UNL     1       1.560   0.881  -0.940  1.00  0.00     0.217 C 
HETATM   22  O3  UNL     1       1.452   0.781  -2.185  1.00  0.00    -0.274 OA
ATOM     23  H3  UNL     1       0.875   0.614   0.990  1.00  0.00     0.162 HD
BRANCH  21  24
HETATM   24  C25 UNL     1       2.833   1.553  -0.468  1.00  0.00     0.103 C 
BRANCH  24  25
HETATM   25  C26 UNL     1       3.595   2.153  -1.586  1.00  0.00     0.019 C 
BRANCH  25  26
HETATM   26  C27 UNL     1       4.863   2.797  -1.112  1.00  0.00     0.105 C 
BRANCH  26  27
HETATM   27  C28 UNL     1       5.827   1.858  -0.540  1.00  0.00     0.235 C 
HETATM   28  O4  UNL     1       5.647   0.621  -0.624  1.00  0.00    -0.272 OA
HETATM   29  N4  UNL     1       7.006   2.270   0.134  1.00  0.00    -0.269 N 
ATOM     30  H4  UNL     1       7.199   3.267   0.234  1.00  0.00     0.190 HD
BRANCH  29  31
HETATM   31  N5  UNL     1       7.904   1.349   0.662  1.00  0.00    -0.292 N 
ATOM     32  H5  UNL     1       8.824   1.218   0.242  1.00  0.00     0.187 HD
BRANCH  31  33
HETATM   33  C29 UNL     1       7.510   0.597   1.797  1.00  0.00     0.088 C 
HETATM   34  C30 UNL     1       8.411  -0.411   2.416  1.00  0.00     0.083 C 
HETATM   35  S1  UNL     1       6.027   0.811   2.493  1.00  0.00    -0.064 SA
ENDBRANCH  31  33
ENDBRANCH  29  31
ENDBRANCH  26  27
ENDBRANCH  25  26
ENDBRANCH  24  25
ENDBRANCH  21  24
ENDBRANCH  19  20
BRANCH   1  36
HETATM   36  N1  UNL     1       1.072  -1.928  -0.753  1.00  0.00     0.090 N 
HETATM   37  C3  UNL     1       1.546  -2.797  -1.800  1.00  0.00     0.310 C 
BRANCH  36  38
HETATM   38  C2  UNL     1       1.209  -2.479   0.553  1.00  0.00     0.268 C 
HETATM   39  C1  UNL     1       2.668  -2.585   0.966  1.00  0.00     0.037 C 
ENDBRANCH  36  38
ENDBRANCH   1  36
BRANCH  15  40
HETATM   40  C19 UNL     1      -1.834   4.990   0.706  1.00  0.00     0.236 C 
HETATM   41  N2  UNL     1      -2.710   5.508   1.678  1.00  0.00    -0.062 NA
HETATM   42  O2  UNL     1      -0.729   5.554   0.515  1.00  0.00    -0.276 OA
ENDBRANCH  15  40
BRANCH   5  43
HETATM   43  O1  UNL     1      -4.662  -5.414   0.038  1.00  0.00    -0.396 OA
ATOM     44  H1  UNL     1      -5.532  -5.557   0.392  1.00  0.00     0.210 HD
ENDBRANCH   5  43
TORSDOF 11
