REMARK  9 active torsions:
REMARK  status: ('A' for Active; 'I' for Inactive)
REMARK    1  A    between atoms: C2_2  and  C3_3 
REMARK    2  A    between atoms: C3_3  and  C5_5 
REMARK    3  A    between atoms: C8_11  and  C9_12 
REMARK    4  A    between atoms: C14_20  and  C15_21 
REMARK    5  A    between atoms: C15_21  and  C16_22 
REMARK    6  A    between atoms: C20_29  and  C21_30 
REMARK    7  A    between atoms: C21_30  and  C23_32 
REMARK    8  A    between atoms: C26_38  and  C27_39 
REMARK    9  A    between atoms: C27_39  and  C28_40 
ROOT
HETATM    1  C5  UNL     1      -2.645  -1.838   0.820  1.00  0.00     0.280 C 
HETATM    2  N1  UNL     1      -2.176  -2.898  -0.054  1.00  0.00    -0.062 N 
ATOM      3  H11 UNL     1      -2.183  -2.588  -1.026  1.00  0.00     0.278 HD
ATOM      4  H12 UNL     1      -2.865  -3.648  -0.105  1.00  0.00     0.278 HD
HETATM    5  C6  UNL     1      -0.891  -3.423   0.293  1.00  0.00     0.235 C 
HETATM    6  C7  UNL     1       0.161  -2.585  -0.454  1.00  0.00     0.053 C 
HETATM    7  C8  UNL     1       1.548  -2.893  -0.050  1.00  0.00     0.093 C 
HETATM    8  N2  UNL     1       2.447  -1.820   0.178  1.00  0.00    -0.351 N 
ATOM      9  H2  UNL     1       3.373  -2.125   0.477  1.00  0.00     0.163 HD
HETATM   10  C13 UNL     1       2.325  -0.412   0.077  1.00  0.00     0.264 C 
HETATM   11  O1  UNL     1       2.523   0.135   1.238  1.00  0.00    -0.266 OA
HETATM   12  C14 UNL     1       2.029   0.397  -1.096  1.00  0.00     0.080 C 
HETATM   13  N3  UNL     1       1.596   1.757  -0.886  1.00  0.00    -0.324 N 
ATOM     14  H3  UNL     1       1.425   2.242  -1.767  1.00  0.00     0.169 HD
HETATM   15  C19 UNL     1       1.353   2.573   0.212  1.00  0.00     0.245 C 
HETATM   16  O2  UNL     1       2.187   3.538   0.418  1.00  0.00    -0.271 OA
HETATM   17  C20 UNL     1       0.286   2.559   1.232  1.00  0.00     0.180 C 
HETATM   18  N4  UNL     1      -0.958   3.137   0.672  1.00  0.00    -0.346 N 
ATOM     19  H4  UNL     1      -0.951   4.137   0.472  1.00  0.00     0.163 HD
HETATM   20  C25 UNL     1      -2.146   2.443   0.389  1.00  0.00     0.241 C 
HETATM   21  O3  UNL     1      -3.259   2.914   0.815  1.00  0.00    -0.271 OA
HETATM   22  C26 UNL     1      -2.242   1.189  -0.370  1.00  0.00     0.177 C 
HETATM   23  N5  UNL     1      -3.470   0.459   0.008  1.00  0.00    -0.346 N 
ATOM     24  H5  UNL     1      -4.306   0.994   0.243  1.00  0.00     0.163 HD
HETATM   25  C31 UNL     1      -3.530  -0.965   0.057  1.00  0.00     0.249 C 
HETATM   26  O4  UNL     1      -4.463  -1.490  -0.650  1.00  0.00    -0.271 OA
ENDROOT
BRANCH   1  27
HETATM   27  C3  UNL     1      -3.092  -2.286   2.156  1.00  0.00     0.021 C 
HETATM   28  C4  UNL     1      -3.244  -1.098   3.072  1.00  0.00     0.012 C 
BRANCH  27  29
HETATM   29  C2  UNL     1      -4.206  -3.256   2.244  1.00  0.00     0.002 C 
HETATM   30  C1  UNL     1      -5.574  -2.763   1.944  1.00  0.00     0.005 C 
ENDBRANCH  27  29
ENDBRANCH   1  27
BRANCH  22  31
HETATM   31  C27 UNL     1      -2.178   1.402  -1.835  1.00  0.00     0.038 C 
BRANCH  31  32
HETATM   32  C28 UNL     1      -3.192   2.208  -2.524  1.00  0.00    -0.020 C 
HETATM   33  C29 UNL     1      -3.351   3.647  -2.154  1.00  0.00     0.009 C 
HETATM   34  C30 UNL     1      -2.824   2.188  -4.029  1.00  0.00     0.009 C 
ENDBRANCH  31  32
ENDBRANCH  22  31
BRANCH   7  35
HETATM   35  C9  UNL     1       2.245  -3.967  -0.857  1.00  0.00    -0.031 C 
HETATM   36  C10 UNL     1       2.371  -3.675  -2.311  1.00  0.00     0.016 C 
HETATM   37  C11 UNL     1       3.665  -4.161  -0.297  1.00  0.00     0.016 C 
HETATM   38  C12 UNL     1       1.598  -5.331  -0.720  1.00  0.00     0.016 C 
ENDBRANCH   7  35
BRANCH  17  39
HETATM   39  C21 UNL     1       0.644   3.380   2.428  1.00  0.00     0.013 C 
HETATM   40  C22 UNL     1       1.862   3.025   3.185  1.00  0.00     0.012 C 
BRANCH  39  41
HETATM   41  C23 UNL     1       0.547   4.858   2.291  1.00  0.00     0.002 C 
HETATM   42  C24 UNL     1       0.965   5.442   3.654  1.00  0.00     0.005 C 
ENDBRANCH  39  41
ENDBRANCH  17  39
BRANCH  12  43
HETATM   43  C15 UNL     1       3.017   0.299  -2.230  1.00  0.00     0.067 C 
BRANCH  43  44
HETATM   44  C16 UNL     1       4.416   0.669  -2.061  1.00  0.00    -0.017 C 
HETATM   45  C17 UNL     1       5.223  -0.087  -1.035  1.00  0.00     0.010 C 
HETATM   46  C18 UNL     1       4.715   2.152  -2.031  1.00  0.00     0.010 C 
ENDBRANCH  43  44
ENDBRANCH  12  43
TORSDOF 9
