REMARK  11 active torsions:
REMARK  status: ('A' for Active; 'I' for Inactive)
REMARK    1  A    between atoms: C2_2  and  C3_3 
REMARK    2  A    between atoms: C3_3  and  C4_4 
REMARK    3  A    between atoms: C13_17  and  O1_18 
REMARK    4  A    between atoms: C14_20  and  C15_21 
REMARK    5  A    between atoms: C15_21  and  C16_22 
REMARK    6  A    between atoms: C16_22  and  C17_23 
REMARK    7  A    between atoms: C17_23  and  C18_24 
REMARK    8  A    between atoms: C18_24  and  N3_25 
REMARK       I    between atoms: N3_25  and  C19_27 
REMARK       I    between atoms: C19_27  and  N4_29 
REMARK    9  A    between atoms: C26_39  and  C27_40 
REMARK   10  A    between atoms: C27_40  and  C28_41 
REMARK   11  A    between atoms: C31_46  and  O4_47 
ROOT
HETATM    1  C4  UNL     1      -5.113   0.439  -0.708  1.00  0.00     0.155 C 
HETATM    2  N1  UNL     1      -4.819  -0.934  -0.516  1.00  0.00    -0.390 N 
ATOM      3  H1  UNL     1      -4.560  -1.279   0.408  1.00  0.00     0.159 HD
HETATM    4  C5  UNL     1      -4.886  -1.817  -1.605  1.00  0.00     0.056 C 
HETATM    5  C6  UNL     1      -3.681  -2.725  -1.739  1.00  0.00     0.044 C 
HETATM    6  C7  UNL     1      -3.403  -3.477  -0.454  1.00  0.00     0.007 C 
HETATM    7  C8  UNL     1      -2.499  -2.678   0.470  1.00  0.00     0.031 C 
HETATM    8  C9  UNL     1      -1.284  -3.447   0.890  1.00  0.00     0.032 C 
HETATM    9  C10 UNL     1      -0.994  -3.512   2.370  1.00  0.00     0.031 C 
HETATM   10  C11 UNL     1      -0.592  -4.978   2.152  1.00  0.00     0.005 C 
HETATM   11  C12 UNL     1      -1.574  -4.966   0.999  1.00  0.00     0.031 C 
HETATM   12  N2  UNL     1      -0.091  -3.191   0.128  1.00  0.00    -0.363 N 
ATOM     13  H2  UNL     1       0.605  -3.934   0.198  1.00  0.00     0.162 HD
HETATM   14  C13 UNL     1       0.302  -2.140  -0.680  1.00  0.00     0.135 C 
HETATM   15  C14 UNL     1       0.668  -0.742  -0.373  1.00  0.00     0.159 C 
HETATM   16  N5  UNL     1       0.243  -0.258   0.923  1.00  0.00    -0.349 N 
ATOM     17  H5  UNL     1       0.518  -0.838   1.716  1.00  0.00     0.163 HD
HETATM   18  C24 UNL     1      -0.490   0.890   1.247  1.00  0.00     0.220 C 
HETATM   19  O3  UNL     1       0.122   1.754   1.985  1.00  0.00    -0.274 OA
HETATM   20  C25 UNL     1      -1.866   1.276   0.878  1.00  0.00     0.128 C 
HETATM   21  C26 UNL     1      -1.944   2.125  -0.337  1.00  0.00     0.092 C 
HETATM   22  N6  UNL     1      -3.159   2.166  -1.062  1.00  0.00    -0.368 N 
ATOM     23  H6  UNL     1      -3.392   3.109  -1.374  1.00  0.00     0.161 HD
HETATM   24  C31 UNL     1      -4.114   1.229  -1.453  1.00  0.00     0.135 C 
ENDROOT
BRANCH  15  25
HETATM   25  C15 UNL     1       2.200  -0.570  -0.367  1.00  0.00     0.033 C 
BRANCH  25  26
HETATM   26  C16 UNL     1       2.865  -0.891  -1.640  1.00  0.00     0.004 C 
BRANCH  26  27
HETATM   27  C17 UNL     1       4.361  -0.723  -1.517  1.00  0.00     0.020 C 
BRANCH  27  28
HETATM   28  C18 UNL     1       4.718   0.674  -1.166  1.00  0.00     0.124 C 
BRANCH  28  29
HETATM   29  N3  UNL     1       6.141   0.912  -1.071  1.00  0.00    -0.343 N 
HETATM   30  C19 UNL     1       6.929   0.243  -0.125  1.00  0.00     0.318 C 
HETATM   31  O2  UNL     1       6.451  -0.572   0.671  1.00  0.00    -0.247 OA
HETATM   32  N4  UNL     1       8.327   0.497  -0.066  1.00  0.00    -0.334 N 
HETATM   33  C20 UNL     1       9.028   1.423  -0.935  1.00  0.00     0.127 C 
HETATM   34  C23 UNL     1       9.251  -0.116   0.854  1.00  0.00     0.127 C 
HETATM   35  C21 UNL     1      10.472   1.339  -0.522  1.00  0.00     0.022 C 
HETATM   36  C22 UNL     1      10.580  -0.011   0.166  1.00  0.00     0.022 C 
ATOM     37  H3  UNL     1       6.580   1.580  -1.705  1.00  0.00     0.164 HD
ENDBRANCH  28  29
ENDBRANCH  27  28
ENDBRANCH  26  27
ENDBRANCH  25  26
ENDBRANCH  15  25
BRANCH  14  38
HETATM   38  O1  UNL     1       0.375  -2.394  -1.957  1.00  0.00    -0.348 OA
ATOM     39  H1  UNL     1       0.645  -1.672  -2.512  1.00  0.00     0.219 HD
ENDBRANCH  14  38
BRANCH  21  40
HETATM   40  C27 UNL     1      -1.438   3.496   0.025  1.00  0.00     0.029 C 
BRANCH  40  41
HETATM   41  C28 UNL     1      -2.135   4.239   1.081  1.00  0.00    -0.021 C 
HETATM   42  C29 UNL     1      -1.378   5.583   1.218  1.00  0.00     0.009 C 
HETATM   43  C30 UNL     1      -3.557   4.665   0.771  1.00  0.00     0.009 C 
ENDBRANCH  40  41
ENDBRANCH  21  40
BRANCH  24  44
HETATM   44  O4  UNL     1      -4.195   0.946  -2.734  1.00  0.00    -0.348 OA
ATOM     45  H4  UNL     1      -3.552   1.455  -3.214  1.00  0.00     0.219 HD
ENDBRANCH  24  44
BRANCH   1  46
HETATM   46  C3  UNL     1      -5.614   1.060   0.570  1.00  0.00     0.033 C 
BRANCH  46  47
HETATM   47  C2  UNL     1      -6.895   0.384   1.052  1.00  0.00    -0.002 C 
HETATM   48  C1  UNL     1      -7.964   0.528  -0.008  1.00  0.00     0.005 C 
ENDBRANCH  46  47
ENDBRANCH   1  46
TORSDOF 11
