REMARK  4 active torsions:
REMARK  status: ('A' for Active; 'I' for Inactive)
REMARK    1  A    between atoms: O1_2  and  C2_3 
REMARK    2  A    between atoms: C5_6  and  C6_7 
REMARK    3  A    between atoms: C6_7  and  N1_8 
REMARK    4  A    between atoms: N1_8  and  C7_10 
ROOT
HETATM    1  C7  UNL     1      -1.782   0.004   0.300  1.00  0.00     0.116 A 
HETATM    2  N2  UNL     1      -2.282   1.250   0.236  1.00  0.00    -0.332 N 
ATOM      3  H2  UNL     1      -1.639   2.038   0.316  1.00  0.00     0.168 HD
HETATM    4  C8  UNL     1      -3.597   1.506   0.071  1.00  0.00     0.080 A 
HETATM    5  C9  UNL     1      -3.993   2.954   0.019  1.00  0.00     0.089 C 
HETATM    6  N3  UNL     1      -4.481   0.513  -0.037  1.00  0.00    -0.332 N 
ATOM      7  H3  UNL     1      -5.472   0.720  -0.161  1.00  0.00     0.168 HD
HETATM    8  C10 UNL     1      -4.053  -0.778   0.019  1.00  0.00     0.120 A 
HETATM    9  N4  UNL     1      -4.704  -1.966  -0.060  1.00  0.00    -0.351 N 
ATOM     10  H4  UNL     1      -5.710  -2.083  -0.185  1.00  0.00     0.166 HD
HETATM   11  C11 UNL     1      -3.811  -2.965   0.053  1.00  0.00     0.091 A 
HETATM   12  C12 UNL     1      -2.546  -2.398   0.210  1.00  0.00     0.036 A 
HETATM   13  C13 UNL     1      -2.705  -1.030   0.187  1.00  0.00     0.053 A 
ENDROOT
BRANCH   1  14
HETATM   14  N1  UNL     1      -0.531  -0.252   0.457  1.00  0.00    -0.371 N 
ATOM     15  H1  UNL     1      -0.190  -1.212   0.502  1.00  0.00     0.161 HD
BRANCH  14  16
HETATM   16  C6  UNL     1       0.377   0.875   0.568  1.00  0.00     0.160 C 
BRANCH  16  17
HETATM   17  C5  UNL     1       1.746   0.541   0.160  1.00  0.00    -0.040 A 
HETATM   18  C4  UNL     1       2.615   0.069   1.122  1.00  0.00     0.011 A 
HETATM   19  C3  UNL     1       3.896  -0.236   0.706  1.00  0.00     0.037 A 
HETATM   20  C2  UNL     1       4.334  -0.096  -0.581  1.00  0.00     0.068 A 
HETATM   21  C15 UNL     1       3.431   0.379  -1.510  1.00  0.00     0.037 A 
HETATM   22  C14 UNL     1       2.133   0.700  -1.147  1.00  0.00     0.011 A 
BRANCH  20  23
HETATM   23  O1  UNL     1       5.633  -0.417  -0.950  1.00  0.00    -0.356 OA
HETATM   24  C1  UNL     1       6.577  -0.904  -0.025  1.00  0.00     0.210 C 
ENDBRANCH  20  23
ENDBRANCH  16  17
ENDBRANCH  14  16
ENDBRANCH   1  14
TORSDOF 4
