REMARK  15 active torsions:
REMARK  status: ('A' for Active; 'I' for Inactive)
REMARK    1  A    between atoms: C2_2  and  C3_3 
REMARK    2  A    between atoms: C3_3  and  N1_4 
REMARK    3  A    between atoms: C3_3  and  C35_46 
REMARK       I    between atoms: N1_4  and  C4_6 
REMARK    4  A    between atoms: C4_6  and  C5_8 
REMARK    5  A    between atoms: C5_8  and  N2_9 
REMARK    6  A    between atoms: C5_8  and  C31_42 
REMARK       I    between atoms: N2_9  and  C6_11 
REMARK    7  A    between atoms: C6_11  and  C7_13 
REMARK    8  A    between atoms: C7_13  and  N3_14 
REMARK       I    between atoms: N3_14  and  C8_16 
REMARK    9  A    between atoms: C8_16  and  C9_18 
REMARK   10  A    between atoms: C9_18  and  C10_19 
REMARK   11  A    between atoms: C9_18  and  N4_26 
REMARK   12  A    between atoms: C10_19  and  C11_20 
REMARK   13  A    between atoms: C23_34  and  C24_35 
REMARK   14  A    between atoms: C24_35  and  C25_36 
REMARK   15  A    between atoms: C31_42  and  C33_44 
ROOT
HETATM    1  N3  UNL     1      -0.260   0.397   0.539  1.00  0.00    -0.347 N 
ATOM      2  H3  UNL     1      -0.724   0.379   1.447  1.00  0.00     0.163 HD
HETATM    3  C8  UNL     1      -0.907  -0.243  -0.545  1.00  0.00     0.264 C 
HETATM    4  O3  UNL     1      -0.298  -0.203  -1.686  1.00  0.00    -0.266 OA
ENDROOT
BRANCH   3   5
HETATM    5  C9  UNL     1      -2.185  -0.940  -0.552  1.00  0.00     0.083 C 
BRANCH   5   6
HETATM    6  C10 UNL     1      -2.765  -1.568   0.640  1.00  0.00     0.067 C 
BRANCH   6   7
HETATM    7  C11 UNL     1      -2.096  -2.738   1.267  1.00  0.00    -0.009 C 
HETATM    8  C12 UNL     1      -2.986  -3.152   2.479  1.00  0.00     0.005 C 
HETATM    9  C13 UNL     1      -2.760  -4.592   2.805  1.00  0.00     0.000 C 
HETATM   10  C14 UNL     1      -1.354  -4.992   2.429  1.00  0.00     0.000 C 
HETATM   11  C15 UNL     1      -0.439  -3.826   2.678  1.00  0.00     0.000 C 
HETATM   12  C16 UNL     1      -0.737  -2.613   1.812  1.00  0.00     0.005 C 
ENDBRANCH   6   7
ENDBRANCH   5   6
BRANCH   5  13
HETATM   13  N4  UNL     1      -3.147  -0.401  -1.527  1.00  0.00    -0.311 N 
HETATM   14  C17 UNL     1      -3.481  -1.055  -2.741  1.00  0.00     0.229 C 
HETATM   15  O4  UNL     1      -3.158  -2.187  -3.193  1.00  0.00    -0.273 OA
HETATM   16  C18 UNL     1      -4.373  -0.157  -3.548  1.00  0.00     0.084 C 
HETATM   17  C19 UNL     1      -5.486  -0.910  -4.194  1.00  0.00     0.014 C 
HETATM   18  C22 UNL     1      -5.049   0.576  -2.352  1.00  0.00     0.022 C 
HETATM   19  C20 UNL     1      -6.529  -1.161  -3.119  1.00  0.00     0.001 C 
HETATM   20  C21 UNL     1      -5.932  -0.520  -1.860  1.00  0.00     0.007 C 
HETATM   21  C23 UNL     1      -3.890   0.875  -1.455  1.00  0.00     0.098 C 
BRANCH  21  22
HETATM   22  C24 UNL     1      -4.172   1.210  -0.056  1.00  0.00     0.031 C 
BRANCH  22  23
HETATM   23  C25 UNL     1      -4.883   2.446   0.309  1.00  0.00    -0.013 C 
HETATM   24  C26 UNL     1      -4.953   2.425   1.866  1.00  0.00     0.005 C 
HETATM   25  C27 UNL     1      -5.336   3.765   2.398  1.00  0.00     0.000 C 
HETATM   26  C28 UNL     1      -6.694   4.126   1.818  1.00  0.00     0.000 C 
HETATM   27  C29 UNL     1      -6.635   4.107   0.309  1.00  0.00     0.000 C 
HETATM   28  C30 UNL     1      -6.268   2.672  -0.133  1.00  0.00     0.005 C 
ENDBRANCH  22  23
ENDBRANCH  21  22
ENDBRANCH   5  13
ENDBRANCH   3   5
BRANCH   1  29
HETATM   29  C7  UNL     1       0.998   1.066   0.448  1.00  0.00     0.225 C 
BRANCH  29  30
HETATM   30  C6  UNL     1       2.142   0.275   0.026  1.00  0.00     0.236 C 
HETATM   31  N2  UNL     1       3.453   0.821  -0.114  1.00  0.00    -0.346 N 
ATOM     32  H2  UNL     1       3.573   1.811   0.100  1.00  0.00     0.163 HD
HETATM   33  O2  UNL     1       2.028  -0.941  -0.240  1.00  0.00    -0.272 OA
BRANCH  31  34
HETATM   34  C5  UNL     1       4.609   0.095  -0.529  1.00  0.00     0.180 C 
BRANCH  34  35
HETATM   35  C4  UNL     1       5.689   0.191   0.482  1.00  0.00     0.241 C 
HETATM   36  N1  UNL     1       6.928  -0.427   0.268  1.00  0.00    -0.346 N 
ATOM     37  H1  UNL     1       7.096  -0.952  -0.590  1.00  0.00     0.163 HD
HETATM   38  O1  UNL     1       5.468   0.839   1.532  1.00  0.00    -0.271 OA
BRANCH  36  39
HETATM   39  C3  UNL     1       7.982  -0.317   1.280  1.00  0.00     0.173 C 
BRANCH  39  40
HETATM   40  C2  UNL     1       9.067   0.587   0.700  1.00  0.00     0.030 C 
HETATM   41  C1  UNL     1      10.200   0.787   1.652  1.00  0.00     0.007 C 
ENDBRANCH  39  40
BRANCH  39  42
HETATM   42  C35 UNL     1       8.494  -1.647   1.619  1.00  0.00     0.254 C 
HETATM   43  N5  UNL     1       9.510  -1.905   2.564  1.00  0.00    -0.060 NA
HETATM   44  O5  UNL     1       7.992  -2.654   1.023  1.00  0.00    -0.275 OA
ENDBRANCH  39  42
ENDBRANCH  36  39
ENDBRANCH  34  35
BRANCH  34  45
HETATM   45  C31 UNL     1       5.121   0.539  -1.884  1.00  0.00     0.013 C 
HETATM   46  C32 UNL     1       4.016   0.436  -2.904  1.00  0.00     0.012 C 
BRANCH  45  47
HETATM   47  C33 UNL     1       5.712   1.932  -1.839  1.00  0.00     0.002 C 
HETATM   48  C34 UNL     1       6.216   2.352  -3.210  1.00  0.00     0.005 C 
ENDBRANCH  45  47
ENDBRANCH  34  45
ENDBRANCH  31  34
ENDBRANCH  29  30
ENDBRANCH   1  29
TORSDOF 15
