REMARK  3 active torsions:
REMARK  status: ('A' for Active; 'I' for Inactive)
REMARK    1  A    between atoms: N1_2  and  C2_4 
REMARK    2  A    between atoms: C4_6  and  O1_7 
REMARK    3  A    between atoms: C6_11  and  N3_12 
ROOT
HETATM    1  C2  UNL     1      -0.873  -0.428   0.245  1.00  0.00     0.120 A 
HETATM    2  C3  UNL     1       0.478  -0.758   0.395  1.00  0.00     0.105 A 
HETATM    3  C4  UNL     1       1.423   0.209   0.125  1.00  0.00     0.160 A 
HETATM    4  N2  UNL     1       1.038   1.439  -0.274  1.00  0.00    -0.171 N 
ATOM      5  H2  UNL     1       1.748   2.144  -0.471  1.00  0.00     0.186 HD
HETATM    6  C6  UNL     1      -0.261   1.756  -0.418  1.00  0.00     0.679 A 
HETATM    7  N4  UNL     1      -1.177   0.814  -0.154  1.00  0.00    -0.177 N 
ATOM      8  H4  UNL     1      -2.162   1.057  -0.263  1.00  0.00     0.185 HD
ENDROOT
BRANCH   1   9
HETATM    9  N1  UNL     1      -1.773  -1.318   0.493  1.00  0.00    -0.380 N 
HETATM   10  C1  UNL     1      -3.162  -0.934   0.325  1.00  0.00     0.147 C 
ATOM     11  H1  UNL     1      -1.517  -2.258   0.796  1.00  0.00     0.160 HD
ENDBRANCH   1   9
BRANCH   3  12
HETATM   12  O1  UNL     1       2.761  -0.059   0.254  1.00  0.00    -0.340 OA
HETATM   13  C5  UNL     1       3.307  -1.278   0.655  1.00  0.00     0.211 C 
ENDBRANCH   3  12
BRANCH   6  14
HETATM   14  N3  UNL     1      -0.576   2.947  -0.802  1.00  0.00    -0.234 N 
ATOM     15  H32 UNL     1       0.121   3.664  -1.003  1.00  0.00     0.174 HD
ATOM     16  H31 UNL     1      -1.561   3.187  -0.911  1.00  0.00     0.174 HD
ENDBRANCH   6  14
TORSDOF 3
