REMARK  8 active torsions:
REMARK  status: ('A' for Active; 'I' for Inactive)
REMARK    1  A    between atoms: C3_5  and  C4_6 
REMARK    2  A    between atoms: N2_7  and  N3_9 
REMARK       I    between atoms: N3_9  and  C5_11 
REMARK    3  A    between atoms: C5_11  and  C6_13 
REMARK    4  A    between atoms: C6_13  and  C7_14 
REMARK    5  A    between atoms: C7_14  and  C8_15 
REMARK    6  A    between atoms: C8_15  and  C9_17 
REMARK    7  A    between atoms: C10_18  and  O4_19 
REMARK    8  A    between atoms: N6_30  and  C14_31 
ROOT
HETATM    1  N3  UNL     1       0.280  -1.543  -1.575  1.00  0.00    -0.270 N 
ATOM      2  H3  UNL     1       0.426  -0.974  -2.408  1.00  0.00     0.190 HD
HETATM    3  C5  UNL     1      -0.972  -1.404  -0.893  1.00  0.00     0.236 C 
HETATM    4  O2  UNL     1      -1.139  -2.108   0.128  1.00  0.00    -0.272 OA
ENDROOT
BRANCH   3   5
HETATM    5  C6  UNL     1      -2.052  -0.499  -1.314  1.00  0.00     0.112 C 
BRANCH   5   6
HETATM    6  C7  UNL     1      -3.251  -0.554  -0.410  1.00  0.00     0.093 C 
BRANCH   6   7
HETATM    7  C8  UNL     1      -4.272   0.388  -0.922  1.00  0.00     0.169 C 
HETATM    8  O3  UNL     1      -3.958   1.045  -1.984  1.00  0.00    -0.292 OA
BRANCH   7   9
HETATM    9  C9  UNL     1      -5.563   0.622  -0.336  1.00  0.00     0.129 A 
HETATM   10  C10 UNL     1      -5.977  -0.034   0.792  1.00  0.00     0.163 A 
HETATM   11  N4  UNL     1      -7.200   0.191   1.343  1.00  0.00    -0.288 N 
HETATM   12  C11 UNL     1      -8.030   1.069   0.784  1.00  0.00     0.329 A 
ATOM     13  H4  UNL     1      -7.481  -0.313   2.184  1.00  0.00     0.172 HD
HETATM   14  O5  UNL     1      -9.181   1.301   1.278  1.00  0.00    -0.247 OA
HETATM   15  N5  UNL     1      -7.657   1.733  -0.326  1.00  0.00    -0.275 N 
HETATM   16  C12 UNL     1      -6.446   1.524  -0.891  1.00  0.00     0.267 A 
ATOM     17  H5  UNL     1      -8.298   2.405  -0.748  1.00  0.00     0.173 HD
HETATM   18  O6  UNL     1      -6.130   2.168  -1.936  1.00  0.00    -0.267 OA
BRANCH  10  19
HETATM   19  O4  UNL     1      -5.193  -0.950   1.430  1.00  0.00    -0.345 OA
ATOM     20  H4  UNL     1      -5.480  -1.405   2.213  1.00  0.00     0.219 HD
ENDBRANCH  10  19
ENDBRANCH   7   9
ENDBRANCH   6   7
ENDBRANCH   5   6
ENDBRANCH   3   5
BRANCH   1  21
HETATM   21  N2  UNL     1       1.277  -2.364  -1.204  1.00  0.00    -0.308 N 
HETATM   22  C4  UNL     1       2.409  -2.316  -0.716  1.00  0.00     0.125 C 
ATOM     23  H2  UNL     1       1.015  -3.334  -1.382  1.00  0.00     0.186 HD
BRANCH  22  24
HETATM   24  C3  UNL     1       3.229  -1.203  -0.289  1.00  0.00     0.067 A 
HETATM   25  C2  UNL     1       3.006   0.155  -0.291  1.00  0.00     0.274 A 
HETATM   26  N1  UNL     1       4.065   0.815   0.207  1.00  0.00    -0.259 N 
HETATM   27  O1  UNL     1       1.960   0.715  -0.701  1.00  0.00    -0.266 OA
HETATM   28  C1  UNL     1       4.201   2.246   0.363  1.00  0.00     0.181 C 
HETATM   29  N6  UNL     1       4.961  -0.073   0.530  1.00  0.00    -0.293 N 
HETATM   30  C13 UNL     1       4.519  -1.310   0.256  1.00  0.00     0.129 A 
BRANCH  29  31
HETATM   31  C14 UNL     1       6.269   0.172   1.106  1.00  0.00     0.108 A 
HETATM   32  C15 UNL     1       7.358  -0.755   0.583  1.00  0.00     0.029 A 
HETATM   33  C16 UNL     1       7.381   0.682   0.271  1.00  0.00     0.029 A 
ENDBRANCH  29  31
ENDBRANCH  22  24
ENDBRANCH   1  21
TORSDOF 8
