REMARK  14 active torsions:
REMARK  status: ('A' for Active; 'I' for Inactive)
REMARK       I    between atoms: C2_2  and  N1_4 
REMARK    1  A    between atoms: N1_4  and  C3_6 
REMARK    2  A    between atoms: C4_11  and  C5_12 
REMARK    3  A    between atoms: C5_12  and  C6_13 
REMARK    4  A    between atoms: C6_13  and  C7_14 
REMARK    5  A    between atoms: C7_14  and  C8_15 
REMARK    6  A    between atoms: C8_15  and  C9_16 
REMARK    7  A    between atoms: C11_20  and  N5_21 
REMARK       I    between atoms: N5_21  and  C12_23 
REMARK    8  A    between atoms: C12_23  and  C13_25 
REMARK    9  A    between atoms: C13_25  and  C14_26 
REMARK   10  A    between atoms: C14_26  and  C15_27 
REMARK   11  A    between atoms: C15_27  and  O3_29 
REMARK   12  A    between atoms: O3_29  and  C17_30 
REMARK   13  A    between atoms: C17_30  and  C18_32 
REMARK   14  A    between atoms: N6_37  and  C23_38 
ROOT
HETATM    1  C9  UNL     1       4.178  -0.833   0.210  1.00  0.00     0.095 A 
HETATM    2  N4  UNL     1       2.877  -0.465   0.434  1.00  0.00    -0.351 N 
ATOM      3  H4  UNL     1       2.618   0.494   0.664  1.00  0.00     0.166 HD
HETATM    4  C10 UNL     1       1.964  -1.445   0.332  1.00  0.00     0.139 A 
HETATM    5  C11 UNL     1       2.280  -2.754   0.023  1.00  0.00     0.138 A 
HETATM    6  N7  UNL     1       3.590  -3.066  -0.190  1.00  0.00    -0.283 N 
ATOM      7  H7  UNL     1       3.872  -4.019  -0.420  1.00  0.00     0.188 HD
HETATM    8  N8  UNL     1       4.478  -2.104  -0.090  1.00  0.00    -0.287 N 
ATOM      9  H8  UNL     1       5.457  -2.339  -0.251  1.00  0.00     0.188 HD
ENDROOT
BRANCH   5  10
HETATM   10  N5  UNL     1       1.402  -3.696  -0.075  1.00  0.00    -0.311 N 
HETATM   11  C12 UNL     1       0.022  -3.385   0.145  1.00  0.00     0.223 C 
HETATM   12  O2  UNL     1      -0.546  -2.779  -0.796  1.00  0.00    -0.273 OA
ATOM     13  H5  UNL     1       1.688  -4.648  -0.306  1.00  0.00     0.170 HD
BRANCH  11  14
HETATM   14  C13 UNL     1      -0.679  -3.756   1.390  1.00  0.00     0.105 C 
BRANCH  14  15
HETATM   15  C14 UNL     1      -2.032  -3.161   1.440  1.00  0.00     0.041 C 
BRANCH  15  16
HETATM   16  C15 UNL     1      -2.131  -1.681   1.439  1.00  0.00     0.128 C 
HETATM   17  C16 UNL     1      -1.433  -1.035   2.617  1.00  0.00     0.040 C 
BRANCH  16  18
HETATM   18  O3  UNL     1      -3.489  -1.258   1.506  1.00  0.00    -0.315 OA
BRANCH  18  19
HETATM   19  C17 UNL     1      -4.068  -0.434   0.566  1.00  0.00     0.281 C 
HETATM   20  O4  UNL     1      -3.378  -0.039  -0.384  1.00  0.00    -0.263 OA
BRANCH  19  21
HETATM   21  C18 UNL     1      -5.515  -0.057   0.748  1.00  0.00     0.179 C 
HETATM   22  C19 UNL     1      -6.331  -1.255   1.035  1.00  0.00     0.035 C 
HETATM   23  C20 UNL     1      -7.180  -1.777  -0.068  1.00  0.00     0.004 C 
HETATM   24  C21 UNL     1      -6.524  -1.396  -1.378  1.00  0.00     0.020 C 
HETATM   25  C22 UNL     1      -6.533   0.109  -1.440  1.00  0.00     0.118 C 
HETATM   26  N6  UNL     1      -5.875   0.743  -0.358  1.00  0.00    -0.395 N 
BRANCH  26  27
HETATM   27  C23 UNL     1      -6.335   2.062  -0.038  1.00  0.00     0.080 C 
HETATM   28  C24 UNL     1      -6.629   2.886  -1.272  1.00  0.00     0.025 C 
HETATM   29  C25 UNL     1      -7.741   3.795  -0.796  1.00  0.00     0.002 C 
HETATM   30  C26 UNL     1      -8.612   2.824  -0.005  1.00  0.00     0.002 C 
HETATM   31  C27 UNL     1      -7.578   2.069   0.807  1.00  0.00     0.025 C 
ENDBRANCH  26  27
ENDBRANCH  19  21
ENDBRANCH  18  19
ENDBRANCH  16  18
ENDBRANCH  15  16
ENDBRANCH  14  15
ENDBRANCH  11  14
ENDBRANCH   5  10
BRANCH   1  32
HETATM   32  C8  UNL     1       5.241   0.172   0.308  1.00  0.00     0.078 C 
BRANCH  32  33
HETATM   33  C7  UNL     1       5.484   0.863  -0.994  1.00  0.00     0.008 C 
BRANCH  33  34
HETATM   34  C6  UNL     1       5.940   0.001  -2.113  1.00  0.00     0.007 C 
BRANCH  34  35
HETATM   35  C5  UNL     1       7.257  -0.676  -1.869  1.00  0.00     0.066 C 
BRANCH  35  36
HETATM   36  C4  UNL     1       8.289   0.410  -1.667  1.00  0.00     0.069 A 
HETATM   37  N3  UNL     1       9.021   1.011  -2.592  1.00  0.00    -0.296 N 
HETATM   38  N2  UNL     1       9.861   1.906  -2.266  1.00  0.00    -0.279 N 
ATOM     39  H3  UNL     1       8.910   0.754  -3.573  1.00  0.00     0.187 HD
HETATM   40  C3  UNL     1       9.986   2.222  -0.970  1.00  0.00     0.167 A 
ATOM     41  H2  UNL     1      10.427   2.373  -2.974  1.00  0.00     0.189 HD
HETATM   42  S1  UNL     1       8.845   1.179  -0.245  1.00  0.00    -0.038 SA
BRANCH  40  43
HETATM   43  N1  UNL     1      10.791   3.111  -0.436  1.00  0.00    -0.306 N 
HETATM   44  C2  UNL     1      10.711   3.238   0.971  1.00  0.00     0.219 C 
HETATM   45  C1  UNL     1      11.401   2.294   1.872  1.00  0.00     0.117 C 
HETATM   46  O1  UNL     1      10.038   4.175   1.453  1.00  0.00    -0.274 OA
ATOM     47  H1  UNL     1      11.431   3.672  -0.998  1.00  0.00     0.171 HD
ENDBRANCH  40  43
ENDBRANCH  35  36
ENDBRANCH  34  35
ENDBRANCH  33  34
ENDBRANCH  32  33
ENDBRANCH   1  32
TORSDOF 14
