REMARK  15 active torsions:
REMARK  status: ('A' for Active; 'I' for Inactive)
REMARK    1  A    between atoms: C2_2  and  C4_4 
REMARK    2  A    between atoms: C4_4  and  C5_5 
REMARK    3  A    between atoms: C4_4  and  N2_24 
REMARK       I    between atoms: C5_5  and  N1_7 
REMARK    4  A    between atoms: N1_7  and  C6_9 
REMARK    5  A    between atoms: C6_9  and  C7_10 
REMARK    6  A    between atoms: C6_9  and  C13_18 
REMARK    7  A    between atoms: C7_10  and  C8_11 
REMARK    8  A    between atoms: C8_11  and  O3_13 
REMARK    9  A    between atoms: O3_13  and  C9_14 
REMARK   10  A    between atoms: C13_18  and  C14_20 
REMARK       I    between atoms: N4_29  and  C21_30 
REMARK   11  A    between atoms: C21_30  and  O6_32 
REMARK   12  A    between atoms: O6_32  and  C22_33 
REMARK   13  A    between atoms: C22_33  and  C23_34 
REMARK   14  A    between atoms: C23_34  and  C24_35 
REMARK   15  A    between atoms: C24_35  and  N5_36 
ROOT
HETATM    1  N2  UNL     1       1.107   0.639  -0.506  1.00  0.00    -0.334 N 
HETATM    2  C18 UNL     1       1.284   1.944   0.077  1.00  0.00     0.167 C 
HETATM    3  C19 UNL     1       2.657   2.096   0.676  1.00  0.00     0.215 C 
HETATM    4  C20 UNL     1       3.104   3.494   0.566  1.00  0.00     0.086 C 
HETATM    5  N3  UNL     1       3.446   4.601   0.480  1.00  0.00    -0.195 NA
HETATM    6  N4  UNL     1       3.648   1.212   0.158  1.00  0.00    -0.296 N 
HETATM    7  C21 UNL     1       4.744   0.744   0.969  1.00  0.00     0.364 C 
HETATM    8  O5  UNL     1       4.839   1.109   2.162  1.00  0.00    -0.238 OA
HETATM    9  C27 UNL     1       3.547   0.769  -1.221  1.00  0.00     0.179 C 
HETATM   10  C28 UNL     1       3.738   1.896  -2.195  1.00  0.00     0.043 C 
HETATM   11  C29 UNL     1       2.187   0.157  -1.339  1.00  0.00     0.243 C 
HETATM   12  O7  UNL     1       2.034  -0.759  -2.167  1.00  0.00    -0.271 OA
ENDROOT
BRANCH   1  13
HETATM   13  C4  UNL     1      -0.024  -0.192  -0.339  1.00  0.00     0.182 C 
BRANCH  13  14
HETATM   14  C2  UNL     1      -0.297  -0.701   1.046  1.00  0.00     0.009 C 
HETATM   15  C1  UNL     1      -0.802   0.319   2.015  1.00  0.00     0.012 C 
HETATM   16  C3  UNL     1       0.923  -1.443   1.606  1.00  0.00     0.012 C 
ENDBRANCH  13  14
BRANCH  13  17
HETATM   17  C5  UNL     1      -1.278   0.365  -0.895  1.00  0.00     0.241 C 
HETATM   18  O1  UNL     1      -1.221   1.494  -1.447  1.00  0.00    -0.271 OA
HETATM   19  N1  UNL     1      -2.486  -0.346  -0.806  1.00  0.00    -0.347 N 
ATOM     20  H1  UNL     1      -2.486  -1.257  -0.347  1.00  0.00     0.163 HD
BRANCH  19  21
HETATM   21  C6  UNL     1      -3.732   0.164  -1.341  1.00  0.00     0.164 C 
BRANCH  21  22
HETATM   22  C7  UNL     1      -4.676   0.627  -0.275  1.00  0.00     0.144 C 
BRANCH  22  23
HETATM   23  C8  UNL     1      -5.095  -0.364   0.697  1.00  0.00     0.261 C 
HETATM   24  O2  UNL     1      -4.749  -1.569   0.693  1.00  0.00    -0.265 OA
BRANCH  23  25
HETATM   25  O3  UNL     1      -5.947   0.034   1.719  1.00  0.00    -0.311 OA
BRANCH  25  26
HETATM   26  C9  UNL     1      -6.418  -0.825   2.714  1.00  0.00     0.060 C 
HETATM   27  C10 UNL     1      -7.319   0.017   3.625  1.00  0.00     0.045 C 
HETATM   28  C11 UNL     1      -7.262  -1.951   2.178  1.00  0.00     0.045 C 
HETATM   29  C12 UNL     1      -5.334  -1.401   3.578  1.00  0.00     0.045 C 
ENDBRANCH  25  26
ENDBRANCH  23  25
ENDBRANCH  22  23
ENDBRANCH  21  22
BRANCH  21  30
HETATM   30  C13 UNL     1      -4.317  -0.709  -2.371  1.00  0.00     0.157 C 
HETATM   31  O4  UNL     1      -3.669  -1.743  -2.588  1.00  0.00    -0.295 OA
BRANCH  30  32
HETATM   32  C14 UNL     1      -5.502  -0.565  -3.162  1.00  0.00     0.012 C 
HETATM   33  C15 UNL     1      -6.839  -0.483  -2.565  1.00  0.00     0.022 C 
HETATM   34  C16 UNL     1      -5.519  -1.621  -4.251  1.00  0.00     0.022 C 
HETATM   35  C17 UNL     1      -5.318   0.754  -3.955  1.00  0.00     0.022 C 
ENDBRANCH  30  32
ENDBRANCH  21  30
ENDBRANCH  19  21
ENDBRANCH  13  17
ENDBRANCH   1  13
BRANCH   7  36
HETATM   36  O6  UNL     1       5.683  -0.099   0.446  1.00  0.00    -0.304 OA
BRANCH  36  37
HETATM   37  C22 UNL     1       6.749  -0.538   1.293  1.00  0.00     0.185 C 
BRANCH  37  38
HETATM   38  C23 UNL     1       7.695  -1.441   0.576  1.00  0.00     0.071 C 
BRANCH  38  39
HETATM   39  C24 UNL     1       8.400  -0.890  -0.603  1.00  0.00     0.059 C 
BRANCH  39  40
HETATM   40  N5  UNL     1       9.260   0.210  -0.439  1.00  0.00    -0.402 N 
HETATM   41  C25 UNL     1       8.731   1.481  -0.122  1.00  0.00     0.148 C 
HETATM   42  C26 UNL     1      10.536  -0.076   0.130  1.00  0.00     0.148 C 
ENDBRANCH  39  40
ENDBRANCH  38  39
ENDBRANCH  37  38
ENDBRANCH  36  37
ENDBRANCH   7  36
TORSDOF 15
