REMARK  12 active torsions:
REMARK  status: ('A' for Active; 'I' for Inactive)
REMARK    1  A    between atoms: O1_2  and  C2_3 
REMARK    2  A    between atoms: C4_5  and  C5_6 
REMARK    3  A    between atoms: C5_6  and  C6_7 
REMARK    4  A    between atoms: C6_7  and  N1_8 
REMARK    5  A    between atoms: C12_17  and  N3_18 
REMARK    6  A    between atoms: N3_18  and  C13_20 
REMARK    7  A    between atoms: C13_20  and  C14_21 
REMARK    8  A    between atoms: C14_21  and  C15_22 
REMARK    9  A    between atoms: C15_22  and  N4_23 
REMARK   10  A    between atoms: N5_26  and  C18_27 
REMARK   11  A    between atoms: C28_43  and  O2_44 
REMARK   12  A    between atoms: C30_46  and  O3_47 
ROOT
HETATM    1  N1  UNL     1      -4.097   2.267   1.872  1.00  0.00    -0.226 N 
ATOM      2  H1  UNL     1      -4.076   3.240   2.177  1.00  0.00     0.177 HD
HETATM    3  C7  UNL     1      -2.956   1.708   1.716  1.00  0.00     0.678 A 
HETATM    4  N2  UNL     1      -1.831   2.446   1.967  1.00  0.00    -0.201 N 
ATOM      5  H2  UNL     1      -1.918   3.416   2.269  1.00  0.00     0.183 HD
HETATM    6  C8  UNL     1      -0.609   1.898   1.817  1.00  0.00     0.120 A 
HETATM    7  C9  UNL     1      -0.433   0.593   1.411  1.00  0.00     0.008 A 
HETATM    8  C10 UNL     1       0.809   0.011   1.251  1.00  0.00     0.032 A 
HETATM    9  C11 UNL     1       0.956  -1.300   0.843  1.00  0.00     0.035 A 
HETATM   10  C12 UNL     1       2.229  -1.881   0.681  1.00  0.00     0.114 A 
HETATM   11  N6  UNL     1       2.367  -3.153   0.282  1.00  0.00    -0.338 N 
ATOM     12  H6  UNL     1       3.288  -3.575   0.165  1.00  0.00     0.168 HD
HETATM   13  C23 UNL     1       1.232  -3.857   0.040  1.00  0.00     0.182 A 
HETATM   14  N7  UNL     1       0.017  -3.309   0.193  1.00  0.00    -0.351 N 
ATOM     15  H7  UNL     1      -0.805  -3.881  -0.001  1.00  0.00     0.166 HD
HETATM   16  C24 UNL     1      -0.162  -2.042   0.590  1.00  0.00     0.049 A 
HETATM   17  C25 UNL     1      -1.414  -1.461   0.750  1.00  0.00     0.061 A 
HETATM   18  C26 UNL     1      -1.579  -0.148   1.159  1.00  0.00     0.063 A 
HETATM   19  N8  UNL     1      -2.761   0.439   1.322  1.00  0.00    -0.191 N 
ATOM     20  H8  UNL     1      -3.591  -0.123   1.131  1.00  0.00     0.184 HD
ENDROOT
BRANCH   1  21
HETATM   21  C6  UNL     1      -5.387   1.709   1.676  1.00  0.00     0.142 C 
BRANCH  21  22
HETATM   22  C5  UNL     1      -5.813   1.815   0.245  1.00  0.00     0.059 C 
BRANCH  22  23
HETATM   23  C4  UNL     1      -7.179   1.239   0.031  1.00  0.00    -0.051 A 
HETATM   24  C3  UNL     1      -7.392  -0.085  -0.282  1.00  0.00     0.047 A 
HETATM   25  C2  UNL     1      -8.683  -0.577  -0.471  1.00  0.00     0.104 A 
HETATM   26  C30 UNL     1      -9.793   0.238  -0.352  1.00  0.00     0.135 A 
HETATM   27  C28 UNL     1      -9.576   1.563  -0.039  1.00  0.00     0.104 A 
HETATM   28  C27 UNL     1      -8.293   2.047   0.147  1.00  0.00     0.047 A 
BRANCH  25  29
HETATM   29  O1  UNL     1      -8.915  -1.912  -0.787  1.00  0.00    -0.353 OA
HETATM   30  C1  UNL     1      -7.771  -2.770  -0.912  1.00  0.00     0.210 C 
ENDBRANCH  25  29
BRANCH  26  31
HETATM   31  O3  UNL     1     -11.068  -0.281  -0.546  1.00  0.00    -0.351 OA
HETATM   32  C31 UNL     1     -11.640  -0.280  -1.836  1.00  0.00     0.210 C 
ENDBRANCH  26  31
BRANCH  27  33
HETATM   33  O2  UNL     1     -10.696   2.376   0.079  1.00  0.00    -0.353 OA
HETATM   34  C29 UNL     1     -10.491   3.744   0.401  1.00  0.00     0.210 C 
ENDBRANCH  27  33
ENDBRANCH  22  23
ENDBRANCH  21  22
ENDBRANCH   1  21
BRANCH  10  35
HETATM   35  N3  UNL     1       3.221  -1.128   0.942  1.00  0.00    -0.376 N 
ATOM     36  H3  UNL     1       3.036  -0.172   1.245  1.00  0.00     0.161 HD
BRANCH  35  37
HETATM   37  C13 UNL     1       4.576  -1.553   0.833  1.00  0.00     0.123 C 
BRANCH  37  38
HETATM   38  C14 UNL     1       5.040  -1.286  -0.584  1.00  0.00     0.050 C 
BRANCH  38  39
HETATM   39  C15 UNL     1       6.465  -1.687  -0.806  1.00  0.00     0.274 C 
BRANCH  39  40
HETATM   40  N4  UNL     1       7.317  -0.963   0.097  1.00  0.00     0.091 N 
HETATM   41  C16 UNL     1       7.398   0.436  -0.165  1.00  0.00     0.291 C 
HETATM   42  C17 UNL     1       8.412   0.796  -1.254  1.00  0.00     0.147 C 
HETATM   43  N5  UNL     1       9.664   0.192  -1.030  1.00  0.00    -0.405 N 
HETATM   44  C21 UNL     1       9.587  -1.195  -0.774  1.00  0.00     0.147 C 
HETATM   45  C22 UNL     1       8.568  -1.638   0.226  1.00  0.00     0.291 C 
BRANCH  43  46
HETATM   46  C18 UNL     1      10.554   0.955  -0.241  1.00  0.00     0.079 A 
HETATM   47  C19 UNL     1      11.009   2.279  -0.773  1.00  0.00     0.027 A 
HETATM   48  C20 UNL     1      10.177   2.157   0.498  1.00  0.00     0.027 A 
ENDBRANCH  43  46
ENDBRANCH  39  40
ENDBRANCH  38  39
ENDBRANCH  37  38
ENDBRANCH  35  37
ENDBRANCH  10  35
TORSDOF 12
