REMARK  14 active torsions:
REMARK  status: ('A' for Active; 'I' for Inactive)
REMARK    1  A    between atoms: C2_2  and  C3_3 
REMARK    2  A    between atoms: C5_7  and  N2_8 
REMARK    3  A    between atoms: C9_12  and  C10_13 
REMARK       I    between atoms: C10_13  and  N3_15 
REMARK    4  A    between atoms: N3_15  and  C11_16 
REMARK    5  A    between atoms: N3_15  and  C13_18 
REMARK    6  A    between atoms: C13_18  and  C14_19 
REMARK    7  A    between atoms: C14_19  and  O2_20 
REMARK    8  A    between atoms: C18_26  and  N5_27 
REMARK    9  A    between atoms: N5_27  and  C19_29 
REMARK   10  A    between atoms: C19_29  and  C20_30 
REMARK   11  A    between atoms: C20_30  and  N6_31 
REMARK   12  A    between atoms: N6_31  and  N7_33 
REMARK   13  A    between atoms: N7_33  and  N8_34 
REMARK   14  A    between atoms: C22_42  and  C23_43 
ROOT
HETATM    1  C3  UNL     1      -2.634  -1.683  -0.412  1.00  0.00     0.037 A 
HETATM    2  N1  UNL     1      -1.661  -0.729  -0.538  1.00  0.00    -0.352 N 
ATOM      3  H1  UNL     1      -0.688  -1.033  -0.560  1.00  0.00     0.166 HD
HETATM    4  C4  UNL     1      -1.917   0.581  -0.634  1.00  0.00     0.122 A 
HETATM    5  C5  UNL     1      -0.952   1.550  -0.762  1.00  0.00     0.150 A 
HETATM    6  N4  UNL     1      -1.259   2.863  -0.856  1.00  0.00    -0.174 N 
ATOM      7  H4  UNL     1      -0.509   3.548  -0.949  1.00  0.00     0.186 HD
HETATM    8  C18 UNL     1      -2.525   3.277  -0.829  1.00  0.00     0.681 A 
HETATM    9  N9  UNL     1      -3.489   2.350  -0.704  1.00  0.00    -0.174 N 
ATOM     10  H9  UNL     1      -4.461   2.658  -0.682  1.00  0.00     0.186 HD
HETATM   11  C21 UNL     1      -3.231   1.036  -0.607  1.00  0.00     0.152 A 
HETATM   12  N10 UNL     1      -4.187   0.107  -0.485  1.00  0.00    -0.338 N 
ATOM     13  H10 UNL     1      -5.160   0.412  -0.463  1.00  0.00     0.167 HD
HETATM   14  C22 UNL     1      -3.923  -1.230  -0.388  1.00  0.00     0.070 A 
ENDROOT
BRANCH   5  15
HETATM   15  N2  UNL     1       0.425   1.116  -0.808  1.00  0.00    -0.365 N 
HETATM   16  C6  UNL     1       0.882   0.978  -2.162  1.00  0.00     0.124 C 
HETATM   17  C7  UNL     1       1.197  -0.385  -2.634  1.00  0.00     0.021 C 
HETATM   18  C8  UNL     1       1.899  -1.284  -1.693  1.00  0.00     0.015 C 
HETATM   19  C9  UNL     1       2.775  -0.487  -0.712  1.00  0.00     0.080 C 
HETATM   20  C16 UNL     1       1.929  -0.344   0.530  1.00  0.00     0.034 C 
HETATM   21  C17 UNL     1       1.110   0.916   0.422  1.00  0.00     0.125 C 
BRANCH  19  22
HETATM   22  C10 UNL     1       4.055  -1.202  -0.478  1.00  0.00     0.224 C 
HETATM   23  O1  UNL     1       4.124  -2.420  -0.797  1.00  0.00    -0.273 OA
HETATM   24  N3  UNL     1       5.177  -0.558   0.086  1.00  0.00    -0.350 N 
BRANCH  24  25
HETATM   25  C11 UNL     1       5.154   0.834   0.454  1.00  0.00     0.121 C 
HETATM   26  C12 UNL     1       5.606   1.692  -0.723  1.00  0.00     0.026 C 
ENDBRANCH  24  25
BRANCH  24  27
HETATM   27  C13 UNL     1       6.400  -1.298   0.301  1.00  0.00     0.152 C 
BRANCH  27  28
HETATM   28  C14 UNL     1       6.368  -1.909   1.679  1.00  0.00     0.186 C 
BRANCH  28  29
HETATM   29  O2  UNL     1       7.490  -2.640   1.994  1.00  0.00    -0.394 OA
HETATM   30  C15 UNL     1       8.676  -1.940   1.979  1.00  0.00     0.201 C 
ENDBRANCH  28  29
ENDBRANCH  27  28
ENDBRANCH  24  27
ENDBRANCH  19  22
ENDBRANCH   5  15
BRANCH   8  31
HETATM   31  N5  UNL     1      -2.847   4.502  -0.929  1.00  0.00    -0.224 N 
ATOM     32  H5  UNL     1      -3.835   4.753  -0.901  1.00  0.00     0.177 HD
BRANCH  31  33
HETATM   33  C19 UNL     1      -1.883   5.535  -1.079  1.00  0.00     0.160 C 
BRANCH  33  34
HETATM   34  C20 UNL     1      -1.400   6.097   0.241  1.00  0.00     0.175 C 
BRANCH  34  35
HETATM   35  N6  UNL     1      -2.536   6.650   0.952  1.00  0.00    -0.251 N 
ATOM     36  H6  UNL     1      -2.605   6.577   1.967  1.00  0.00     0.197 HD
BRANCH  35  37
HETATM   37  N7  UNL     1      -3.428   7.218   0.288  1.00  0.00    -0.249 NA
BRANCH  37  38
HETATM   38  N8  UNL     1      -4.354   7.601  -0.436  1.00  0.00    -0.261 N 
ATOM     39  H82 UNL     1      -4.483   6.627  -0.709  1.00  0.00     0.193 HD
ATOM     40  H81 UNL     1      -5.083   8.065  -0.978  1.00  0.00     0.193 HD
ENDBRANCH  37  38
ENDBRANCH  35  37
ENDBRANCH  34  35
ENDBRANCH  33  34
ENDBRANCH  31  33
ENDBRANCH   8  31
BRANCH   1  41
HETATM   41  C2  UNL     1      -2.239  -3.118  -0.285  1.00  0.00     0.055 C 
HETATM   42  C1  UNL     1      -2.338  -3.577   1.163  1.00  0.00     0.011 C 
ENDBRANCH   1  41
BRANCH  14  43
HETATM   43  C23 UNL     1      -5.073  -2.114  -0.252  1.00  0.00     0.036 A 
HETATM   44  C24 UNL     1      -5.440  -3.081  -1.130  1.00  0.00     0.019 A 
HETATM   45  C25 UNL     1      -6.567  -3.844  -0.951  1.00  0.00     0.018 A 
HETATM   46  C26 UNL     1      -7.361  -3.625   0.158  1.00  0.00     0.089 A 
HETATM   47  N11 UNL     1      -7.006  -2.662   1.043  1.00  0.00    -0.352 N 
HETATM   48  C27 UNL     1      -5.903  -1.926   0.854  1.00  0.00     0.113 A 
ATOM     49  H11 UNL     1      -7.587  -2.495   1.865  1.00  0.00     0.166 HD
HETATM   50  N12 UNL     1      -5.568  -1.003   1.719  1.00  0.00    -0.380 N 
HETATM   51  C28 UNL     1      -6.370  -0.744   2.888  1.00  0.00     0.147 C 
ATOM     52  H12 UNL     1      -4.722  -0.456   1.563  1.00  0.00     0.160 HD
ENDBRANCH  14  43
TORSDOF 14
