REMARK  6 active torsions:
REMARK  status: ('A' for Active; 'I' for Inactive)
REMARK    1  A    between atoms: C3_3  and  N1_4 
REMARK    2  A    between atoms: C3_3  and  C4_8 
REMARK    3  A    between atoms: C3_3  and  C7_15 
REMARK    4  A    between atoms: C4_8  and  C5_9 
REMARK    5  A    between atoms: C5_9  and  C6_10 
REMARK    6  A    between atoms: C6_10  and  N2_11 
ROOT
HETATM    1  C1  UNL     1       0.735  -1.664   2.603  1.00  0.00     0.015 C 
HETATM    2  C2  UNL     1       0.656  -1.180   1.511  1.00  0.00    -0.072 C 
HETATM    3  C3  UNL     1       0.566  -0.602   0.170  1.00  0.00     0.228 C 
ENDROOT
BRANCH   3   4
HETATM    4  N1  UNL     1       0.856  -1.677  -0.778  1.00  0.00    -0.054 N 
ATOM      5  H13 UNL     1       1.748  -2.139  -0.600  1.00  0.00     0.276 HD
ATOM      6  H12 UNL     1       0.259  -2.494  -0.653  1.00  0.00     0.276 HD
ATOM      7  H11 UNL     1       0.793  -1.274  -1.713  1.00  0.00     0.276 HD
ENDBRANCH   3   4
BRANCH   3   8
HETATM    8  C4  UNL     1      -0.771   0.018  -0.109  1.00  0.00     0.060 C 
BRANCH   8   9
HETATM    9  C5  UNL     1      -1.913  -0.962  -0.013  1.00  0.00     0.031 C 
BRANCH   9  10
HETATM   10  C6  UNL     1      -3.185  -0.175  -0.336  1.00  0.00     0.230 C 
BRANCH  10  11
HETATM   11  N2  UNL     1      -3.298   0.886   0.633  1.00  0.00    -0.079 N 
ATOM     12  H23 UNL     1      -3.273   0.549   1.595  1.00  0.00     0.274 HD
ATOM     13  H22 UNL     1      -2.466   1.475   0.676  1.00  0.00     0.274 HD
ATOM     14  H21 UNL     1      -4.146   1.411   0.418  1.00  0.00     0.274 HD
ENDBRANCH  10  11
ENDBRANCH   9  10
ENDBRANCH   8   9
ENDBRANCH   3   8
BRANCH   3  15
HETATM   15  C7  UNL     1       1.593   0.478   0.044  1.00  0.00     0.074 A 
HETATM   16  C8  UNL     1       2.927   0.292  -0.283  1.00  0.00     0.117 A 
HETATM   17  N3  UNL     1       3.534   1.498  -0.295  1.00  0.00    -0.360 N 
HETATM   18  C9  UNL     1       2.626   2.438   0.012  1.00  0.00     0.180 A 
ATOM     19  H3  UNL     1       4.518   1.667  -0.503  1.00  0.00     0.166 HD
HETATM   20  N4  UNL     1       1.442   1.800   0.217  1.00  0.00    -0.352 N 
ATOM     21  H4  UNL     1       0.566   2.260   0.466  1.00  0.00     0.166 HD
ENDBRANCH   3  15
TORSDOF 6
