REMARK  14 active torsions:
REMARK  status: ('A' for Active; 'I' for Inactive)
REMARK    1  A    between atoms: C2_2  and  C4_4 
REMARK       I    between atoms: C4_4  and  N1_6 
REMARK       I    between atoms: N1_6  and  C5_8 
REMARK    2  A    between atoms: C5_8  and  C6_10 
REMARK       I    between atoms: C6_10  and  N2_12 
REMARK    3  A    between atoms: N2_12  and  C7_14 
REMARK    4  A    between atoms: C7_14  and  C8_15 
REMARK    5  A    between atoms: C7_14  and  C26_42 
REMARK       I    between atoms: C8_15  and  N3_17 
REMARK    6  A    between atoms: N3_17  and  C9_19 
REMARK    7  A    between atoms: C9_19  and  C10_20 
REMARK    8  A    between atoms: C9_19  and  C13_23 
REMARK    9  A    between atoms: C13_23  and  C14_24 
REMARK   10  A    between atoms: C13_23  and  N4_32 
REMARK   11  A    between atoms: C14_24  and  O6_26 
REMARK   12  A    between atoms: O6_26  and  C15_27 
REMARK   13  A    between atoms: C15_27  and  C16_28 
REMARK   14  A    between atoms: C22_35  and  C23_36 
ROOT
HETATM    1  C9  UNL     1      -1.211   0.917  -1.597  1.00  0.00     0.120 C 
ENDROOT
BRANCH   1   2
HETATM    2  N3  UNL     1       0.204   1.039  -1.631  1.00  0.00    -0.352 N 
HETATM    3  C8  UNL     1       1.303   0.289  -1.282  1.00  0.00     0.241 C 
HETATM    4  O4  UNL     1       1.235  -0.816  -0.740  1.00  0.00    -0.271 OA
ATOM      5  H3  UNL     1       0.484   1.937  -2.026  1.00  0.00     0.163 HD
BRANCH   3   6
HETATM    6  C7  UNL     1       2.738   0.692  -1.502  1.00  0.00     0.180 C 
BRANCH   6   7
HETATM    7  N2  UNL     1       3.539   0.489  -0.343  1.00  0.00    -0.339 N 
HETATM    8  C6  UNL     1       4.308  -0.662  -0.103  1.00  0.00     0.310 C 
HETATM    9  O3  UNL     1       4.318  -1.619  -0.913  1.00  0.00    -0.262 OA
ATOM     10  H2  UNL     1       3.556   1.228   0.360  1.00  0.00     0.163 HD
BRANCH   8  11
HETATM   11  C5  UNL     1       5.121  -0.762   1.096  1.00  0.00     0.316 C 
HETATM   12  N1  UNL     1       5.920  -1.913   1.376  1.00  0.00    -0.289 N 
HETATM   13  C4  UNL     1       6.768  -1.977   2.510  1.00  0.00     0.228 C 
ATOM     14  H1  UNL     1       5.879  -2.711   0.742  1.00  0.00     0.172 HD
HETATM   15  O1  UNL     1       6.811  -0.999   3.285  1.00  0.00    -0.273 OA
HETATM   16  O2  UNL     1       5.143   0.182   1.930  1.00  0.00    -0.262 OA
BRANCH  13  17
HETATM   17  C2  UNL     1       7.595  -3.167   2.795  1.00  0.00     0.070 C 
HETATM   18  C1  UNL     1       6.635  -4.274   3.231  1.00  0.00     0.019 C 
HETATM   19  C3  UNL     1       8.598  -2.829   3.865  1.00  0.00     0.019 C 
ENDBRANCH  13  17
ENDBRANCH   8  11
ENDBRANCH   6   7
BRANCH   6  20
HETATM   20  C26 UNL     1       3.008   1.972  -2.160  1.00  0.00     0.009 C 
HETATM   21  C27 UNL     1       2.736   3.208  -1.298  1.00  0.00     0.012 C 
HETATM   22  C28 UNL     1       2.594   2.142  -3.576  1.00  0.00     0.012 C 
ENDBRANCH   6  20
ENDBRANCH   3   6
ENDBRANCH   1   2
BRANCH   1  23
HETATM   23  C10 UNL     1      -1.846   2.133  -2.188  1.00  0.00     0.003 C 
HETATM   24  C11 UNL     1      -1.397   2.338  -3.643  1.00  0.00     0.011 C 
HETATM   25  C12 UNL     1      -1.523   3.391  -1.389  1.00  0.00     0.011 C 
ENDBRANCH   1  23
BRANCH   1  26
HETATM   26  C13 UNL     1      -1.846   0.399  -0.335  1.00  0.00     0.210 C 
BRANCH  26  27
HETATM   27  C14 UNL     1      -3.338   0.477  -0.352  1.00  0.00     0.284 C 
HETATM   28  O5  UNL     1      -4.108  -0.501  -0.527  1.00  0.00    -0.263 OA
BRANCH  27  29
HETATM   29  O6  UNL     1      -4.028   1.692  -0.161  1.00  0.00    -0.319 OA
BRANCH  29  30
HETATM   30  C15 UNL     1      -5.434   1.711  -0.178  1.00  0.00     0.183 C 
BRANCH  30  31
HETATM   31  C16 UNL     1      -5.929   3.116   0.099  1.00  0.00     0.010 C 
HETATM   32  C17 UNL     1      -7.429   3.275   0.109  1.00  0.00     0.007 C 
HETATM   33  C18 UNL     1      -7.431   3.320   1.626  1.00  0.00     0.001 C 
HETATM   34  C19 UNL     1      -5.923   3.458   1.586  1.00  0.00     0.007 C 
ENDBRANCH  30  31
ENDBRANCH  29  30
ENDBRANCH  27  29
ENDBRANCH  26  27
BRANCH  26  35
HETATM   35  N4  UNL     1      -1.648  -1.026  -0.170  1.00  0.00    -0.358 N 
HETATM   36  C20 UNL     1      -1.773  -1.398   1.174  1.00  0.00     0.065 C 
HETATM   37  C21 UNL     1      -1.548  -2.880   1.414  1.00  0.00     0.058 C 
HETATM   38  C22 UNL     1      -2.567  -3.667   0.613  1.00  0.00     0.103 C 
HETATM   39  C24 UNL     1      -2.675  -3.204  -0.792  1.00  0.00     0.058 C 
HETATM   40  C25 UNL     1      -2.020  -1.908  -1.146  1.00  0.00     0.065 C 
BRANCH  38  41
HETATM   41  C23 UNL     1      -2.179  -5.133   0.676  1.00  0.00     0.392 C 
HETATM   42  F1  UNL     1      -0.916  -5.229   0.115  1.00  0.00    -0.171 F 
HETATM   43  F2  UNL     1      -2.227  -5.652   1.935  1.00  0.00    -0.171 F 
HETATM   44  F3  UNL     1      -3.070  -5.820  -0.125  1.00  0.00    -0.171 F 
ENDBRANCH  38  41
ENDBRANCH  26  35
ENDBRANCH   1  26
TORSDOF 14
