REMARK  14 active torsions:
REMARK  status: ('A' for Active; 'I' for Inactive)
REMARK    1  A    between atoms: C2_2  and  C4_4 
REMARK    2  A    between atoms: N2_14  and  C13_15 
REMARK    3  A    between atoms: C13_15  and  C14_16 
REMARK    4  A    between atoms: C14_16  and  C15_17 
REMARK    5  A    between atoms: C15_17  and  C16_18 
REMARK    6  A    between atoms: C16_18  and  C17_19 
REMARK    7  A    between atoms: C17_19  and  N3_20 
REMARK    8  A    between atoms: N4_23  and  C20_24 
REMARK    9  A    between atoms: C20_24  and  C21_25 
REMARK   10  A    between atoms: C21_25  and  O1_26 
REMARK   11  A    between atoms: C21_25  and  C22_28 
REMARK   12  A    between atoms: C22_28  and  N5_29 
REMARK   13  A    between atoms: N5_29  and  S1_31 
REMARK   14  A    between atoms: C23_35  and  C24_36 
ROOT
HETATM    1  N3  UNL     1       2.465  -1.050   1.747  1.00  0.00    -0.348 N 
HETATM    2  C18 UNL     1       2.879  -1.295   0.357  1.00  0.00     0.156 C 
HETATM    3  C19 UNL     1       3.866  -0.213   0.006  1.00  0.00     0.293 C 
HETATM    4  N4  UNL     1       5.022  -0.284   0.847  1.00  0.00     0.115 N 
HETATM    5  C23 UNL     1       4.738  -0.068   2.238  1.00  0.00     0.420 C 
HETATM    6  C25 UNL     1       3.381  -0.424   2.645  1.00  0.00     0.262 C 
HETATM    7  O5  UNL     1       2.976  -0.186   3.812  1.00  0.00    -0.271 OA
ENDROOT
BRANCH   1   8
HETATM    8  C17 UNL     1       1.170  -1.439   2.197  1.00  0.00     0.126 C 
BRANCH   8   9
HETATM    9  C16 UNL     1       0.104  -0.377   2.060  1.00  0.00     0.020 C 
BRANCH   9  10
HETATM   10  C15 UNL     1      -0.093   0.070   0.633  1.00  0.00     0.003 C 
BRANCH  10  11
HETATM   11  C14 UNL     1      -1.187   1.128   0.628  1.00  0.00     0.030 C 
BRANCH  11  12
HETATM   12  C13 UNL     1      -2.496   0.612   1.151  1.00  0.00     0.273 C 
BRANCH  12  13
HETATM   13  N2  UNL     1      -3.019  -0.505   0.388  1.00  0.00     0.097 N 
HETATM   14  C4  UNL     1      -4.256  -0.936   0.979  1.00  0.00     0.243 C 
HETATM   15  C5  UNL     1      -5.247   0.158   0.914  1.00  0.00     0.153 C 
HETATM   16  N1  UNL     1      -5.407   0.828  -0.326  1.00  0.00    -0.404 N 
HETATM   17  C6  UNL     1      -6.133   2.036  -0.108  1.00  0.00     0.117 C 
HETATM   18  C11 UNL     1      -4.307   0.878  -1.194  1.00  0.00     0.107 C 
HETATM   19  C7  UNL     1      -6.072   3.058  -1.184  1.00  0.00     0.019 C 
HETATM   20  C8  UNL     1      -6.396   2.541  -2.547  1.00  0.00     0.002 C 
HETATM   21  C9  UNL     1      -5.193   1.968  -3.260  1.00  0.00     0.002 C 
HETATM   22  C10 UNL     1      -4.822   0.661  -2.626  1.00  0.00     0.027 C 
HETATM   23  C12 UNL     1      -3.239  -0.146  -0.981  1.00  0.00     0.297 C 
BRANCH  14  24
HETATM   24  C2  UNL     1      -4.744  -2.249   0.417  1.00  0.00     0.012 C 
HETATM   25  C1  UNL     1      -5.960  -2.744   1.162  1.00  0.00     0.012 C 
HETATM   26  C3  UNL     1      -3.655  -3.292   0.555  1.00  0.00     0.012 C 
ENDBRANCH  14  24
ENDBRANCH  12  13
ENDBRANCH  11  12
ENDBRANCH  10  11
ENDBRANCH   9  10
ENDBRANCH   8   9
ENDBRANCH   1   8
BRANCH   5  27
HETATM   27  C24 UNL     1       5.131   1.334   2.603  1.00  0.00     0.427 C 
HETATM   28  F1  UNL     1       4.888   1.621   3.932  1.00  0.00    -0.168 F 
HETATM   29  F2  UNL     1       6.475   1.566   2.394  1.00  0.00    -0.168 F 
HETATM   30  F3  UNL     1       4.446   2.283   1.867  1.00  0.00    -0.168 F 
ENDBRANCH   5  27
BRANCH   4  31
HETATM   31  C20 UNL     1       5.882  -1.410   0.618  1.00  0.00     0.307 C 
BRANCH  31  32
HETATM   32  C21 UNL     1       6.569  -1.315  -0.726  1.00  0.00     0.165 C 
BRANCH  32  33
HETATM   33  O1  UNL     1       7.397  -2.445  -0.894  1.00  0.00    -0.392 OA
ATOM     34  H1  UNL     1       7.829  -2.385  -1.738  1.00  0.00     0.210 HD
ENDBRANCH  32  33
BRANCH  32  35
HETATM   35  C22 UNL     1       7.489  -0.089  -0.756  1.00  0.00     0.168 C 
BRANCH  35  36
HETATM   36  N5  UNL     1       8.136  -0.133  -2.073  1.00  0.00    -0.298 N 
ATOM     37  H5  UNL     1       7.989  -0.838  -2.795  1.00  0.00     0.174 HD
BRANCH  36  38
HETATM   38  S1  UNL     1       9.189   1.226  -2.172  1.00  0.00     0.204 S 
HETATM   39  O2  UNL     1       9.743   1.566  -0.817  1.00  0.00    -0.578 OA
HETATM   40  O3  UNL     1      10.351   0.886  -3.065  1.00  0.00    -0.578 OA
HETATM   41  O4  UNL     1       8.326   2.533  -2.824  1.00  0.00    -0.578 OA
ENDBRANCH  36  38
ENDBRANCH  35  36
ENDBRANCH  32  35
ENDBRANCH  31  32
ENDBRANCH   4  31
TORSDOF 14
