REMARK  13 active torsions:
REMARK  status: ('A' for Active; 'I' for Inactive)
REMARK    1  A    between atoms: C2_2  and  N1_3 
REMARK    2  A    between atoms: N2_9  and  C8_10 
REMARK    3  A    between atoms: C8_10  and  C9_11 
REMARK    4  A    between atoms: C9_11  and  C10_12 
REMARK    5  A    between atoms: C10_12  and  C11_13 
REMARK    6  A    between atoms: C11_13  and  O1_14 
REMARK    7  A    between atoms: O1_14  and  C12_15 
REMARK    8  A    between atoms: C12_15  and  C13_17 
REMARK    9  A    between atoms: C15_19  and  C16_20 
REMARK   10  A    between atoms: C18_25  and  C19_26 
REMARK   11  A    between atoms: C23_33  and  C24_34 
REMARK   12  A    between atoms: C24_34  and  N3_35 
REMARK       I    between atoms: N3_35  and  C25_37 
REMARK   13  A    between atoms: C25_37  and  C26_39 
ROOT
HETATM    1  C1  UNL     1      -2.708  -2.011  -2.178  1.00  0.00     0.041 C 
HETATM    2  C2  UNL     1      -2.205  -1.634  -0.813  1.00  0.00     0.062 C 
HETATM    3  C7  UNL     1      -0.800  -1.116  -1.008  1.00  0.00     0.303 C 
HETATM    4  N2  UNL     1      -0.427  -0.213   0.087  1.00  0.00     0.090 N 
HETATM    5  C21 UNL     1      -1.061   1.063  -0.124  1.00  0.00     0.273 C 
HETATM    6  C22 UNL     1      -2.420   0.774  -0.806  1.00  0.00     0.042 C 
HETATM    7  C23 UNL     1      -2.994  -0.448  -0.211  1.00  0.00     0.055 C 
ENDROOT
BRANCH   4   8
HETATM    8  C8  UNL     1       1.018  -0.003  -0.043  1.00  0.00     0.272 C 
BRANCH   8   9
HETATM    9  C9  UNL     1       1.499   0.929   1.034  1.00  0.00     0.032 C 
BRANCH   9  10
HETATM   10  C10 UNL     1       2.976   1.162   0.905  1.00  0.00     0.028 C 
BRANCH  10  11
HETATM   11  C11 UNL     1       3.732  -0.108   1.044  1.00  0.00     0.179 C 
BRANCH  11  12
HETATM   12  O1  UNL     1       5.134   0.025   0.973  1.00  0.00    -0.318 OA
BRANCH  12  13
HETATM   13  C12 UNL     1       5.772   0.507  -0.131  1.00  0.00     0.293 C 
HETATM   14  O2  UNL     1       5.106   0.847  -1.134  1.00  0.00    -0.259 OA
BRANCH  13  15
HETATM   15  C13 UNL     1       7.239   0.623  -0.135  1.00  0.00     0.041 A 
HETATM   16  C14 UNL     1       7.950   1.125  -1.195  1.00  0.00     0.033 A 
HETATM   17  C15 UNL     1       9.318   1.223  -1.184  1.00  0.00     0.049 A 
HETATM   18  C17 UNL     1       9.992   0.792  -0.048  1.00  0.00     0.032 A 
HETATM   19  C18 UNL     1       9.339   0.283   1.041  1.00  0.00     0.049 A 
HETATM   20  C20 UNL     1       7.960   0.212   0.966  1.00  0.00     0.033 A 
BRANCH  17  21
HETATM   21  C16 UNL     1      10.076   1.777  -2.323  1.00  0.00     0.417 C 
HETATM   22  F1  UNL     1      11.374   1.307  -2.234  1.00  0.00    -0.166 F 
HETATM   23  F2  UNL     1      10.163   3.169  -2.175  1.00  0.00    -0.166 F 
HETATM   24  F3  UNL     1       9.470   1.435  -3.503  1.00  0.00    -0.166 F 
ENDBRANCH  17  21
BRANCH  19  25
HETATM   25  C19 UNL     1      10.010  -0.194   2.256  1.00  0.00     0.417 C 
HETATM   26  F4  UNL     1      11.367  -0.119   2.061  1.00  0.00    -0.166 F 
HETATM   27  F5  UNL     1       9.727   0.691   3.300  1.00  0.00    -0.166 F 
HETATM   28  F6  UNL     1       9.615  -1.480   2.547  1.00  0.00    -0.166 F 
ENDBRANCH  19  25
ENDBRANCH  13  15
ENDBRANCH  12  13
ENDBRANCH  11  12
ENDBRANCH  10  11
ENDBRANCH   9  10
ENDBRANCH   8   9
ENDBRANCH   4   8
BRANCH   2  29
HETATM   29  N1  UNL     1      -2.122  -2.765  -0.012  1.00  0.00    -0.382 N 
HETATM   30  C3  UNL     1      -1.544  -2.748   1.255  1.00  0.00     0.059 C 
HETATM   31  C4  UNL     1      -2.213  -3.862   2.023  1.00  0.00     0.046 C 
HETATM   32  C5  UNL     1      -3.458  -4.153   1.251  1.00  0.00     0.025 C 
HETATM   33  C6  UNL     1      -2.983  -3.864  -0.186  1.00  0.00     0.123 C 
ENDBRANCH   2  29
BRANCH   7  34
HETATM   34  C24 UNL     1      -4.426  -0.637  -0.355  1.00  0.00     0.071 C 
BRANCH  34  35
HETATM   35  N3  UNL     1      -5.338   0.293   0.153  1.00  0.00    -0.340 N 
HETATM   36  C25 UNL     1      -5.757   1.583  -0.147  1.00  0.00     0.227 C 
HETATM   37  O3  UNL     1      -5.359   2.269  -1.098  1.00  0.00    -0.273 OA
ATOM     38  H3  UNL     1      -5.830  -0.077   0.966  1.00  0.00     0.167 HD
BRANCH  36  39
HETATM   39  C26 UNL     1      -6.800   2.182   0.790  1.00  0.00     0.105 C 
HETATM   40  C27 UNL     1      -7.174   3.563   0.328  1.00  0.00     0.043 C 
HETATM   41  C28 UNL     1      -8.371   3.372  -0.570  1.00  0.00     0.233 C 
HETATM   42  N4  UNL     1      -8.491   1.931  -0.759  1.00  0.00    -0.074 N 
HETATM   43  C29 UNL     1      -8.062   1.379   0.532  1.00  0.00     0.246 C 
ATOM     44  H42 UNL     1      -9.413   1.620  -1.066  1.00  0.00     0.277 HD
ATOM     45  H41 UNL     1      -7.982   1.567  -1.564  1.00  0.00     0.277 HD
ENDBRANCH  36  39
ENDBRANCH  34  35
ENDBRANCH   7  34
TORSDOF 13
