REMARK  12 active torsions:
REMARK  status: ('A' for Active; 'I' for Inactive)
REMARK    1  A    between atoms: C2_2  and  C3_3 
REMARK    2  A    between atoms: C3_3  and  N1_4 
REMARK    3  A    between atoms: N1_4  and  C4_5 
REMARK    4  A    between atoms: N1_4  and  C22_26 
REMARK    5  A    between atoms: C4_5  and  C5_6 
REMARK    6  A    between atoms: C9_11  and  C10_12 
REMARK    7  A    between atoms: C10_12  and  N2_13 
REMARK    8  A    between atoms: C13_16  and  N3_17 
REMARK    9  A    between atoms: C22_26  and  C23_27 
REMARK   10  A    between atoms: C24_29  and  C25_30 
REMARK   11  A    between atoms: C25_30  and  C26_31 
REMARK   12  A    between atoms: C26_31  and  N4_32 
ROOT
HETATM    1  C5  UNL     1       0.136  -0.382  -1.250  1.00  0.00    -0.029 A 
HETATM    2  C6  UNL     1       0.182  -1.386  -2.191  1.00  0.00     0.011 A 
HETATM    3  C7  UNL     1      -0.993  -1.855  -2.725  1.00  0.00     0.025 A 
HETATM    4  C8  UNL     1      -2.184  -1.309  -2.299  1.00  0.00     0.045 A 
HETATM    5 CL1  UNL     1      -3.720  -1.876  -2.970  1.00  0.00    -0.083 Cl
HETATM    6  C9  UNL     1      -2.272  -0.320  -1.359  1.00  0.00     0.001 A 
HETATM    7  C21 UNL     1      -1.041   0.137  -0.835  1.00  0.00     0.023 A 
ENDROOT
BRANCH   1   8
HETATM    8  C4  UNL     1       1.439   0.283  -0.902  1.00  0.00     0.311 C 
BRANCH   8   9
HETATM    9  N1  UNL     1       2.414  -0.050  -1.966  1.00  0.00     0.095 N 
BRANCH   9  10
HETATM   10  C3  UNL     1       2.019   0.445  -3.281  1.00  0.00     0.272 C 
BRANCH  10  11
HETATM   11  C2  UNL     1       2.310   1.871  -3.605  1.00  0.00     0.026 C 
HETATM   12  C1  UNL     1       1.754   2.105  -5.041  1.00  0.00     0.007 C 
ENDBRANCH  10  11
ENDBRANCH   9  10
BRANCH   9  13
HETATM   13  C22 UNL     1       3.676   0.568  -1.659  1.00  0.00     0.306 C 
BRANCH  13  14
HETATM   14  C23 UNL     1       4.593   0.066  -0.682  1.00  0.00     0.169 C 
HETATM   15  O1  UNL     1       4.378  -0.011   0.646  1.00  0.00    -0.367 OA
HETATM   16  C24 UNL     1       5.693  -0.174   1.192  1.00  0.00     0.185 C 
HETATM   17  S1  UNL     1       6.307  -1.541   0.202  1.00  0.00    -0.125 SA
HETATM   18  C28 UNL     1       5.085  -1.374  -1.139  1.00  0.00     0.031 C 
HETATM   19  C29 UNL     1       4.010  -2.357  -0.941  1.00  0.00     0.029 C 
HETATM   20  C30 UNL     1       5.724  -1.279  -2.474  1.00  0.00     0.029 C 
BRANCH  16  21
HETATM   21  C25 UNL     1       6.513   1.047   1.222  1.00  0.00     0.062 C 
BRANCH  21  22
HETATM   22  C26 UNL     1       7.917   0.620   1.744  1.00  0.00     0.125 C 
BRANCH  22  23
HETATM   23  N4  UNL     1       7.658  -0.043   2.978  1.00  0.00    -0.367 N 
HETATM   24  C27 UNL     1       8.488  -0.127   3.957  1.00  0.00     0.196 C 
HETATM   25  N5  UNL     1       9.754   0.478   3.820  1.00  0.00    -0.067 NA
HETATM   26  N6  UNL     1       8.123  -0.861   5.152  1.00  0.00    -0.067 NA
ATOM     27  H4  UNL     1       6.746  -0.484   3.094  1.00  0.00     0.161 HD
ENDBRANCH  22  23
ENDBRANCH  21  22
ENDBRANCH  16  21
ENDBRANCH  13  14
ENDBRANCH   9  13
ENDBRANCH   8   9
ENDBRANCH   1   8
BRANCH   6  28
HETATM   28  C10 UNL     1      -3.533   0.393  -1.114  1.00  0.00     0.098 C 
BRANCH  28  29
HETATM   29  N2  UNL     1      -3.994   0.324   0.188  1.00  0.00    -0.389 N 
HETATM   30  C11 UNL     1      -4.587  -1.035   0.388  1.00  0.00     0.124 C 
HETATM   31  C12 UNL     1      -5.186  -1.165   1.724  1.00  0.00     0.055 C 
HETATM   32  C13 UNL     1      -5.757   0.045   2.382  1.00  0.00     0.226 C 
HETATM   33  C19 UNL     1      -4.771   1.195   2.313  1.00  0.00     0.055 C 
HETATM   34  C20 UNL     1      -3.583   0.878   1.356  1.00  0.00     0.124 C 
BRANCH  32  35
HETATM   35  N3  UNL     1      -7.082   0.422   1.991  1.00  0.00     0.093 N 
HETATM   36  C14 UNL     1      -7.331   0.854   0.670  1.00  0.00     0.273 C 
HETATM   37  C15 UNL     1      -8.673   1.619   0.766  1.00  0.00     0.030 C 
HETATM   38  C16 UNL     1      -9.739   0.626   1.062  1.00  0.00     0.003 C 
HETATM   39  C17 UNL     1      -9.381  -0.320   2.183  1.00  0.00     0.030 C 
HETATM   40  C18 UNL     1      -7.939  -0.741   2.194  1.00  0.00     0.273 C 
ENDBRANCH  32  35
ENDBRANCH  28  29
ENDBRANCH   6  28
TORSDOF 12
