REMARK  18 active torsions:
REMARK  status: ('A' for Active; 'I' for Inactive)
REMARK    1  A    between atoms: C2_2  and  C3_3 
REMARK    2  A    between atoms: C3_3  and  C4_4 
REMARK    3  A    between atoms: C4_4  and  C5_5 
REMARK    4  A    between atoms: C5_5  and  C6_6 
REMARK    5  A    between atoms: C6_6  and  C7_7 
REMARK    6  A    between atoms: C7_7  and  C8_8 
REMARK    7  A    between atoms: C8_8  and  C9_9 
REMARK    8  A    between atoms: C9_9  and  C10_10 
REMARK    9  A    between atoms: C10_10  and  C11_11 
REMARK   10  A    between atoms: C12_12  and  C13_13 
REMARK   11  A    between atoms: C13_13  and  O1_14 
REMARK   12  A    between atoms: O1_14  and  C14_15 
REMARK   13  A    between atoms: C16_17  and  C17_18 
REMARK       I    between atoms: C17_18  and  N1_20 
REMARK   14  A    between atoms: C19_22  and  O3_23 
REMARK   15  A    between atoms: C21_26  and  O4_27 
REMARK   16  A    between atoms: C22_30  and  C23_31 
REMARK   17  A    between atoms: C27_35  and  O6_36 
REMARK   18  A    between atoms: C28_38  and  S1_39 
ROOT
HETATM    1  C14 UNL     1      -2.146  -0.641   0.980  1.00  0.00     0.142 C 
HETATM    2  C15 UNL     1      -2.664   0.714   1.277  1.00  0.00     0.075 C 
HETATM    3  C16 UNL     1      -4.175   0.878   1.220  1.00  0.00     0.216 C 
HETATM    4  O5  UNL     1      -4.868  -0.133   0.676  1.00  0.00    -0.368 OA
HETATM    5  C22 UNL     1      -4.767  -1.409   1.062  1.00  0.00     0.160 C 
HETATM    6  C27 UNL     1      -3.947  -1.759   2.243  1.00  0.00     0.164 C 
HETATM    7  C28 UNL     1      -2.473  -1.567   2.125  1.00  0.00     0.107 C 
ENDROOT
BRANCH   1   8
HETATM    8  O1  UNL     1      -0.820  -0.562   0.684  1.00  0.00    -0.373 OA
BRANCH   8   9
HETATM    9  C13 UNL     1      -0.367  -0.914  -0.533  1.00  0.00     0.261 C 
BRANCH   9  10
HETATM   10  C12 UNL     1       1.105  -0.703  -0.545  1.00  0.00    -0.081 C 
HETATM   11  C11 UNL     1       2.295  -0.514  -0.534  1.00  0.00    -0.104 C 
BRANCH  11  12
HETATM   12  C10 UNL     1       3.752  -0.259  -0.502  1.00  0.00     0.094 C 
BRANCH  12  13
HETATM   13  C9  UNL     1       4.186   0.488  -1.743  1.00  0.00     0.012 C 
BRANCH  13  14
HETATM   14  C8  UNL     1       5.662   0.798  -1.767  1.00  0.00     0.001 C 
BRANCH  14  15
HETATM   15  C7  UNL     1       6.520  -0.439  -1.718  1.00  0.00     0.000 C 
BRANCH  15  16
HETATM   16  C6  UNL     1       7.977  -0.063  -1.768  1.00  0.00     0.000 C 
BRANCH  16  17
HETATM   17  C5  UNL     1       8.420   0.797  -0.636  1.00  0.00     0.000 C 
BRANCH  17  18
HETATM   18  C4  UNL     1       9.884   1.133  -0.757  1.00  0.00     0.000 C 
BRANCH  18  19
HETATM   19  C3  UNL     1      10.729  -0.092  -0.731  1.00  0.00    -0.000 C 
BRANCH  19  20
HETATM   20  C2  UNL     1      12.217   0.275  -0.835  1.00  0.00    -0.005 C 
HETATM   21  C1  UNL     1      12.459   1.007  -2.124  1.00  0.00     0.005 C 
ENDBRANCH  19  20
ENDBRANCH  18  19
ENDBRANCH  17  18
ENDBRANCH  16  17
ENDBRANCH  15  16
ENDBRANCH  14  15
ENDBRANCH  13  14
ENDBRANCH  12  13
ENDBRANCH  11  12
ENDBRANCH   9  10
ENDBRANCH   8   9
ENDBRANCH   1   8
BRANCH   7  22
HETATM   22  S1  UNL     1      -1.677  -3.182   1.925  1.00  0.00    -0.163 SA
HETATM   23  C29 UNL     1      -2.303  -4.095   0.525  1.00  0.00     0.090 C 
ENDBRANCH   7  22
BRANCH   3  24
HETATM   24  C17 UNL     1      -4.503   2.250   0.768  1.00  0.00     0.251 C 
HETATM   25  O2  UNL     1      -3.831   3.174   1.333  1.00  0.00    -0.270 OA
HETATM   26  N1  UNL     1      -5.444   2.599  -0.184  1.00  0.00    -0.321 N 
HETATM   27  C18 UNL     1      -5.722   3.992  -0.598  1.00  0.00     0.160 C 
HETATM   28  C21 UNL     1      -6.312   1.725  -0.928  1.00  0.00     0.225 C 
HETATM   29  C19 UNL     1      -6.441   3.899  -1.921  1.00  0.00     0.140 C 
HETATM   30  C20 UNL     1      -7.250   2.630  -1.729  1.00  0.00     0.087 C 
BRANCH  29  31
HETATM   31  O3  UNL     1      -7.269   5.016  -2.106  1.00  0.00    -0.394 OA
ATOM     32  H3  UNL     1      -7.722   4.957  -2.939  1.00  0.00     0.210 HD
ENDBRANCH  29  31
BRANCH  28  33
HETATM   33  O4  UNL     1      -5.642   0.925  -1.855  1.00  0.00    -0.377 OA
ATOM     34  H4  UNL     1      -6.215   0.348  -2.346  1.00  0.00     0.212 HD
ENDBRANCH  28  33
ENDBRANCH   3  24
BRANCH   6  35
HETATM   35  O6  UNL     1      -4.504  -1.212   3.409  1.00  0.00    -0.392 OA
ATOM     36  H6  UNL     1      -3.978  -1.437   4.167  1.00  0.00     0.210 HD
ENDBRANCH   6  35
BRANCH   5  37
HETATM   37  C23 UNL     1      -6.188  -1.959   1.321  1.00  0.00    -0.023 C 
HETATM   38  C24 UNL     1      -6.923  -1.187   2.358  1.00  0.00     0.017 C 
HETATM   39  C25 UNL     1      -6.945  -1.960   0.025  1.00  0.00     0.017 C 
HETATM   40  C26 UNL     1      -6.107  -3.425   1.771  1.00  0.00     0.017 C 
ENDBRANCH   5  37
TORSDOF 18
