REMARK  18 active torsions:
REMARK  status: ('A' for Active; 'I' for Inactive)
REMARK    1  A    between atoms: N1_2  and  C3_4 
REMARK    2  A    between atoms: C3_4  and  C4_5 
REMARK    3  A    between atoms: C4_5  and  C5_6 
REMARK    4  A    between atoms: C5_6  and  C6_7 
REMARK    5  A    between atoms: C6_7  and  N2_8 
REMARK       I    between atoms: N2_8  and  C8_10 
REMARK    6  A    between atoms: C8_10  and  C9_12 
REMARK    7  A    between atoms: C9_12  and  C10_13 
REMARK    8  A    between atoms: C9_12  and  N4_25 
REMARK    9  A    between atoms: C10_13  and  C11_14 
REMARK   10  A    between atoms: C11_14  and  C12_15 
REMARK   11  A    between atoms: C12_15  and  C13_16 
REMARK   12  A    between atoms: C13_16  and  C14_17 
REMARK   13  A    between atoms: C14_17  and  C15_18 
REMARK   14  A    between atoms: C15_18  and  O2_19 
REMARK   15  A    between atoms: N3_21  and  O3_23 
REMARK       I    between atoms: N4_25  and  C16_27 
REMARK   16  A    between atoms: C16_27  and  C17_29 
REMARK       I    between atoms: N5_33  and  C21_34 
REMARK   17  A    between atoms: C21_34  and  O6_36 
REMARK   18  A    between atoms: O6_36  and  C22_37 
ROOT
HETATM    1  C9  UNL     1       0.745   1.509  -0.833  1.00  0.00     0.176 C 
ENDROOT
BRANCH   1   2
HETATM    2  C8  UNL     1       0.855   0.065  -0.499  1.00  0.00     0.242 C 
HETATM    3  N2  UNL     1       1.854  -0.788  -1.070  1.00  0.00    -0.355 N 
HETATM    4  C7  UNL     1       2.793  -0.303  -2.061  1.00  0.00     0.152 C 
HETATM    5  O1  UNL     1       0.059  -0.486   0.314  1.00  0.00    -0.271 OA
BRANCH   3   6
HETATM    6  C6  UNL     1       1.932  -2.161  -0.702  1.00  0.00     0.125 C 
BRANCH   6   7
HETATM    7  C5  UNL     1       2.804  -2.514   0.444  1.00  0.00     0.022 C 
BRANCH   7   8
HETATM    8  C4  UNL     1       4.249  -2.144   0.251  1.00  0.00     0.032 C 
BRANCH   8   9
HETATM    9  C3  UNL     1       5.091  -2.587   1.450  1.00  0.00     0.271 C 
BRANCH   9  10
HETATM   10  N1  UNL     1       6.453  -2.218   1.254  1.00  0.00     0.080 N 
HETATM   11  C1  UNL     1       7.352  -2.621   2.278  1.00  0.00     0.309 C 
HETATM   12  C2  UNL     1       6.965  -2.586  -0.041  1.00  0.00     0.309 C 
ENDBRANCH   9  10
ENDBRANCH   8   9
ENDBRANCH   7   8
ENDBRANCH   6   7
ENDBRANCH   3   6
ENDBRANCH   1   2
BRANCH   1  13
HETATM   13  C10 UNL     1       1.260   2.299   0.385  1.00  0.00     0.035 C 
BRANCH  13  14
HETATM   14  C11 UNL     1       2.686   1.964   0.716  1.00  0.00     0.002 C 
BRANCH  14  15
HETATM   15  C12 UNL     1       3.065   2.794   1.917  1.00  0.00     0.001 C 
BRANCH  15  16
HETATM   16  C13 UNL     1       4.490   2.506   2.314  1.00  0.00     0.008 C 
BRANCH  16  17
HETATM   17  C14 UNL     1       5.428   2.842   1.194  1.00  0.00     0.086 C 
BRANCH  17  18
HETATM   18  C15 UNL     1       6.816   2.532   1.673  1.00  0.00     0.135 C 
HETATM   19  N3  UNL     1       7.640   3.511   1.771  1.00  0.00    -0.251 N 
ATOM     20  H3  UNL     1       7.314   4.445   1.521  1.00  0.00     0.196 HD
BRANCH  18  21
HETATM   21  O2  UNL     1       7.234   1.264   2.004  1.00  0.00    -0.348 OA
ATOM     22  H2  UNL     1       8.113   1.068   2.307  1.00  0.00     0.219 HD
ENDBRANCH  18  21
BRANCH  19  23
HETATM   23  O3  UNL     1       8.934   3.367   2.194  1.00  0.00    -0.288 OA
ATOM     24  H3  UNL     1       9.544   4.092   2.267  1.00  0.00     0.244 HD
ENDBRANCH  19  23
ENDBRANCH  17  18
ENDBRANCH  16  17
ENDBRANCH  15  16
ENDBRANCH  14  15
ENDBRANCH  13  14
ENDBRANCH   1  13
BRANCH   1  25
HETATM   25  N4  UNL     1      -0.672   1.899  -1.006  1.00  0.00    -0.346 N 
HETATM   26  C16 UNL     1      -1.148   2.424  -2.198  1.00  0.00     0.241 C 
HETATM   27  O4  UNL     1      -0.296   2.567  -3.145  1.00  0.00    -0.271 OA
ATOM     28  H4  UNL     1      -1.318   1.778  -0.226  1.00  0.00     0.163 HD
BRANCH  26  29
HETATM   29  C17 UNL     1      -2.513   2.824  -2.459  1.00  0.00     0.181 C 
HETATM   30  C18 UNL     1      -2.773   4.208  -1.779  1.00  0.00     0.037 C 
HETATM   31  C19 UNL     1      -4.206   4.162  -1.327  1.00  0.00     0.022 C 
HETATM   32  C20 UNL     1      -4.751   2.933  -2.013  1.00  0.00     0.129 C 
HETATM   33  N5  UNL     1      -3.587   2.063  -1.954  1.00  0.00    -0.315 N 
HETATM   34  C21 UNL     1      -3.682   0.730  -1.514  1.00  0.00     0.363 C 
HETATM   35  O5  UNL     1      -2.766  -0.132  -1.499  1.00  0.00    -0.238 OA
BRANCH  34  36
HETATM   36  O6  UNL     1      -4.907   0.219  -1.014  1.00  0.00    -0.298 OA
BRANCH  36  37
HETATM   37  C22 UNL     1      -5.050  -1.106  -0.545  1.00  0.00     0.142 C 
HETATM   38  C23 UNL     1      -5.957  -1.921  -1.450  1.00  0.00     0.016 C 
HETATM   39  C24 UNL     1      -7.392  -1.462  -1.314  1.00  0.00     0.012 C 
HETATM   40  C28 UNL     1      -5.835  -3.363  -1.006  1.00  0.00     0.012 C 
HETATM   41  C25 UNL     1      -7.843  -1.629   0.117  1.00  0.00    -0.013 C 
HETATM   42  C26 UNL     1      -7.735  -3.081   0.490  1.00  0.00     0.009 C 
HETATM   43  C31 UNL     1      -6.993  -0.734   0.985  1.00  0.00     0.012 C 
HETATM   44  C27 UNL     1      -6.289  -3.489   0.452  1.00  0.00    -0.013 C 
HETATM   45  C29 UNL     1      -5.453  -2.591   1.344  1.00  0.00     0.012 C 
HETATM   46  C30 UNL     1      -5.540  -1.162   0.865  1.00  0.00     0.016 C 
ENDBRANCH  36  37
ENDBRANCH  34  36
ENDBRANCH  26  29
ENDBRANCH   1  25
TORSDOF 18
