REMARK  16 active torsions:
REMARK  status: ('A' for Active; 'I' for Inactive)
REMARK    1  A    between atoms: C2_2  and  C3_3 
REMARK    2  A    between atoms: C3_3  and  N1_4 
REMARK    3  A    between atoms: N1_4  and  C4_5 
REMARK       I    between atoms: N1_4  and  C7_8 
REMARK    4  A    between atoms: C4_5  and  C5_6 
REMARK    5  A    between atoms: C7_8  and  C8_10 
REMARK    6  A    between atoms: C8_10  and  C9_11 
REMARK    7  A    between atoms: C9_11  and  N2_12 
REMARK    8  A    between atoms: N2_12  and  C10_13 
REMARK    9  A    between atoms: N2_12  and  C23_35 
REMARK   10  A    between atoms: C10_13  and  C11_14 
REMARK   11  A    between atoms: C11_14  and  C12_15 
REMARK   12  A    between atoms: C12_15  and  N3_16 
REMARK       I    between atoms: N3_16  and  C13_18 
REMARK   13  A    between atoms: C13_18  and  C14_20 
REMARK   14  A    between atoms: C14_20  and  C15_21 
REMARK   15  A    between atoms: C23_35  and  C24_36 
REMARK   16  A    between atoms: C24_36  and  C25_37 
ROOT
HETATM    1  C10 UNL     1      -1.673   1.312  -1.541  1.00  0.00     0.069 C 
ENDROOT
BRANCH   1   2
HETATM    2  N2  UNL     1      -2.593   1.092  -0.527  1.00  0.00    -0.354 N 
BRANCH   2   3
HETATM    3  C9  UNL     1      -3.475   0.007  -0.586  1.00  0.00     0.077 C 
BRANCH   3   4
HETATM    4  C8  UNL     1      -3.044  -1.395  -0.443  1.00  0.00     0.148 C 
BRANCH   4   5
HETATM    5  C7  UNL     1      -4.314  -2.229  -0.588  1.00  0.00     0.225 C 
HETATM    6  N1  UNL     1      -4.290  -3.644  -0.551  1.00  0.00    -0.345 N 
HETATM    7  O1  UNL     1      -5.378  -1.632  -0.747  1.00  0.00    -0.273 OA
BRANCH   6   8
HETATM    8  C3  UNL     1      -5.533  -4.342  -0.776  1.00  0.00     0.152 C 
BRANCH   8   9
HETATM    9  C2  UNL     1      -6.289  -4.577   0.466  1.00  0.00    -0.017 C 
HETATM   10  C1  UNL     1      -6.591  -5.815   0.827  1.00  0.00     0.008 C 
ENDBRANCH   8   9
ENDBRANCH   6   8
BRANCH   6  11
HETATM   11  C4  UNL     1      -3.085  -4.359  -0.284  1.00  0.00     0.152 C 
BRANCH  11  12
HETATM   12  C5  UNL     1      -2.882  -4.654   1.174  1.00  0.00    -0.017 C 
HETATM   13  C6  UNL     1      -2.795  -5.916   1.558  1.00  0.00     0.008 C 
ENDBRANCH  11  12
ENDBRANCH   6  11
ENDBRANCH   4   5
ENDBRANCH   3   4
ENDBRANCH   2   3
BRANCH   2  14
HETATM   14  C23 UNL     1      -2.455   1.697   0.744  1.00  0.00     0.068 C 
BRANCH  14  15
HETATM   15  C24 UNL     1      -1.749   2.960   0.932  1.00  0.00     0.049 C 
BRANCH  15  16
HETATM   16  C25 UNL     1      -2.276   4.182   0.271  1.00  0.00    -0.010 C 
HETATM   17  C26 UNL     1      -1.371   5.370   0.581  1.00  0.00     0.005 C 
HETATM   18  C27 UNL     1      -2.142   6.664   0.603  1.00  0.00     0.000 C 
HETATM   19  C28 UNL     1      -3.309   6.651  -0.362  1.00  0.00     0.000 C 
HETATM   20  C29 UNL     1      -4.309   5.559  -0.052  1.00  0.00     0.000 C 
HETATM   21  C30 UNL     1      -3.630   4.594   0.895  1.00  0.00     0.005 C 
ENDBRANCH  15  16
ENDBRANCH  14  15
ENDBRANCH   2  14
ENDBRANCH   1   2
BRANCH   1  22
HETATM   22  C11 UNL     1      -0.487   0.410  -1.712  1.00  0.00     0.065 C 
BRANCH  22  23
HETATM   23  C12 UNL     1       0.470   0.429  -0.541  1.00  0.00     0.128 C 
BRANCH  23  24
HETATM   24  N3  UNL     1       1.595  -0.437  -0.746  1.00  0.00    -0.360 N 
HETATM   25  C13 UNL     1       2.614  -0.480   0.249  1.00  0.00     0.223 C 
HETATM   26  O2  UNL     1       2.531   0.228   1.290  1.00  0.00    -0.273 OA
ATOM     27  H3  UNL     1       1.664  -1.010  -1.587  1.00  0.00     0.162 HD
BRANCH  25  28
HETATM   28  C14 UNL     1       3.779  -1.365   0.052  1.00  0.00     0.160 C 
BRANCH  28  29
HETATM   29  C15 UNL     1       4.985  -0.503  -0.102  1.00  0.00     0.033 A 
HETATM   30  N4  UNL     1       4.871   0.819  -0.310  1.00  0.00    -0.311 N 
HETATM   31  C16 UNL     1       5.983   1.562  -0.471  1.00  0.00     0.324 A 
ATOM     32  H4  UNL     1       3.950   1.257  -0.346  1.00  0.00     0.170 HD
HETATM   33  O3  UNL     1       5.889   2.805  -0.665  1.00  0.00    -0.247 OA
HETATM   34  N5  UNL     1       7.219   1.043  -0.433  1.00  0.00    -0.309 N 
HETATM   35  C17 UNL     1       7.335  -0.261  -0.229  1.00  0.00     0.053 A 
ATOM     36  H5  UNL     1       8.042   1.632  -0.557  1.00  0.00     0.170 HD
HETATM   37  C18 UNL     1       6.223  -1.049  -0.061  1.00  0.00     0.019 A 
HETATM   38  C21 UNL     1       8.508  -1.143  -0.131  1.00  0.00     0.168 C 
HETATM   39  C19 UNL     1       6.717  -2.425   0.152  1.00  0.00     0.155 C 
HETATM   40  C20 UNL     1       6.865  -2.711   1.649  1.00  0.00     0.045 C 
HETATM   41  O4  UNL     1       8.021  -2.440  -0.356  1.00  0.00    -0.370 OA
HETATM   42  C22 UNL     1       9.542  -0.844  -1.177  1.00  0.00     0.046 C 
ENDBRANCH  28  29
ENDBRANCH  25  28
ENDBRANCH  23  24
ENDBRANCH  22  23
ENDBRANCH   1  22
TORSDOF 16
