REMARK  20 active torsions:
REMARK  status: ('A' for Active; 'I' for Inactive)
REMARK    1  A    between atoms: C2_2  and  C3_3 
REMARK    2  A    between atoms: C3_3  and  C4_4 
REMARK    3  A    between atoms: C4_4  and  C5_5 
REMARK    4  A    between atoms: C5_5  and  C6_6 
REMARK    5  A    between atoms: C6_6  and  C7_7 
REMARK    6  A    between atoms: C7_7  and  C8_8 
REMARK    7  A    between atoms: C8_8  and  O2_10 
REMARK    8  A    between atoms: O2_10  and  C9_11 
REMARK    9  A    between atoms: N1_13  and  C11_14 
REMARK   10  A    between atoms: C11_14  and  C12_15 
REMARK   11  A    between atoms: C12_15  and  C13_16 
REMARK   12  A    between atoms: C13_16  and  C14_17 
REMARK   13  A    between atoms: C14_17  and  O3_18 
REMARK   14  A    between atoms: O3_18  and  C15_19 
REMARK   15  A    between atoms: C21_25  and  O4_26 
REMARK   16  A    between atoms: C22_28  and  O5_29 
REMARK   17  A    between atoms: C23_31  and  O6_32 
REMARK   18  A    between atoms: O6_32  and  N2_33 
REMARK   19  A    between atoms: N2_33  and  C26_36 
REMARK   20  A    between atoms: C26_36  and  C27_37 
ROOT
HETATM    1  C9  UNL     1       0.866  -0.069  -1.272  1.00  0.00     0.164 C 
HETATM    2  C10 UNL     1      -0.214   0.357  -0.331  1.00  0.00     0.270 C 
HETATM    3  N1  UNL     1      -1.500   0.574  -0.919  1.00  0.00    -0.062 N 
HETATM    4  C18 UNL     1      -1.422   1.206  -2.225  1.00  0.00     0.238 C 
HETATM    5  C19 UNL     1      -0.678   0.372  -3.234  1.00  0.00     0.038 C 
HETATM    6  C20 UNL     1       0.402  -0.457  -2.637  1.00  0.00     0.050 C 
HETATM    7  C21 UNL     1       0.053  -1.917  -2.739  1.00  0.00     0.156 C 
HETATM    8  C22 UNL     1      -1.319  -2.308  -2.393  1.00  0.00     0.180 C 
HETATM    9  C23 UNL     1      -1.778  -1.919  -1.005  1.00  0.00     0.216 C 
HETATM   10  C30 UNL     1      -2.389  -0.554  -0.968  1.00  0.00     0.274 C 
ENDROOT
BRANCH   1  11
HETATM   11  O2  UNL     1       1.960   0.784  -1.197  1.00  0.00    -0.314 OA
BRANCH  11  12
HETATM   12  C8  UNL     1       3.209   0.542  -0.719  1.00  0.00     0.259 C 
HETATM   13  O1  UNL     1       3.311  -0.617  -0.310  1.00  0.00    -0.265 OA
BRANCH  12  14
HETATM   14  C7  UNL     1       4.222   1.572  -0.729  1.00  0.00     0.111 C 
BRANCH  14  15
HETATM   15  C6  UNL     1       5.537   1.213  -0.047  1.00  0.00     0.010 C 
BRANCH  15  16
HETATM   16  C5  UNL     1       5.355   0.952   1.399  1.00  0.00     0.000 C 
BRANCH  16  17
HETATM   17  C4  UNL     1       6.526   0.614   2.234  1.00  0.00     0.000 C 
BRANCH  17  18
HETATM   18  C3  UNL     1       7.309  -0.607   2.038  1.00  0.00    -0.000 C 
BRANCH  18  19
HETATM   19  C2  UNL     1       8.025  -0.868   0.769  1.00  0.00    -0.005 C 
HETATM   20  C1  UNL     1       9.014   0.202   0.393  1.00  0.00     0.005 C 
ENDBRANCH  18  19
ENDBRANCH  17  18
ENDBRANCH  16  17
ENDBRANCH  15  16
ENDBRANCH  14  15
ENDBRANCH  12  14
ENDBRANCH  11  12
ENDBRANCH   1  11
BRANCH   3  21
HETATM   21  C11 UNL     1      -2.171   1.552  -0.076  1.00  0.00     0.237 C 
BRANCH  21  22
HETATM   22  C12 UNL     1      -1.946   2.972  -0.385  1.00  0.00     0.030 C 
BRANCH  22  23
HETATM   23  C13 UNL     1      -2.675   3.905   0.598  1.00  0.00     0.028 C 
BRANCH  23  24
HETATM   24  C14 UNL     1      -2.342   5.312   0.157  1.00  0.00     0.168 C 
BRANCH  24  25
HETATM   25  O3  UNL     1      -2.924   6.258   0.954  1.00  0.00    -0.387 OA
BRANCH  25  26
HETATM   26  C15 UNL     1      -4.292   6.263   0.995  1.00  0.00     0.113 C 
HETATM   27  C16 UNL     1      -4.847   7.647   0.637  1.00  0.00     0.039 C 
HETATM   28  C17 UNL     1      -4.797   5.928   2.404  1.00  0.00     0.039 C 
ENDBRANCH  25  26
ENDBRANCH  24  25
ENDBRANCH  23  24
ENDBRANCH  22  23
ENDBRANCH  21  22
ENDBRANCH   3  21
BRANCH   7  29
HETATM   29  O4  UNL     1       0.948  -2.712  -1.993  1.00  0.00    -0.392 OA
ATOM     30  H4  UNL     1       0.728  -3.634  -2.057  1.00  0.00     0.210 HD
ENDBRANCH   7  29
BRANCH   8  31
HETATM   31  O5  UNL     1      -1.373  -3.717  -2.570  1.00  0.00    -0.390 OA
ATOM     32  H5  UNL     1      -2.261  -3.970  -2.346  1.00  0.00     0.210 HD
ENDBRANCH   8  31
BRANCH   9  33
HETATM   33  O6  UNL     1      -2.516  -2.911  -0.510  1.00  0.00    -0.193 OA
BRANCH  33  34
HETATM   34  N2  UNL     1      -2.412  -3.604   0.534  1.00  0.00     0.039 N 
HETATM   35  C24 UNL     1      -1.088  -3.431   1.162  1.00  0.00     0.311 C 
HETATM   36  C25 UNL     1      -3.418  -3.475   1.565  1.00  0.00     0.311 C 
BRANCH  34  37
HETATM   37  C26 UNL     1      -2.429  -5.008   0.150  1.00  0.00     0.277 C 
BRANCH  37  38
HETATM   38  C27 UNL     1      -2.981  -5.921   1.210  1.00  0.00     0.014 A 
HETATM   39  C28 UNL     1      -2.973  -7.381   0.768  1.00  0.00     0.007 A 
HETATM   40  C29 UNL     1      -4.266  -6.709   0.915  1.00  0.00     0.007 A 
ENDBRANCH  37  38
ENDBRANCH  34  37
ENDBRANCH  33  34
ENDBRANCH   9  33
TORSDOF 20
