REMARK  13 active torsions:
REMARK  status: ('A' for Active; 'I' for Inactive)
REMARK    1  A    between atoms: C2_2  and  C3_3 
REMARK    2  A    between atoms: C3_3  and  N1_4 
REMARK    3  A    between atoms: C5_9  and  C6_10 
REMARK    4  A    between atoms: C5_9  and  C7_12 
REMARK    5  A    between atoms: C7_12  and  C8_13 
REMARK    6  A    between atoms: C8_13  and  C9_14 
REMARK    7  A    between atoms: C9_14  and  C10_15 
REMARK    8  A    between atoms: C14_20  and  O2_21 
REMARK    9  A    between atoms: C15_23  and  N3_24 
REMARK       I    between atoms: N4_28  and  C16_29 
REMARK   10  A    between atoms: C16_29  and  C17_31 
REMARK   11  A    between atoms: C17_31  and  C18_32 
REMARK   12  A    between atoms: C18_32  and  O4_33 
REMARK   13  A    between atoms: O4_33  and  C19_34 
ROOT
HETATM    1  C8  UNL     1      -1.754   0.226  -0.087  1.00  0.00    -0.023 C 
HETATM    2  C11 UNL     1      -1.392  -0.900   0.876  1.00  0.00     0.025 C 
HETATM    3  C12 UNL     1      -0.887  -2.143   0.300  1.00  0.00    -0.021 C 
HETATM    4  C13 UNL     1       0.415  -2.477  -0.228  1.00  0.00     0.011 C 
HETATM    5  C14 UNL     1       1.185  -1.688  -1.208  1.00  0.00     0.127 C 
HETATM    6  C15 UNL     1       2.676  -1.583  -1.005  1.00  0.00     0.325 C 
HETATM    7  N4  UNL     1       3.039  -0.197  -1.215  1.00  0.00    -0.315 N 
HETATM    8  C16 UNL     1       4.408   0.279  -1.269  1.00  0.00     0.224 C 
HETATM    9  O3  UNL     1       4.557   1.494  -1.478  1.00  0.00    -0.273 OA
HETATM   10  C21 UNL     1       1.829   0.645  -1.349  1.00  0.00     0.106 A 
HETATM   11  C22 UNL     1       0.800  -0.247  -1.286  1.00  0.00     0.062 A 
HETATM   12  C23 UNL     1       0.871   0.625  -0.207  1.00  0.00    -0.009 A 
HETATM   13  C24 UNL     1       1.842   1.348   0.705  1.00  0.00     0.018 C 
HETATM   14  C25 UNL     1      -0.431   0.718   0.306  1.00  0.00     0.014 C 
HETATM   15  C26 UNL     1      -0.454  -0.020   1.662  1.00  0.00    -0.035 C 
HETATM   16  C27 UNL     1       0.584  -0.889   2.203  1.00  0.00     0.016 C 
HETATM   17  C28 UNL     1      -0.973   0.794   2.821  1.00  0.00     0.016 C 
ENDROOT
BRANCH   1  18
HETATM   18  C7  UNL     1      -2.892   1.117   0.357  1.00  0.00     0.066 C 
BRANCH  18  19
HETATM   19  C5  UNL     1      -4.211   0.942   0.713  1.00  0.00     0.127 C 
HETATM   20  N1  UNL     1      -5.404   0.452   0.136  1.00  0.00    -0.303 N 
HETATM   21  C4  UNL     1      -6.001   0.339   1.490  1.00  0.00     0.322 C 
HETATM   22  O1  UNL     1      -7.112   0.348   2.020  1.00  0.00    -0.247 OA
HETATM   23  N2  UNL     1      -4.665   0.214   1.900  1.00  0.00    -0.315 N 
ATOM     24  H2  UNL     1      -4.199  -0.212   2.701  1.00  0.00     0.166 HD
BRANCH  20  25
HETATM   25  C3  UNL     1      -6.138   0.153  -1.055  1.00  0.00     0.157 C 
BRANCH  25  26
HETATM   26  C2  UNL     1      -6.238  -1.248  -1.456  1.00  0.00    -0.017 C 
HETATM   27  C1  UNL     1      -5.764  -2.294  -0.819  1.00  0.00     0.008 C 
ENDBRANCH  25  26
ENDBRANCH  20  25
BRANCH  19  28
HETATM   28  C6  UNL     1      -4.701   2.422   1.100  1.00  0.00     0.168 C 
HETATM   29 CL1  UNL     1      -5.182   3.227  -0.405  1.00  0.00    -0.126 Cl
ENDBRANCH  19  28
ENDBRANCH  18  19
ENDBRANCH   1  18
BRANCH   1  30
HETATM   30  C9  UNL     1      -2.227  -0.359  -1.327  1.00  0.00     0.021 C 
BRANCH  30  31
HETATM   31  C10 UNL     1      -2.598   0.602  -2.470  1.00  0.00     0.086 C 
HETATM   32 BR1  UNL     1      -3.172  -0.494  -4.000  1.00  0.00    -0.096 Br
ENDBRANCH  30  31
ENDBRANCH   1  30
BRANCH   5  33
HETATM   33  O2  UNL     1       1.112  -2.291  -2.509  1.00  0.00    -0.381 OA
ATOM     34  H2  UNL     1       1.608  -1.783  -3.140  1.00  0.00     0.211 HD
ENDBRANCH   5  33
BRANCH   6  35
HETATM   35  N3  UNL     1       3.423  -2.488  -1.863  1.00  0.00    -0.055 N 
ATOM     36  H33 UNL     1       3.104  -3.450  -1.746  1.00  0.00     0.276 HD
ATOM     37  H32 UNL     1       3.176  -2.351  -2.843  1.00  0.00     0.276 HD
ATOM     38  H31 UNL     1       4.431  -2.417  -1.726  1.00  0.00     0.276 HD
ENDBRANCH   6  35
BRANCH   8  39
HETATM   39  C17 UNL     1       5.541  -0.601  -1.096  1.00  0.00     0.129 C 
BRANCH  39  40
HETATM   40  C18 UNL     1       6.793   0.065  -0.623  1.00  0.00     0.176 C 
BRANCH  40  41
HETATM   41  O4  UNL     1       6.880   0.637   0.541  1.00  0.00    -0.391 OA
BRANCH  41  42
HETATM   42  C19 UNL     1       6.385   1.685   1.125  1.00  0.00     0.163 C 
HETATM   43  C20 UNL     1       6.811   3.064   0.611  1.00  0.00     0.033 C 
ENDBRANCH  41  42
ENDBRANCH  40  41
ENDBRANCH  39  40
ENDBRANCH   8  39
TORSDOF 13
