REMARK  13 active torsions:
REMARK  status: ('A' for Active; 'I' for Inactive)
REMARK    1  A    between atoms: C2_2  and  N1_3 
REMARK    2  A    between atoms: N1_3  and  C3_4 
REMARK    3  A    between atoms: N1_3  and  C5_6 
REMARK    4  A    between atoms: C5_6  and  O1_7 
REMARK    5  A    between atoms: C5_6  and  N2_9 
REMARK       I    between atoms: N3_12  and  C8_13 
REMARK    6  A    between atoms: C8_13  and  C9_15 
REMARK    7  A    between atoms: C9_15  and  C10_16 
REMARK    8  A    between atoms: C10_16  and  C11_17 
REMARK    9  A    between atoms: C11_17  and  C12_18 
REMARK   10  A    between atoms: C12_18  and  C13_19 
REMARK   11  A    between atoms: C13_19  and  C14_20 
REMARK   12  A    between atoms: C14_20  and  N4_21 
REMARK       I    between atoms: N4_21  and  C15_23 
REMARK       I    between atoms: C15_23  and  N5_25 
REMARK   13  A    between atoms: C18_28  and  C19_29 
ROOT
HETATM    1  N2  UNL     1      -5.154   0.597  -0.043  1.00  0.00    -0.339 N 
HETATM    2  C6  UNL     1      -4.686  -0.719   0.216  1.00  0.00     0.147 C 
HETATM    3  C7  UNL     1      -3.342  -0.818   0.895  1.00  0.00     0.147 C 
HETATM    4  N3  UNL     1      -2.560   0.373   0.879  1.00  0.00    -0.331 N 
HETATM    5  C8  UNL     1      -1.414   0.463   1.712  1.00  0.00     0.221 C 
HETATM    6  O2  UNL     1      -0.751   1.512   1.677  1.00  0.00    -0.273 OA
HETATM    7  C22 UNL     1      -2.932   1.490   0.023  1.00  0.00     0.217 C 
HETATM    8  C23 UNL     1      -2.852   1.040  -1.379  1.00  0.00     0.087 C 
HETATM    9  N6  UNL     1      -2.772   0.690  -2.483  1.00  0.00    -0.195 NA
HETATM   10  C24 UNL     1      -4.375   1.783   0.348  1.00  0.00     0.120 C 
HETATM   11  C25 UNL     1      -4.497   2.089   1.812  1.00  0.00     0.035 C 
ENDROOT
BRANCH   5  12
HETATM   12  C9  UNL     1      -1.054  -0.680   2.583  1.00  0.00     0.103 C 
BRANCH  12  13
HETATM   13  C10 UNL     1       0.236  -0.517   3.328  1.00  0.00     0.009 C 
BRANCH  13  14
HETATM   14  C11 UNL     1       1.455  -0.365   2.467  1.00  0.00     0.001 C 
BRANCH  14  15
HETATM   15  C12 UNL     1       1.627  -1.573   1.596  1.00  0.00     0.002 C 
BRANCH  15  16
HETATM   16  C13 UNL     1       2.848  -1.498   0.694  1.00  0.00     0.020 C 
BRANCH  16  17
HETATM   17  C14 UNL     1       4.116  -1.368   1.450  1.00  0.00     0.124 C 
BRANCH  17  18
HETATM   18  N4  UNL     1       5.245  -1.318   0.567  1.00  0.00    -0.343 N 
HETATM   19  C15 UNL     1       5.433  -0.296  -0.362  1.00  0.00     0.318 C 
HETATM   20  O3  UNL     1       4.572   0.638  -0.426  1.00  0.00    -0.247 OA
HETATM   21  N5  UNL     1       6.517  -0.200  -1.260  1.00  0.00    -0.334 N 
HETATM   22  C16 UNL     1       6.598   0.913  -2.183  1.00  0.00     0.128 C 
HETATM   23  C21 UNL     1       7.591  -1.160  -1.328  1.00  0.00     0.128 C 
HETATM   24  C17 UNL     1       7.878   1.673  -2.036  1.00  0.00     0.026 C 
HETATM   25  C18 UNL     1       9.081   0.802  -1.875  1.00  0.00     0.013 C 
HETATM   26  C20 UNL     1       8.875  -0.414  -1.037  1.00  0.00     0.026 C 
ATOM     27  H4  UNL     1       5.940  -2.062   0.621  1.00  0.00     0.164 HD
BRANCH  25  28
HETATM   28  C19 UNL     1      10.156   1.646  -1.174  1.00  0.00     0.133 C 
HETATM   29 BR1  UNL     1       9.401   2.180   0.545  1.00  0.00    -0.079 Br
HETATM   30 BR2  UNL     1      11.638   0.456  -0.793  1.00  0.00    -0.079 Br
ENDBRANCH  25  28
ENDBRANCH  17  18
ENDBRANCH  16  17
ENDBRANCH  15  16
ENDBRANCH  14  15
ENDBRANCH  13  14
ENDBRANCH  12  13
ENDBRANCH   5  12
BRANCH   1  31
HETATM   31  C5  UNL     1      -6.383   0.850  -0.678  1.00  0.00     0.217 C 
BRANCH  31  32
HETATM   32  N1  UNL     1      -7.374   0.061  -1.200  1.00  0.00    -0.348 N 
BRANCH  32  33
HETATM   33  C2  UNL     1      -8.576   0.767  -1.748  1.00  0.00     0.122 C 
HETATM   34  C1  UNL     1      -9.606   0.941  -0.645  1.00  0.00     0.026 C 
ENDBRANCH  32  33
BRANCH  32  35
HETATM   35  C3  UNL     1      -7.414  -1.362  -1.334  1.00  0.00     0.122 C 
HETATM   36  C4  UNL     1      -6.896  -1.860  -2.678  1.00  0.00     0.026 C 
ENDBRANCH  32  35
ENDBRANCH  31  32
BRANCH  31  37
HETATM   37  O1  UNL     1      -6.621   2.145  -0.788  1.00  0.00    -0.332 OA
ATOM     38  H1  UNL     1      -5.934   2.692  -0.426  1.00  0.00     0.220 HD
ENDBRANCH  31  37
ENDBRANCH   1  31
TORSDOF 13
