REMARK  7 active torsions:
REMARK  status: ('A' for Active; 'I' for Inactive)
REMARK    1  A    between atoms: N1_1  and  C1_5 
REMARK    2  A    between atoms: C1_5  and  C2_6 
REMARK    3  A    between atoms: C2_6  and  N2_7 
REMARK    4  A    between atoms: N2_7  and  C3_10 
REMARK    5  A    between atoms: C3_10  and  C4_11 
REMARK    6  A    between atoms: C4_11  and  N3_12 
REMARK    7  A    between atoms: N3_12  and  C5_14 
ROOT
HETATM    1  C4  UNL     1       0.440  -0.028   0.689  1.00  0.00     0.147 C 
ENDROOT
BRANCH   1   2
HETATM    2  C3  UNL     1       1.594   0.929   0.345  1.00  0.00     0.251 C 
BRANCH   2   3
HETATM    3  N2  UNL     1       2.758   0.754   1.134  1.00  0.00    -0.072 N 
ATOM      4  H22 UNL     1       2.540   0.839   2.127  1.00  0.00     0.277 HD
ATOM      5  H21 UNL     1       3.389   1.549   1.033  1.00  0.00     0.277 HD
BRANCH   3   6
HETATM    6  C2  UNL     1       3.440  -0.476   0.864  1.00  0.00     0.259 C 
BRANCH   6   7
HETATM    7  C1  UNL     1       4.049  -0.438  -0.514  1.00  0.00     0.257 C 
BRANCH   7   8
HETATM    8  N1  UNL     1       4.991   0.643  -0.680  1.00  0.00    -0.078 N 
ATOM      9  H13 UNL     1       4.564   1.539  -0.445  1.00  0.00     0.274 HD
ATOM     10  H12 UNL     1       5.714   0.611   0.038  1.00  0.00     0.274 HD
ATOM     11  H11 UNL     1       5.403   0.669  -1.613  1.00  0.00     0.274 HD
ENDBRANCH   7   8
ENDBRANCH   6   7
ENDBRANCH   3   6
ENDBRANCH   2   3
ENDBRANCH   1   2
BRANCH   1  12
HETATM   12  N3  UNL     1      -0.600   0.233  -0.177  1.00  0.00    -0.388 N 
ATOM     13  H3  UNL     1      -0.225   0.666  -1.021  1.00  0.00     0.159 HD
BRANCH  12  14
HETATM   14  C5  UNL     1      -1.830   0.128  -0.294  1.00  0.00     0.032 A 
HETATM   15  C6  UNL     1      -2.449   0.591  -1.479  1.00  0.00     0.046 A 
HETATM   16  C7  UNL     1      -3.798   0.513  -1.681  1.00  0.00     0.091 A 
HETATM   17  N4  UNL     1      -4.604  -0.015  -0.745  1.00  0.00    -0.354 N 
HETATM   18  C8  UNL     1      -4.071  -0.470   0.400  1.00  0.00     0.118 A 
ATOM     19  H4  UNL     1      -5.610  -0.070  -0.903  1.00  0.00     0.166 HD
HETATM   20  N5  UNL     1      -4.972  -1.013   1.359  1.00  0.00    -0.083 NA
HETATM   21  C9  UNL     1      -2.695  -0.405   0.637  1.00  0.00     0.074 A 
ENDBRANCH  12  14
ENDBRANCH   1  12
TORSDOF 7
