REMARK  6 active torsions:
REMARK  status: ('A' for Active; 'I' for Inactive)
REMARK       I    between atoms: C2_2  and  N1_4 
REMARK    1  A    between atoms: N1_4  and  N2_6 
REMARK    2  A    between atoms: N2_6  and  C3_8 
REMARK    3  A    between atoms: C3_8  and  C5_10 
REMARK    4  A    between atoms: N3_13  and  C7_14 
REMARK    5  A    between atoms: C8_19  and  N6_20 
REMARK    6  A    between atoms: C9_24  and  O2_25 
ROOT
HETATM    1  C5  UNL     1      -0.043   0.743   0.029  1.00  0.00     0.047 A 
HETATM    2  C6  UNL     1      -0.014   2.098  -0.170  1.00  0.00     0.086 A 
HETATM    3  S1  UNL     1       1.660   2.420  -0.274  1.00  0.00    -0.014 SA
HETATM    4  N3  UNL     1       2.238   0.863  -0.067  1.00  0.00    -0.238 N 
HETATM    5  C9  UNL     1       1.153   0.113   0.079  1.00  0.00     0.168 A 
ENDROOT
BRANCH   4   6
HETATM    6  C7  UNL     1       3.630   0.490  -0.060  1.00  0.00     0.181 A 
HETATM    7  N4  UNL     1       4.346  -0.053   0.909  1.00  0.00    -0.277 N 
HETATM    8  N5  UNL     1       5.575  -0.316   0.733  1.00  0.00    -0.278 N 
ATOM      9  H4  UNL     1       3.907  -0.262   1.806  1.00  0.00     0.189 HD
HETATM   10  C8  UNL     1       6.128  -0.032  -0.452  1.00  0.00     0.160 A 
ATOM     11  H5  UNL     1       6.130  -0.735   1.479  1.00  0.00     0.189 HD
HETATM   12  S2  UNL     1       4.798   0.631  -1.300  1.00  0.00    -0.014 SA
BRANCH  10  13
HETATM   13  N6  UNL     1       7.367  -0.218  -0.846  1.00  0.00    -0.378 N 
ATOM     14  H62 UNL     1       8.160  -0.613  -0.340  1.00  0.00     0.158 HD
ATOM     15  H61 UNL     1       7.789  -0.002  -1.749  1.00  0.00     0.158 HD
ENDBRANCH  10  13
ENDBRANCH   4   6
BRANCH   5  16
HETATM   16  O2  UNL     1       1.317  -1.167   0.260  1.00  0.00    -0.345 OA
ATOM     17  H2  UNL     1       2.157  -1.609   0.295  1.00  0.00     0.219 HD
ENDBRANCH   5  16
BRANCH   1  18
HETATM   18  C3  UNL     1      -1.340   0.021   0.178  1.00  0.00     0.037 C 
HETATM   19  C4  UNL     1      -1.396  -1.430   0.390  1.00  0.00     0.070 C 
BRANCH  18  20
HETATM   20  N2  UNL     1      -2.453   0.665   0.123  1.00  0.00    -0.302 N 
ATOM     21  H2  UNL     1      -2.411   1.674  -0.024  1.00  0.00     0.186 HD
BRANCH  20  22
HETATM   22  N1  UNL     1      -3.689   0.090   0.248  1.00  0.00    -0.270 N 
HETATM   23  C2  UNL     1      -4.700   0.317  -0.718  1.00  0.00     0.232 C 
HETATM   24  C1  UNL     1      -6.037  -0.306  -0.580  1.00  0.00     0.119 C 
HETATM   25  O1  UNL     1      -4.461   1.059  -1.709  1.00  0.00    -0.272 OA
ATOM     26  H1  UNL     1      -3.885  -0.511   1.049  1.00  0.00     0.190 HD
ENDBRANCH  20  22
ENDBRANCH  18  20
ENDBRANCH   1  18
TORSDOF 6
