REMARK  11 active torsions:
REMARK  status: ('A' for Active; 'I' for Inactive)
REMARK    1  A    between atoms: C2_2  and  N1_3 
REMARK    2  A    between atoms: C2_2  and  C3_7 
REMARK    3  A    between atoms: C3_7  and  C4_8 
REMARK       I    between atoms: N2_10  and  C6_11 
REMARK    4  A    between atoms: C6_11  and  C7_13 
REMARK    5  A    between atoms: C7_13  and  C8_14 
REMARK    6  A    between atoms: C8_14  and  C9_15 
REMARK    7  A    between atoms: C9_15  and  C10_16 
REMARK    8  A    between atoms: C10_16  and  O2_17 
REMARK    9  A    between atoms: N3_19  and  O3_21 
REMARK   10  A    between atoms: N4_27  and  C13_28 
REMARK   11  A    between atoms: C13_28  and  C14_29 
ROOT
HETATM    1  C4  UNL     1       0.370   0.784  -0.224  1.00  0.00     0.115 C 
HETATM    2  C5  UNL     1      -0.410   0.323   0.982  1.00  0.00     0.064 C 
HETATM    3  N2  UNL     1      -0.378   0.792  -1.427  1.00  0.00    -0.316 N 
HETATM    4  C6  UNL     1      -1.638   0.212  -1.698  1.00  0.00     0.222 C 
HETATM    5  O1  UNL     1      -2.101   0.422  -2.887  1.00  0.00    -0.273 OA
HETATM    6  C11 UNL     1       0.177   1.462  -2.646  1.00  0.00     0.210 C 
HETATM    7  S1  UNL     1       1.941   1.052  -2.725  1.00  0.00    -0.080 SA
HETATM    8  C12 UNL     1       2.084  -0.307  -1.595  1.00  0.00     0.144 C 
HETATM    9  S2  UNL     1       2.785  -1.656  -2.096  1.00  0.00    -0.052 SA
HETATM   10  N4  UNL     1       1.562  -0.133  -0.306  1.00  0.00    -0.314 N 
ENDROOT
BRANCH   1  11
HETATM   11  C3  UNL     1       0.979   2.098   0.209  1.00  0.00     0.086 C 
BRANCH  11  12
HETATM   12  C2  UNL     1       0.037   3.139   0.687  1.00  0.00     0.183 C 
HETATM   13  C1  UNL     1       0.826   4.411   1.065  1.00  0.00     0.040 C 
BRANCH  12  14
HETATM   14  N1  UNL     1      -0.981   3.546  -0.226  1.00  0.00    -0.075 N 
ATOM     15  H13 UNL     1      -1.572   4.294   0.137  1.00  0.00     0.274 HD
ATOM     16  H12 UNL     1      -0.619   4.051  -1.035  1.00  0.00     0.274 HD
ATOM     17  H11 UNL     1      -1.502   2.706  -0.476  1.00  0.00     0.274 HD
ENDBRANCH  12  14
ENDBRANCH  11  12
ENDBRANCH   1  11
BRANCH   4  18
HETATM   18  C7  UNL     1      -2.523  -0.597  -0.865  1.00  0.00     0.103 C 
BRANCH  18  19
HETATM   19  C8  UNL     1      -3.832  -0.935  -1.597  1.00  0.00     0.017 C 
BRANCH  19  20
HETATM   20  C9  UNL     1      -4.648  -1.771  -0.621  1.00  0.00     0.086 C 
BRANCH  20  21
HETATM   21  C10 UNL     1      -4.939  -1.048   0.620  1.00  0.00     0.135 C 
HETATM   22  N3  UNL     1      -4.531  -1.511   1.744  1.00  0.00    -0.251 N 
ATOM     23  H3  UNL     1      -4.732  -1.009   2.609  1.00  0.00     0.196 HD
BRANCH  21  24
HETATM   24  O2  UNL     1      -5.652   0.133   0.574  1.00  0.00    -0.348 OA
ATOM     25  H2  UNL     1      -5.841   0.602   1.379  1.00  0.00     0.219 HD
ENDBRANCH  21  24
BRANCH  22  26
HETATM   26  O3  UNL     1      -3.828  -2.676   1.778  1.00  0.00    -0.288 OA
ATOM     27  H3  UNL     1      -3.526  -3.019   2.611  1.00  0.00     0.244 HD
ENDBRANCH  22  26
ENDBRANCH  20  21
ENDBRANCH  19  20
ENDBRANCH  18  19
ENDBRANCH   4  18
BRANCH  10  28
HETATM   28  C13 UNL     1       2.047  -0.734   0.886  1.00  0.00     0.106 C 
BRANCH  28  29
HETATM   29  C14 UNL     1       3.232  -1.564   0.819  1.00  0.00    -0.020 A 
HETATM   30  C15 UNL     1       3.126  -2.928   0.919  1.00  0.00     0.014 A 
HETATM   31  C16 UNL     1       4.212  -3.785   0.884  1.00  0.00     0.020 A 
HETATM   32  C17 UNL     1       5.460  -3.201   0.740  1.00  0.00     0.011 A 
HETATM   33 BR1  UNL     1       6.984  -4.364   0.688  1.00  0.00    -0.051 Br
HETATM   34  C18 UNL     1       5.622  -1.845   0.636  1.00  0.00     0.020 A 
HETATM   35  C19 UNL     1       4.486  -1.030   0.677  1.00  0.00     0.014 A 
ENDBRANCH  28  29
ENDBRANCH  10  28
TORSDOF 11
