REMARK  7 active torsions:
REMARK  status: ('A' for Active; 'I' for Inactive)
REMARK    1  A    between atoms: N1_1  and  N2_4 
REMARK       I    between atoms: N2_4  and  C1_6 
REMARK    2  A    between atoms: C1_6  and  C2_8 
REMARK    3  A    between atoms: C2_8  and  N3_9 
REMARK       I    between atoms: N3_9  and  C3_11 
REMARK    4  A    between atoms: C3_11  and  C4_13 
REMARK    5  A    between atoms: C4_13  and  N4_14 
REMARK    6  A    between atoms: C4_13  and  C6_25 
REMARK       I    between atoms: N5_16  and  C5_18 
REMARK       I    between atoms: C5_18  and  N6_20 
REMARK    7  A    between atoms: N6_20  and  N7_22 
ROOT
HETATM    1  C4  UNL     1      -0.251  -0.798   0.411  1.00  0.00     0.129 C 
ENDROOT
BRANCH   1   2
HETATM    2  C3  UNL     1       0.897  -1.133  -0.371  1.00  0.00     0.271 C 
HETATM    3  N3  UNL     1       1.632  -0.006  -0.967  1.00  0.00    -0.347 N 
ATOM      4  H3  UNL     1       1.301   0.946  -0.811  1.00  0.00     0.163 HD
HETATM    5  O2  UNL     1       1.367  -2.219  -0.615  1.00  0.00    -0.266 OA
BRANCH   3   6
HETATM    6  C2  UNL     1       2.814  -0.225  -1.769  1.00  0.00     0.227 C 
BRANCH   6   7
HETATM    7  C1  UNL     1       3.393   1.035  -2.259  1.00  0.00     0.253 C 
HETATM    8  N2  UNL     1       4.555   0.997  -3.055  1.00  0.00    -0.275 N 
ATOM      9  H2  UNL     1       4.983   0.100  -3.285  1.00  0.00     0.189 HD
HETATM   10  O1  UNL     1       2.875   2.168  -1.984  1.00  0.00    -0.270 OA
BRANCH   8  11
HETATM   11  N1  UNL     1       5.119   2.168  -3.526  1.00  0.00    -0.343 N 
ATOM     12  H12 UNL     1       4.679   3.056  -3.287  1.00  0.00     0.176 HD
ATOM     13  H11 UNL     1       5.960   2.140  -4.102  1.00  0.00     0.176 HD
ENDBRANCH   8  11
ENDBRANCH   6   7
ENDBRANCH   3   6
ENDBRANCH   1   2
BRANCH   1  14
HETATM   14  N4  UNL     1      -0.439   0.451   0.491  1.00  0.00    -0.291 N 
HETATM   15  N5  UNL     1      -1.065   1.498   0.886  1.00  0.00    -0.250 N 
HETATM   16  C5  UNL     1      -2.079   2.105   0.026  1.00  0.00     0.352 C 
ATOM     17  H5  UNL     1      -0.856   1.906   1.797  1.00  0.00     0.192 HD
HETATM   18  O3  UNL     1      -2.343   1.612  -1.096  1.00  0.00    -0.244 OA
HETATM   19  N6  UNL     1      -2.762   3.265   0.484  1.00  0.00    -0.257 N 
ATOM     20  H6  UNL     1      -2.531   3.647   1.401  1.00  0.00     0.191 HD
ATOM     21  H4  UNL     1       0.327   0.835  -0.061  1.00  0.00     0.187 HD
BRANCH  19  22
HETATM   22  N7  UNL     1      -3.725   3.886  -0.276  1.00  0.00    -0.341 N 
ATOM     23  H72 UNL     1      -3.943   3.491  -1.191  1.00  0.00     0.177 HD
ATOM     24  H71 UNL     1      -4.215   4.718   0.053  1.00  0.00     0.177 HD
ENDBRANCH  19  22
ENDBRANCH   1  14
BRANCH   1  25
HETATM   25  C6  UNL     1      -1.109  -1.701   1.151  1.00  0.00     0.039 A 
HETATM   26  C7  UNL     1      -1.867  -1.144   2.216  1.00  0.00     0.018 A 
HETATM   27  C8  UNL     1      -2.628  -1.893   3.059  1.00  0.00     0.018 A 
HETATM   28  C9  UNL     1      -2.663  -3.254   2.868  1.00  0.00     0.089 A 
HETATM   29  N8  UNL     1      -1.957  -3.788   1.872  1.00  0.00    -0.354 N 
HETATM   30  C10 UNL     1      -1.181  -3.035   1.008  1.00  0.00     0.129 A 
ATOM     31  H8  UNL     1      -1.990  -4.799   1.740  1.00  0.00     0.166 HD
HETATM   32  N9  UNL     1      -0.615  -3.810  -0.018  1.00  0.00    -0.082 NA
ENDBRANCH   1  25
TORSDOF 7
