REMARK  9 active torsions:
REMARK  status: ('A' for Active; 'I' for Inactive)
REMARK    1  A    between atoms: N1_1  and  C1_4 
REMARK    2  A    between atoms: C3_11  and  N4_12 
REMARK    3  A    between atoms: N4_12  and  C4_14 
REMARK    4  A    between atoms: C4_14  and  C5_15 
REMARK    5  A    between atoms: C5_15  and  O2_16 
REMARK    6  A    between atoms: C5_15  and  C6_18 
REMARK    7  A    between atoms: C6_18  and  N5_19 
REMARK    8  A    between atoms: C6_18  and  C7_23 
REMARK    9  A    between atoms: C7_23  and  C8_24 
ROOT
HETATM    1  N4  UNL     1       0.993   0.393   0.610  1.00  0.00    -0.223 N 
ATOM      2  H4  UNL     1       0.764   1.207   1.180  1.00  0.00     0.177 HD
ENDROOT
BRANCH   1   3
HETATM    3  C3  UNL     1       2.196   0.328   0.240  1.00  0.00     0.685 C 
HETATM    4  N3  UNL     1       2.984   1.347   0.657  1.00  0.00    -0.141 N 
HETATM    5  C2  UNL     1       4.315   1.536   0.552  1.00  0.00     0.340 C 
ATOM      6  H3  UNL     1       2.486   2.100   1.131  1.00  0.00     0.189 HD
HETATM    7  N2  UNL     1       5.257   0.610   0.212  1.00  0.00    -0.290 N 
HETATM    8  O1  UNL     1       4.740   2.705   0.797  1.00  0.00    -0.246 OA
HETATM    9  C1  UNL     1       5.071  -0.649  -0.258  1.00  0.00     0.173 C 
ATOM     10  H2  UNL     1       6.228   0.902   0.326  1.00  0.00     0.172 HD
HETATM   11  C11 UNL     1       3.883  -1.145  -0.754  1.00  0.00     0.303 C 
HETATM   12  N8  UNL     1       2.622  -0.701  -0.515  1.00  0.00    -0.153 N 
HETATM   13  O3  UNL     1       3.999  -2.118  -1.511  1.00  0.00    -0.263 OA
ATOM     14  H8  UNL     1       1.884  -1.229  -0.980  1.00  0.00     0.187 HD
BRANCH   9  15
HETATM   15  N1  UNL     1       6.093  -1.437  -0.234  1.00  0.00    -0.381 N 
ATOM     16  H12 UNL     1       6.971  -1.070   0.133  1.00  0.00     0.157 HD
ATOM     17  H11 UNL     1       5.953  -2.384  -0.587  1.00  0.00     0.157 HD
ENDBRANCH   9  15
ENDBRANCH   1   3
BRANCH   1  18
HETATM   18  C4  UNL     1      -0.086  -0.479   0.363  1.00  0.00     0.171 C 
BRANCH  18  19
HETATM   19  C5  UNL     1      -0.979   0.158  -0.709  1.00  0.00     0.167 C 
BRANCH  19  20
HETATM   20  O2  UNL     1      -1.423   1.358  -0.228  1.00  0.00    -0.392 OA
ATOM     21  H2  UNL     1      -1.976   1.753  -0.892  1.00  0.00     0.210 HD
ENDBRANCH  19  20
BRANCH  19  22
HETATM   22  C6  UNL     1      -2.056  -0.755  -1.151  1.00  0.00     0.219 C 
BRANCH  22  23
HETATM   23  N5  UNL     1      -1.463  -1.993  -1.702  1.00  0.00    -0.072 N 
ATOM     24  H53 UNL     1      -0.793  -1.800  -2.446  1.00  0.00     0.274 HD
ATOM     25  H52 UNL     1      -0.826  -2.440  -1.043  1.00  0.00     0.274 HD
ATOM     26  H51 UNL     1      -2.206  -2.622  -2.007  1.00  0.00     0.274 HD
ENDBRANCH  22  23
BRANCH  22  27
HETATM   27  C7  UNL     1      -3.103  -1.112  -0.150  1.00  0.00     0.094 C 
BRANCH  27  28
HETATM   28  C8  UNL     1      -3.881   0.010   0.391  1.00  0.00     0.027 A 
HETATM   29  C9  UNL     1      -3.671   0.740   1.546  1.00  0.00     0.114 A 
HETATM   30  N6  UNL     1      -4.628   1.661   1.633  1.00  0.00    -0.360 N 
HETATM   31  C10 UNL     1      -5.453   1.566   0.586  1.00  0.00     0.180 A 
ATOM     32  H6  UNL     1      -4.718   2.340   2.389  1.00  0.00     0.166 HD
HETATM   33  N7  UNL     1      -4.998   0.561  -0.170  1.00  0.00    -0.355 N 
ATOM     34  H7  UNL     1      -5.425   0.250  -1.043  1.00  0.00     0.166 HD
ENDBRANCH  27  28
ENDBRANCH  22  27
ENDBRANCH  19  22
ENDBRANCH  18  19
ENDBRANCH   1  18
TORSDOF 9
