REMARK  6 active torsions:
REMARK  status: ('A' for Active; 'I' for Inactive)
REMARK       I    between atoms: N5_14  and  C4_16 
REMARK       I    between atoms: C4_16  and  N6_18 
REMARK    1  A    between atoms: N6_18  and  C5_20 
REMARK    2  A    between atoms: C5_20  and  C6_21 
REMARK       I    between atoms: C6_21  and  N7_23 
REMARK    3  A    between atoms: N7_23  and  C7_24 
REMARK    4  A    between atoms: C7_24  and  C8_25 
REMARK       I    between atoms: C8_25  and  N8_27 
REMARK    5  A    between atoms: N8_27  and  C9_29 
REMARK    6  A    between atoms: C9_29  and  C10_30 
ROOT
HETATM    1  N1  UNL     1      -5.095  -0.362   0.188  1.00  0.00    -0.382 N 
ATOM      2  H11 UNL     1      -4.255  -0.143  -0.348  1.00  0.00     0.157 HD
ATOM      3  H12 UNL     1      -5.791   0.349   0.413  1.00  0.00     0.157 HD
HETATM    4  C1  UNL     1      -5.287  -1.552   0.607  1.00  0.00     0.149 A 
HETATM    5  N2  UNL     1      -6.413  -1.845   1.325  1.00  0.00    -0.291 N 
ATOM      6  H2  UNL     1      -7.091  -1.113   1.536  1.00  0.00     0.172 HD
HETATM    7  C2  UNL     1      -6.621  -3.088   1.747  1.00  0.00     0.340 A 
HETATM    8  O1  UNL     1      -7.643  -3.376   2.402  1.00  0.00    -0.245 OA
HETATM    9  N3  UNL     1      -5.708  -4.053   1.458  1.00  0.00    -0.250 N 
ATOM     10  H3  UNL     1      -5.872  -5.006   1.784  1.00  0.00     0.192 HD
HETATM   11  N4  UNL     1      -4.629  -3.793   0.776  1.00  0.00    -0.278 N 
ATOM     12  H4  UNL     1      -3.976  -4.553   0.586  1.00  0.00     0.189 HD
HETATM   13  C3  UNL     1      -4.332  -2.527   0.298  1.00  0.00     0.168 A 
HETATM   14  N5  UNL     1      -3.295  -2.358  -0.314  1.00  0.00    -0.291 N 
ATOM     15  H5  UNL     1      -2.893  -3.295  -0.330  1.00  0.00     0.172 HD
HETATM   16  C4  UNL     1      -2.403  -1.657  -0.963  1.00  0.00     0.322 C 
HETATM   17  O2  UNL     1      -2.323  -1.713  -2.251  1.00  0.00    -0.247 OA
HETATM   18  N6  UNL     1      -1.464  -0.794  -0.294  1.00  0.00    -0.333 N 
ATOM     19  H6  UNL     1      -1.483  -0.694   0.721  1.00  0.00     0.164 HD
ENDROOT
BRANCH  18  20
HETATM   20  C5  UNL     1      -0.510  -0.084  -1.072  1.00  0.00     0.243 C 
BRANCH  20  21
HETATM   21  C6  UNL     1       0.358   0.805  -0.172  1.00  0.00     0.309 C 
HETATM   22  O3  UNL     1       0.096   0.820   1.039  1.00  0.00    -0.255 OA
HETATM   23  N7  UNL     1       1.346   1.497  -0.821  1.00  0.00    -0.377 NA
BRANCH  23  24
HETATM   24  C7  UNL     1       2.308   2.171  -1.454  1.00  0.00     0.260 C 
BRANCH  24  25
HETATM   25  C8  UNL     1       3.674   1.803  -0.915  1.00  0.00     0.270 C 
HETATM   26  O4  UNL     1       3.727   0.960  -0.038  1.00  0.00    -0.266 OA
HETATM   27  N8  UNL     1       4.801   2.454  -1.453  1.00  0.00    -0.347 N 
ATOM     28  H8  UNL     1       4.743   3.131  -2.214  1.00  0.00     0.163 HD
BRANCH  27  29
HETATM   29  C9  UNL     1       6.084   2.064  -0.810  1.00  0.00     0.222 C 
BRANCH  29  30
HETATM   30  C10 UNL     1       5.939   2.558   0.667  1.00  0.00     0.248 C 
HETATM   31  N9  UNL     1       6.977   2.192   1.532  1.00  0.00    -0.061 NA
HETATM   32  O5  UNL     1       4.941   3.204   0.898  1.00  0.00    -0.275 OA
ENDBRANCH  29  30
ENDBRANCH  27  29
ENDBRANCH  24  25
ENDBRANCH  23  24
ENDBRANCH  20  21
ENDBRANCH  18  20
TORSDOF 6
