REMARK  9 active torsions:
REMARK  status: ('A' for Active; 'I' for Inactive)
REMARK    1  A    between atoms: C4_7  and  N3_8 
REMARK    2  A    between atoms: N3_8  and  C5_10 
REMARK    3  A    between atoms: C5_10  and  C6_11 
REMARK    4  A    between atoms: C6_11  and  C7_12 
REMARK    5  A    between atoms: C7_12  and  N4_13 
REMARK       I    between atoms: C8_15  and  N6_17 
REMARK    6  A    between atoms: N6_17  and  C9_19 
REMARK    7  A    between atoms: C9_19  and  C10_20 
REMARK    8  A    between atoms: C13_24  and  O1_25 
REMARK    9  A    between atoms: C14_29  and  N9_30 
ROOT
HETATM    1  N4  UNL     1       0.091  -0.043  -0.595  1.00  0.00    -0.365 N 
ATOM      2  H4  UNL     1       0.071   0.510   0.262  1.00  0.00     0.162 HD
HETATM    3  C8  UNL     1      -1.007  -0.485  -1.079  1.00  0.00     0.184 C 
HETATM    4  N5  UNL     1      -1.052  -1.260  -2.267  1.00  0.00    -0.064 NA
HETATM    5  N6  UNL     1      -2.282  -0.225  -0.449  1.00  0.00    -0.360 N 
ATOM      6  H6  UNL     1      -2.463  -0.447   0.530  1.00  0.00     0.162 HD
ENDROOT
BRANCH   1   7
HETATM    7  C7  UNL     1       1.352  -0.307  -1.231  1.00  0.00     0.123 C 
BRANCH   7   8
HETATM    8  C6  UNL     1       2.039  -1.531  -0.638  1.00  0.00     0.039 C 
BRANCH   8   9
HETATM    9  C5  UNL     1       2.303  -1.333   0.841  1.00  0.00     0.123 C 
BRANCH   9  10
HETATM   10  N3  UNL     1       3.150  -0.201   1.052  1.00  0.00    -0.375 N 
ATOM     11  H3  UNL     1       2.730   0.695   1.300  1.00  0.00     0.161 HD
BRANCH  10  12
HETATM   12  C4  UNL     1       4.426  -0.283   0.937  1.00  0.00     0.116 A 
HETATM   13  N2  UNL     1       5.065  -1.405   0.617  1.00  0.00    -0.350 N 
HETATM   14  C3  UNL     1       6.424  -1.401   0.516  1.00  0.00     0.107 A 
ATOM     15  H2  UNL     1       4.541  -2.263   0.448  1.00  0.00     0.166 HD
HETATM   16  C2  UNL     1       7.120  -0.233   0.747  1.00  0.00     0.107 A 
HETATM   17  N1  UNL     1       6.470   0.906   1.072  1.00  0.00    -0.366 N 
HETATM   18  C1  UNL     1       7.174   2.149   1.321  1.00  0.00     0.155 C 
HETATM   19  C15 UNL     1       5.139   0.904   1.172  1.00  0.00     0.138 A 
ENDBRANCH  10  12
ENDBRANCH   9  10
ENDBRANCH   8   9
ENDBRANCH   7   8
ENDBRANCH   1   7
BRANCH   5  20
HETATM   20  C9  UNL     1      -3.272   0.367  -1.298  1.00  0.00     0.166 C 
BRANCH  20  21
HETATM   21  C10 UNL     1      -4.572   0.643  -0.696  1.00  0.00     0.019 A 
HETATM   22  C11 UNL     1      -4.903   0.383   0.592  1.00  0.00     0.106 A 
HETATM   23  N7  UNL     1      -6.139   0.678   1.055  1.00  0.00    -0.327 N 
HETATM   24  C12 UNL     1      -6.437   0.380   2.428  1.00  0.00     0.159 C 
HETATM   25  C13 UNL     1      -7.031   1.233   0.218  1.00  0.00     0.224 A 
HETATM   26  N8  UNL     1      -6.738   1.504  -1.062  1.00  0.00    -0.308 N 
HETATM   27  C14 UNL     1      -5.529   1.227  -1.552  1.00  0.00     0.111 A 
ATOM     28  H8  UNL     1      -7.445   1.925  -1.665  1.00  0.00     0.171 HD
BRANCH  25  29
HETATM   29  O1  UNL     1      -8.301   1.542   0.672  1.00  0.00    -0.332 OA
ATOM     30  H1  UNL     1      -8.932   1.935   0.080  1.00  0.00     0.221 HD
ENDBRANCH  25  29
BRANCH  27  31
HETATM   31  N9  UNL     1      -5.246   1.488  -2.784  1.00  0.00    -0.385 N 
ATOM     32  H92 UNL     1      -4.321   1.276  -3.159  1.00  0.00     0.157 HD
ATOM     33  H91 UNL     1      -5.938   1.910  -3.403  1.00  0.00     0.157 HD
ENDBRANCH  27  31
ENDBRANCH  20  21
ENDBRANCH   5  20
TORSDOF 9
