REMARK  16 active torsions:
REMARK  status: ('A' for Active; 'I' for Inactive)
REMARK    1  A    between atoms: S1_2  and  N1_5 
REMARK       I    between atoms: N1_5  and  C2_7 
REMARK    2  A    between atoms: C2_7  and  C3_9 
REMARK    3  A    between atoms: C4_12  and  C5_13 
REMARK    4  A    between atoms: C5_13  and  N3_14 
REMARK    5  A    between atoms: N3_14  and  C6_16 
REMARK    6  A    between atoms: C6_16  and  C7_17 
REMARK    7  A    between atoms: C6_16  and  C12_28 
REMARK    8  A    between atoms: C7_17  and  N4_18 
REMARK       I    between atoms: N4_18  and  C8_20 
REMARK    9  A    between atoms: C8_20  and  C9_22 
REMARK   10  A    between atoms: C12_28  and  C13_29 
REMARK   11  A    between atoms: C12_28  and  N7_32 
REMARK   12  A    between atoms: C14_33  and  O7_34 
REMARK   13  A    between atoms: C17_38  and  O8_39 
REMARK   14  A    between atoms: C18_41  and  O9_42 
REMARK   15  A    between atoms: C19_44  and  O10_45 
REMARK   16  A    between atoms: C22_52  and  O12_53 
ROOT
HETATM    1  C5  UNL     1      -0.077  -1.070   0.668  1.00  0.00     0.151 C 
ENDROOT
BRANCH   1   2
HETATM    2  C4  UNL     1       1.385  -0.802   0.805  1.00  0.00     0.205 C 
HETATM    3  O4  UNL     1       1.435   0.637   0.967  1.00  0.00    -0.275 OA
HETATM    4  N2  UNL     1       2.629   0.945   1.459  1.00  0.00    -0.082 NA
HETATM    5  C3  UNL     1       3.600   0.909   0.354  1.00  0.00     0.246 C 
HETATM    6  C22 UNL     1       3.632  -0.426  -0.246  1.00  0.00     0.203 C 
HETATM    7  C18 UNL     1       2.275  -1.149  -0.321  1.00  0.00     0.156 C 
HETATM    8  C21 UNL     1       4.055  -0.457  -1.685  1.00  0.00     0.258 C 
HETATM    9  C19 UNL     1       2.586  -2.590  -0.512  1.00  0.00     0.176 C 
HETATM   10  C20 UNL     1       3.355  -2.858  -1.772  1.00  0.00     0.157 C 
HETATM   11  N8  UNL     1       4.158  -1.751  -2.250  1.00  0.00    -0.356 N 
ATOM     12  H8  UNL     1       4.815  -1.908  -3.014  1.00  0.00     0.162 HD
HETATM   13  O11 UNL     1       4.285   0.557  -2.310  1.00  0.00    -0.270 OA
BRANCH   5  14
HETATM   14  C2  UNL     1       4.872   1.364   0.927  1.00  0.00     0.256 C 
HETATM   15  N1  UNL     1       6.126   1.486   0.329  1.00  0.00    -0.253 N 
ATOM     16  H1  UNL     1       6.245   1.216  -0.647  1.00  0.00     0.181 HD
HETATM   17  O3  UNL     1       4.843   1.717   2.177  1.00  0.00    -0.270 OA
BRANCH  15  18
HETATM   18  S1  UNL     1       7.504   2.098   1.232  1.00  0.00     0.229 S 
HETATM   19  C1  UNL     1       7.207   3.820   1.623  1.00  0.00     0.186 C 
HETATM   20  O1  UNL     1       7.604   1.275   2.476  1.00  0.00    -0.206 OA
HETATM   21  O2  UNL     1       8.761   1.962   0.438  1.00  0.00    -0.206 OA
ENDBRANCH  15  18
ENDBRANCH   5  14
BRANCH   6  22
HETATM   22  O12 UNL     1       4.553  -1.232   0.443  1.00  0.00    -0.375 OA
ATOM     23  H12 UNL     1       4.574  -2.098   0.054  1.00  0.00     0.211 HD
ENDBRANCH   6  22
BRANCH   7  24
HETATM   24  O9  UNL     1       1.729  -0.681  -1.553  1.00  0.00    -0.381 OA
ATOM     25  H9  UNL     1       2.302  -0.904  -2.277  1.00  0.00     0.211 HD
ENDBRANCH   7  24
BRANCH   9  26
HETATM   26  O10 UNL     1       3.255  -3.183   0.553  1.00  0.00    -0.391 OA
ATOM     27  H10 UNL     1       3.454  -4.104   0.431  1.00  0.00     0.210 HD
ENDBRANCH   9  26
ENDBRANCH   1   2
BRANCH   1  28
HETATM   28  N3  UNL     1      -0.706  -0.496  -0.493  1.00  0.00    -0.410 N 
ATOM     29  H3  UNL     1      -0.215  -0.371  -1.378  1.00  0.00     0.153 HD
BRANCH  28  30
HETATM   30  C6  UNL     1      -2.079  -0.112  -0.309  1.00  0.00     0.126 C 
BRANCH  30  31
HETATM   31  C7  UNL     1      -2.191   1.270  -0.928  1.00  0.00     0.149 C 
BRANCH  31  32
HETATM   32  N4  UNL     1      -3.450   1.906  -0.865  1.00  0.00    -0.357 N 
HETATM   33  C8  UNL     1      -4.078   2.268   0.378  1.00  0.00     0.248 C 
HETATM   34  O5  UNL     1      -3.449   1.985   1.423  1.00  0.00    -0.271 OA
ATOM     35  H4  UNL     1      -3.935   2.118  -1.737  1.00  0.00     0.162 HD
BRANCH  33  36
HETATM   36  C9  UNL     1      -5.418   2.956   0.400  1.00  0.00     0.278 C 
HETATM   37  C10 UNL     1      -5.281   4.436   0.146  1.00  0.00     0.070 C 
HETATM   38  C11 UNL     1      -6.090   4.592   1.392  1.00  0.00     0.236 C 
HETATM   39  N5  UNL     1      -5.772   3.236   1.759  1.00  0.00    -0.062 N 
ATOM     40  H52 UNL     1      -6.465   2.659   2.236  1.00  0.00     0.278 HD
ATOM     41  H51 UNL     1      -5.106   3.052   2.509  1.00  0.00     0.278 HD
ENDBRANCH  33  36
ENDBRANCH  31  32
ENDBRANCH  30  31
BRANCH  30  42
HETATM   42  C12 UNL     1      -3.144  -0.983  -0.832  1.00  0.00     0.207 C 
BRANCH  42  43
HETATM   43  C13 UNL     1      -3.164  -1.235  -2.271  1.00  0.00     0.256 C 
HETATM   44  N6  UNL     1      -4.333  -1.873  -2.830  1.00  0.00    -0.060 NA
HETATM   45  O6  UNL     1      -2.281  -0.966  -3.111  1.00  0.00    -0.274 OA
ENDBRANCH  42  43
BRANCH  42  46
HETATM   46  N7  UNL     1      -3.329  -2.194  -0.023  1.00  0.00    -0.293 N 
HETATM   47  C14 UNL     1      -3.848  -2.306   1.214  1.00  0.00     0.144 A 
HETATM   48  C15 UNL     1      -3.844  -3.600   1.631  1.00  0.00     0.060 A 
HETATM   49  C16 UNL     1      -3.304  -4.336   0.620  1.00  0.00     0.060 A 
HETATM   50  C17 UNL     1      -2.990  -3.429  -0.401  1.00  0.00     0.144 A 
BRANCH  47  51
HETATM   51  O7  UNL     1      -4.321  -1.240   1.960  1.00  0.00    -0.346 OA
ATOM     52  H7  UNL     1      -4.687  -1.319   2.833  1.00  0.00     0.219 HD
ENDBRANCH  47  51
BRANCH  50  53
HETATM   53  O8  UNL     1      -2.416  -3.888  -1.575  1.00  0.00    -0.346 OA
ATOM     54  H8  UNL     1      -2.175  -4.767  -1.844  1.00  0.00     0.219 HD
ENDBRANCH  50  53
ENDBRANCH  42  46
ENDBRANCH  30  42
ENDBRANCH  28  30
ENDBRANCH   1  28
TORSDOF 16
