REMARK  18 active torsions:
REMARK  status: ('A' for Active; 'I' for Inactive)
REMARK    1  A    between atoms: N1_1  and  C1_4 
REMARK    2  A    between atoms: C2_10  and  C3_11 
REMARK    3  A    between atoms: C3_11  and  C4_12 
REMARK    4  A    between atoms: C3_11  and  N5_28 
REMARK    5  A    between atoms: C4_12  and  C5_13 
REMARK    6  A    between atoms: C5_13  and  N4_14 
REMARK    7  A    between atoms: C5_13  and  C6_18 
REMARK    8  A    between atoms: C6_18  and  O3_20 
REMARK    9  A    between atoms: O3_20  and  C7_21 
REMARK   10  A    between atoms: C7_21  and  C8_22 
REMARK   11  A    between atoms: C8_22  and  O4_23 
REMARK   12  A    between atoms: C8_22  and  C9_25 
REMARK   13  A    between atoms: C9_25  and  O5_26 
REMARK       I    between atoms: N5_28  and  C10_30 
REMARK   14  A    between atoms: C10_30  and  C11_32 
REMARK   15  A    between atoms: C11_32  and  C12_33 
REMARK   16  A    between atoms: N6_35  and  C14_36 
REMARK   17  A    between atoms: C14_36  and  C15_37 
REMARK   18  A    between atoms: C18_43  and  N8_44 
ROOT
HETATM    1  C3  UNL     1      -1.081   0.015  -0.942  1.00  0.00     0.047 C 
ENDROOT
BRANCH   1   2
HETATM    2  C2  UNL     1      -1.042  -0.752  -2.000  1.00  0.00     0.124 C 
HETATM    3  C1  UNL     1      -0.036  -1.543  -2.658  1.00  0.00     0.152 C 
HETATM    4  N2  UNL     1      -0.714  -2.173  -3.789  1.00  0.00    -0.224 N 
HETATM    5  O1  UNL     1      -1.780  -1.409  -4.081  1.00  0.00    -0.155 OA
ATOM      6  H2  UNL     1      -0.432  -3.029  -4.266  1.00  0.00     0.198 HD
HETATM    7  N3  UNL     1      -2.220  -1.028  -2.852  1.00  0.00    -0.236 N 
ATOM      8  H3  UNL     1      -3.196  -0.946  -2.566  1.00  0.00     0.197 HD
BRANCH   3   9
HETATM    9  N1  UNL     1       1.193  -1.709  -2.397  1.00  0.00    -0.382 N 
ATOM     10  H12 UNL     1       1.906  -2.270  -2.863  1.00  0.00     0.157 HD
ATOM     11  H11 UNL     1       1.666  -1.269  -1.608  1.00  0.00     0.157 HD
ENDBRANCH   3   9
ENDBRANCH   1   2
BRANCH   1  12
HETATM   12  C4  UNL     1      -2.522   0.643  -0.721  1.00  0.00     0.103 C 
BRANCH  12  13
HETATM   13  C5  UNL     1      -3.141  -0.159   0.353  1.00  0.00     0.287 C 
BRANCH  13  14
HETATM   14  N4  UNL     1      -2.510  -0.207   1.620  1.00  0.00    -0.066 N 
ATOM     15  H43 UNL     1      -1.545  -0.512   1.496  1.00  0.00     0.275 HD
ATOM     16  H42 UNL     1      -2.375   0.746   1.957  1.00  0.00     0.275 HD
ATOM     17  H41 UNL     1      -2.938  -0.761   2.362  1.00  0.00     0.275 HD
ENDBRANCH  13  14
BRANCH  13  18
HETATM   18  C6  UNL     1      -4.567   0.326   0.561  1.00  0.00     0.290 C 
HETATM   19  O2  UNL     1      -4.934   0.586   1.712  1.00  0.00    -0.263 OA
BRANCH  18  20
HETATM   20  O3  UNL     1      -5.377   0.450  -0.543  1.00  0.00    -0.317 OA
BRANCH  20  21
HETATM   21  C7  UNL     1      -6.701   0.880  -0.447  1.00  0.00     0.212 C 
BRANCH  21  22
HETATM   22  C8  UNL     1      -7.511  -0.095   0.359  1.00  0.00     0.166 C 
BRANCH  22  23
HETATM   23  O4  UNL     1      -7.450  -1.337  -0.276  1.00  0.00    -0.391 OA
ATOM     24  H4  UNL     1      -7.962  -1.954   0.234  1.00  0.00     0.210 HD
ENDBRANCH  22  23
BRANCH  22  25
HETATM   25  C9  UNL     1      -8.964   0.372   0.334  1.00  0.00     0.198 C 
BRANCH  25  26
HETATM   26  O5  UNL     1      -9.765  -0.532   0.994  1.00  0.00    -0.398 OA
ATOM     27  H5  UNL     1     -10.669  -0.241   0.978  1.00  0.00     0.209 HD
ENDBRANCH  25  26
ENDBRANCH  22  25
ENDBRANCH  21  22
ENDBRANCH  20  21
ENDBRANCH  18  20
ENDBRANCH  13  18
ENDBRANCH  12  13
ENDBRANCH   1  12
BRANCH   1  28
HETATM   28  N5  UNL     1      -0.238   0.432   0.061  1.00  0.00    -0.328 N 
HETATM   29  C10 UNL     1       1.041   0.293   0.524  1.00  0.00     0.227 C 
HETATM   30  O6  UNL     1       1.975  -0.376   0.086  1.00  0.00    -0.273 OA
ATOM     31  H5  UNL     1      -0.745   1.069   0.676  1.00  0.00     0.168 HD
BRANCH  29  32
HETATM   32  C11 UNL     1       1.418   1.092   1.811  1.00  0.00     0.162 C 
BRANCH  32  33
HETATM   33  C12 UNL     1       2.817   0.805   2.134  1.00  0.00     0.049 A 
HETATM   34  C13 UNL     1       3.912   1.499   1.689  1.00  0.00     0.135 A 
HETATM   35  N6  UNL     1       5.004   0.888   2.234  1.00  0.00    -0.279 N 
HETATM   36  N10 UNL     1       4.594  -0.133   2.978  1.00  0.00    -0.020 NA
HETATM   37  N11 UNL     1       3.274  -0.180   2.916  1.00  0.00    -0.286 N 
ATOM     38  H11 UNL     1       2.690  -0.866   3.394  1.00  0.00     0.184 HD
BRANCH  35  39
HETATM   39  C14 UNL     1       6.374   1.327   2.004  1.00  0.00     0.203 C 
BRANCH  39  40
HETATM   40  C15 UNL     1       6.952   0.644   0.812  1.00  0.00     0.051 A 
HETATM   41  C16 UNL     1       6.820   1.217  -0.453  1.00  0.00     0.102 A 
HETATM   42  C17 UNL     1       7.366   0.553  -1.510  1.00  0.00     0.261 A 
HETATM   43  O7  UNL     1       7.258   1.051  -2.657  1.00  0.00    -0.268 OA
HETATM   44  N7  UNL     1       8.013  -0.615  -1.363  1.00  0.00    -0.156 N 
HETATM   45  C18 UNL     1       8.130  -1.151  -0.137  1.00  0.00     0.679 A 
ATOM     46  H7  UNL     1       8.411  -1.090  -2.173  1.00  0.00     0.187 HD
HETATM   47  N9  UNL     1       7.604  -0.528   0.942  1.00  0.00    -0.194 N 
ATOM     48  H9  UNL     1       7.702  -0.950   1.865  1.00  0.00     0.184 HD
BRANCH  45  49
HETATM   49  N8  UNL     1       8.749  -2.283   0.056  1.00  0.00    -0.234 N 
ATOM     50  H82 UNL     1       9.146  -2.753  -0.758  1.00  0.00     0.174 HD
ATOM     51  H81 UNL     1       8.838  -2.690   0.987  1.00  0.00     0.174 HD
ENDBRANCH  45  49
ENDBRANCH  39  40
ENDBRANCH  35  39
ENDBRANCH  32  33
ENDBRANCH  29  32
ENDBRANCH   1  28
TORSDOF 18
