REMARK  21 active torsions:
REMARK  status: ('A' for Active; 'I' for Inactive)
REMARK    1  A    between atoms: O1_2  and  C2_3 
REMARK    2  A    between atoms: C5_6  and  C6_7 
REMARK    3  A    between atoms: C6_7  and  C8_9 
REMARK       I    between atoms: C8_9  and  N1_11 
REMARK    4  A    between atoms: N1_11  and  C9_13 
REMARK    5  A    between atoms: C10_16  and  N3_17 
REMARK    6  A    between atoms: C11_22  and  N5_23 
REMARK    7  A    between atoms: N5_23  and  N6_25 
REMARK    8  A    between atoms: C12_32  and  O3_33 
REMARK    9  A    between atoms: O3_33  and  C13_34 
REMARK   10  A    between atoms: C13_34  and  C14_35 
REMARK   11  A    between atoms: C14_35  and  C15_36 
REMARK   12  A    between atoms: C14_35  and  O5_39 
REMARK   13  A    between atoms: C15_36  and  O4_37 
REMARK   14  A    between atoms: O5_39  and  C16_40 
REMARK   15  A    between atoms: C16_40  and  O6_41 
REMARK   16  A    between atoms: C16_40  and  C17_43 
REMARK   17  A    between atoms: C17_43  and  N9_44 
REMARK   18  A    between atoms: C17_43  and  C18_48 
REMARK   19  A    between atoms: C18_48  and  O7_49 
REMARK   20  A    between atoms: C18_48  and  C19_51 
REMARK   21  A    between atoms: C19_51  and  O8_52 
ROOT
HETATM    1  C2  UNL     1       0.658  -3.341  -0.065  1.00  0.00     0.119 A 
HETATM    2  C3  UNL     1       1.766  -3.794   0.609  1.00  0.00     0.043 A 
HETATM    3  C4  UNL     1       2.412  -2.960   1.497  1.00  0.00     0.029 A 
HETATM    4  C5  UNL     1       1.908  -1.691   1.670  1.00  0.00     0.024 A 
HETATM    5  N8  UNL     1       0.826  -1.277   0.999  1.00  0.00    -0.337 N 
ATOM      6  H8  UNL     1       0.483  -0.329   1.155  1.00  0.00     0.168 HD
HETATM    7  C12 UNL     1       0.177  -2.067   0.128  1.00  0.00     0.176 A 
ENDROOT
BRANCH   4   8
HETATM    8  C6  UNL     1       2.550  -0.727   2.608  1.00  0.00     0.124 C 
HETATM    9  C7  UNL     1       1.586  -0.338   3.710  1.00  0.00     0.026 C 
BRANCH   8  10
HETATM   10  C8  UNL     1       2.873   0.495   1.826  1.00  0.00     0.245 C 
HETATM   11  O2  UNL     1       2.398   1.604   2.149  1.00  0.00    -0.272 OA
HETATM   12  N1  UNL     1       3.723   0.407   0.710  1.00  0.00    -0.158 N 
ATOM     13  H1  UNL     1       3.389  -0.033  -0.148  1.00  0.00     0.187 HD
BRANCH  12  14
HETATM   14  C9  UNL     1       4.913   0.875   0.763  1.00  0.00     0.714 A 
HETATM   15  N2  UNL     1       5.364   1.456   1.883  1.00  0.00    -0.021 N 
HETATM   16  C10 UNL     1       6.614   1.930   1.893  1.00  0.00     0.705 A 
ATOM     17  H2  UNL     1       4.768   1.535   2.707  1.00  0.00     0.203 HD
HETATM   18  N4  UNL     1       7.426   1.837   0.808  1.00  0.00    -0.020 N 
HETATM   19  C11 UNL     1       6.984   1.257  -0.319  1.00  0.00     0.725 A 
ATOM     20  H4  UNL     1       8.375   2.209   0.850  1.00  0.00     0.203 HD
HETATM   21  N7  UNL     1       5.737   0.789  -0.316  1.00  0.00    -0.020 N 
ATOM     22  H7  UNL     1       5.383   0.345  -1.163  1.00  0.00     0.203 HD
BRANCH  16  23
HETATM   23  N3  UNL     1       7.096   2.499   2.951  1.00  0.00    -0.234 N 
ATOM     24  H32 UNL     1       6.486   2.569   3.766  1.00  0.00     0.174 HD
ATOM     25  H31 UNL     1       8.050   2.861   2.959  1.00  0.00     0.174 HD
ENDBRANCH  16  23
BRANCH  19  26
HETATM   26  N5  UNL     1       7.724   1.151  -1.367  1.00  0.00    -0.138 N 
ATOM     27  H5  UNL     1       8.677   1.515  -1.353  1.00  0.00     0.205 HD
BRANCH  26  28
HETATM   28  N6  UNL     1       7.231   0.541  -2.522  1.00  0.00    -0.331 N 
ATOM     29  H62 UNL     1       6.276   0.182  -2.519  1.00  0.00     0.177 HD
ATOM     30  H61 UNL     1       7.817   0.457  -3.352  1.00  0.00     0.177 HD
ENDBRANCH  26  28
ENDBRANCH  19  26
ENDBRANCH  12  14
ENDBRANCH   8  10
ENDBRANCH   4   8
BRANCH   7  31
HETATM   31  O3  UNL     1      -0.934  -1.557  -0.523  1.00  0.00    -0.331 OA
BRANCH  31  32
HETATM   32  C13 UNL     1      -1.375  -0.237  -0.274  1.00  0.00     0.211 C 
BRANCH  32  33
HETATM   33  C14 UNL     1      -2.591  -0.001  -1.143  1.00  0.00     0.172 C 
BRANCH  33  34
HETATM   34  C15 UNL     1      -2.217  -0.366  -2.551  1.00  0.00     0.198 C 
BRANCH  34  35
HETATM   35  O4  UNL     1      -3.374  -0.303  -3.321  1.00  0.00    -0.398 OA
ATOM     36  H4  UNL     1      -3.137  -0.534  -4.212  1.00  0.00     0.209 HD
ENDBRANCH  34  35
ENDBRANCH  33  34
BRANCH  33  37
HETATM   37  O5  UNL     1      -3.127   1.250  -0.994  1.00  0.00    -0.350 OA
BRANCH  37  38
HETATM   38  C16 UNL     1      -4.422   1.287  -0.518  1.00  0.00     0.290 C 
BRANCH  38  39
HETATM   39  O6  UNL     1      -4.332   1.888   0.766  1.00  0.00    -0.369 OA
ATOM     40  H6  UNL     1      -5.223   1.913   1.094  1.00  0.00     0.212 HD
ENDBRANCH  38  39
BRANCH  38  41
HETATM   41  C17 UNL     1      -5.219   2.192  -1.414  1.00  0.00     0.268 C 
BRANCH  41  42
HETATM   42  N9  UNL     1      -4.623   3.528  -1.379  1.00  0.00    -0.068 N 
ATOM     43  H93 UNL     1      -4.538   3.893  -0.430  1.00  0.00     0.275 HD
ATOM     44  H92 UNL     1      -3.631   3.519  -1.615  1.00  0.00     0.275 HD
ATOM     45  H91 UNL     1      -5.164   4.142  -1.987  1.00  0.00     0.275 HD
ENDBRANCH  41  42
BRANCH  41  46
HETATM   46  C18 UNL     1      -6.655   2.318  -1.045  1.00  0.00     0.177 C 
BRANCH  46  47
HETATM   47  O7  UNL     1      -6.868   2.845   0.215  1.00  0.00    -0.391 OA
ATOM     48  H7  UNL     1      -7.785   2.925   0.451  1.00  0.00     0.210 HD
ENDBRANCH  46  47
BRANCH  46  49
HETATM   49  C19 UNL     1      -7.417   1.017  -1.186  1.00  0.00     0.198 C 
BRANCH  49  50
HETATM   50  O8  UNL     1      -7.215   0.468  -2.452  1.00  0.00    -0.398 OA
ATOM     51  H8  UNL     1      -7.693  -0.348  -2.540  1.00  0.00     0.209 HD
ENDBRANCH  49  50
ENDBRANCH  46  49
ENDBRANCH  41  46
ENDBRANCH  38  41
ENDBRANCH  37  38
ENDBRANCH  33  37
ENDBRANCH  32  33
ENDBRANCH  31  32
ENDBRANCH   7  31
BRANCH   1  52
HETATM   52  O1  UNL     1       0.017  -4.186  -0.955  1.00  0.00    -0.352 OA
HETATM   53  C1  UNL     1       0.437  -5.497  -1.213  1.00  0.00     0.210 C 
ENDBRANCH   1  52
TORSDOF 21
