REMARK  12 active torsions:
REMARK  status: ('A' for Active; 'I' for Inactive)
REMARK    1  A    between atoms: C2_2  and  C4_4 
REMARK    2  A    between atoms: C4_4  and  C5_5 
REMARK    3  A    between atoms: C5_5  and  N1_6 
REMARK    4  A    between atoms: C5_5  and  C17_28 
REMARK       I    between atoms: N1_6  and  C6_8 
REMARK    5  A    between atoms: C6_8  and  C7_10 
REMARK    6  A    between atoms: C7_10  and  C8_11 
REMARK    7  A    between atoms: C7_10  and  N3_23 
REMARK    8  A    between atoms: C8_11  and  C9_12 
REMARK    9  A    between atoms: C9_12  and  C10_13 
REMARK   10  A    between atoms: C13_16  and  C14_17 
REMARK       I    between atoms: C14_17  and  N2_19 
REMARK       I    between atoms: N3_23  and  C16_25 
REMARK   11  A    between atoms: C17_28  and  O4_30 
REMARK   12  A    between atoms: C17_28  and  C19_32 
ROOT
HETATM    1  C7  UNL     1       0.917  -0.622  -1.277  1.00  0.00     0.178 C 
ENDROOT
BRANCH   1   2
HETATM    2  C6  UNL     1      -0.568  -0.754  -1.191  1.00  0.00     0.240 C 
HETATM    3  N1  UNL     1      -1.382   0.364  -1.143  1.00  0.00    -0.351 N 
ATOM      4  H1  UNL     1      -0.927   1.277  -1.174  1.00  0.00     0.163 HD
HETATM    5  O1  UNL     1      -0.979  -1.958  -1.173  1.00  0.00    -0.271 OA
BRANCH   3   6
HETATM    6  C5  UNL     1      -2.885   0.342  -1.049  1.00  0.00     0.128 C 
BRANCH   6   7
HETATM    7  C4  UNL     1      -3.258   0.957   0.203  1.00  0.00     0.032 C 
BRANCH   7   8
HETATM    8  C2  UNL     1      -4.605   1.135   0.730  1.00  0.00    -0.021 C 
HETATM    9  C1  UNL     1      -4.530   1.826   2.146  1.00  0.00     0.009 C 
HETATM   10  C3  UNL     1      -5.400  -0.115   0.986  1.00  0.00     0.009 C 
ENDBRANCH   7   8
ENDBRANCH   6   7
BRANCH   6  11
HETATM   11  C17 UNL     1      -3.339   0.702  -2.383  1.00  0.00     0.172 C 
HETATM   12  C18 UNL     1      -2.550  -0.162  -3.421  1.00  0.00     0.058 C 
BRANCH  11  13
HETATM   13  O4  UNL     1      -2.867   2.005  -2.731  1.00  0.00    -0.379 OA
ATOM     14  H4  UNL     1      -3.164   2.240  -3.602  1.00  0.00     0.211 HD
ENDBRANCH  11  13
BRANCH  11  15
HETATM   15  C19 UNL     1      -4.721   0.658  -2.849  1.00  0.00     0.419 C 
HETATM   16  F2  UNL     1      -4.651   1.054  -4.229  1.00  0.00    -0.168 F 
HETATM   17  F3  UNL     1      -5.563   1.692  -2.394  1.00  0.00    -0.168 F 
HETATM   18  F4  UNL     1      -5.353  -0.542  -2.891  1.00  0.00    -0.168 F 
ENDBRANCH  11  15
ENDBRANCH   6  11
ENDBRANCH   3   6
ENDBRANCH   1   2
BRANCH   1  19
HETATM   19  C8  UNL     1       1.510  -0.314   0.089  1.00  0.00     0.035 C 
BRANCH  19  20
HETATM   20  C9  UNL     1       2.983  -0.128   0.010  1.00  0.00     0.012 C 
BRANCH  20  21
HETATM   21  C10 UNL     1       3.652   0.101   1.332  1.00  0.00    -0.031 A 
HETATM   22  C11 UNL     1       3.565  -0.982   2.379  1.00  0.00     0.016 C 
HETATM   23  C12 UNL     1       3.707   1.482   1.915  1.00  0.00     0.025 A 
HETATM   24  C13 UNL     1       4.921   0.917   1.278  1.00  0.00     0.087 A 
BRANCH  24  25
HETATM   25  C14 UNL     1       6.104   0.494   2.050  1.00  0.00     0.228 C 
HETATM   26  O2  UNL     1       7.254   0.738   1.540  1.00  0.00    -0.273 OA
HETATM   27  N2  UNL     1       6.113  -0.152   3.290  1.00  0.00    -0.314 N 
HETATM   28  C15 UNL     1       6.307   0.569   4.370  1.00  0.00     0.283 C 
ATOM     29  H2  UNL     1       5.972  -1.160   3.354  1.00  0.00     0.170 HD
HETATM   30  F1  UNL     1       6.335   0.057   5.598  1.00  0.00    -0.201 F 
ENDBRANCH  24  25
ENDBRANCH  20  21
ENDBRANCH  19  20
ENDBRANCH   1  19
BRANCH   1  31
HETATM   31  N3  UNL     1       1.499  -1.790  -1.898  1.00  0.00    -0.332 N 
HETATM   32  C16 UNL     1       1.895  -2.970  -1.239  1.00  0.00     0.329 C 
HETATM   33  N4  UNL     1       2.469  -4.084  -1.902  1.00  0.00    -0.040 NA
HETATM   34  O3  UNL     1       1.739  -3.069   0.026  1.00  0.00    -0.251 OA
ATOM     35  H3  UNL     1       1.636  -1.757  -2.908  1.00  0.00     0.164 HD
ENDBRANCH   1  31
TORSDOF 12
