REMARK  13 active torsions:
REMARK  status: ('A' for Active; 'I' for Inactive)
REMARK    1  A    between atoms: C2_2  and  C4_4 
REMARK    2  A    between atoms: C4_4  and  C5_5 
REMARK    3  A    between atoms: C5_5  and  N1_6 
REMARK    4  A    between atoms: C5_5  and  C25_38 
REMARK    5  A    between atoms: N1_6  and  C6_8 
REMARK    6  A    between atoms: C6_8  and  O1_9 
REMARK    7  A    between atoms: C7_11  and  N2_12 
REMARK    8  A    between atoms: C7_11  and  C21_34 
REMARK       I    between atoms: N2_12  and  C8_14 
REMARK    9  A    between atoms: C8_14  and  O3_16 
REMARK   10  A    between atoms: O3_16  and  C9_17 
REMARK   11  A    between atoms: C9_17  and  C11_19 
REMARK       I    between atoms: C11_19  and  N3_21 
REMARK   12  A    between atoms: N3_21  and  C12_23 
REMARK       I    between atoms: N4_26  and  C15_27 
REMARK   13  A    between atoms: C15_27  and  C16_29 
REMARK       I    between atoms: C25_38  and  N5_40 
ROOT
HETATM    1  C6  UNL     1      -2.423   0.482  -0.861  1.00  0.00     0.160 C 
HETATM    2  C7  UNL     1      -1.162   0.673  -1.453  1.00  0.00     0.072 C 
ENDROOT
BRANCH   2   3
HETATM    3  N2  UNL     1       0.066   0.061  -1.112  1.00  0.00    -0.301 N 
HETATM    4  C8  UNL     1       1.312   0.763  -0.952  1.00  0.00     0.365 C 
HETATM    5  O2  UNL     1       1.549   1.922  -0.940  1.00  0.00    -0.238 OA
ATOM      6  H2  UNL     1       0.069  -0.949  -0.969  1.00  0.00     0.171 HD
BRANCH   4   7
HETATM    7  O3  UNL     1       2.432  -0.163  -0.823  1.00  0.00    -0.289 OA
BRANCH   7   8
HETATM    8  C9  UNL     1       3.695   0.358  -0.760  1.00  0.00     0.221 C 
HETATM    9  C10 UNL     1       3.990   0.490  -2.387  1.00  0.00     0.050 C 
BRANCH   8  10
HETATM   10  C11 UNL     1       4.844  -0.446  -0.396  1.00  0.00     0.251 C 
HETATM   11  O4  UNL     1       4.751  -1.681  -0.225  1.00  0.00    -0.270 OA
HETATM   12  N3  UNL     1       6.071   0.217  -0.249  1.00  0.00    -0.332 N 
ATOM     13  H3  UNL     1       5.978   1.228  -0.349  1.00  0.00     0.168 HD
BRANCH  12  14
HETATM   14  C12 UNL     1       7.377  -0.168  -0.001  1.00  0.00    -0.007 C 
HETATM   15  C13 UNL     1       7.777  -1.600   0.262  1.00  0.00     0.072 C 
HETATM   16  C14 UNL     1       9.268  -1.701  -0.122  1.00  0.00     0.131 C 
HETATM   17  N4  UNL     1      10.051  -0.633   0.480  1.00  0.00    -0.351 N 
HETATM   18  C15 UNL     1      11.354  -0.934   0.924  1.00  0.00     0.224 C 
HETATM   19  C19 UNL     1       9.574   0.725   0.524  1.00  0.00     0.131 C 
HETATM   20  O5  UNL     1      11.787  -2.123   0.666  1.00  0.00    -0.273 OA
HETATM   21  C20 UNL     1       8.126   0.751   0.939  1.00  0.00     0.072 C 
BRANCH  18  22
HETATM   22  C16 UNL     1      12.307  -0.088   1.648  1.00  0.00     0.078 A 
HETATM   23  C17 UNL     1      12.447  -0.535   3.135  1.00  0.00     0.015 A 
HETATM   24  C18 UNL     1      12.049   0.850   2.724  1.00  0.00     0.015 A 
ENDBRANCH  18  22
ENDBRANCH  12  14
ENDBRANCH   8  10
ENDBRANCH   7   8
ENDBRANCH   4   7
ENDBRANCH   2   3
BRANCH   2  25
HETATM   25  C21 UNL     1      -1.277   0.691  -3.022  1.00  0.00    -0.004 C 
HETATM   26  C22 UNL     1      -1.759  -0.634  -3.516  1.00  0.00     0.021 C 
HETATM   27  C23 UNL     1      -2.393   1.691  -3.390  1.00  0.00     0.021 C 
HETATM   28  C24 UNL     1      -0.037   1.177  -3.666  1.00  0.00     0.021 C 
ENDBRANCH   2  25
BRANCH   1  29
HETATM   29  N1  UNL     1      -3.210  -0.660  -0.517  1.00  0.00    -0.356 N 
ATOM     30  H1  UNL     1      -2.813  -1.599  -0.547  1.00  0.00     0.162 HD
BRANCH  29  31
HETATM   31  C5  UNL     1      -4.620  -0.441  -0.116  1.00  0.00     0.176 C 
BRANCH  31  32
HETATM   32  C4  UNL     1      -5.338  -1.204  -1.308  1.00  0.00     0.038 C 
BRANCH  32  33
HETATM   33  C2  UNL     1      -6.797  -1.165  -1.291  1.00  0.00    -0.020 C 
HETATM   34  C1  UNL     1      -7.368   0.228  -1.412  1.00  0.00     0.009 C 
HETATM   35  C3  UNL     1      -7.362  -1.966  -2.465  1.00  0.00     0.009 C 
ENDBRANCH  32  33
ENDBRANCH  31  32
BRANCH  31  36
HETATM   36  C25 UNL     1      -5.065  -1.129   1.072  1.00  0.00     0.242 C 
HETATM   37  O6  UNL     1      -4.643  -2.279   1.341  1.00  0.00    -0.271 OA
HETATM   38  N5  UNL     1      -6.009  -0.582   1.985  1.00  0.00    -0.350 N 
HETATM   39  C26 UNL     1      -6.729  -1.322   3.011  1.00  0.00     0.131 C 
HETATM   40  C29 UNL     1      -6.450   0.789   2.234  1.00  0.00     0.131 C 
HETATM   41  C27 UNL     1      -8.155  -0.842   2.657  1.00  0.00     0.018 A 
HETATM   42  C28 UNL     1      -7.923   0.673   2.294  1.00  0.00     0.018 A 
HETATM   43  C30 UNL     1      -8.792   0.258   3.379  1.00  0.00    -0.036 A 
HETATM   44  C31 UNL     1      -8.491   0.347   4.848  1.00  0.00     0.015 C 
HETATM   45  C32 UNL     1     -10.296   0.401   3.078  1.00  0.00     0.015 C 
ENDBRANCH  31  36
ENDBRANCH  29  31
ENDBRANCH   1  29
BRANCH   1  46
HETATM   46  O1  UNL     1      -3.069   1.610  -0.539  1.00  0.00    -0.345 OA
ATOM     47  H1  UNL     1      -2.546   2.369  -0.768  1.00  0.00     0.219 HD
ENDBRANCH   1  46
TORSDOF 13
