REMARK  20 active torsions:
REMARK  status: ('A' for Active; 'I' for Inactive)
REMARK    1  A    between atoms: N1_1  and  C1_4 
REMARK    2  A    between atoms: C1_4  and  N2_5 
REMARK    3  A    between atoms: N2_5  and  C2_7 
REMARK    4  A    between atoms: C3_10  and  N4_11 
REMARK    5  A    between atoms: N4_11  and  O1_12 
REMARK    6  A    between atoms: N4_11  and  C4_17 
REMARK    7  A    between atoms: O1_12  and  S1_13 
REMARK    8  A    between atoms: C4_17  and  O5_18 
REMARK    9  A    between atoms: C4_17  and  N5_20 
REMARK   10  A    between atoms: N5_20  and  S2_22 
REMARK   11  A    between atoms: S2_22  and  C5_25 
REMARK   12  A    between atoms: C5_25  and  C6_26 
REMARK   13  A    between atoms: C6_26  and  N6_27 
REMARK   14  A    between atoms: C6_26  and  C7_31 
REMARK   15  A    between atoms: N6_27  and  O8_29 
REMARK   16  A    between atoms: C8_35  and  N7_36 
REMARK   17  A    between atoms: C11_41  and  N9_42 
REMARK   18  A    between atoms: C12_47  and  N11_48 
REMARK   19  A    between atoms: N13_54  and  C14_55 
REMARK   20  A    between atoms: N14_56  and  O12_58 
ROOT
HETATM    1  C2  UNL     1      -1.697  -2.280   0.849  1.00  0.00     0.696 C 
HETATM    2  N3  UNL     1      -0.444  -2.332   0.548  1.00  0.00    -0.178 N 
ATOM      3  H3  UNL     1       0.049  -3.221   0.631  1.00  0.00     0.182 HD
HETATM    4  C3  UNL     1       0.291  -1.154   0.091  1.00  0.00     0.382 C 
HETATM    5  O11 UNL     1      -0.455  -0.154  -0.427  1.00  0.00    -0.303 OA
HETATM    6  C8  UNL     1      -1.804  -0.222  -0.457  1.00  0.00     0.367 C 
HETATM    7  N13 UNL     1      -2.294  -0.998   0.689  1.00  0.00    -0.131 N 
ENDROOT
BRANCH   4   8
HETATM    8  N4  UNL     1       1.063  -0.601   1.179  1.00  0.00    -0.151 N 
BRANCH   8   9
HETATM    9  O1  UNL     1       0.405  -0.050   2.215  1.00  0.00    -0.122 OA
BRANCH   9  10
HETATM   10  S1  UNL     1       0.515  -0.991   3.599  1.00  0.00     0.274 S 
HETATM   11  O2  UNL     1      -0.844  -1.170   4.218  1.00  0.00    -0.571 OA
HETATM   12  O3  UNL     1       1.359  -0.300   4.657  1.00  0.00    -0.571 OA
HETATM   13  O4  UNL     1       1.224  -2.463   3.205  1.00  0.00    -0.571 OA
ENDBRANCH   9  10
ENDBRANCH   8   9
BRANCH   8  14
HETATM   14  C4  UNL     1       2.457  -0.631   1.170  1.00  0.00     0.258 C 
BRANCH  14  15
HETATM   15  O5  UNL     1       3.071  -0.100   2.192  1.00  0.00    -0.330 OA
ATOM     16  H5  UNL     1       4.021  -0.120   2.186  1.00  0.00     0.221 HD
ENDBRANCH  14  15
BRANCH  14  17
HETATM   17  N5  UNL     1       3.327  -1.159   0.210  1.00  0.00    -0.248 N 
ATOM     18  H5  UNL     1       2.913  -1.586  -0.619  1.00  0.00     0.182 HD
BRANCH  17  19
HETATM   19  S2  UNL     1       5.043  -1.141   0.324  1.00  0.00     0.235 S 
HETATM   20  O6  UNL     1       5.523  -0.552   1.628  1.00  0.00    -0.205 OA
HETATM   21  O7  UNL     1       5.508  -2.588   0.244  1.00  0.00    -0.205 OA
BRANCH  19  22
HETATM   22  C5  UNL     1       5.828  -0.264  -0.982  1.00  0.00     0.201 C 
BRANCH  22  23
HETATM   23  C6  UNL     1       5.426   1.198  -1.038  1.00  0.00     0.222 C 
BRANCH  23  24
HETATM   24  N6  UNL     1       4.025   1.402  -1.223  1.00  0.00    -0.289 N 
ATOM     25  H6  UNL     1       3.453   1.905  -0.544  1.00  0.00     0.188 HD
BRANCH  24  26
HETATM   26  O8  UNL     1       3.516   0.892  -2.341  1.00  0.00    -0.294 OA
ATOM     27  H8  UNL     1       2.584   1.028  -2.464  1.00  0.00     0.244 HD
ENDBRANCH  24  26
ENDBRANCH  23  24
BRANCH  23  28
HETATM   28  C7  UNL     1       6.130   1.766  -2.220  1.00  0.00     0.199 C 
HETATM   29  O9  UNL     1       5.538   2.317  -3.179  1.00  0.00    -0.646 OA
HETATM   30  O10 UNL     1       7.514   1.687  -2.275  1.00  0.00    -0.646 OA
ENDBRANCH  23  28
ENDBRANCH  22  23
ENDBRANCH  19  22
ENDBRANCH  17  19
ENDBRANCH  14  17
ENDBRANCH   8  14
ENDBRANCH   4   8
BRANCH   1  31
HETATM   31  N2  UNL     1      -2.487  -3.356   1.299  1.00  0.00    -0.140 N 
ATOM     32  H2  UNL     1      -3.477  -3.190   1.479  1.00  0.00     0.195 HD
BRANCH  31  33
HETATM   33  C1  UNL     1      -2.025  -4.524   1.492  1.00  0.00     0.059 C 
BRANCH  33  34
HETATM   34  N1  UNL     1      -1.353  -5.606   1.452  1.00  0.00    -0.351 N 
ATOM     35  H12 UNL     1      -0.736  -5.258   0.718  1.00  0.00     0.167 HD
ATOM     36  H11 UNL     1      -0.982  -6.543   1.607  1.00  0.00     0.167 HD
ENDBRANCH  33  34
ENDBRANCH  31  33
ENDBRANCH   1  31
BRANCH   6  37
HETATM   37  N7  UNL     1      -2.337   1.140  -0.420  1.00  0.00    -0.281 N 
HETATM   38  C9  UNL     1      -1.768   2.217   0.140  1.00  0.00     0.189 A 
HETATM   39  N8  UNL     1      -2.589   3.274  -0.051  1.00  0.00    -0.346 N 
HETATM   40  C10 UNL     1      -3.675   2.825  -0.740  1.00  0.00     0.123 A 
ATOM     41  H8  UNL     1      -2.426   4.231   0.263  1.00  0.00     0.167 HD
HETATM   42  C11 UNL     1      -4.805   3.496  -1.185  1.00  0.00     0.145 A 
HETATM   43  C13 UNL     1      -3.517   1.469  -0.975  1.00  0.00     0.158 A 
HETATM   44  N10 UNL     1      -5.726   2.771  -1.847  1.00  0.00    -0.175 N 
HETATM   45  C12 UNL     1      -5.547   1.450  -2.062  1.00  0.00     0.679 A 
ATOM     46  H10 UNL     1      -6.571   3.226  -2.191  1.00  0.00     0.186 HD
HETATM   47  N12 UNL     1      -4.461   0.781  -1.640  1.00  0.00    -0.174 N 
ATOM     48  H12 UNL     1      -4.356  -0.218  -1.819  1.00  0.00     0.186 HD
BRANCH  42  49
HETATM   49  N9  UNL     1      -4.969   4.765  -0.978  1.00  0.00    -0.383 N 
ATOM     50  H92 UNL     1      -4.271   5.314  -0.476  1.00  0.00     0.157 HD
ATOM     51  H91 UNL     1      -5.800   5.258  -1.305  1.00  0.00     0.157 HD
ENDBRANCH  42  49
BRANCH  45  52
HETATM   52  N11 UNL     1      -6.477   0.825  -2.702  1.00  0.00    -0.234 N 
ATOM     53 2H11 UNL     1      -7.301   1.333  -3.022  1.00  0.00     0.174 HD
ATOM     54 1H11 UNL     1      -6.342  -0.173  -2.864  1.00  0.00     0.174 HD
ENDBRANCH  45  52
ENDBRANCH   6  37
BRANCH   7  55
HETATM   55  C14 UNL     1      -3.282  -0.501   1.570  1.00  0.00     0.228 C 
HETATM   56  N14 UNL     1      -4.454  -0.938   1.625  1.00  0.00    -0.264 N 
ATOM     57  H14 UNL     1      -5.039  -0.470   2.317  1.00  0.00     0.194 HD
BRANCH  56  58
HETATM   58  O12 UNL     1      -5.083  -1.907   0.944  1.00  0.00    -0.289 OA
ATOM     59  H12 UNL     1      -5.972  -2.239   0.986  1.00  0.00     0.244 HD
ENDBRANCH  56  58
ENDBRANCH   7  55
TORSDOF 20
