REMARK  6 active torsions:
REMARK  status: ('A' for Active; 'I' for Inactive)
REMARK    1  A    between atoms: S1_2  and  N1_4 
REMARK    2  A    between atoms: S1_2  and  C11_16 
REMARK    3  A    between atoms: N1_4  and  C1_6 
REMARK    4  A    between atoms: C14_19  and  C15_20 
REMARK    5  A    between atoms: C15_20  and  N2_21 
REMARK    6  A    between atoms: N2_21  and  C16_23 
ROOT
HETATM    1  C11 UNL     1      -0.109   1.189   0.028  1.00  0.00     0.079 A 
HETATM    2  C12 UNL     1       0.540   0.735   1.173  1.00  0.00     0.026 A 
HETATM    3  C13 UNL     1       1.647  -0.085   1.039  1.00  0.00     0.010 A 
HETATM    4  C14 UNL     1       2.126  -0.465  -0.218  1.00  0.00    -0.041 A 
HETATM    5  C21 UNL     1       1.483  -0.024  -1.336  1.00  0.00     0.010 A 
HETATM    6  C22 UNL     1       0.359   0.808  -1.208  1.00  0.00     0.026 A 
ENDROOT
BRANCH   1   7
HETATM    7  S1  UNL     1      -1.425   2.314   0.152  1.00  0.00     0.259 S 
HETATM    8  O1  UNL     1      -1.547   2.794   1.611  1.00  0.00    -0.201 OA
HETATM    9  O2  UNL     1      -0.959   3.596  -0.557  1.00  0.00    -0.201 OA
BRANCH   7  10
HETATM   10  N1  UNL     1      -2.883   1.853  -0.475  1.00  0.00    -0.305 N 
ATOM     11  H1  UNL     1      -3.270   2.403  -1.242  1.00  0.00     0.173 HD
BRANCH  10  12
HETATM   12  C1  UNL     1      -3.616   0.758  -0.020  1.00  0.00     0.041 C 
HETATM   13  C2  UNL     1      -3.803   0.745   1.486  1.00  0.00     0.036 C 
HETATM   14  C3  UNL     1      -4.810  -0.304   1.854  1.00  0.00    -0.012 C 
HETATM   15  C4  UNL     1      -6.164  -0.032   1.240  1.00  0.00     0.009 C 
HETATM   16  C8  UNL     1      -4.269  -1.644   1.443  1.00  0.00     0.009 C 
HETATM   17  C5  UNL     1      -5.985  -0.098  -0.255  1.00  0.00    -0.012 C 
HETATM   18  C6  UNL     1      -5.501  -1.468  -0.658  1.00  0.00     0.009 C 
HETATM   19  C10 UNL     1      -5.012   0.940  -0.677  1.00  0.00     0.036 C 
HETATM   20  C7  UNL     1      -4.143  -1.670  -0.061  1.00  0.00    -0.012 C 
HETATM   21  C9  UNL     1      -3.146  -0.588  -0.464  1.00  0.00     0.036 C 
ENDBRANCH  10  12
ENDBRANCH   7  10
ENDBRANCH   1   7
BRANCH   4  22
HETATM   22  C15 UNL     1       3.430  -1.208  -0.259  1.00  0.00     0.153 C 
BRANCH  22  23
HETATM   23  N2  UNL     1       4.436  -0.310  -0.759  1.00  0.00    -0.413 N 
ATOM     24  H2  UNL     1       4.513  -0.123  -1.759  1.00  0.00     0.153 HD
BRANCH  23  25
HETATM   25  C16 UNL     1       5.300   0.298   0.140  1.00  0.00     0.080 C 
HETATM   26  C17 UNL     1       6.312   1.188  -0.562  1.00  0.00     0.051 C 
HETATM   27  C18 UNL     1       7.322   0.277  -1.210  1.00  0.00     0.169 C 
HETATM   28  O3  UNL     1       7.987  -0.476  -0.241  1.00  0.00    -0.391 OA
HETATM   29  C19 UNL     1       7.078  -1.381   0.312  1.00  0.00     0.169 C 
HETATM   30  C20 UNL     1       6.034  -0.612   1.077  1.00  0.00     0.051 C 
ENDBRANCH  23  25
ENDBRANCH  22  23
ENDBRANCH   4  22
TORSDOF 6
