REMARK  2 active torsions:
REMARK  status: ('A' for Active; 'I' for Inactive)
REMARK    1  A    between atoms: C1_2  and  C2_3 
REMARK    2  A    between atoms: C2_3  and  C3_4 
ROOT
HETATM    1  C3  UNL     1       0.790   0.027   0.052  1.00  0.00     0.011 C 
HETATM    2  C4  UNL     1       0.094  -1.314   0.176  1.00  0.00     0.009 C 
HETATM    3  C5  UNL     1      -1.101  -1.248  -0.784  1.00  0.00     0.001 C 
HETATM    4  C6  UNL     1      -1.665   0.144  -0.733  1.00  0.00     0.000 C 
HETATM    5  C7  UNL     1      -1.443   0.810   0.616  1.00  0.00     0.001 C 
HETATM    6  C8  UNL     1       0.030   1.072   0.821  1.00  0.00     0.009 C 
ENDROOT
BRANCH   1   7
HETATM    7  C2  UNL     1       2.212  -0.052   0.404  1.00  0.00     0.019 C 
BRANCH   7   8
HETATM    8  C1  UNL     1       3.125   0.703  -0.161  1.00  0.00     0.255 C 
HETATM    9  O1  UNL     1       3.860   1.307  -0.983  1.00  0.00    -0.303 OA
ENDBRANCH   7   8
ENDBRANCH   1   7
TORSDOF 2
