REMARK  1 active torsions:
REMARK  status: ('A' for Active; 'I' for Inactive)
REMARK    1  A    between atoms: C2_7  and  N3_8 
ROOT
HETATM    1  N1  UNL     1       2.206   1.322  -0.138  1.00  0.00    -0.386 N 
ATOM      2  H11 UNL     1       2.149   2.340  -0.098  1.00  0.00     0.157 HD
ATOM      3  H12 UNL     1       3.008   1.921  -0.334  1.00  0.00     0.157 HD
HETATM    4  C1  UNL     1       1.518   0.243   0.016  1.00  0.00     0.116 A 
HETATM    5  N2  UNL     1       1.602  -1.249  -0.042  1.00  0.00    -0.349 N 
ATOM      6  H2  UNL     1       2.147  -2.095  -0.206  1.00  0.00     0.163 HD
HETATM    7  C2  UNL     1       0.358  -0.624   0.300  1.00  0.00     0.251 A 
ENDROOT
BRANCH   7   8
HETATM    8  N3  UNL     1      -0.681  -0.768  -0.700  1.00  0.00    -0.361 N 
HETATM    9  C3  UNL     1      -1.769  -0.123  -0.561  1.00  0.00     0.187 C 
HETATM   10  N4  UNL     1      -1.973   0.722   0.543  1.00  0.00    -0.097 NA
ATOM     11  H3  UNL     1      -0.542  -1.379  -1.505  1.00  0.00     0.162 HD
ENDBRANCH   7   8
TORSDOF 1
