REMARK  5 active torsions:
REMARK  status: ('A' for Active; 'I' for Inactive)
REMARK    1  A    between atoms: C4_4  and  C5_5 
REMARK    2  A    between atoms: C5_5  and  C6_6 
REMARK    3  A    between atoms: C6_6  and  N1_7 
REMARK    4  A    between atoms: N1_7  and  C7_9 
REMARK    5  A    between atoms: C7_9  and  C8_10 
ROOT
HETATM    1  C6  UNL     1       0.036  -1.550   0.438  1.00  0.00     0.058 C 
ENDROOT
BRANCH   1   2
HETATM    2  C5  UNL     1       1.079  -1.134  -0.559  1.00  0.00     0.076 C 
BRANCH   2   3
HETATM    3  C4  UNL     1       1.685   0.227  -0.189  1.00  0.00     0.126 C 
HETATM    4  C3  UNL     1       2.715   0.639  -1.170  1.00  0.00     0.032 C 
HETATM    5  C2  UNL     1       4.129   0.595  -0.730  1.00  0.00     0.004 C 
HETATM    6  C1  UNL     1       4.216   0.903   0.772  1.00  0.00     0.026 C 
HETATM    7  C11 UNL     1       3.332  -0.163   1.416  1.00  0.00     0.168 C 
HETATM    8  O3  UNL     1       2.038   0.172   1.127  1.00  0.00    -0.386 OA
ENDBRANCH   2   3
ENDBRANCH   1   2
BRANCH   1   9
HETATM    9  N1  UNL     1      -1.050  -0.662   0.561  1.00  0.00    -0.397 N 
ATOM     10  H1  UNL     1      -1.186  -0.126   1.418  1.00  0.00     0.158 HD
BRANCH   9  11
HETATM   11  C7  UNL     1      -1.946  -0.526  -0.518  1.00  0.00     0.179 C 
BRANCH  11  12
HETATM   12  C8  UNL     1      -3.014   0.495  -0.094  1.00  0.00     0.277 C 
HETATM   13  O1  UNL     1      -3.653   0.019   1.017  1.00  0.00    -0.358 OA
HETATM   14  C9  UNL     1      -5.016   0.013   0.783  1.00  0.00     0.197 C 
HETATM   15  C10 UNL     1      -5.153   0.838  -0.480  1.00  0.00     0.197 C 
HETATM   16  O2  UNL     1      -3.910   0.687  -1.120  1.00  0.00    -0.358 OA
ENDBRANCH  11  12
ENDBRANCH   9  11
ENDBRANCH   1   9
TORSDOF 5
