REMARK  0 active torsions:
REMARK  status: ('A' for Active; 'I' for Inactive)
ROOT
HETATM    1  C1  UNL     1      -2.112  -1.218   0.078  1.00  0.00     0.164 C 
HETATM    2  N1  UNL     1      -0.991  -0.292   0.015  1.00  0.00    -0.269 N 
HETATM    3  C2  UNL     1      -1.161   1.036  -0.100  1.00  0.00     0.328 A 
HETATM    4  O1  UNL     1      -2.317   1.518  -0.156  1.00  0.00    -0.246 OA
HETATM    5  N2  UNL     1      -0.105   1.863  -0.155  1.00  0.00    -0.317 N 
ATOM      6  H2  UNL     1      -0.272   2.866  -0.241  1.00  0.00     0.170 HD
HETATM    7  C3  UNL     1       1.162   1.422  -0.101  1.00  0.00     0.125 A 
HETATM    8  C4  UNL     1       1.359   0.059   0.017  1.00  0.00     0.130 A 
HETATM    9  N3  UNL     1       2.623  -0.543   0.085  1.00  0.00    -0.095 NA
HETATM   10  C5  UNL     1       0.254  -0.791   0.074  1.00  0.00     0.276 A 
HETATM   11  O2  UNL     1       0.391  -2.031   0.181  1.00  0.00    -0.266 OA
ENDROOT
TORSDOF 0
