REMARK  3 active torsions:
REMARK  status: ('A' for Active; 'I' for Inactive)
REMARK    1  A    between atoms: C4_8  and  N4_9 
REMARK    2  A    between atoms: N4_9  and  N5_10 
REMARK    3  A    between atoms: N4_9  and  O1_13 
ROOT
HETATM    1  C1  UNL     1      -0.162   2.366   0.162  1.00  0.00     0.179 C 
HETATM    2  N1  UNL     1      -0.512   0.941   0.097  1.00  0.00    -0.281 N 
HETATM    3  N2  UNL     1      -1.736   0.510   0.209  1.00  0.00    -0.285 N 
ATOM      4  H2  UNL     1      -2.552   1.106   0.349  1.00  0.00     0.188 HD
HETATM    5  C2  UNL     1      -1.772  -0.827   0.114  1.00  0.00     0.134 A 
HETATM    6  N3  UNL     1      -2.929  -1.622   0.191  1.00  0.00    -0.081 NA
HETATM    7  C3  UNL     1      -0.451  -1.216  -0.072  1.00  0.00     0.094 A 
HETATM    8  C4  UNL     1       0.336  -0.099  -0.081  1.00  0.00     0.148 A 
ENDROOT
BRANCH   8   9
HETATM    9  N4  UNL     1       1.741   0.052  -0.236  1.00  0.00    -0.059 NA
BRANCH   9  10
HETATM   10  N5  UNL     1       2.449  -1.095   0.126  1.00  0.00    -0.335 NA
ATOM     11  H52 UNL     1       2.194  -1.387   1.069  1.00  0.00     0.173 HD
ATOM     12  H51 UNL     1       3.457  -0.987   0.015  1.00  0.00     0.173 HD
ENDBRANCH   9  10
BRANCH   9  13
HETATM   13  O1  UNL     1       2.079   0.438  -1.485  1.00  0.00    -0.288 OA
ATOM     14  H1  UNL     1       3.018   0.539  -1.589  1.00  0.00     0.239 HD
ENDBRANCH   9  13
ENDBRANCH   8   9
TORSDOF 3
