REMARK  2 active torsions:
REMARK  status: ('A' for Active; 'I' for Inactive)
REMARK       I    between atoms: N1_1  and  C1_5 
REMARK       I    between atoms: C1_5  and  N2_6 
REMARK       I    between atoms: C1_5  and  N3_10 
REMARK    1  A    between atoms: N3_10  and  N4_12 
REMARK    2  A    between atoms: C2_14  and  C3_15 
ROOT
HETATM    1  N1  UNL     1      -2.277   1.415   0.994  1.00  0.00    -0.032 N 
ATOM      2  H11 UNL     1      -1.345   1.794   0.826  1.00  0.00     0.279 HD
ATOM      3  H12 UNL     1      -2.473   1.249   1.981  1.00  0.00     0.279 HD
ATOM      4  H13 UNL     1      -3.022   2.091   0.827  1.00  0.00     0.279 HD
HETATM    5  C1  UNL     1      -2.396   0.205   0.168  1.00  0.00     0.494 C 
HETATM    6  N2  UNL     1      -3.708  -0.328   0.404  1.00  0.00    -0.032 N 
ATOM      7  H21 UNL     1      -3.791  -1.168  -0.169  1.00  0.00     0.279 HD
ATOM      8  H22 UNL     1      -4.453   0.348   0.237  1.00  0.00     0.279 HD
ATOM      9  H23 UNL     1      -3.904  -0.494   1.391  1.00  0.00     0.279 HD
HETATM   10  N3  UNL     1      -1.340  -0.696   0.606  1.00  0.00    -0.284 N 
ATOM     11  H3  UNL     1      -1.555  -1.620   0.981  1.00  0.00     0.184 HD
ENDROOT
BRANCH  10  12
HETATM   12  N4  UNL     1      -0.036  -0.254   0.495  1.00  0.00    -0.311 N 
HETATM   13  C2  UNL     1       0.951  -0.973   0.074  1.00  0.00     0.139 C 
ATOM     14  H4  UNL     1       0.162   0.710   0.765  1.00  0.00     0.185 HD
BRANCH  13  15
HETATM   15  C3  UNL     1       2.253  -0.339   0.026  1.00  0.00     0.083 A 
HETATM   16  C4  UNL     1       3.408  -0.953  -0.395  1.00  0.00     0.141 A 
HETATM   17  N5  UNL     1       4.419  -0.048  -0.299  1.00  0.00    -0.295 N 
HETATM   18  N6  UNL     1       3.900   1.090   0.167  1.00  0.00    -0.243 N 
ATOM     19  H5  UNL     1       5.397  -0.210  -0.540  1.00  0.00     0.187 HD
HETATM   20  N7  UNL     1       2.607   0.914   0.360  1.00  0.00    -0.284 N 
ATOM     21  H6  UNL     1       4.417   1.951   0.344  1.00  0.00     0.208 HD
ATOM     22  H7  UNL     1       1.968   1.626   0.712  1.00  0.00     0.188 HD
ENDBRANCH  13  15
ENDBRANCH  10  12
TORSDOF 2
