REMARK  3 active torsions:
REMARK  status: ('A' for Active; 'I' for Inactive)
REMARK    1  A    between atoms: C2_8  and  C3_9 
REMARK    2  A    between atoms: C3_9  and  N4_10 
REMARK    3  A    between atoms: N4_10  and  C4_13 
ROOT
HETATM    1  N1  UNL     1      -4.386   0.856  -0.606  1.00  0.00    -0.364 N 
ATOM      2  H11 UNL     1      -4.508   1.612  -1.279  1.00  0.00     0.159 HD
ATOM      3  H12 UNL     1      -5.307   0.794  -0.172  1.00  0.00     0.159 HD
HETATM    4  C1  UNL     1      -3.318   0.182  -0.392  1.00  0.00     0.230 C 
HETATM    5  N2  UNL     1      -3.146  -0.883   0.556  1.00  0.00    -0.267 N 
ATOM      6  H2  UNL     1      -3.900  -1.340   1.069  1.00  0.00     0.186 HD
HETATM    7  N3  UNL     1      -1.766  -1.204   0.671  1.00  0.00    -0.103 NA
HETATM    8  C2  UNL     1      -1.177  -0.042   0.109  1.00  0.00     0.270 C 
HETATM    9  O1  UNL     1      -2.041   0.268  -0.994  1.00  0.00    -0.296 OA
ENDROOT
BRANCH   8  10
HETATM   10  C3  UNL     1       0.240  -0.100  -0.300  1.00  0.00     0.284 C 
BRANCH  10  11
HETATM   11  N4  UNL     1       1.048  -0.404   0.870  1.00  0.00    -0.067 N 
ATOM     12  H42 UNL     1       0.736   0.129   1.682  1.00  0.00     0.277 HD
ATOM     13  H41 UNL     1       0.861  -1.347   1.212  1.00  0.00     0.277 HD
BRANCH  11  14
HETATM   14  C4  UNL     1       2.472  -0.205   0.625  1.00  0.00     0.186 A 
HETATM   15  C5  UNL     1       2.913   1.189   0.317  1.00  0.00     0.035 A 
HETATM   16  C6  UNL     1       3.028   0.094  -0.699  1.00  0.00     0.035 A 
ENDBRANCH  11  14
ENDBRANCH  10  11
ENDBRANCH   8  10
TORSDOF 3
