REMARK  3 active torsions:
REMARK  status: ('A' for Active; 'I' for Inactive)
REMARK    1  A    between atoms: N2_4  and  N3_6 
REMARK    2  A    between atoms: N3_6  and  C2_8 
REMARK    3  A    between atoms: C3_14  and  N6_15 
ROOT
HETATM    1  C2  UNL     1      -0.813  -0.443  -0.004  1.00  0.00     0.189 A 
HETATM    2  N4  UNL     1      -1.503  -1.541  -0.440  1.00  0.00    -0.221 N 
ATOM      3  H4  UNL     1      -1.102  -2.465  -0.604  1.00  0.00     0.198 HD
HETATM    4  O1  UNL     1      -2.726  -1.226  -0.609  1.00  0.00    -0.153 OA
HETATM    5  N5  UNL     1      -2.964   0.008  -0.329  1.00  0.00    -0.222 N 
ATOM      6  H5  UNL     1      -3.863   0.487  -0.388  1.00  0.00     0.198 HD
HETATM    7  C3  UNL     1      -1.768   0.550   0.064  1.00  0.00     0.169 A 
ENDROOT
BRANCH   1   8
HETATM    8  N3  UNL     1       0.444  -0.408   0.266  1.00  0.00    -0.267 N 
ATOM      9  H3  UNL     1       0.956  -1.281   0.139  1.00  0.00     0.190 HD
BRANCH   8  10
HETATM   10  N2  UNL     1       1.179   0.668   0.706  1.00  0.00    -0.246 N 
HETATM   11  N1  UNL     1       2.372   0.887   0.406  1.00  0.00    -0.326 N 
HETATM   12  C1  UNL     1       3.135   0.010  -0.461  1.00  0.00     0.169 C 
ATOM     13  H1  UNL     1       2.828   1.716   0.786  1.00  0.00     0.181 HD
ATOM     14  H2  UNL     1       0.716   1.336   1.322  1.00  0.00     0.208 HD
ENDBRANCH   8  10
ENDBRANCH   1   8
BRANCH   7  15
HETATM   15  N6  UNL     1      -1.626   1.767   0.418  1.00  0.00    -0.381 N 
ATOM     16  H62 UNL     1      -0.736   2.170   0.710  1.00  0.00     0.157 HD
ATOM     17  H61 UNL     1      -2.332   2.501   0.468  1.00  0.00     0.157 HD
ENDBRANCH   7  15
TORSDOF 3
