REMARK  14 active torsions:
REMARK  status: ('A' for Active; 'I' for Inactive)
REMARK    1  A    between atoms: C7_7  and  C8_8 
REMARK    2  A    between atoms: C8_8  and  C9_9 
REMARK    3  A    between atoms: C9_9  and  C10_10 
REMARK    4  A    between atoms: C10_10  and  O1_11 
REMARK    5  A    between atoms: O1_11  and  C11_12 
REMARK    6  A    between atoms: C11_12  and  C12_13 
REMARK    7  A    between atoms: C12_13  and  O2_14 
REMARK    8  A    between atoms: O2_14  and  C13_15 
REMARK    9  A    between atoms: C13_15  and  O3_16 
REMARK   10  A    between atoms: O3_16  and  C14_17 
REMARK   11  A    between atoms: C14_17  and  C15_18 
REMARK   12  A    between atoms: C15_18  and  N1_19 
REMARK   13  A    between atoms: N1_19  and  C16_21 
REMARK   14  A    between atoms: C17_24  and  N3_25 
REMARK       I    between atoms: N3_25  and  C18_27 
ROOT
HETATM    1  C14 UNL     1       2.854  -1.128  -1.189  1.00  0.00     0.190 C 
ENDROOT
BRANCH   1   2
HETATM    2  O3  UNL     1       2.033  -0.049  -1.339  1.00  0.00    -0.365 OA
BRANCH   2   3
HETATM    3  C13 UNL     1       1.309   0.238  -0.194  1.00  0.00     0.337 C 
BRANCH   3   4
HETATM    4  O2  UNL     1       0.523   1.340  -0.480  1.00  0.00    -0.365 OA
BRANCH   4   5
HETATM    5  C12 UNL     1      -0.318   1.047  -1.534  1.00  0.00     0.196 C 
BRANCH   5   6
HETATM    6  C11 UNL     1      -1.273  -0.076  -1.294  1.00  0.00     0.193 C 
BRANCH   6   7
HETATM    7  O1  UNL     1      -2.138   0.108  -0.238  1.00  0.00    -0.389 OA
BRANCH   7   8
HETATM    8  C10 UNL     1      -2.942   1.220  -0.323  1.00  0.00     0.168 C 
BRANCH   8   9
HETATM    9  C9  UNL     1      -3.794   1.141  -1.561  1.00  0.00     0.031 C 
BRANCH   9  10
HETATM   10  C8  UNL     1      -4.633  -0.100  -1.509  1.00  0.00     0.041 C 
BRANCH  10  11
HETATM   11  C7  UNL     1      -5.511  -0.084  -0.332  1.00  0.00    -0.052 A 
HETATM   12  C2  UNL     1      -6.636   0.701  -0.327  1.00  0.00    -0.056 A 
HETATM   13  C1  UNL     1      -7.042   1.559  -1.460  1.00  0.00     0.049 C 
HETATM   14  C3  UNL     1      -7.475   0.720   0.781  1.00  0.00     0.007 A 
HETATM   15  C4  UNL     1      -7.159  -0.062   1.872  1.00  0.00     0.001 A 
HETATM   16  C5  UNL     1      -6.024  -0.862   1.883  1.00  0.00     0.001 A 
HETATM   17  C6  UNL     1      -5.211  -0.856   0.762  1.00  0.00     0.007 A 
ENDBRANCH  10  11
ENDBRANCH   9  10
ENDBRANCH   8   9
ENDBRANCH   7   8
ENDBRANCH   6   7
ENDBRANCH   5   6
ENDBRANCH   4   5
ENDBRANCH   3   4
ENDBRANCH   2   3
ENDBRANCH   1   2
BRANCH   1  18
HETATM   18  C15 UNL     1       3.902  -1.010  -0.119  1.00  0.00     0.148 C 
BRANCH  18  19
HETATM   19  N1  UNL     1       4.658  -2.233  -0.125  1.00  0.00    -0.367 N 
ATOM     20  H1  UNL     1       4.333  -3.056  -0.633  1.00  0.00     0.161 HD
BRANCH  19  21
HETATM   21  C16 UNL     1       5.785  -2.246   0.551  1.00  0.00     0.176 A 
HETATM   22  N2  UNL     1       6.345  -1.263   1.262  1.00  0.00    -0.168 N 
HETATM   23  C17 UNL     1       7.481  -1.495   1.856  1.00  0.00     0.693 A 
ATOM     24  H2  UNL     1       5.893  -0.352   1.338  1.00  0.00     0.186 HD
HETATM   25  N6  UNL     1       8.024  -2.714   1.718  1.00  0.00    -0.157 N 
HETATM   26  S1  UNL     1       6.912  -3.514   0.745  1.00  0.00     0.039 SA
ATOM     27  H6  UNL     1       8.897  -3.068   2.108  1.00  0.00     0.193 HD
BRANCH  23  28
HETATM   28  N3  UNL     1       8.138  -0.609   2.588  1.00  0.00    -0.163 N 
HETATM   29  C18 UNL     1       7.589   0.669   2.745  1.00  0.00     0.200 C 
HETATM   30  N4  UNL     1       6.799   0.912   3.727  1.00  0.00    -0.373 N 
HETATM   31  N5  UNL     1       7.898   1.690   1.832  1.00  0.00    -0.063 NA
ATOM     32  H42 UNL     1       6.575   0.170   4.390  1.00  0.00     0.158 HD
ATOM     33  H41 UNL     1       6.399   1.843   3.841  1.00  0.00     0.158 HD
ATOM     34  H3  UNL     1       9.025  -0.852   3.028  1.00  0.00     0.187 HD
ENDBRANCH  23  28
ENDBRANCH  19  21
ENDBRANCH  18  19
ENDBRANCH   1  18
TORSDOF 14
