REMARK  15 active torsions:
REMARK  status: ('A' for Active; 'I' for Inactive)
REMARK    1  A    between atoms: N1_2  and  C2_5 
REMARK    2  A    between atoms: C2_5  and  C3_6 
REMARK    3  A    between atoms: C3_6  and  C4_7 
REMARK    4  A    between atoms: C4_7  and  N2_8 
REMARK    5  A    between atoms: C7_13  and  N4_14 
REMARK    6  A    between atoms: N4_14  and  C8_16 
REMARK    7  A    between atoms: C8_16  and  C9_17 
REMARK    8  A    between atoms: C9_17  and  C10_18 
REMARK    9  A    between atoms: C10_18  and  C11_19 
REMARK   10  A    between atoms: C11_19  and  C12_20 
REMARK   11  A    between atoms: C12_20  and  C13_21 
REMARK   12  A    between atoms: C19_29  and  N6_30 
REMARK   13  A    between atoms: N6_30  and  C20_32 
REMARK   14  A    between atoms: C20_32  and  C21_33 
REMARK   15  A    between atoms: C21_33  and  O1_34 
ROOT
HETATM    1  N2  UNL     1      -2.881  -1.160  -1.617  1.00  0.00    -0.327 N 
HETATM    2  C5  UNL     1      -1.801  -1.808  -2.071  1.00  0.00     0.185 A 
HETATM    3  N3  UNL     1      -0.679  -1.134  -1.727  1.00  0.00    -0.346 N 
ATOM      4  H3  UNL     1       0.276  -1.414  -1.951  1.00  0.00     0.167 HD
HETATM    5  C6  UNL     1      -1.029  -0.047  -1.049  1.00  0.00     0.123 A 
HETATM    6  C7  UNL     1      -0.297   0.975  -0.471  1.00  0.00     0.147 A 
HETATM    7  N5  UNL     1      -0.991   1.941   0.155  1.00  0.00    -0.175 N 
ATOM      8  H5  UNL     1      -0.482   2.709   0.593  1.00  0.00     0.186 HD
HETATM    9  C19 UNL     1      -2.351   1.928   0.224  1.00  0.00     0.681 A 
HETATM   10  N7  UNL     1      -3.075   0.921  -0.346  1.00  0.00    -0.174 N 
ATOM     11  H7  UNL     1      -4.094   0.917  -0.291  1.00  0.00     0.186 HD
HETATM   12  C22 UNL     1      -2.423  -0.061  -0.978  1.00  0.00     0.155 A 
ENDROOT
BRANCH   6  13
HETATM   13  N4  UNL     1       0.968   0.964  -0.550  1.00  0.00    -0.374 N 
ATOM     14  H4  UNL     1       1.400   0.185  -1.047  1.00  0.00     0.161 HD
BRANCH  13  15
HETATM   15  C8  UNL     1       1.845   1.964   0.007  1.00  0.00     0.121 C 
BRANCH  15  16
HETATM   16  C9  UNL     1       2.275   1.618   1.417  1.00  0.00     0.020 C 
BRANCH  16  17
HETATM   17  C10 UNL     1       3.020   0.318   1.508  1.00  0.00     0.002 C 
BRANCH  17  18
HETATM   18  C11 UNL     1       4.277   0.299   0.703  1.00  0.00     0.005 C 
BRANCH  18  19
HETATM   19  C12 UNL     1       4.949  -1.066   0.871  1.00  0.00     0.038 C 
BRANCH  19  20
HETATM   20  C13 UNL     1       6.196  -1.104   0.086  1.00  0.00    -0.058 A 
HETATM   21  C14 UNL     1       7.399  -0.701   0.666  1.00  0.00     0.007 A 
HETATM   22  C15 UNL     1       8.543  -0.752  -0.105  1.00  0.00     0.001 A 
HETATM   23  C16 UNL     1       8.538  -1.180  -1.409  1.00  0.00     0.000 A 
HETATM   24  C17 UNL     1       7.359  -1.576  -1.980  1.00  0.00     0.001 A 
HETATM   25  C18 UNL     1       6.189  -1.533  -1.219  1.00  0.00     0.007 A 
ENDBRANCH  19  20
ENDBRANCH  18  19
ENDBRANCH  17  18
ENDBRANCH  16  17
ENDBRANCH  15  16
ENDBRANCH  13  15
ENDBRANCH   6  13
BRANCH   9  26
HETATM   26  N6  UNL     1      -3.022   2.831   0.807  1.00  0.00    -0.224 N 
ATOM     27  H6  UNL     1      -4.036   2.720   0.795  1.00  0.00     0.177 HD
BRANCH  26  28
HETATM   28  C20 UNL     1      -2.516   3.994   1.483  1.00  0.00     0.164 C 
BRANCH  28  29
HETATM   29  C21 UNL     1      -3.519   5.132   1.477  1.00  0.00     0.184 C 
BRANCH  29  30
HETATM   30  O1  UNL     1      -4.700   4.768   2.111  1.00  0.00    -0.399 OA
ATOM     31  H1  UNL     1      -5.328   5.481   2.107  1.00  0.00     0.209 HD
ENDBRANCH  29  30
ENDBRANCH  28  29
ENDBRANCH  26  28
ENDBRANCH   9  26
BRANCH   1  32
HETATM   32  C4  UNL     1      -4.257  -1.586  -1.792  1.00  0.00     0.133 C 
BRANCH  32  33
HETATM   33  C3  UNL     1      -4.559  -2.470  -0.573  1.00  0.00     0.048 C 
BRANCH  33  34
HETATM   34  C2  UNL     1      -5.958  -2.987  -0.613  1.00  0.00     0.233 C 
BRANCH  34  35
HETATM   35  N1  UNL     1      -6.198  -3.813   0.549  1.00  0.00    -0.079 N 
HETATM   36  C1  UNL     1      -6.221  -3.101   1.787  1.00  0.00     0.266 C 
ATOM     37  H12 UNL     1      -5.520  -4.574   0.590  1.00  0.00     0.276 HD
ATOM     38  H11 UNL     1      -7.057  -4.350   0.432  1.00  0.00     0.276 HD
ENDBRANCH  34  35
ENDBRANCH  33  34
ENDBRANCH  32  33
ENDBRANCH   1  32
TORSDOF 15
