REMARK  6 active torsions:
REMARK  status: ('A' for Active; 'I' for Inactive)
REMARK    1  A    between atoms: S1_2  and  C2_3 
REMARK    2  A    between atoms: C3_5  and  C5_7 
REMARK    3  A    between atoms: C5_7  and  O2_8 
REMARK    4  A    between atoms: C6_10  and  O3_11 
REMARK    5  A    between atoms: C7_13  and  O4_14 
REMARK    6  A    between atoms: C8_16  and  O5_17 
ROOT
HETATM    1  C2  UNL     1       0.902  -0.744   0.026  1.00  0.00     0.215 C 
HETATM    2  O1  UNL     1      -0.239  -0.843   0.766  1.00  0.00    -0.357 OA
HETATM    3  C3  UNL     1      -1.350  -0.232   0.234  1.00  0.00     0.108 C 
HETATM    4  C4  UNL     1      -2.305   0.045   1.376  1.00  0.00     0.051 C 
HETATM    5  C6  UNL     1      -1.046   1.055  -0.482  1.00  0.00     0.185 C 
HETATM    6  C7  UNL     1       0.259   1.668  -0.033  1.00  0.00     0.182 C 
HETATM    7  C8  UNL     1       1.371   0.661  -0.224  1.00  0.00     0.188 C 
ENDROOT
BRANCH   3   8
HETATM    8  C5  UNL     1      -1.979  -1.238  -0.742  1.00  0.00     0.204 C 
BRANCH   8   9
HETATM    9  O2  UNL     1      -2.345  -2.398  -0.115  1.00  0.00    -0.398 OA
ATOM     10  H2  UNL     1      -2.734  -3.020  -0.719  1.00  0.00     0.209 HD
ENDBRANCH   8   9
ENDBRANCH   3   8
BRANCH   5  11
HETATM   11  O3  UNL     1      -2.062   1.994  -0.370  1.00  0.00    -0.390 OA
ATOM     12  H3  UNL     1      -1.870   2.807  -0.822  1.00  0.00     0.210 HD
ENDBRANCH   5  11
BRANCH   1  13
HETATM   13  S1  UNL     1       2.201  -1.558   1.036  1.00  0.00    -0.139 SA
HETATM   14  C1  UNL     1       3.795  -1.522   0.207  1.00  0.00     0.092 C 
ENDBRANCH   1  13
BRANCH   6  15
HETATM   15  O4  UNL     1       0.250   2.072   1.283  1.00  0.00    -0.390 OA
ATOM     16  H4  UNL     1       1.071   2.458   1.565  1.00  0.00     0.210 HD
ENDBRANCH   6  15
BRANCH   7  17
HETATM   17  O5  UNL     1       1.911   0.778  -1.525  1.00  0.00    -0.389 OA
ATOM     18  H5  UNL     1       2.208   1.667  -1.683  1.00  0.00     0.210 HD
ENDBRANCH   7  17
TORSDOF 6
