REMARK  6 active torsions:
REMARK  status: ('A' for Active; 'I' for Inactive)
REMARK    1  A    between atoms: N1_2  and  C2_4 
REMARK    2  A    between atoms: C3_5  and  C4_6 
REMARK    3  A    between atoms: C4_6  and  O1_7 
REMARK    4  A    between atoms: C5_10  and  S1_11 
REMARK    5  A    between atoms: C6_13  and  O3_14 
REMARK    6  A    between atoms: C7_16  and  O4_17 
ROOT
HETATM    1  C2  UNL     1      -0.843  -0.354   0.365  1.00  0.00     0.139 C 
HETATM    2  C3  UNL     1      -0.540   1.071  -0.121  1.00  0.00     0.171 C 
HETATM    3  O2  UNL     1       0.633   1.402   0.577  1.00  0.00    -0.362 OA
HETATM    4  C5  UNL     1       1.735   0.776  -0.032  1.00  0.00     0.226 C 
HETATM    5  C6  UNL     1       1.593  -0.723   0.142  1.00  0.00     0.188 C 
HETATM    6  C7  UNL     1       0.211  -1.211  -0.296  1.00  0.00     0.175 C 
ENDROOT
BRANCH   1   7
HETATM    7  N1  UNL     1      -2.174  -0.646   0.068  1.00  0.00    -0.416 N 
HETATM    8  C1  UNL     1      -2.515  -1.902  -0.514  1.00  0.00     0.140 C 
ATOM      9  H1  UNL     1      -2.903   0.039   0.267  1.00  0.00     0.153 HD
ENDBRANCH   1   7
BRANCH   2  10
HETATM   10  C4  UNL     1      -1.552   2.085   0.393  1.00  0.00     0.198 C 
BRANCH  10  11
HETATM   11  O1  UNL     1      -0.977   3.337   0.030  1.00  0.00    -0.398 OA
ATOM     12  H1  UNL     1      -1.609   3.970   0.351  1.00  0.00     0.209 HD
ENDBRANCH  10  11
ENDBRANCH   2  10
BRANCH   6  13
HETATM   13  O4  UNL     1       0.110  -1.013  -1.660  1.00  0.00    -0.391 OA
ATOM     14  H4  UNL     1       0.773  -1.552  -2.076  1.00  0.00     0.210 HD
ENDBRANCH   6  13
BRANCH   5  15
HETATM   15  O3  UNL     1       1.854  -1.111   1.464  1.00  0.00    -0.389 OA
ATOM     16  H3  UNL     1       1.765  -2.051   1.573  1.00  0.00     0.210 HD
ENDBRANCH   5  15
BRANCH   4  17
HETATM   17  S1  UNL     1       3.169   1.380   0.898  1.00  0.00    -0.050 SA
HETATM   18  S2  UNL     1       4.963   0.765  -0.058  1.00  0.00    -0.011 SA
ENDBRANCH   4  17
TORSDOF 6
