REMARK  3 active torsions:
REMARK  status: ('A' for Active; 'I' for Inactive)
REMARK    1  A    between atoms: C2_2  and  C5_5 
REMARK    2  A    between atoms: C5_5  and  N1_6 
REMARK    3  A    between atoms: N1_6  and  C6_9 
ROOT
HETATM    1  N1  UNL     1      -0.111   0.270   0.558  1.00  0.00    -0.070 N 
ATOM      2  H11 UNL     1      -0.310  -0.082   1.494  1.00  0.00     0.277 HD
ATOM      3  H12 UNL     1      -0.255   1.264   0.735  1.00  0.00     0.277 HD
ENDROOT
BRANCH   1   4
HETATM    4  C5  UNL     1      -1.043  -0.240  -0.414  1.00  0.00     0.241 C 
BRANCH   4   5
HETATM    5  C2  UNL     1      -2.463  -0.244   0.090  1.00  0.00    -0.028 C 
HETATM    6  C1  UNL     1      -2.624  -1.132   1.300  1.00  0.00     0.016 C 
HETATM    7  C3  UNL     1      -3.361  -0.689  -1.015  1.00  0.00     0.016 C 
HETATM    8  C4  UNL     1      -2.813   1.183   0.487  1.00  0.00     0.016 C 
ENDBRANCH   4   5
ENDBRANCH   1   4
BRANCH   1   9
HETATM    9  C6  UNL     1       1.210  -0.004   0.169  1.00  0.00     0.189 C 
HETATM   10  C7  UNL     1       1.631   0.580  -1.134  1.00  0.00     0.052 C 
HETATM   11  C8  UNL     1       3.045   0.188  -1.497  1.00  0.00     0.115 C 
HETATM   12  N2  UNL     1       3.964   0.235  -0.404  1.00  0.00    -0.421 N 
HETATM   13  C9  UNL     1       3.503  -0.366   0.813  1.00  0.00     0.115 C 
ATOM     14  H2  UNL     1       4.885   0.667  -0.484  1.00  0.00     0.153 HD
HETATM   15  C10 UNL     1       2.241   0.394   1.217  1.00  0.00     0.052 C 
ENDBRANCH   1   9
TORSDOF 3
