REMARK  5 active torsions:
REMARK  status: ('A' for Active; 'I' for Inactive)
REMARK    1  A    between atoms: C3_6  and  N3_7 
REMARK    2  A    between atoms: N3_7  and  C4_9 
REMARK    3  A    between atoms: C4_9  and  C5_10 
REMARK    4  A    between atoms: C5_10  and  C6_11 
REMARK    5  A    between atoms: C6_11  and  C7_12 
ROOT
HETATM    1  N3  UNL     1       1.421   1.607   1.577  1.00  0.00    -0.225 N 
ATOM      2  H3  UNL     1       1.470   2.604   1.785  1.00  0.00     0.177 HD
ENDROOT
BRANCH   1   3
HETATM    3  C3  UNL     1       2.480   1.016   0.830  1.00  0.00     0.686 C 
HETATM    4  N2  UNL     1       3.357   1.837   0.070  1.00  0.00    -0.136 N 
HETATM    5  N1  UNL     1       4.606   1.342  -0.298  1.00  0.00    -0.119 NA
ATOM      6  H2  UNL     1       3.075   2.778  -0.203  1.00  0.00     0.201 HD
HETATM    7  C2  UNL     1       4.416   0.030  -0.875  1.00  0.00     0.130 C 
HETATM    8  C1  UNL     1       5.707  -0.587  -1.355  1.00  0.00     0.033 C 
HETATM    9  C13 UNL     1       3.718  -0.910   0.088  1.00  0.00     0.193 C 
HETATM   10  N4  UNL     1       2.673  -0.267   0.820  1.00  0.00    -0.210 N 
HETATM   11  S1  UNL     1       4.908  -1.574   1.296  1.00  0.00    -0.068 SA
ATOM     12  H4  UNL     1       2.041  -0.851   1.367  1.00  0.00     0.179 HD
ENDBRANCH   1   3
BRANCH   1  13
HETATM   13  C4  UNL     1       0.281   0.859   2.054  1.00  0.00     0.138 C 
BRANCH  13  14
HETATM   14  C5  UNL     1      -0.524   0.453   0.813  1.00  0.00     0.020 C 
BRANCH  14  15
HETATM   15  C6  UNL     1      -1.739  -0.340   1.205  1.00  0.00     0.006 C 
BRANCH  15  16
HETATM   16  C7  UNL     1      -2.508  -0.719  -0.046  1.00  0.00    -0.014 C 
HETATM   17  C8  UNL     1      -3.694  -1.507   0.403  1.00  0.00     0.004 C 
HETATM   18  C9  UNL     1      -5.014  -0.848   0.110  1.00  0.00     0.000 C 
HETATM   19  C10 UNL     1      -4.997  -0.584  -1.404  1.00  0.00     0.000 C 
HETATM   20  C11 UNL     1      -4.069   0.592  -1.569  1.00  0.00     0.000 C 
HETATM   21  C12 UNL     1      -2.795   0.512  -0.823  1.00  0.00     0.004 C 
ENDBRANCH  15  16
ENDBRANCH  14  15
ENDBRANCH  13  14
ENDBRANCH   1  13
TORSDOF 5
