REMARK  7 active torsions:
REMARK  status: ('A' for Active; 'I' for Inactive)
REMARK    1  A    between atoms: C2_2  and  C3_3 
REMARK    2  A    between atoms: C2_2  and  C4_6 
REMARK    3  A    between atoms: C3_3  and  O1_4 
REMARK    4  A    between atoms: C4_6  and  C5_7 
REMARK       I    between atoms: C5_7  and  N1_9 
REMARK    5  A    between atoms: N2_11  and  C6_13 
REMARK    6  A    between atoms: C6_13  and  C7_17 
REMARK    7  A    between atoms: N4_19  and  O3_21 
ROOT
HETATM    1  C6  UNL     1      -0.751  -0.352   0.666  1.00  0.00     0.099 C 
HETATM    2  N3  UNL     1      -0.352   0.781   1.112  1.00  0.00    -0.387 N 
ATOM      3  H31 UNL     1      -0.678   1.630   0.651  1.00  0.00     0.157 HD
ATOM      4  H32 UNL     1       0.283   0.885   1.903  1.00  0.00     0.157 HD
ENDROOT
BRANCH   1   5
HETATM    5  N2  UNL     1      -0.299  -1.528   1.304  1.00  0.00    -0.286 N 
HETATM    6  N1  UNL     1       0.888  -1.895   1.176  1.00  0.00    -0.269 N 
HETATM    7  C5  UNL     1       1.792  -1.143   0.394  1.00  0.00     0.236 C 
ATOM      8  H1  UNL     1       1.207  -2.745   1.640  1.00  0.00     0.190 HD
HETATM    9  O2  UNL     1       1.664  -0.959  -0.840  1.00  0.00    -0.272 OA
ATOM     10  H2  UNL     1      -0.944  -2.079   1.871  1.00  0.00     0.188 HD
BRANCH   7  11
HETATM   11  C4  UNL     1       2.953  -0.545   1.091  1.00  0.00     0.110 C 
BRANCH  11  12
HETATM   12  C2  UNL     1       3.790   0.208   0.104  1.00  0.00     0.014 C 
HETATM   13  C1  UNL     1       4.283  -0.725  -0.971  1.00  0.00     0.012 C 
BRANCH  12  14
HETATM   14  C3  UNL     1       4.935   0.846   0.865  1.00  0.00     0.168 C 
BRANCH  14  15
HETATM   15  O1  UNL     1       4.430   1.697   1.845  1.00  0.00    -0.400 OA
ATOM     16  H1  UNL     1       5.148   2.097   2.322  1.00  0.00     0.209 HD
ENDBRANCH  14  15
ENDBRANCH  12  14
ENDBRANCH  11  12
ENDBRANCH   7  11
ENDBRANCH   1   5
BRANCH   1  17
HETATM   17  C7  UNL     1      -1.672  -0.503  -0.481  1.00  0.00     0.105 C 
HETATM   18  C8  UNL     1      -2.887  -1.227   0.031  1.00  0.00     0.021 C 
HETATM   19  N4  UNL     1      -2.790  -2.087   0.971  1.00  0.00    -0.277 N 
HETATM   20  C9  UNL     1      -4.181  -0.888  -0.607  1.00  0.00     0.055 C 
ATOM     21  H4  UNL     1      -1.864  -2.265   1.360  1.00  0.00     0.193 HD
HETATM   22  C10 UNL     1      -4.454   0.576  -0.402  1.00  0.00     0.006 C 
HETATM   23  C11 UNL     1      -3.191   1.378  -0.221  1.00  0.00     0.006 C 
HETATM   24  C12 UNL     1      -2.086   0.809  -1.101  1.00  0.00    -0.002 C 
HETATM   25  C13 UNL     1      -0.982   1.781  -1.312  1.00  0.00     0.011 C 
BRANCH  19  26
HETATM   26  O3  UNL     1      -3.842  -2.783   1.488  1.00  0.00    -0.290 OA
ATOM     27  H3  UNL     1      -3.770  -3.422   2.187  1.00  0.00     0.244 HD
ENDBRANCH  19  26
ENDBRANCH   1  17
TORSDOF 7
