REMARK  2 active torsions:
REMARK  status: ('A' for Active; 'I' for Inactive)
REMARK    1  A    between atoms: O1_1  and  C1_3 
REMARK    2  A    between atoms: C7_13  and  C8_14 
ROOT
HETATM    1  C1  UNL     1       0.795   0.820   0.711  1.00  0.00     0.268 C 
HETATM    2  O2  UNL     1       0.121   0.455   1.882  1.00  0.00    -0.334 OA
HETATM    3  C2  UNL     1      -1.121  -0.066   1.637  1.00  0.00     0.256 C 
HETATM    4  C3  UNL     1      -1.065  -1.539   1.264  1.00  0.00     0.170 C 
HETATM    5  N1  UNL     1      -1.169  -1.139  -0.095  1.00  0.00    -0.208 NA
HETATM    6  C4  UNL     1       0.061  -0.991  -0.808  1.00  0.00     0.156 C 
HETATM    7  S1  UNL     1      -0.265   0.072  -2.235  1.00  0.00    -0.118 SA
HETATM    8  C5  UNL     1      -1.769   0.968  -1.910  1.00  0.00     0.065 C 
HETATM    9  C6  UNL     1      -2.288   0.907  -0.701  1.00  0.00     0.114 C 
HETATM   10  N2  UNL     1      -1.623   0.128   0.287  1.00  0.00    -0.290 N 
HETATM   11  C7  UNL     1       1.184  -0.445  -0.009  1.00  0.00     0.099 C 
ENDROOT
BRANCH   1  12
HETATM   12  O1  UNL     1       1.996   1.421   1.137  1.00  0.00    -0.371 OA
ATOM     13  H1  UNL     1       2.454   1.669   0.342  1.00  0.00     0.212 HD
ENDBRANCH   1  12
BRANCH  11  14
HETATM   14  C8  UNL     1       2.380  -0.172  -0.855  1.00  0.00     0.234 C 
HETATM   15  F1  UNL     1       2.142   0.798  -1.773  1.00  0.00    -0.255 F 
ENDBRANCH  11  14
TORSDOF 2
