REMARK  5 active torsions:
REMARK  status: ('A' for Active; 'I' for Inactive)
REMARK    1  A    between atoms: O1_1  and  N1_3 
REMARK    2  A    between atoms: C4_7  and  C5_8 
REMARK    3  A    between atoms: C7_10  and  O2_11 
REMARK    4  A    between atoms: C8_14  and  C9_15 
REMARK    5  A    between atoms: C9_15  and  O4_16 
ROOT
HETATM    1  C5  UNL     1      -0.137   0.169  -0.034  1.00  0.00     0.163 C 
HETATM    2  C6  UNL     1      -0.360   0.937  -1.345  1.00  0.00     0.097 C 
HETATM    3  C7  UNL     1      -1.843   1.051  -1.509  1.00  0.00     0.262 C 
HETATM    4  O3  UNL     1      -2.571  -0.023  -1.156  1.00  0.00    -0.330 OA
HETATM    5  C8  UNL     1      -2.053  -0.962  -0.335  1.00  0.00     0.287 C 
HETATM    6  O5  UNL     1      -0.694  -1.086  -0.265  1.00  0.00    -0.349 OA
ENDROOT
BRANCH   1   7
HETATM    7  C4  UNL     1       1.319   0.046   0.249  1.00  0.00    -0.011 A 
HETATM    8  C3  UNL     1       1.908   0.737   1.287  1.00  0.00     0.012 A 
HETATM    9  C2  UNL     1       3.263   0.576   1.492  1.00  0.00     0.020 A 
HETATM   10  C1  UNL     1       3.980  -0.262   0.661  1.00  0.00     0.122 A 
HETATM   11  N1  UNL     1       3.381  -0.924  -0.346  1.00  0.00    -0.247 N 
HETATM   12  C10 UNL     1       2.060  -0.776  -0.556  1.00  0.00     0.132 A 
BRANCH  11  13
HETATM   13  O1  UNL     1       4.094  -1.769  -1.186  1.00  0.00    -0.284 OA
ATOM     14  H1  UNL     1       3.671  -2.236  -1.897  1.00  0.00     0.245 HD
ENDBRANCH  11  13
ENDBRANCH   1   7
BRANCH   3  15
HETATM   15  O2  UNL     1      -2.270   2.196  -0.801  1.00  0.00    -0.371 OA
ATOM     16  H2  UNL     1      -3.211   2.268  -0.905  1.00  0.00     0.212 HD
ENDBRANCH   3  15
BRANCH   5  17
HETATM   17  C9  UNL     1      -2.600  -0.894   1.091  1.00  0.00     0.224 C 
BRANCH  17  18
HETATM   18  O4  UNL     1      -4.003  -1.081   1.062  1.00  0.00    -0.396 OA
ATOM     19  H4  UNL     1      -4.343  -1.039   1.948  1.00  0.00     0.209 HD
ENDBRANCH  17  18
ENDBRANCH   5  17
TORSDOF 5
