REMARK  4 active torsions:
REMARK  status: ('A' for Active; 'I' for Inactive)
REMARK    1  A    between atoms: O1_1  and  C1_3 
REMARK    2  A    between atoms: C1_3  and  C2_4 
REMARK    3  A    between atoms: C8_11  and  C9_12 
REMARK    4  A    between atoms: C9_12  and  O3_13 
ROOT
HETATM    1  C2  UNL     1       1.158   0.140  -0.570  1.00  0.00     0.139 C 
HETATM    2  C3  UNL     1       1.520  -1.296  -0.547  1.00  0.00     0.214 C 
HETATM    3  O2  UNL     1       0.708  -2.133   0.131  1.00  0.00    -0.358 OA
HETATM    4  C4  UNL     1      -0.611  -1.836   0.187  1.00  0.00     0.264 C 
HETATM    5  C5  UNL     1      -0.952  -1.072   1.470  1.00  0.00     0.071 C 
HETATM    6  C6  UNL     1      -0.853   0.358   0.917  1.00  0.00     0.061 C 
HETATM    7  C7  UNL     1       0.605   0.668   0.723  1.00  0.00     0.056 C 
HETATM    8  C8  UNL     1      -1.451   0.136  -0.461  1.00  0.00     0.224 C 
HETATM    9  O4  UNL     1      -0.775   1.024  -1.320  1.00  0.00    -0.197 OA
HETATM   10  O5  UNL     1       0.330   0.449  -1.667  1.00  0.00    -0.222 OA
HETATM   11  O6  UNL     1      -1.133  -1.134  -0.856  1.00  0.00    -0.320 OA
ENDROOT
BRANCH   1  12
HETATM   12  C1  UNL     1       2.450   0.924  -0.844  1.00  0.00     0.207 C 
BRANCH  12  13
HETATM   13  O1  UNL     1       3.375   0.715   0.167  1.00  0.00    -0.398 OA
ATOM     14  H1  UNL     1       4.174   1.200  -0.002  1.00  0.00     0.209 HD
ENDBRANCH  12  13
ENDBRANCH   1  12
BRANCH   8  15
HETATM   15  C9  UNL     1      -2.900   0.478  -0.516  1.00  0.00     0.236 C 
BRANCH  15  16
HETATM   16  O3  UNL     1      -3.055   1.793  -0.094  1.00  0.00    -0.395 OA
ATOM     17  H3  UNL     1      -3.979   2.011  -0.129  1.00  0.00     0.209 HD
ENDBRANCH  15  16
ENDBRANCH   8  15
TORSDOF 4
