REMARK  2 active torsions:
REMARK  status: ('A' for Active; 'I' for Inactive)
REMARK       I    between atoms: C2_2  and  N1_4 
REMARK    1  A    between atoms: N1_4  and  N2_6 
REMARK    2  A    between atoms: N5_15  and  N6_16 
ROOT
HETATM    1  N2  UNL     1       1.781   1.205   0.089  1.00  0.00    -0.287 N 
ATOM      2  H2  UNL     1       2.015   2.167  -0.157  1.00  0.00     0.188 HD
HETATM    3  C3  UNL     1       0.545   0.781   0.137  1.00  0.00     0.161 A 
HETATM    4  S1  UNL     1       0.089  -0.810   0.543  1.00  0.00    -0.051 SA
HETATM    5  C4  UNL     1      -1.597  -1.033   0.513  1.00  0.00     0.130 A 
HETATM    6  C5  UNL     1      -2.252  -2.297   0.819  1.00  0.00     0.110 C 
HETATM    7  N3  UNL     1      -2.753  -3.310   1.066  1.00  0.00    -0.191 NA
HETATM    8  C6  UNL     1      -2.326   0.082   0.173  1.00  0.00     0.168 A 
HETATM    9  N4  UNL     1      -3.763  -0.072   0.138  1.00  0.00    -0.078 NA
HETATM   10  N5  UNL     1      -1.807   1.276  -0.122  1.00  0.00    -0.208 N 
HETATM   11  C7  UNL     1      -0.519   1.615  -0.145  1.00  0.00     0.302 A 
HETATM   12  O2  UNL     1      -0.170   2.814  -0.450  1.00  0.00    -0.263 OA
ENDROOT
BRANCH  10  13
HETATM   13  N6  UNL     1      -2.705   2.335  -0.455  1.00  0.00    -0.334 N 
ATOM     14  H62 UNL     1      -3.691   2.075  -0.437  1.00  0.00     0.177 HD
ATOM     15  H61 UNL     1      -2.308   3.247  -0.680  1.00  0.00     0.177 HD
ENDBRANCH  10  13
BRANCH   1  16
HETATM   16  N1  UNL     1       2.766   0.253   0.398  1.00  0.00    -0.269 N 
HETATM   17  C2  UNL     1       3.281  -0.597  -0.609  1.00  0.00     0.232 C 
HETATM   18  C1  UNL     1       4.317  -1.588  -0.254  1.00  0.00     0.119 C 
HETATM   19  O1  UNL     1       2.897  -0.551  -1.806  1.00  0.00    -0.272 OA
ATOM     20  H1  UNL     1       3.112   0.174   1.354  1.00  0.00     0.190 HD
ENDBRANCH   1  16
TORSDOF 2
