REMARK  3 active torsions:
REMARK  status: ('A' for Active; 'I' for Inactive)
REMARK    1  A    between atoms: C5_5  and  O1_6 
REMARK    2  A    between atoms: C6_8  and  O2_9 
REMARK    3  A    between atoms: C7_11  and  O3_12 
ROOT
HETATM    1  C1  UNL     1       2.393  -0.206   0.476  1.00  0.00     0.012 C 
HETATM    2  C2  UNL     1       0.884  -0.449   0.594  1.00  0.00     0.013 C 
HETATM    3  C3  UNL     1       0.490  -1.376  -0.489  1.00  0.00     0.009 C 
HETATM    4  C4  UNL     1      -0.953  -1.441  -0.813  1.00  0.00     0.035 C 
HETATM    5  C5  UNL     1      -1.750  -0.263  -0.242  1.00  0.00     0.149 C 
HETATM    6  C6  UNL     1      -0.840   0.944  -0.506  1.00  0.00     0.175 C 
HETATM    7  C7  UNL     1       0.191   0.858   0.625  1.00  0.00     0.153 C 
ENDROOT
BRANCH   5   8
HETATM    8  O1  UNL     1      -1.850  -0.526   1.123  1.00  0.00    -0.393 OA
ATOM      9  H1  UNL     1      -2.344   0.204   1.477  1.00  0.00     0.210 HD
ENDBRANCH   5   8
BRANCH   6  10
HETATM   10  O2  UNL     1      -1.528   2.129  -0.502  1.00  0.00    -0.390 OA
ATOM     11  H2  UNL     1      -0.965   2.876  -0.665  1.00  0.00     0.210 HD
ENDBRANCH   6  10
BRANCH   7  12
HETATM   12  O3  UNL     1       0.989   1.964   0.536  1.00  0.00    -0.393 OA
ATOM     13  H3  UNL     1       0.544   2.803   0.556  1.00  0.00     0.210 HD
ENDBRANCH   7  12
TORSDOF 3
