REMARK  3 active torsions:
REMARK  status: ('A' for Active; 'I' for Inactive)
REMARK    1  A    between atoms: C2_3  and  N2_4 
REMARK    2  A    between atoms: C2_3  and  C10_14 
REMARK       I    between atoms: N2_4  and  C3_6 
REMARK    3  A    between atoms: C3_6  and  C4_8 
ROOT
HETATM    1  N1  UNL     1       3.837   2.514   0.921  1.00  0.00    -0.194 NA
HETATM    2  C1  UNL     1       3.474   1.465   0.555  1.00  0.00     0.096 C 
HETATM    3  C2  UNL     1       3.013   0.147   0.121  1.00  0.00     0.293 C 
ENDROOT
BRANCH   3   4
HETATM    4  N2  UNL     1       1.566   0.111   0.122  1.00  0.00    -0.335 N 
HETATM    5  C3  UNL     1       0.809  -0.169  -1.053  1.00  0.00     0.223 C 
HETATM    6  O1  UNL     1       1.431  -0.388  -2.119  1.00  0.00    -0.273 OA
ATOM      7  H2  UNL     1       1.070   0.292   0.995  1.00  0.00     0.164 HD
BRANCH   5   8
HETATM    8  C4  UNL     1      -0.667  -0.191  -0.985  1.00  0.00     0.078 C 
HETATM    9  C5  UNL     1      -1.134  -1.253   0.003  1.00  0.00     0.014 C 
HETATM   10  C6  UNL     1      -2.637  -1.326  -0.234  1.00  0.00     0.001 C 
HETATM   11  C7  UNL     1      -3.211  -0.068   0.324  1.00  0.00     0.000 C 
HETATM   12  C8  UNL     1      -2.611   1.190  -0.164  1.00  0.00     0.001 C 
HETATM   13  C9  UNL     1      -1.232   1.156  -0.664  1.00  0.00     0.014 C 
ENDBRANCH   5   8
ENDBRANCH   3   4
BRANCH   3  14
HETATM   14  C10 UNL     1       3.516  -0.929   0.995  1.00  0.00     0.211 C 
HETATM   15  O2  UNL     1       2.713  -1.679   1.582  1.00  0.00    -0.646 OA
HETATM   16  O3  UNL     1       4.871  -1.129   1.182  1.00  0.00    -0.646 OA
ENDBRANCH   3  14
TORSDOF 3
