REMARK  5 active torsions:
REMARK  status: ('A' for Active; 'I' for Inactive)
REMARK    1  A    between atoms: C2_2  and  C3_3 
REMARK    2  A    between atoms: C3_3  and  N1_4 
REMARK    3  A    between atoms: N1_4  and  N2_6 
REMARK    4  A    between atoms: N2_6  and  C4_8 
REMARK    5  A    between atoms: C5_12  and  N4_13 
ROOT
HETATM    1  C4  UNL     1       1.540  -0.366   0.549  1.00  0.00     0.720 A 
HETATM    2  N3  UNL     1       2.839  -0.470   0.227  1.00  0.00    -0.086 N 
ATOM      3  H3  UNL     1       3.278  -1.277  -0.217  1.00  0.00     0.214 HD
HETATM    4  O1  UNL     1       3.454   0.641   0.579  1.00  0.00    -0.186 OA
HETATM    5  C5  UNL     1       2.592   1.464   1.119  1.00  0.00     0.256 A 
HETATM    6  N5  UNL     1       1.400   0.848   1.105  1.00  0.00    -0.150 N 
ATOM      7  H5  UNL     1       0.527   1.239   1.460  1.00  0.00     0.188 HD
ENDROOT
BRANCH   1   8
HETATM    8  N2  UNL     1       0.577  -1.201   0.391  1.00  0.00    -0.134 N 
ATOM      9  H2  UNL     1       0.764  -2.106  -0.041  1.00  0.00     0.205 HD
BRANCH   8  10
HETATM   10  N1  UNL     1      -0.723  -0.892   0.801  1.00  0.00    -0.319 N 
ATOM     11  H1  UNL     1      -1.024  -1.214   1.721  1.00  0.00     0.181 HD
BRANCH  10  12
HETATM   12  C3  UNL     1      -1.657  -0.153   0.011  1.00  0.00     0.166 C 
BRANCH  12  13
HETATM   13  C2  UNL     1      -1.979  -0.776  -1.274  1.00  0.00    -0.016 C 
HETATM   14  C1  UNL     1      -3.224  -1.119  -1.561  1.00  0.00     0.008 C 
ENDBRANCH  12  13
ENDBRANCH  10  12
ENDBRANCH   8  10
ENDBRANCH   1   8
BRANCH   5  15
HETATM   15  N4  UNL     1       2.843   2.635   1.574  1.00  0.00    -0.363 N 
ATOM     16  H42 UNL     1       3.749   3.103   1.585  1.00  0.00     0.159 HD
ATOM     17  H41 UNL     1       2.171   3.277   1.995  1.00  0.00     0.159 HD
ENDBRANCH   5  15
TORSDOF 5
