REMARK  1 active torsions:
REMARK  status: ('A' for Active; 'I' for Inactive)
REMARK    1  A    between atoms: C3_5  and  C4_6 
ROOT
HETATM    1  C1  UNL     1      -2.219   1.955  -1.922  1.00  0.00     0.041 C 
HETATM    2  C2  UNL     1      -1.710   1.185  -0.985  1.00  0.00     0.041 C 
HETATM    3  N1  UNL     1      -0.362   1.256  -0.615  1.00  0.00    -0.362 N 
ATOM      4  H1  UNL     1       0.149   2.121  -0.793  1.00  0.00     0.165 HD
HETATM    5  C3  UNL     1       0.273   0.255  -0.048  1.00  0.00     0.030 C 
HETATM    6  C8  UNL     1      -0.533  -0.936   0.166  1.00  0.00     0.159 C 
HETATM    7  C9  UNL     1      -0.756  -1.591  -1.205  1.00  0.00     0.052 C 
HETATM    8  C10 UNL     1      -0.024  -1.953   1.096  1.00  0.00     0.052 C 
HETATM    9  N2  UNL     1      -1.843  -0.503   0.667  1.00  0.00    -0.043 N 
ATOM     10  H21 UNL     1      -1.743   0.040   1.524  1.00  0.00     0.280 HD
ATOM     11  H22 UNL     1      -2.373  -1.295   1.032  1.00  0.00     0.280 HD
HETATM   12  C11 UNL     1      -2.601   0.212  -0.301  1.00  0.00     0.307 C 
HETATM   13  S1  UNL     1      -3.872   1.177   0.598  1.00  0.00    -0.056 SA
ENDROOT
BRANCH   5  14
HETATM   14  C4  UNL     1       1.694   0.435   0.301  1.00  0.00    -0.010 C 
HETATM   15  C5  UNL     1       2.165   1.823  -0.089  1.00  0.00     0.021 C 
HETATM   16  C6  UNL     1       1.919   0.314   1.802  1.00  0.00     0.021 C 
HETATM   17  C7  UNL     1       2.591  -0.534  -0.461  1.00  0.00     0.021 C 
ENDBRANCH   5  14
TORSDOF 1
