REMARK  5 active torsions:
REMARK  status: ('A' for Active; 'I' for Inactive)
REMARK    1  A    between atoms: S1_2  and  C2_3 
REMARK    2  A    between atoms: C2_3  and  N1_5 
REMARK    3  A    between atoms: N2_8  and  C5_9 
REMARK    4  A    between atoms: C5_9  and  C6_10 
REMARK       I    between atoms: C6_10  and  N3_12 
REMARK       I    between atoms: N4_14  and  C7_16 
REMARK       I    between atoms: C7_16  and  N6_20 
REMARK    5  A    between atoms: N6_20  and  C8_22 
ROOT
HETATM    1  C6  UNL     1      -0.637   1.974  -0.201  1.00  0.00     0.254 C 
HETATM    2  O1  UNL     1      -1.809   2.404  -0.446  1.00  0.00    -0.270 OA
HETATM    3  N3  UNL     1      -0.513   0.739   0.429  1.00  0.00    -0.254 N 
ATOM      4  H3  UNL     1       0.434   0.373   0.525  1.00  0.00     0.190 HD
HETATM    5  N4  UNL     1      -1.424   0.033   0.887  1.00  0.00    -0.130 N 
ATOM      6  H4  UNL     1      -1.137  -0.847   1.315  1.00  0.00     0.205 HD
HETATM    7  C7  UNL     1      -2.796   0.298   0.887  1.00  0.00     0.686 C 
HETATM    8  N5  UNL     1      -3.391   1.056   1.745  1.00  0.00    -0.234 N 
ATOM      9  H51 UNL     1      -4.392   1.249   1.745  1.00  0.00     0.174 HD
ATOM     10  H52 UNL     1      -2.814   1.485   2.468  1.00  0.00     0.174 HD
HETATM   11  N6  UNL     1      -3.601  -0.300  -0.122  1.00  0.00    -0.217 N 
ATOM     12  H6  UNL     1      -3.744   0.191  -1.004  1.00  0.00     0.178 HD
ENDROOT
BRANCH   1  13
HETATM   13  C5  UNL     1       0.473   2.862  -0.628  1.00  0.00     0.227 C 
BRANCH  13  14
HETATM   14  N2  UNL     1       1.771   2.361  -0.339  1.00  0.00    -0.368 N 
HETATM   15  C4  UNL     1       2.241   2.236   1.028  1.00  0.00     0.143 C 
HETATM   16  C3  UNL     1       3.658   1.687   1.004  1.00  0.00     0.144 C 
HETATM   17  N1  UNL     1       3.785   0.549   0.115  1.00  0.00    -0.359 N 
HETATM   18  C14 UNL     1       3.397   0.676  -1.282  1.00  0.00     0.187 C 
HETATM   19  C12 UNL     1       2.639   1.976  -1.385  1.00  0.00     0.094 C 
HETATM   20  C13 UNL     1       2.851   2.714  -2.460  1.00  0.00     0.291 C 
HETATM   21  F1  UNL     1       3.702   2.273  -3.429  1.00  0.00    -0.171 F 
HETATM   22  F2  UNL     1       2.285   3.924  -2.673  1.00  0.00    -0.171 F 
BRANCH  17  23
HETATM   23  C2  UNL     1       4.284  -0.658   0.625  1.00  0.00     0.136 C 
HETATM   24  S2  UNL     1       4.723  -0.820   2.173  1.00  0.00    -0.053 SA
BRANCH  23  25
HETATM   25  S1  UNL     1       4.441  -2.059  -0.469  1.00  0.00    -0.105 SA
HETATM   26  C1  UNL     1       5.114  -3.501   0.436  1.00  0.00     0.098 C 
ENDBRANCH  23  25
ENDBRANCH  17  23
ENDBRANCH  13  14
ENDBRANCH   1  13
BRANCH  11  27
HETATM   27  C8  UNL     1      -4.225  -1.599   0.080  1.00  0.00     0.036 C 
HETATM   28  C9  UNL     1      -3.229  -2.687   0.340  1.00  0.00     0.038 C 
HETATM   29  C10 UNL     1      -5.221  -1.456   1.209  1.00  0.00     0.038 C 
HETATM   30  C11 UNL     1      -5.009  -1.944  -1.166  1.00  0.00     0.038 C 
ENDBRANCH  11  27
TORSDOF 5
