REMARK  7 active torsions:
REMARK  status: ('A' for Active; 'I' for Inactive)
REMARK    1  A    between atoms: C10_10  and  C11_11 
REMARK    2  A    between atoms: C11_11  and  C12_13 
REMARK    3  A    between atoms: C12_13  and  N1_14 
REMARK    4  A    between atoms: N2_17  and  C15_18 
REMARK    5  A    between atoms: C15_18  and  C16_19 
REMARK    6  A    between atoms: C16_19  and  N3_20 
REMARK       I    between atoms: C17_22  and  N5_24 
REMARK    7  A    between atoms: C25_35  and  O2_36 
ROOT
HETATM    1  N1  UNL     1      -0.240  -1.241   0.667  1.00  0.00     0.098 N 
HETATM    2  C13 UNL     1       0.705  -1.953  -0.207  1.00  0.00     0.303 C 
HETATM    3  C14 UNL     1       1.992  -1.235  -0.416  1.00  0.00     0.302 C 
HETATM    4  N2  UNL     1       2.743  -1.092   0.825  1.00  0.00     0.093 N 
HETATM    5  C21 UNL     1       1.898  -1.423   1.923  1.00  0.00     0.302 C 
HETATM    6  C22 UNL     1       0.531  -0.821   1.851  1.00  0.00     0.303 C 
ENDROOT
BRANCH   1   7
HETATM    7  C12 UNL     1      -0.591  -0.050  -0.023  1.00  0.00     0.351 C 
BRANCH   7   8
HETATM    8  C11 UNL     1      -1.770   0.712   0.397  1.00  0.00     0.164 C 
HETATM    9  O1  UNL     1      -1.566   1.939   0.500  1.00  0.00    -0.295 OA
BRANCH   8  10
HETATM   10  C10 UNL     1      -3.128   0.249   0.706  1.00  0.00     0.033 C 
HETATM   11  C9  UNL     1      -4.204   1.318   0.545  1.00  0.00     0.010 C 
HETATM   12  C2  UNL     1      -4.532   1.689  -0.856  1.00  0.00    -0.042 C 
HETATM   13  C8  UNL     1      -5.518   0.729   1.074  1.00  0.00     0.007 C 
HETATM   14  C1  UNL     1      -5.792   2.582  -0.779  1.00  0.00     0.015 C 
HETATM   15  C3  UNL     1      -3.558   2.579  -1.598  1.00  0.00     0.015 C 
HETATM   16  C4  UNL     1      -4.802   0.420  -1.633  1.00  0.00     0.018 C 
HETATM   17  C5  UNL     1      -4.928  -0.784  -0.719  1.00  0.00    -0.036 C 
HETATM   18  C6  UNL     1      -5.211  -1.998  -1.553  1.00  0.00     0.015 C 
HETATM   19  C7  UNL     1      -6.008  -0.439   0.255  1.00  0.00     0.010 C 
HETATM   20  C26 UNL     1      -3.593  -0.986   0.024  1.00  0.00     0.039 C 
HETATM   21  C25 UNL     1      -3.742  -2.080   1.051  1.00  0.00     0.124 C 
HETATM   22  C24 UNL     1      -3.247  -1.545   2.359  1.00  0.00     0.033 C 
HETATM   23  C23 UNL     1      -3.096  -0.075   2.215  1.00  0.00     0.020 C 
BRANCH  21  24
HETATM   24  O2  UNL     1      -3.061  -3.250   0.731  1.00  0.00    -0.395 OA
ATOM     25  H2  UNL     1      -3.375  -3.589  -0.099  1.00  0.00     0.210 HD
ENDBRANCH  21  24
ENDBRANCH   8  10
ENDBRANCH   7   8
ENDBRANCH   1   7
BRANCH   4  26
HETATM   26  C15 UNL     1       3.371   0.203   0.889  1.00  0.00     0.292 C 
BRANCH  26  27
HETATM   27  C16 UNL     1       4.480   0.277  -0.169  1.00  0.00     0.152 C 
BRANCH  27  28
HETATM   28  N3  UNL     1       5.138   1.541  -0.198  1.00  0.00    -0.363 N 
HETATM   29  C17 UNL     1       6.373   1.801  -0.273  1.00  0.00     0.187 C 
HETATM   30  N4  UNL     1       6.781   3.162  -0.286  1.00  0.00    -0.064 NA
HETATM   31  N5  UNL     1       7.349   0.795  -0.340  1.00  0.00    -0.331 N 
HETATM   32  C18 UNL     1       8.295   0.428   0.736  1.00  0.00     0.154 C 
HETATM   33  C20 UNL     1       7.638  -0.071  -1.446  1.00  0.00     0.359 C 
HETATM   34  C19 UNL     1       9.522   0.106  -0.094  1.00  0.00     0.254 C 
HETATM   35  N6  UNL     1       8.926  -0.698  -1.153  1.00  0.00    -0.058 N 
ATOM     36  H62 UNL     1       9.525  -0.805  -1.972  1.00  0.00     0.279 HD
ATOM     37  H61 UNL     1       8.856  -1.689  -0.924  1.00  0.00     0.279 HD
ATOM     38  H3  UNL     1       4.523   2.354  -0.152  1.00  0.00     0.162 HD
ENDBRANCH  27  28
ENDBRANCH  26  27
ENDBRANCH   4  26
TORSDOF 7
