REMARK  10 active torsions:
REMARK  status: ('A' for Active; 'I' for Inactive)
REMARK    1  A    between atoms: O1_2  and  C2_3 
REMARK    2  A    between atoms: C2_3  and  C3_7 
REMARK    3  A    between atoms: C4_9  and  C5_10 
REMARK    4  A    between atoms: N3_12  and  C7_13 
REMARK    5  A    between atoms: C7_13  and  C8_14 
REMARK    6  A    between atoms: C8_14  and  C10_16 
REMARK    7  A    between atoms: C10_16  and  O2_17 
REMARK    8  A    between atoms: C10_16  and  N4_19 
REMARK    9  A    between atoms: C10_16  and  O3_27 
REMARK       I    between atoms: C11_21  and  N6_23 
REMARK   10  A    between atoms: O3_27  and  C13_28 
ROOT
HETATM    1  N4  UNL     1      -2.923   1.344  -0.117  1.00  0.00    -0.309 N 
ATOM      2  H4  UNL     1      -2.450   1.717  -0.940  1.00  0.00     0.167 HD
HETATM    3  C11 UNL     1      -3.825   2.069   0.355  1.00  0.00     0.201 C 
HETATM    4  N5  UNL     1      -4.127   3.311  -0.251  1.00  0.00    -0.063 NA
HETATM    5  N6  UNL     1      -4.571   1.691   1.494  1.00  0.00    -0.267 N 
ATOM      6  H6  UNL     1      -5.154   0.855   1.442  1.00  0.00     0.180 HD
HETATM    7  C12 UNL     1      -4.544   2.410   2.682  1.00  0.00     0.184 C 
HETATM    8  N7  UNL     1      -4.537   3.021   3.677  1.00  0.00    -0.172 NA
ENDROOT
BRANCH   1   9
HETATM    9  C10 UNL     1      -2.452   0.054   0.333  1.00  0.00     0.254 C 
BRANCH   9  10
HETATM   10  C8  UNL     1      -0.928   0.269   0.477  1.00  0.00     0.087 C 
HETATM   11  C9  UNL     1      -0.372   0.396  -0.942  1.00  0.00     0.019 C 
BRANCH  10  12
HETATM   12  C7  UNL     1      -0.264  -0.907   1.112  1.00  0.00     0.161 C 
BRANCH  12  13
HETATM   13  N3  UNL     1       1.155  -0.658   1.126  1.00  0.00    -0.286 N 
HETATM   14  C6  UNL     1       2.103  -0.962   0.205  1.00  0.00     0.142 A 
HETATM   15  C5  UNL     1       3.313  -0.514   0.679  1.00  0.00     0.068 A 
HETATM   16  N9  UNL     1       3.084   0.047   1.863  1.00  0.00    -0.285 N 
HETATM   17  N8  UNL     1       1.794  -0.052   2.106  1.00  0.00    -0.240 N 
ATOM     18  H9  UNL     1       3.781   0.476   2.472  1.00  0.00     0.188 HD
ATOM     19  H8  UNL     1       1.343   0.298   2.951  1.00  0.00     0.208 HD
BRANCH  15  20
HETATM   20  C4  UNL     1       4.589  -0.660  -0.040  1.00  0.00     0.063 C 
HETATM   21  C3  UNL     1       5.465   0.329   0.038  1.00  0.00     0.099 C 
HETATM   22  N2  UNL     1       5.153   1.505   0.811  1.00  0.00    -0.098 NA
BRANCH  21  23
HETATM   23  C2  UNL     1       6.744   0.267  -0.638  1.00  0.00     0.160 C 
HETATM   24  N1  UNL     1       7.084  -0.744  -1.337  1.00  0.00    -0.379 N 
ATOM     25  H12 UNL     1       7.985  -0.788  -1.813  1.00  0.00     0.158 HD
ATOM     26  H11 UNL     1       6.432  -1.524  -1.417  1.00  0.00     0.158 HD
BRANCH  23  27
HETATM   27  O1  UNL     1       7.642   1.341  -0.528  1.00  0.00    -0.340 OA
HETATM   28  C1  UNL     1       8.996   1.218  -0.930  1.00  0.00     0.211 C 
ENDBRANCH  23  27
ENDBRANCH  21  23
ENDBRANCH  15  20
ENDBRANCH  12  13
ENDBRANCH  10  12
ENDBRANCH   9  10
BRANCH   9  29
HETATM   29  O2  UNL     1      -2.898  -0.127   1.629  1.00  0.00    -0.348 OA
ATOM     30  H2  UNL     1      -3.835  -0.259   1.541  1.00  0.00     0.215 HD
ENDBRANCH   9  29
BRANCH   9  31
HETATM   31  O3  UNL     1      -2.594  -0.977  -0.504  1.00  0.00    -0.328 OA
BRANCH  31  32
HETATM   32  C13 UNL     1      -3.774  -1.529  -0.816  1.00  0.00     0.055 C 
HETATM   33  C14 UNL     1      -4.805  -0.680  -1.464  1.00  0.00     0.045 C 
HETATM   34  C15 UNL     1      -4.458  -2.277   0.314  1.00  0.00     0.045 C 
HETATM   35  C16 UNL     1      -3.454  -2.641  -1.842  1.00  0.00     0.045 C 
ENDBRANCH  31  32
ENDBRANCH   9  31
ENDBRANCH   1   9
TORSDOF 10
