REMARK  2 active torsions:
REMARK  status: ('A' for Active; 'I' for Inactive)
REMARK    1  A    between atoms: C1_2  and  C2_3 
REMARK    2  A    between atoms: C4_8  and  C5_9 
ROOT
HETATM    1  C2  UNL     1      -2.115  -0.914   0.888  1.00  0.00     0.028 C 
HETATM    2  C3  UNL     1      -2.188  -2.071  -0.047  1.00  0.00     0.207 C 
HETATM    3  O1  UNL     1      -1.176  -2.177  -0.988  1.00  0.00    -0.280 OA
HETATM    4  N1  UNL     1      -0.062  -1.404  -0.877  1.00  0.00    -0.270 N 
ATOM      5  H1  UNL     1       0.639  -1.499  -1.611  1.00  0.00     0.194 HD
HETATM    6  C4  UNL     1       0.192  -0.567   0.062  1.00  0.00     0.043 C 
HETATM    7  C11 UNL     1      -0.757  -0.368   1.151  1.00  0.00     0.067 C 
ENDROOT
BRANCH   6   8
HETATM    8  C5  UNL     1       1.442   0.189   0.032  1.00  0.00    -0.012 A 
HETATM    9  C6  UNL     1       2.342   0.003  -1.005  1.00  0.00     0.013 A 
HETATM   10  C7  UNL     1       3.534   0.695  -1.071  1.00  0.00     0.001 A 
HETATM   11  C8  UNL     1       3.877   1.607  -0.095  1.00  0.00     0.000 A 
HETATM   12  C9  UNL     1       2.994   1.804   0.942  1.00  0.00     0.001 A 
HETATM   13  C10 UNL     1       1.788   1.101   1.005  1.00  0.00     0.013 A 
ENDBRANCH   6   8
BRANCH   1  14
HETATM   14  C1  UNL     1      -3.041   0.175   0.323  1.00  0.00     0.093 C 
HETATM   15  S1  UNL     1      -2.520   0.688  -1.335  1.00  0.00    -0.097 SA
ENDBRANCH   1  14
TORSDOF 2
