REMARK  8 active torsions:
REMARK  status: ('A' for Active; 'I' for Inactive)
REMARK       I    between atoms: C2_2  and  N1_4 
REMARK    1  A    between atoms: N1_4  and  C3_6 
REMARK    2  A    between atoms: C3_6  and  N2_7 
REMARK    3  A    between atoms: C3_6  and  C14_26 
REMARK       I    between atoms: N2_7  and  C4_9 
REMARK    4  A    between atoms: C4_9  and  C5_11 
REMARK    5  A    between atoms: C6_12  and  S1_13 
REMARK    6  A    between atoms: S1_13  and  C7_14 
REMARK    7  A    between atoms: C7_14  and  C8_15 
REMARK    8  A    between atoms: N4_29  and  C17_30 
ROOT
HETATM    1  N2  UNL     1      -0.547  -1.791   0.173  1.00  0.00    -0.339 N 
ATOM      2  H2  UNL     1      -1.104  -2.476  -0.338  1.00  0.00     0.164 HD
HETATM    3  C4  UNL     1      -1.293  -0.983   1.008  1.00  0.00     0.229 C 
HETATM    4  O2  UNL     1      -0.778  -0.092   1.720  1.00  0.00    -0.273 OA
ENDROOT
BRANCH   1   5
HETATM    5  C3  UNL     1       0.862  -1.858  -0.120  1.00  0.00     0.190 C 
BRANCH   5   6
HETATM    6  N1  UNL     1       1.371  -3.087   0.456  1.00  0.00    -0.340 N 
HETATM    7  C2  UNL     1       1.876  -4.170  -0.270  1.00  0.00     0.215 C 
HETATM    8  C1  UNL     1       2.373  -5.383   0.411  1.00  0.00     0.117 C 
HETATM    9  O1  UNL     1       1.916  -4.131  -1.518  1.00  0.00    -0.274 OA
ATOM     10  H1  UNL     1       1.360  -3.168   1.473  1.00  0.00     0.164 HD
ENDBRANCH   5   6
BRANCH   5  11
HETATM   11  C14 UNL     1       1.677  -0.683   0.325  1.00  0.00     0.031 C 
HETATM   12  C15 UNL     1       3.130  -0.992  -0.081  1.00  0.00     0.038 C 
HETATM   13  C16 UNL     1       3.897   0.293  -0.292  1.00  0.00     0.273 C 
HETATM   14  N4  UNL     1       3.395   1.372   0.487  1.00  0.00     0.093 N 
HETATM   15  C21 UNL     1       2.008   1.696   0.185  1.00  0.00     0.273 C 
HETATM   16  C22 UNL     1       1.363   0.537  -0.541  1.00  0.00     0.038 C 
BRANCH  14  17
HETATM   17  C17 UNL     1       4.151   2.566   0.463  1.00  0.00     0.223 C 
HETATM   18  C18 UNL     1       5.530   2.420   1.043  1.00  0.00     0.036 C 
HETATM   19  C19 UNL     1       6.059   3.251  -0.117  1.00  0.00     0.004 C 
HETATM   20  C20 UNL     1       4.760   2.996  -0.851  1.00  0.00     0.036 C 
ENDBRANCH  14  17
ENDBRANCH   5  11
ENDBRANCH   1   5
BRANCH   3  21
HETATM   21  C5  UNL     1      -2.781  -1.098   1.139  1.00  0.00     0.149 C 
HETATM   22  C6  UNL     1      -3.388  -0.173   2.126  1.00  0.00     0.156 C 
HETATM   23  C9  UNL     1      -4.828  -0.135   1.694  1.00  0.00     0.236 C 
HETATM   24  O3  UNL     1      -5.787   0.065   2.471  1.00  0.00    -0.272 OA
HETATM   25  N3  UNL     1      -4.802  -0.365   0.307  1.00  0.00    -0.323 N 
HETATM   26  C10 UNL     1      -5.879  -0.127  -0.673  1.00  0.00     0.130 C 
HETATM   27  C13 UNL     1      -3.533  -0.911  -0.125  1.00  0.00     0.240 C 
HETATM   28  C11 UNL     1      -5.268  -0.644  -1.982  1.00  0.00     0.046 C 
HETATM   29  C12 UNL     1      -4.777  -2.044  -1.708  1.00  0.00     0.172 C 
HETATM   30  O4  UNL     1      -3.725  -2.119  -0.815  1.00  0.00    -0.366 OA
BRANCH  22  31
HETATM   31  S1  UNL     1      -2.765   1.484   2.036  1.00  0.00    -0.151 SA
BRANCH  31  32
HETATM   32  C7  UNL     1      -3.227   2.415   0.576  1.00  0.00     0.110 C 
BRANCH  32  33
HETATM   33  C8  UNL     1      -2.753   3.863   0.708  1.00  0.00     0.187 C 
HETATM   34 CL1  UNL     1      -3.245   4.711  -0.771  1.00  0.00    -0.107 Cl
HETATM   35 CL2  UNL     1      -1.026   4.007   0.959  1.00  0.00    -0.107 Cl
ENDBRANCH  32  33
ENDBRANCH  31  32
ENDBRANCH  22  31
ENDBRANCH   3  21
TORSDOF 8
