REMARK  5 active torsions:
REMARK  status: ('A' for Active; 'I' for Inactive)
REMARK    1  A    between atoms: C2_2  and  C3_3 
REMARK    2  A    between atoms: C2_2  and  N2_6 
REMARK    3  A    between atoms: C5_10  and  N4_11 
REMARK    4  A    between atoms: C6_16  and  N6_17 
REMARK    5  A    between atoms: N6_17  and  N7_19 
ROOT
HETATM    1  N2  UNL     1       0.007  -0.470   0.155  1.00  0.00    -0.137 N 
HETATM    2  C4  UNL     1       0.571  -1.632   0.589  1.00  0.00     0.224 A 
HETATM    3  N3  UNL     1       1.880  -1.816   0.546  1.00  0.00    -0.186 N 
ATOM      4  H3  UNL     1       2.277  -2.695   0.877  1.00  0.00     0.185 HD
HETATM    5  C5  UNL     1       2.691  -0.860   0.072  1.00  0.00     0.691 A 
HETATM    6  N5  UNL     1       2.164   0.284  -0.358  1.00  0.00    -0.021 N 
ATOM      7  H5  UNL     1       2.764   1.024  -0.722  1.00  0.00     0.203 HD
HETATM    8  C6  UNL     1       0.835   0.453  -0.307  1.00  0.00     0.719 A 
ENDROOT
BRANCH   1   9
HETATM    9  C2  UNL     1      -1.396  -0.415   0.228  1.00  0.00     0.113 C 
HETATM   10  C1  UNL     1      -2.042  -1.508  -0.230  1.00  0.00     0.049 C 
BRANCH   9  11
HETATM   11  C3  UNL     1      -2.164   0.680   0.777  1.00  0.00     0.281 C 
HETATM   12  N1  UNL     1      -3.606   0.579   0.796  1.00  0.00    -0.056 NA
HETATM   13  O1  UNL     1      -1.649   1.731   1.250  1.00  0.00    -0.269 OA
ENDBRANCH   9  11
ENDBRANCH   1   9
BRANCH   8  14
HETATM   14  N6  UNL     1       0.344   1.565  -0.765  1.00  0.00    -0.138 N 
ATOM     15  H6  UNL     1      -0.667   1.701  -0.758  1.00  0.00     0.205 HD
BRANCH  14  16
HETATM   16  N7  UNL     1       1.158   2.573  -1.264  1.00  0.00    -0.331 N 
ATOM     17  H72 UNL     1       2.167   2.420  -1.264  1.00  0.00     0.177 HD
ATOM     18  H71 UNL     1       0.772   3.446  -1.624  1.00  0.00     0.177 HD
ENDBRANCH  14  16
ENDBRANCH   8  14
BRANCH   5  19
HETATM   19  N4  UNL     1       3.967  -1.036   0.029  1.00  0.00    -0.234 N 
ATOM     20  H42 UNL     1       4.371  -1.913   0.359  1.00  0.00     0.174 HD
ATOM     21  H41 UNL     1       4.584  -0.308  -0.332  1.00  0.00     0.174 HD
ENDBRANCH   5  19
TORSDOF 5
