REMARK  4 active torsions:
REMARK  status: ('A' for Active; 'I' for Inactive)
REMARK    1  A    between atoms: N1_1  and  N2_4 
REMARK    2  A    between atoms: N2_4  and  C1_6 
REMARK    3  A    between atoms: C2_11  and  S1_12 
REMARK    4  A    between atoms: S1_12  and  N5_13 
ROOT
HETATM    1  C1  UNL     1       1.813  -0.046   0.267  1.00  0.00     0.180 A 
HETATM    2  N3  UNL     1       1.240  -0.752   1.244  1.00  0.00    -0.277 N 
ATOM      3  H3  UNL     1       1.790  -1.096   2.031  1.00  0.00     0.189 HD
HETATM    4  N4  UNL     1      -0.005  -0.986   1.171  1.00  0.00    -0.281 N 
ATOM      5  H4  UNL     1      -0.456  -1.525   1.910  1.00  0.00     0.188 HD
HETATM    6  C2  UNL     1      -0.722  -0.550   0.166  1.00  0.00     0.208 A 
HETATM    7  S2  UNL     1       0.483   0.267  -0.762  1.00  0.00    -0.018 SA
ENDROOT
BRANCH   6   8
HETATM    8  S1  UNL     1      -2.453  -0.745  -0.156  1.00  0.00     0.280 S 
HETATM    9  O1  UNL     1      -2.663  -0.734  -1.644  1.00  0.00    -0.199 OA
HETATM   10  O2  UNL     1      -2.933  -2.058   0.369  1.00  0.00    -0.199 OA
BRANCH   8  11
HETATM   11  N5  UNL     1      -3.300   0.577   0.563  1.00  0.00    -0.323 N 
ATOM     12  H52 UNL     1      -2.862   1.337   1.084  1.00  0.00     0.169 HD
ATOM     13  H51 UNL     1      -4.297   0.465   0.378  1.00  0.00     0.169 HD
ENDBRANCH   8  11
ENDBRANCH   6   8
BRANCH   1  14
HETATM   14  N2  UNL     1       3.073   0.300   0.156  1.00  0.00    -0.285 N 
ATOM     15  H2  UNL     1       3.753   0.030   0.867  1.00  0.00     0.188 HD
BRANCH  14  16
HETATM   16  N1  UNL     1       3.467   1.054  -0.970  1.00  0.00    -0.343 N 
ATOM     17  H12 UNL     1       2.775   1.316  -1.672  1.00  0.00     0.176 HD
ATOM     18  H11 UNL     1       4.447   1.323  -1.056  1.00  0.00     0.176 HD
ENDBRANCH  14  16
ENDBRANCH   1  14
TORSDOF 4
