REMARK  3 active torsions:
REMARK  status: ('A' for Active; 'I' for Inactive)
REMARK    1  A    between atoms: N1_1  and  C1_4 
REMARK    2  A    between atoms: C2_7  and  C3_8 
REMARK    3  A    between atoms: C3_8  and  N3_9 
ROOT
HETATM    1  C1  UNL     1      -1.982  -0.034   0.381  1.00  0.00     0.142 A 
HETATM    2  N2  UNL     1      -0.700   0.264   0.605  1.00  0.00    -0.335 N 
ATOM      3  H2  UNL     1      -0.440   0.876   1.379  1.00  0.00     0.168 HD
HETATM    4  C2  UNL     1       0.222  -0.239  -0.181  1.00  0.00     0.062 A 
HETATM    5  C4  UNL     1      -0.237  -1.062  -1.205  1.00  0.00     0.084 A 
HETATM    6  S1  UNL     1      -1.920  -1.051  -0.968  1.00  0.00    -0.064 SA
ENDROOT
BRANCH   4   7
HETATM    7  C3  UNL     1       1.688  -0.009  -0.072  1.00  0.00     0.197 C 
BRANCH   7   8
HETATM    8  N3  UNL     1       2.284   0.696   0.780  1.00  0.00    -0.125 N 
HETATM    9  O1  UNL     1       1.677   1.383   1.767  1.00  0.00    -0.532 OA
HETATM   10  O2  UNL     1       3.691   0.788   0.715  1.00  0.00    -0.532 OA
ENDBRANCH   7   8
ENDBRANCH   4   7
BRANCH   1  11
HETATM   11  N1  UNL     1      -3.022   0.390   1.079  1.00  0.00    -0.380 N 
ATOM     12  H12 UNL     1      -3.059   1.004   1.893  1.00  0.00     0.158 HD
ATOM     13  H11 UNL     1      -4.001   0.162   0.908  1.00  0.00     0.158 HD
ENDBRANCH   1  11
TORSDOF 3
