REMARK  6 active torsions:
REMARK  status: ('A' for Active; 'I' for Inactive)
REMARK       I    between atoms: C1_4  and  N2_5 
REMARK       I    between atoms: C1_4  and  N3_9 
REMARK    1  A    between atoms: N2_5  and  C2_7 
REMARK    2  A    between atoms: N3_9  and  C3_11 
REMARK    3  A    between atoms: C3_11  and  C4_17 
REMARK    4  A    between atoms: N4_12  and  N5_14 
REMARK       I    between atoms: C4_17  and  N6_19 
REMARK    5  A    between atoms: C5_21  and  N7_22 
REMARK    6  A    between atoms: N7_22  and  N8_24 
ROOT
HETATM    1  C3  UNL     1      -0.603  -0.081   0.735  1.00  0.00     0.203 C 
HETATM    2  N4  UNL     1      -0.329   0.013   1.976  1.00  0.00    -0.287 N 
ATOM      3  H4  UNL     1       0.594  -0.281   2.295  1.00  0.00     0.188 HD
ENDROOT
BRANCH   1   4
HETATM    4  N3  UNL     1      -1.876   0.321   0.268  1.00  0.00    -0.170 N 
HETATM    5  C1  UNL     1      -2.060   0.666  -1.074  1.00  0.00     0.679 C 
HETATM    6  N1  UNL     1      -1.537   1.748  -1.516  1.00  0.00    -0.234 N 
HETATM    7  N2  UNL     1      -2.812  -0.152  -1.945  1.00  0.00    -0.168 N 
ATOM      8  H12 UNL     1      -1.671   2.000  -2.495  1.00  0.00     0.174 HD
ATOM      9  H11 UNL     1      -0.994   2.339  -0.887  1.00  0.00     0.174 HD
ATOM     10  H2  UNL     1      -2.936   0.121  -2.920  1.00  0.00     0.186 HD
ATOM     11  H3  UNL     1      -2.664   0.359   0.914  1.00  0.00     0.186 HD
BRANCH   7  12
HETATM   12  C2  UNL     1      -3.391  -1.343  -1.469  1.00  0.00     0.368 C 
HETATM   13  O1  UNL     1      -3.237  -1.674  -0.274  1.00  0.00    -0.283 OA
ENDBRANCH   7  12
ENDBRANCH   1   4
BRANCH   1  14
HETATM   14  C4  UNL     1       0.372  -0.590  -0.200  1.00  0.00     0.292 C 
HETATM   15  O2  UNL     1       0.190  -0.715  -1.437  1.00  0.00    -0.264 OA
HETATM   16  N6  UNL     1       1.652  -0.988   0.305  1.00  0.00    -0.315 N 
HETATM   17  C5  UNL     1       2.545  -0.073   0.477  1.00  0.00     0.199 C 
ATOM     18  H6  UNL     1       1.851  -1.965   0.522  1.00  0.00     0.170 HD
BRANCH  17  19
HETATM   19  N7  UNL     1       3.806  -0.500   0.979  1.00  0.00    -0.303 N 
ATOM     20  H7  UNL     1       3.880  -1.296   1.613  1.00  0.00     0.187 HD
BRANCH  19  21
HETATM   21  N8  UNL     1       4.940   0.210   0.572  1.00  0.00    -0.344 N 
ATOM     22  H82 UNL     1       4.849   1.003  -0.063  1.00  0.00     0.176 HD
ATOM     23  H81 UNL     1       5.844  -0.096   0.932  1.00  0.00     0.176 HD
ENDBRANCH  19  21
ENDBRANCH  17  19
ENDBRANCH   1  14
BRANCH   2  24
HETATM   24  N5  UNL     1      -1.237   0.500   2.917  1.00  0.00    -0.343 N 
ATOM     25  H52 UNL     1      -2.155   0.789   2.580  1.00  0.00     0.176 HD
ATOM     26  H51 UNL     1      -1.018   0.575   3.910  1.00  0.00     0.176 HD
ENDBRANCH   2  24
TORSDOF 6
