REMARK  3 active torsions:
REMARK  status: ('A' for Active; 'I' for Inactive)
REMARK    1  A    between atoms: C4_7  and  N3_8 
REMARK    2  A    between atoms: C9_16  and  C10_17 
REMARK       I    between atoms: C10_17  and  N5_19 
REMARK    3  A    between atoms: N5_19  and  N6_21 
ROOT
HETATM    1  N1  UNL     1       4.897   0.986  -0.345  1.00  0.00    -0.191 NA
HETATM    2  C1  UNL     1       3.754   0.997  -0.279  1.00  0.00     0.104 C 
HETATM    3  C2  UNL     1       2.333   1.056  -0.185  1.00  0.00     0.113 A 
HETATM    4  C3  UNL     1       1.633   2.243  -0.131  1.00  0.00     0.181 A 
HETATM    5  N2  UNL     1       2.153   3.587  -0.176  1.00  0.00    -0.073 NA
HETATM    6  O1  UNL     1       0.397   1.945  -0.034  1.00  0.00    -0.277 OA
HETATM    7  C4  UNL     1       0.215   0.617  -0.019  1.00  0.00     0.165 A 
HETATM    8  C9  UNL     1       1.443   0.006  -0.116  1.00  0.00     0.109 A 
ENDROOT
BRANCH   8   9
HETATM    9  C10 UNL     1       1.698  -1.419  -0.160  1.00  0.00     0.275 C 
HETATM   10  O2  UNL     1       0.696  -2.184   0.132  1.00  0.00    -0.266 OA
HETATM   11  N5  UNL     1       2.896  -2.072  -0.476  1.00  0.00    -0.272 N 
ATOM     12  H5  UNL     1       3.721  -1.524  -0.722  1.00  0.00     0.189 HD
BRANCH  11  13
HETATM   13  N6  UNL     1       2.973  -3.497  -0.457  1.00  0.00    -0.342 N 
ATOM     14  H62 UNL     1       2.139  -4.030  -0.209  1.00  0.00     0.176 HD
ATOM     15  H61 UNL     1       3.846  -3.973  -0.687  1.00  0.00     0.176 HD
ENDBRANCH  11  13
ENDBRANCH   8   9
BRANCH   7  16
HETATM   16  N3  UNL     1      -1.093   0.102   0.082  1.00  0.00    -0.357 N 
HETATM   17  C5  UNL     1      -1.697  -0.575   1.178  1.00  0.00     0.152 C 
HETATM   18  C6  UNL     1      -3.066   0.012   1.524  1.00  0.00     0.252 C 
HETATM   19  N4  UNL     1      -3.891   0.090   0.334  1.00  0.00    -0.072 N 
HETATM   20  C7  UNL     1      -3.235  -0.432  -0.855  1.00  0.00     0.252 C 
ATOM     21  H42 UNL     1      -4.789  -0.370   0.484  1.00  0.00     0.277 HD
ATOM     22  H41 UNL     1      -4.215   1.045   0.180  1.00  0.00     0.277 HD
HETATM   23  C8  UNL     1      -1.971   0.353  -1.094  1.00  0.00     0.152 C 
ENDBRANCH   7  16
TORSDOF 3
