REMARK  8 active torsions:
REMARK  status: ('A' for Active; 'I' for Inactive)
REMARK    1  A    between atoms: C3_3  and  N1_4 
REMARK    2  A    between atoms: C6_9  and  C7_10 
REMARK    3  A    between atoms: C7_10  and  O3_12 
REMARK    4  A    between atoms: C9_16  and  N3_17 
REMARK    5  A    between atoms: N3_17  and  C10_19 
REMARK    6  A    between atoms: C10_19  and  C12_21 
REMARK    7  A    between atoms: C15_30  and  O4_31 
REMARK    8  A    between atoms: O4_31  and  C16_32 
ROOT
HETATM    1  C1  UNL     1       0.274  -2.678  -0.145  1.00  0.00     0.057 C 
HETATM    2  C2  UNL     1       0.175  -1.227   0.007  1.00  0.00     0.035 A 
HETATM    3  C3  UNL     1      -1.060  -0.650   0.153  1.00  0.00     0.138 A 
HETATM    4  N2  UNL     1      -1.026   0.718   0.287  1.00  0.00    -0.176 N 
ATOM      5  H2  UNL     1      -1.915   1.206   0.398  1.00  0.00     0.186 HD
HETATM    6  C9  UNL     1       0.082   1.448   0.282  1.00  0.00     0.682 A 
HETATM    7  N5  UNL     1       1.261   0.841   0.137  1.00  0.00    -0.170 N 
ATOM      8  H5  UNL     1       2.107   1.410   0.133  1.00  0.00     0.186 HD
HETATM    9  C15 UNL     1       1.381  -0.509  -0.006  1.00  0.00     0.167 A 
ENDROOT
BRANCH   6  10
HETATM   10  N3  UNL     1       0.087   2.737   0.410  1.00  0.00    -0.216 N 
ATOM     11  H3  UNL     1       0.977   3.235   0.397  1.00  0.00     0.178 HD
BRANCH  10  12
HETATM   12  C10 UNL     1      -1.131   3.482   0.570  1.00  0.00     0.145 C 
HETATM   13  C11 UNL     1      -1.726   3.328   1.934  1.00  0.00     0.039 C 
BRANCH  12  14
HETATM   14  C12 UNL     1      -0.874   4.957   0.315  1.00  0.00     0.041 A 
HETATM   15  C13 UNL     1       0.233   5.568   0.854  1.00  0.00     0.081 A 
HETATM   16  S1  UNL     1       0.049   7.169   0.283  1.00  0.00    -0.051 SA
HETATM   17  C14 UNL     1      -1.402   6.967  -0.593  1.00  0.00     0.231 A 
HETATM   18  F1  UNL     1      -2.135   7.881  -1.322  1.00  0.00    -0.178 F 
HETATM   19  N4  UNL     1      -1.668   5.684  -0.401  1.00  0.00    -0.328 N 
ATOM     20  H4  UNL     1      -2.501   5.269  -0.819  1.00  0.00     0.168 HD
ENDBRANCH  12  14
ENDBRANCH  10  12
ENDBRANCH   6  10
BRANCH   3  21
HETATM   21  N1  UNL     1      -2.286  -1.339   0.184  1.00  0.00    -0.269 N 
HETATM   22  C4  UNL     1      -3.530  -0.604   0.413  1.00  0.00     0.369 C 
HETATM   23  O1  UNL     1      -3.704   0.621   0.163  1.00  0.00    -0.238 OA
HETATM   24  O2  UNL     1      -4.479  -1.464   0.944  1.00  0.00    -0.301 OA
HETATM   25  C5  UNL     1      -3.804  -2.659   1.235  1.00  0.00     0.209 C 
HETATM   26  C6  UNL     1      -2.773  -2.666   0.058  1.00  0.00     0.149 C 
BRANCH  26  27
HETATM   27  C7  UNL     1      -3.624  -2.961  -1.139  1.00  0.00     0.139 C 
HETATM   28  C8  UNL     1      -2.982  -2.939  -2.467  1.00  0.00     0.041 C 
BRANCH  27  29
HETATM   29  O3  UNL     1      -4.786  -2.200  -1.221  1.00  0.00    -0.394 OA
ATOM     30  H3  UNL     1      -5.326  -2.387  -1.980  1.00  0.00     0.210 HD
ENDBRANCH  27  29
ENDBRANCH  26  27
ENDBRANCH   3  21
BRANCH   9  31
HETATM   31  O4  UNL     1       2.532  -1.057  -0.141  1.00  0.00    -0.327 OA
BRANCH  31  32
HETATM   32  C16 UNL     1       3.672  -1.667  -0.283  1.00  0.00     0.164 C 
HETATM   33  C17 UNL     1       4.501  -1.487   1.012  1.00  0.00     0.035 C 
HETATM   34  C18 UNL     1       5.116  -0.131   0.757  1.00  0.00     0.006 C 
HETATM   35  C19 UNL     1       5.689  -0.333  -0.628  1.00  0.00     0.040 C 
HETATM   36  C20 UNL     1       4.635  -1.119  -1.326  1.00  0.00     0.199 C 
HETATM   37  F2  UNL     1       3.973  -0.415  -2.309  1.00  0.00    -0.247 F 
ENDBRANCH  31  32
ENDBRANCH   9  31
TORSDOF 8
