REMARK  8 active torsions:
REMARK  status: ('A' for Active; 'I' for Inactive)
REMARK    1  A    between atoms: N1_2  and  C2_4 
REMARK    2  A    between atoms: C3_7  and  N3_8 
REMARK    3  A    between atoms: C4_13  and  N5_14 
REMARK    4  A    between atoms: N5_14  and  C5_16 
REMARK    5  A    between atoms: C5_16  and  C6_17 
REMARK    6  A    between atoms: C6_17  and  C7_18 
REMARK    7  A    between atoms: C7_18  and  C8_19 
REMARK    8  A    between atoms: C10_23  and  N7_24 
ROOT
HETATM    1  N7  UNL     1       5.139   1.874  -0.809  1.00  0.00    -0.265 N 
ATOM      2  H7  UNL     1       5.158   2.773  -0.327  1.00  0.00     0.181 HD
HETATM    3  C11 UNL     1       5.572   1.761  -2.131  1.00  0.00     0.184 C 
HETATM    4  N8  UNL     1       5.930   1.678  -3.244  1.00  0.00    -0.172 NA
ENDROOT
BRANCH   1   5
HETATM    5  C10 UNL     1       4.669   0.699  -0.150  1.00  0.00     0.184 C 
HETATM    6  N6  UNL     1       5.325  -0.118   0.636  1.00  0.00    -0.360 N 
HETATM    7  C9  UNL     1       4.419  -1.190   1.077  1.00  0.00     0.147 C 
ATOM      8  H6  UNL     1       6.306  -0.026   0.900  1.00  0.00     0.162 HD
HETATM    9  C8  UNL     1       3.078  -0.390   1.047  1.00  0.00     0.102 C 
HETATM   10  N9  UNL     1       3.322   0.223  -0.270  1.00  0.00    -0.355 N 
ATOM     11  H9  UNL     1       2.690   0.292  -1.068  1.00  0.00     0.163 HD
BRANCH   9  12
HETATM   12  C7  UNL     1       1.925  -1.318   1.076  1.00  0.00     0.028 C 
BRANCH  12  13
HETATM   13  C6  UNL     1       0.623  -0.627   1.114  1.00  0.00     0.022 C 
BRANCH  13  14
HETATM   14  C5  UNL     1       0.286   0.302  -0.007  1.00  0.00     0.138 C 
BRANCH  14  15
HETATM   15  N5  UNL     1      -1.063   0.845   0.225  1.00  0.00    -0.225 N 
ATOM     16  H5  UNL     1      -1.143   1.736   0.716  1.00  0.00     0.177 HD
BRANCH  15  17
HETATM   17  C4  UNL     1      -2.133   0.271  -0.149  1.00  0.00     0.707 A 
HETATM   18  N4  UNL     1      -2.083  -0.895  -0.796  1.00  0.00    -0.022 N 
HETATM   19  C3  UNL     1      -3.225  -1.490  -1.186  1.00  0.00     0.705 A 
ATOM     20  H4  UNL     1      -1.183  -1.333  -0.994  1.00  0.00     0.203 HD
HETATM   21  N2  UNL     1      -4.405  -0.934  -0.937  1.00  0.00    -0.022 N 
HETATM   22  C2  UNL     1      -4.505   0.245  -0.286  1.00  0.00     0.706 A 
ATOM     23  H2  UNL     1      -5.254  -1.408  -1.244  1.00  0.00     0.203 HD
HETATM   24  N10 UNL     1      -3.358   0.810   0.088  1.00  0.00    -0.022 N 
ATOM     25  H10 UNL     1      -3.402   1.701   0.582  1.00  0.00     0.203 HD
BRANCH  19  26
HETATM   26  N3  UNL     1      -3.232  -2.625  -1.818  1.00  0.00    -0.234 N 
ATOM     27  H32 UNL     1      -4.098  -3.076  -2.114  1.00  0.00     0.174 HD
ATOM     28  H31 UNL     1      -2.326  -3.052  -2.009  1.00  0.00     0.174 HD
ENDBRANCH  19  26
BRANCH  22  29
HETATM   29  N1  UNL     1      -5.660   0.729  -0.076  1.00  0.00    -0.229 N 
HETATM   30  C1  UNL     1      -5.942   1.961   0.596  1.00  0.00     0.165 C 
ATOM     31  H1  UNL     1      -6.458   0.192  -0.416  1.00  0.00     0.177 HD
ENDBRANCH  22  29
ENDBRANCH  15  17
ENDBRANCH  14  15
ENDBRANCH  13  14
ENDBRANCH  12  13
ENDBRANCH   9  12
ENDBRANCH   1   5
TORSDOF 8
