REMARK  5 active torsions:
REMARK  status: ('A' for Active; 'I' for Inactive)
REMARK    1  A    between atoms: S1_2  and  C2_3 
REMARK    2  A    between atoms: C2_3  and  N2_7 
REMARK    3  A    between atoms: N2_7  and  C3_9 
REMARK    4  A    between atoms: C6_12  and  N3_13 
REMARK    5  A    between atoms: N3_13  and  C7_14 
ROOT
HETATM    1  C3  UNL     1       0.042  -1.035   0.120  1.00  0.00     0.034 A 
HETATM    2  C4  UNL     1       0.091   0.103  -0.640  1.00  0.00     0.033 A 
HETATM    3  C5  UNL     1       1.243   0.890  -0.630  1.00  0.00     0.047 A 
HETATM    4  C6  UNL     1       2.367   0.600   0.107  1.00  0.00     0.110 A 
HETATM    5  C8  UNL     1       2.284  -0.622   0.899  1.00  0.00     0.047 A 
HETATM    6  C9  UNL     1       1.151  -1.362   0.868  1.00  0.00     0.033 A 
ENDROOT
BRANCH   1   7
HETATM    7  N2  UNL     1      -1.168  -1.808   0.218  1.00  0.00    -0.337 N 
ATOM      8  H2  UNL     1      -1.100  -2.779   0.524  1.00  0.00     0.168 HD
BRANCH   7   9
HETATM    9  C2  UNL     1      -2.449  -1.287  -0.090  1.00  0.00     0.138 C 
HETATM   10  N1  UNL     1      -3.400  -2.117  -0.449  1.00  0.00    -0.380 N 
ATOM     11  H12 UNL     1      -4.322  -1.742  -0.671  1.00  0.00     0.158 HD
ATOM     12  H11 UNL     1      -3.140  -3.102  -0.504  1.00  0.00     0.158 HD
BRANCH   9  13
HETATM   13  S1  UNL     1      -2.904   0.438   0.006  1.00  0.00    -0.099 SA
HETATM   14  C1  UNL     1      -4.565   0.674  -0.595  1.00  0.00     0.099 C 
ENDBRANCH   9  13
ENDBRANCH   7   9
ENDBRANCH   1   7
BRANCH   4  15
HETATM   15  N3  UNL     1       3.499   1.320   0.304  1.00  0.00    -0.379 NA
BRANCH  15  16
HETATM   16  C7  UNL     1       4.624   2.037   0.500  1.00  0.00     0.441 C 
HETATM   17  O1  UNL     1       4.928   3.122  -0.124  1.00  0.00    -0.268 OA
ENDBRANCH  15  16
ENDBRANCH   4  15
TORSDOF 5
