REMARK  6 active torsions:
REMARK  status: ('A' for Active; 'I' for Inactive)
REMARK    1  A    between atoms: N1_1  and  C1_4 
REMARK    2  A    between atoms: C3_8  and  C4_9 
REMARK       I    between atoms: C4_9  and  N3_11 
REMARK    3  A    between atoms: C7_14  and  N4_15 
REMARK    4  A    between atoms: C11_19  and  C12_20 
REMARK    5  A    between atoms: C13_21  and  N5_22 
REMARK    6  A    between atoms: C16_25  and  N6_26 
ROOT
HETATM    1  N4  UNL     1       2.262  -0.708  -1.050  1.00  0.00    -0.408 N 
HETATM    2  C8  UNL     1       1.950  -1.831  -1.824  1.00  0.00     0.117 C 
HETATM    3  C9  UNL     1       0.746  -2.541  -1.199  1.00  0.00     0.020 C 
HETATM    4  C10 UNL     1      -0.535  -1.810  -1.406  1.00  0.00     0.011 C 
HETATM    5  C11 UNL     1      -0.867  -0.793  -0.341  1.00  0.00     0.020 C 
HETATM    6  C25 UNL     1       0.343  -0.097   0.194  1.00  0.00     0.028 C 
HETATM    7  C26 UNL     1       1.301   0.315  -0.911  1.00  0.00     0.118 C 
ENDROOT
BRANCH   1   8
HETATM    8  C7  UNL     1       3.560  -0.508  -0.558  1.00  0.00     0.082 C 
HETATM    9  C6  UNL     1       3.923  -1.621   0.401  1.00  0.00     0.045 C 
HETATM   10  C5  UNL     1       5.391  -1.899   0.443  1.00  0.00     0.128 C 
HETATM   11  N3  UNL     1       6.136  -0.640   0.280  1.00  0.00    -0.347 N 
HETATM   12  C4  UNL     1       7.050  -0.308   1.304  1.00  0.00     0.262 C 
HETATM   13  C28 UNL     1       5.868   0.139  -0.886  1.00  0.00     0.128 C 
HETATM   14  O1  UNL     1       7.218  -1.038   2.316  1.00  0.00    -0.267 OA
HETATM   15  C27 UNL     1       4.660  -0.487  -1.606  1.00  0.00     0.045 C 
BRANCH  12  16
HETATM   16  C3  UNL     1       7.851   0.917   1.225  1.00  0.00     0.091 A 
HETATM   17  C2  UNL     1       8.763   1.395   2.132  1.00  0.00     0.115 A 
HETATM   18  N2  UNL     1       9.375   2.507   1.860  1.00  0.00    -0.345 N 
HETATM   19  C1  UNL     1       9.099   3.138   0.722  1.00  0.00     0.142 A 
ATOM     20  H2  UNL     1      10.059   2.892   2.511  1.00  0.00     0.167 HD
HETATM   21  S2  UNL     1       7.927   2.121   0.004  1.00  0.00    -0.048 SA
BRANCH  19  22
HETATM   22  N1  UNL     1       9.597   4.262   0.257  1.00  0.00    -0.380 N 
ATOM     23  H12 UNL     1      10.296   4.869   0.685  1.00  0.00     0.158 HD
ATOM     24  H11 UNL     1       9.385   4.746  -0.616  1.00  0.00     0.158 HD
ENDBRANCH  19  22
ENDBRANCH  12  16
ENDBRANCH   1   8
BRANCH   5  25
HETATM   25  C12 UNL     1      -1.637  -1.366   0.792  1.00  0.00    -0.025 C 
HETATM   26  C13 UNL     1      -2.888  -0.974   1.012  1.00  0.00     0.142 C 
HETATM   27  O2  UNL     1      -3.668  -1.474   2.058  1.00  0.00    -0.336 OA
HETATM   28  C22 UNL     1      -3.213  -2.690   2.665  1.00  0.00     0.177 C 
HETATM   29  C23 UNL     1      -1.760  -2.432   3.012  1.00  0.00     0.031 C 
HETATM   30  C24 UNL     1      -1.016  -2.365   1.669  1.00  0.00     0.041 C 
BRANCH  26  31
HETATM   31  N5  UNL     1      -3.501  -0.008   0.176  1.00  0.00    -0.362 N 
HETATM   32  C14 UNL     1      -4.301  -0.439  -0.950  1.00  0.00     0.127 C 
HETATM   33  C15 UNL     1      -5.696   0.179  -0.825  1.00  0.00     0.045 C 
HETATM   34  C16 UNL     1      -5.540   1.661  -0.799  1.00  0.00     0.092 C 
HETATM   35  C20 UNL     1      -4.723   2.092   0.427  1.00  0.00     0.045 C 
HETATM   36  C21 UNL     1      -3.366   1.413   0.407  1.00  0.00     0.127 C 
BRANCH  34  37
HETATM   37  N6  UNL     1      -6.706   2.439  -0.849  1.00  0.00    -0.359 N 
HETATM   38  C17 UNL     1      -7.661   2.370   0.156  1.00  0.00     0.075 C 
HETATM   39  C18 UNL     1      -8.936   1.748  -0.353  1.00  0.00     0.124 C 
HETATM   40  S1  UNL     1      -8.917   2.369  -2.084  1.00  0.00    -0.119 SA
HETATM   41  C19 UNL     1      -7.167   2.931  -2.078  1.00  0.00     0.136 C 
ENDBRANCH  34  37
ENDBRANCH  26  31
ENDBRANCH   5  25
TORSDOF 6
