REMARK  10 active torsions:
REMARK  status: ('A' for Active; 'I' for Inactive)
REMARK    1  A    between atoms: N1_2  and  C2_5 
REMARK    2  A    between atoms: C2_5  and  C4_7 
REMARK       I    between atoms: C4_7  and  N2_9 
REMARK    3  A    between atoms: N2_9  and  C5_11 
REMARK    4  A    between atoms: C5_11  and  C6_12 
REMARK    5  A    between atoms: N3_21  and  C14_22 
REMARK    6  A    between atoms: C14_22  and  O3_23 
REMARK    7  A    between atoms: C14_22  and  N4_25 
REMARK    8  A    between atoms: C17_30  and  O4_31 
REMARK    9  A    between atoms: C17_30  and  C18_33 
REMARK   10  A    between atoms: C18_33  and  C19_34 
ROOT
HETATM    1  C6  UNL     1      -2.035  -0.020  -0.079  1.00  0.00     0.147 C 
HETATM    2  O2  UNL     1      -1.696   1.082   0.703  1.00  0.00    -0.359 OA
HETATM    3  C7  UNL     1      -0.278   1.007   0.973  1.00  0.00     0.227 C 
HETATM    4  C8  UNL     1      -0.167   1.653   2.344  1.00  0.00     0.054 C 
HETATM    5  C9  UNL     1      -0.332   0.630   3.443  1.00  0.00     0.006 C 
HETATM    6  C10 UNL     1      -1.312  -0.454   3.063  1.00  0.00     0.026 C 
HETATM    7  C11 UNL     1      -1.024  -1.160   1.796  1.00  0.00     0.096 C 
HETATM    8  C12 UNL     1      -2.189  -1.196   0.838  1.00  0.00     0.035 C 
HETATM    9  C13 UNL     1      -2.182  -2.515   0.127  1.00  0.00     0.015 C 
HETATM   10  N3  UNL     1       0.050  -0.377   1.087  1.00  0.00    -0.316 N 
ENDROOT
BRANCH  10  11
HETATM   11  C14 UNL     1       1.178  -1.095   0.665  1.00  0.00     0.220 C 
BRANCH  11  12
HETATM   12  O3  UNL     1       1.173  -2.392   0.895  1.00  0.00    -0.332 OA
ATOM     13  H3  UNL     1       1.937  -2.878   0.609  1.00  0.00     0.220 HD
ENDBRANCH  11  12
BRANCH  11  14
HETATM   14  N4  UNL     1       2.351  -0.671   0.021  1.00  0.00    -0.336 N 
HETATM   15  C15 UNL     1       2.595   0.688  -0.304  1.00  0.00     0.209 C 
HETATM   16  C16 UNL     1       3.939   1.083  -0.783  1.00  0.00     0.295 C 
HETATM   17  F1  UNL     1       4.546   1.983   0.089  1.00  0.00    -0.201 F 
HETATM   18  F2  UNL     1       3.930   1.723  -2.012  1.00  0.00    -0.201 F 
HETATM   19  C17 UNL     1       4.946  -0.080  -0.893  1.00  0.00     0.192 C 
HETATM   20  C22 UNL     1       4.159  -1.202  -1.473  1.00  0.00     0.295 C 
HETATM   21  F3  UNL     1       4.830  -2.195  -2.092  1.00  0.00    -0.201 F 
HETATM   22  F4  UNL     1       3.213  -0.728  -2.397  1.00  0.00    -0.201 F 
HETATM   23  C23 UNL     1       3.314  -1.738  -0.307  1.00  0.00     0.209 C 
BRANCH  19  24
HETATM   24  O4  UNL     1       5.268  -0.381   0.434  1.00  0.00    -0.378 OA
ATOM     25  H4  UNL     1       5.888  -1.097   0.366  1.00  0.00     0.211 HD
ENDBRANCH  19  24
BRANCH  19  26
HETATM   26  C18 UNL     1       6.086   0.445  -1.670  1.00  0.00     0.055 C 
BRANCH  26  27
HETATM   27  C19 UNL     1       7.245  -0.447  -1.921  1.00  0.00    -0.011 A 
HETATM   28  C20 UNL     1       8.355   0.257  -2.739  1.00  0.00     0.005 A 
HETATM   29  C21 UNL     1       8.583  -0.177  -1.330  1.00  0.00     0.005 A 
ENDBRANCH  26  27
ENDBRANCH  19  26
ENDBRANCH  11  14
ENDBRANCH  10  11
BRANCH   1  30
HETATM   30  C5  UNL     1      -3.212   0.297  -0.922  1.00  0.00     0.155 C 
BRANCH  30  31
HETATM   31  N2  UNL     1      -4.392   0.658  -0.173  1.00  0.00    -0.357 N 
HETATM   32  C4  UNL     1      -5.620   0.979  -0.837  1.00  0.00     0.248 C 
HETATM   33  O1  UNL     1      -5.608   0.923  -2.103  1.00  0.00    -0.271 OA
ATOM     34  H2  UNL     1      -4.351   0.685   0.846  1.00  0.00     0.162 HD
BRANCH  32  35
HETATM   35  C2  UNL     1      -6.852   1.358  -0.105  1.00  0.00     0.272 C 
HETATM   36  C3  UNL     1      -7.221   0.388   0.968  1.00  0.00     0.050 C 
BRANCH  35  37
HETATM   37  N1  UNL     1      -7.902   1.575  -1.073  1.00  0.00    -0.067 N 
HETATM   38  C1  UNL     1      -8.238   0.362  -1.796  1.00  0.00     0.267 C 
ATOM     39  H12 UNL     1      -7.664   2.333  -1.713  1.00  0.00     0.277 HD
ATOM     40  H11 UNL     1      -8.727   1.986  -0.637  1.00  0.00     0.277 HD
ENDBRANCH  35  37
ENDBRANCH  32  35
ENDBRANCH  30  31
ENDBRANCH   1  30
TORSDOF 10
