REMARK  2 active torsions:
REMARK  status: ('A' for Active; 'I' for Inactive)
REMARK    1  A    between atoms: C2_2  and  C4_4 
REMARK    2  A    between atoms: N1_10  and  O1_12 
ROOT
HETATM    1  C4  UNL     1      -1.422   0.568   0.787  1.00  0.00     0.041 C 
HETATM    2  C5  UNL     1      -1.022   1.711  -0.149  1.00  0.00     0.016 C 
HETATM    3  C6  UNL     1       0.389   1.400  -0.613  1.00  0.00    -0.006 C 
HETATM    4  C7  UNL     1       1.223   2.650  -0.762  1.00  0.00     0.011 C 
HETATM    5  C8  UNL     1       0.954   0.522   0.480  1.00  0.00     0.064 C 
HETATM    6  C9  UNL     1       2.045  -0.290  -0.077  1.00  0.00     0.016 C 
HETATM    7  N1  UNL     1       3.078   0.327  -0.507  1.00  0.00    -0.277 N 
ATOM      8  H1  UNL     1       3.086   1.345  -0.439  1.00  0.00     0.193 HD
HETATM    9  C10 UNL     1       2.016  -1.764  -0.169  1.00  0.00     0.062 C 
HETATM   10  C11 UNL     1       0.591  -2.275  -0.293  1.00  0.00     0.086 C 
HETATM   11  C12 UNL     1      -0.262  -1.658   0.733  1.00  0.00     0.148 C 
HETATM   12  O2  UNL     1      -1.052  -2.416   1.321  1.00  0.00    -0.296 OA
HETATM   13  C13 UNL     1      -0.194  -0.237   1.056  1.00  0.00     0.095 C 
HETATM   14  S1  UNL     1       0.083  -0.167   2.898  1.00  0.00    -0.077 SA
ENDROOT
BRANCH   7  15
HETATM   15  O1  UNL     1       4.174  -0.285  -1.052  1.00  0.00    -0.290 OA
ATOM     16  H1  UNL     1       4.942   0.174  -1.372  1.00  0.00     0.244 HD
ENDBRANCH   7  15
BRANCH   1  17
HETATM   17  C2  UNL     1      -2.580  -0.163   0.247  1.00  0.00    -0.087 C 
HETATM   18  C1  UNL     1      -3.702  -0.226   0.929  1.00  0.00     0.014 C 
HETATM   19  C3  UNL     1      -2.517  -0.803  -1.085  1.00  0.00     0.043 C 
ENDBRANCH   1  17
TORSDOF 2
