REMARK  4 active torsions:
REMARK  status: ('A' for Active; 'I' for Inactive)
REMARK    1  A    between atoms: N1_1  and  C1_4 
REMARK    2  A    between atoms: N4_12  and  N5_14 
REMARK    3  A    between atoms: C4_17  and  N6_18 
REMARK    4  A    between atoms: N6_18  and  C5_20 
ROOT
HETATM    1  C1  UNL     1      -1.942   0.049  -0.336  1.00  0.00     0.681 C 
HETATM    2  N2  UNL     1      -1.803  -1.274  -0.595  1.00  0.00    -0.141 N 
ATOM      3  H2  UNL     1      -2.647  -1.777  -0.869  1.00  0.00     0.189 HD
HETATM    4  C2  UNL     1      -0.667  -1.995  -0.528  1.00  0.00     0.340 C 
HETATM    5  O1  UNL     1      -0.622  -3.103  -1.130  1.00  0.00    -0.246 OA
HETATM    6  N3  UNL     1       0.461  -1.636   0.141  1.00  0.00    -0.290 N 
ATOM      7  H3  UNL     1       1.038  -2.411   0.468  1.00  0.00     0.172 HD
HETATM    8  C3  UNL     1       0.930  -0.403   0.437  1.00  0.00     0.169 C 
HETATM    9  N4  UNL     1       2.132  -0.344   0.952  1.00  0.00    -0.289 N 
ATOM     10  H4  UNL     1       2.514   0.572   1.186  1.00  0.00     0.188 HD
HETATM   11  C4  UNL     1       0.300   0.809   0.265  1.00  0.00     0.169 C 
HETATM   12  N7  UNL     1      -1.006   0.971  -0.017  1.00  0.00    -0.173 N 
ATOM     13  H7  UNL     1      -1.340   1.934   0.015  1.00  0.00     0.186 HD
ENDROOT
BRANCH   9  14
HETATM   14  N5  UNL     1       2.902  -1.451   1.192  1.00  0.00    -0.344 N 
ATOM     15  H52 UNL     1       2.504  -2.359   0.952  1.00  0.00     0.176 HD
ATOM     16  H51 UNL     1       3.839  -1.405   1.593  1.00  0.00     0.176 HD
ENDBRANCH   9  14
BRANCH  11  17
HETATM   17  N6  UNL     1       1.048   1.845   0.391  1.00  0.00    -0.317 N 
ATOM     18  H6  UNL     1       2.035   1.702   0.605  1.00  0.00     0.169 HD
BRANCH  17  19
HETATM   19  C5  UNL     1       0.581   3.174   0.250  1.00  0.00     0.354 C 
HETATM   20  O2  UNL     1       0.793   4.058   1.116  1.00  0.00    -0.283 OA
ENDBRANCH  17  19
ENDBRANCH  11  17
BRANCH   1  21
HETATM   21  N1  UNL     1      -3.156   0.444  -0.416  1.00  0.00    -0.234 N 
ATOM     22  H12 UNL     1      -3.862  -0.252  -0.657  1.00  0.00     0.174 HD
ATOM     23  H11 UNL     1      -3.261   1.440  -0.221  1.00  0.00     0.174 HD
ENDBRANCH   1  21
TORSDOF 4
