REMARK  4 active torsions:
REMARK  status: ('A' for Active; 'I' for Inactive)
REMARK       I    between atoms: C1_4  and  N2_5 
REMARK       I    between atoms: C1_4  and  N4_10 
REMARK    1  A    between atoms: N2_5  and  N3_7 
REMARK    2  A    between atoms: N4_10  and  C2_12 
REMARK    3  A    between atoms: C2_12  and  C3_13 
REMARK    4  A    between atoms: C3_13  and  N5_14 
ROOT
HETATM    1  N1  UNL     1       2.796  -2.169   0.383  1.00  0.00    -0.234 N 
ATOM      2  H11 UNL     1       1.907  -2.636   0.205  1.00  0.00     0.174 HD
ATOM      3  H12 UNL     1       3.675  -2.677   0.477  1.00  0.00     0.174 HD
HETATM    4  C1  UNL     1       2.832  -0.889   0.504  1.00  0.00     0.685 C 
HETATM    5  N2  UNL     1       4.048  -0.250   0.748  1.00  0.00    -0.139 N 
ATOM      6  H2  UNL     1       4.565  -0.450   1.604  1.00  0.00     0.205 HD
HETATM    7  N4  UNL     1       1.602  -0.178   0.372  1.00  0.00    -0.224 N 
ATOM      8  H4  UNL     1       0.930  -0.206   1.139  1.00  0.00     0.177 HD
ENDROOT
BRANCH   7   9
HETATM    9  C2  UNL     1       1.280   0.576  -0.808  1.00  0.00     0.168 C 
BRANCH   9  10
HETATM   10  C3  UNL     1      -0.106   1.063  -0.961  1.00  0.00     0.292 C 
BRANCH  10  11
HETATM   11  N5  UNL     1      -1.149   0.132  -1.133  1.00  0.00     0.093 N 
HETATM   12  C4  UNL     1      -2.416   0.832  -1.389  1.00  0.00     0.300 C 
HETATM   13  C5  UNL     1      -3.592   0.084  -0.859  1.00  0.00     0.262 C 
HETATM   14  N6  UNL     1      -3.525  -0.119   0.577  1.00  0.00    -0.072 N 
HETATM   15  C6  UNL     1      -2.134  -0.244   0.999  1.00  0.00     0.262 C 
ATOM     16  H62 UNL     1      -4.016   0.613   1.090  1.00  0.00     0.277 HD
ATOM     17  H61 UNL     1      -4.089  -0.914   0.877  1.00  0.00     0.277 HD
HETATM   18  C7  UNL     1      -1.388  -0.879  -0.166  1.00  0.00     0.300 C 
ENDBRANCH  10  11
ENDBRANCH   9  10
ENDBRANCH   7   9
BRANCH   5  19
HETATM   19  N3  UNL     1       4.558   0.663  -0.177  1.00  0.00    -0.331 N 
ATOM     20  H32 UNL     1       4.028   0.852  -1.028  1.00  0.00     0.177 HD
ATOM     21  H31 UNL     1       5.447   1.130   0.001  1.00  0.00     0.177 HD
ENDBRANCH   5  19
TORSDOF 4
