REMARK  6 active torsions:
REMARK  status: ('A' for Active; 'I' for Inactive)
REMARK       I    between atoms: C1_4  and  N2_5 
REMARK       I    between atoms: C1_4  and  N4_10 
REMARK    1  A    between atoms: N2_5  and  N3_7 
REMARK    2  A    between atoms: N4_10  and  S1_12 
REMARK    3  A    between atoms: S1_12  and  C2_14 
REMARK    4  A    between atoms: C2_14  and  C3_15 
REMARK    5  A    between atoms: C4_19  and  N6_20 
REMARK    6  A    between atoms: C8_31  and  N11_32 
ROOT
HETATM    1  C3  UNL     1       0.542   1.055   0.904  1.00  0.00     0.343 C 
HETATM    2  N5  UNL     1      -0.680   0.543   1.483  1.00  0.00    -0.002 N 
ATOM      3  H51 UNL     1      -0.921   0.701   2.461  1.00  0.00     0.285 HD
ATOM      4  H52 UNL     1      -0.821  -0.453   1.651  1.00  0.00     0.285 HD
HETATM    5  C4  UNL     1      -1.353   1.242   0.404  1.00  0.00     0.455 C 
HETATM    6  O4  UNL     1      -0.150   1.376  -0.286  1.00  0.00    -0.308 OA
ENDROOT
BRANCH   5   7
HETATM    7  N6  UNL     1      -2.339   0.409  -0.248  1.00  0.00    -0.204 N 
HETATM    8  N7  UNL     1      -2.110  -0.805  -0.902  1.00  0.00    -0.014 NA
HETATM    9  N8  UNL     1      -3.310  -1.506  -0.743  1.00  0.00    -0.277 N 
HETATM   10  C5  UNL     1      -4.365  -0.554  -0.674  1.00  0.00     0.135 A 
ATOM     11  H8  UNL     1      -3.411  -2.519  -0.687  1.00  0.00     0.184 HD
HETATM   12  C6  UNL     1      -3.747   0.642  -0.364  1.00  0.00     0.158 A 
HETATM   13  C8  UNL     1      -5.727  -0.650  -0.851  1.00  0.00     0.132 A 
HETATM   14  N9  UNL     1      -4.492   1.748  -0.229  1.00  0.00    -0.335 N 
HETATM   15  C7  UNL     1      -5.823   1.656  -0.401  1.00  0.00     0.183 A 
ATOM     16  H9  UNL     1      -4.058   2.642  -0.000  1.00  0.00     0.168 HD
HETATM   17  N10 UNL     1      -6.441   0.478  -0.707  1.00  0.00    -0.337 N 
ATOM     18  H10 UNL     1      -7.454   0.454  -0.827  1.00  0.00     0.168 HD
BRANCH  13  19
HETATM   19  N11 UNL     1      -6.318  -1.756  -1.140  1.00  0.00    -0.383 N 
ATOM     20 2H11 UNL     1      -5.776  -2.613  -1.249  1.00  0.00     0.157 HD
ATOM     21 1H11 UNL     1      -7.327  -1.827  -1.271  1.00  0.00     0.157 HD
ENDBRANCH  13  19
ENDBRANCH   5   7
BRANCH   1  22
HETATM   22  C2  UNL     1       1.595   0.008   0.599  1.00  0.00     0.194 C 
BRANCH  22  23
HETATM   23  S1  UNL     1       2.999   0.840  -0.098  1.00  0.00     0.132 S 
HETATM   24  O3  UNL     1       3.587   1.905   1.082  1.00  0.00    -0.235 OA
BRANCH  23  25
HETATM   25  N4  UNL     1       4.194  -0.355  -0.443  1.00  0.00    -0.137 N 
HETATM   26  C1  UNL     1       5.574  -0.118  -0.190  1.00  0.00     0.703 C 
HETATM   27  N1  UNL     1       6.012   1.101  -0.322  1.00  0.00    -0.233 N 
HETATM   28  N2  UNL     1       6.462  -1.158   0.193  1.00  0.00    -0.072 N 
ATOM     29  H12 UNL     1       7.001   1.271  -0.141  1.00  0.00     0.174 HD
ATOM     30  H11 UNL     1       5.374   1.848  -0.597  1.00  0.00     0.174 HD
ATOM     31  H2  UNL     1       6.283  -1.685   1.048  1.00  0.00     0.212 HD
ATOM     32  H4  UNL     1       3.905  -1.251  -0.837  1.00  0.00     0.195 HD
BRANCH  28  33
HETATM   33  N3  UNL     1       7.577  -1.466  -0.588  1.00  0.00    -0.024 N 
HETATM   34  O1  UNL     1       7.413  -1.497  -1.842  1.00  0.00    -0.516 OA
HETATM   35  O2  UNL     1       8.795  -1.724  -0.032  1.00  0.00    -0.516 OA
ENDBRANCH  28  33
ENDBRANCH  23  25
ENDBRANCH  22  23
ENDBRANCH   1  22
TORSDOF 6
