REMARK  10 active torsions:
REMARK  status: ('A' for Active; 'I' for Inactive)
REMARK    1  A    between atoms: C2_2  and  C3_3 
REMARK    2  A    between atoms: C3_3  and  C4_4 
REMARK    3  A    between atoms: C4_4  and  O1_5 
REMARK    4  A    between atoms: O1_5  and  C5_6 
REMARK    5  A    between atoms: C5_6  and  C6_7 
REMARK    6  A    between atoms: C6_7  and  N1_8 
REMARK    7  A    between atoms: C8_12  and  N3_13 
REMARK    8  A    between atoms: C9_18  and  C10_19 
REMARK    9  A    between atoms: C10_19  and  N5_20 
REMARK   10  A    between atoms: C12_25  and  N6_26 
ROOT
HETATM    1  N1  UNL     1      -0.522   1.083   0.731  1.00  0.00    -0.162 N 
HETATM    2  C7  UNL     1      -0.973  -0.162   0.554  1.00  0.00     0.155 A 
HETATM    3  N2  UNL     1      -0.272  -1.234   0.928  1.00  0.00    -0.175 N 
ATOM      4  H2  UNL     1       0.647  -1.081   1.343  1.00  0.00     0.186 HD
HETATM    5  C8  UNL     1      -0.692  -2.485   0.795  1.00  0.00     0.677 A 
HETATM    6  N4  UNL     1      -1.897  -2.714   0.252  1.00  0.00    -0.193 N 
ATOM      7  H4  UNL     1      -2.210  -3.680   0.154  1.00  0.00     0.184 HD
HETATM    8  C9  UNL     1      -2.724  -1.716  -0.175  1.00  0.00     0.069 A 
HETATM    9  C11 UNL     1      -2.239  -0.421  -0.013  1.00  0.00     0.080 A 
HETATM   10  C12 UNL     1      -3.005   0.670  -0.383  1.00  0.00     0.155 A 
HETATM   11  N7  UNL     1      -2.536   1.928  -0.197  1.00  0.00    -0.054 N 
HETATM   12  N8  UNL     1      -3.110   3.084  -0.479  1.00  0.00    -0.109 N 
ATOM     13  H8  UNL     1      -4.030   3.223  -0.897  1.00  0.00     0.207 HD
HETATM   14  C13 UNL     1      -2.234   4.051  -0.103  1.00  0.00     0.706 A 
HETATM   15  N9  UNL     1      -2.431   5.314  -0.218  1.00  0.00    -0.233 N 
ATOM     16  H91 UNL     1      -1.773   6.040   0.064  1.00  0.00     0.174 HD
ATOM     17  H92 UNL     1      -3.264   5.758  -0.604  1.00  0.00     0.174 HD
HETATM   18  N10 UNL     1      -1.135   3.465   0.406  1.00  0.00    -0.019 N 
ATOM     19  H10 UNL     1      -0.308   3.937   0.771  1.00  0.00     0.203 HD
HETATM   20  C14 UNL     1      -1.339   2.123   0.341  1.00  0.00     0.724 A 
ENDROOT
BRANCH   1  21
HETATM   21  C6  UNL     1       0.770   1.429   1.241  1.00  0.00     0.175 C 
BRANCH  21  22
HETATM   22  C5  UNL     1       1.702   1.798   0.139  1.00  0.00     0.188 C 
BRANCH  22  23
HETATM   23  O1  UNL     1       2.070   0.849  -0.723  1.00  0.00    -0.390 OA
BRANCH  23  24
HETATM   24  C4  UNL     1       2.947  -0.096  -0.252  1.00  0.00     0.167 C 
BRANCH  24  25
HETATM   25  C3  UNL     1       4.285   0.491   0.188  1.00  0.00     0.026 C 
BRANCH  25  26
HETATM   26  C2  UNL     1       5.105  -0.714   0.664  1.00  0.00    -0.002 C 
HETATM   27  C1  UNL     1       5.261  -1.672  -0.473  1.00  0.00     0.005 C 
ENDBRANCH  25  26
ENDBRANCH  24  25
ENDBRANCH  23  24
ENDBRANCH  22  23
ENDBRANCH  21  22
ENDBRANCH   1  21
BRANCH   5  28
HETATM   28  N3  UNL     1       0.028  -3.474   1.173  1.00  0.00    -0.234 N 
ATOM     29  H32 UNL     1       0.944  -3.300   1.586  1.00  0.00     0.174 HD
ATOM     30  H31 UNL     1      -0.295  -4.436   1.071  1.00  0.00     0.174 HD
ENDBRANCH   5  28
BRANCH   8  31
HETATM   31  C10 UNL     1      -4.036  -1.995  -0.764  1.00  0.00     0.288 C 
BRANCH  31  32
HETATM   32  N5  UNL     1      -4.153  -3.486  -0.750  1.00  0.00    -0.074 N 
ATOM     33  H53 UNL     1      -3.381  -3.966  -1.212  1.00  0.00     0.274 HD
ATOM     34  H52 UNL     1      -4.015  -3.904   0.170  1.00  0.00     0.274 HD
ATOM     35  H51 UNL     1      -5.066  -3.680  -1.160  1.00  0.00     0.274 HD
ENDBRANCH  31  32
ENDBRANCH   8  31
BRANCH  10  36
HETATM   36  N6  UNL     1      -4.150   0.462  -0.899  1.00  0.00    -0.383 N 
ATOM     37  H62 UNL     1      -4.503  -0.485  -1.039  1.00  0.00     0.157 HD
ATOM     38  H61 UNL     1      -4.715   1.266  -1.172  1.00  0.00     0.157 HD
ENDBRANCH  10  36
TORSDOF 10
