REMARK  6 active torsions:
REMARK  status: ('A' for Active; 'I' for Inactive)
REMARK    1  A    between atoms: N3_4  and  N4_6 
REMARK    2  A    between atoms: N4_6  and  C2_7 
REMARK       I    between atoms: N4_6  and  C15_23 
REMARK    3  A    between atoms: C2_7  and  C3_8 
REMARK    4  A    between atoms: C6_11  and  O1_12 
REMARK    5  A    between atoms: O1_12  and  C7_13 
REMARK    6  A    between atoms: C7_13  and  C8_14 
REMARK       I    between atoms: C15_23  and  N6_24 
REMARK       I    between atoms: C15_23  and  N7_28 
ROOT
HETATM    1  C2  UNL     1       2.811  -0.008   1.347  1.00  0.00     0.186 C 
ENDROOT
BRANCH   1   2
HETATM    2  N4  UNL     1       3.585  -0.317   0.187  1.00  0.00    -0.269 N 
HETATM    3  C15 UNL     1       4.421  -1.497   0.179  1.00  0.00     0.497 C 
HETATM    4  N6  UNL     1       4.339  -2.237   1.412  1.00  0.00    -0.031 N 
HETATM    5  N7  UNL     1       4.069  -2.379  -0.921  1.00  0.00    -0.031 N 
ATOM      6  H63 UNL     1       4.551  -1.642   2.213  1.00  0.00     0.279 HD
ATOM      7  H62 UNL     1       3.372  -2.473   1.635  1.00  0.00     0.279 HD
ATOM      8  H61 UNL     1       4.929  -3.069   1.406  1.00  0.00     0.279 HD
ATOM      9  H73 UNL     1       3.078  -2.621  -0.907  1.00  0.00     0.279 HD
ATOM     10  H72 UNL     1       4.097  -1.892  -1.817  1.00  0.00     0.279 HD
ATOM     11  H71 UNL     1       4.659  -3.211  -0.927  1.00  0.00     0.279 HD
BRANCH   2  12
HETATM   12  N3  UNL     1       3.535   0.516  -0.926  1.00  0.00    -0.275 N 
HETATM   13  C1  UNL     1       4.273   1.567  -1.052  1.00  0.00     0.215 C 
HETATM   14  N1  UNL     1       4.141   2.348  -2.230  1.00  0.00    -0.065 NA
HETATM   15  N2  UNL     1       5.201   1.945  -0.042  1.00  0.00    -0.065 NA
ATOM     16  H3  UNL     1       2.885   0.285  -1.677  1.00  0.00     0.189 HD
ENDBRANCH   2  12
ENDBRANCH   1   2
BRANCH   1  17
HETATM   17  C3  UNL     1       1.347   0.019   1.101  1.00  0.00    -0.023 A 
HETATM   18  C4  UNL     1       0.479   0.563   2.049  1.00  0.00     0.014 A 
HETATM   19  C5  UNL     1      -0.882   0.581   1.814  1.00  0.00     0.057 A 
HETATM   20  C6  UNL     1      -1.435   0.073   0.657  1.00  0.00     0.142 A 
HETATM   21  N5  UNL     1      -0.586  -0.447  -0.245  1.00  0.00    -0.346 N 
HETATM   22  C14 UNL     1       0.766  -0.479  -0.042  1.00  0.00     0.099 A 
ATOM     23  H5  UNL     1      -0.963  -0.831  -1.111  1.00  0.00     0.167 HD
BRANCH  20  24
HETATM   24  O1  UNL     1      -2.810   0.122   0.481  1.00  0.00    -0.331 OA
BRANCH  24  25
HETATM   25  C7  UNL     1      -3.474  -0.361  -0.645  1.00  0.00     0.216 C 
BRANCH  25  26
HETATM   26  C8  UNL     1      -4.934  -0.132  -0.467  1.00  0.00    -0.034 A 
HETATM   27  C9  UNL     1      -5.827  -0.516  -1.437  1.00  0.00     0.009 A 
HETATM   28  C10 UNL     1      -7.191  -0.311  -1.286  1.00  0.00     0.001 A 
HETATM   29  C11 UNL     1      -7.651   0.294  -0.132  1.00  0.00     0.000 A 
HETATM   30  C12 UNL     1      -6.780   0.688   0.855  1.00  0.00     0.001 A 
HETATM   31  C13 UNL     1      -5.438   0.467   0.668  1.00  0.00     0.009 A 
ENDBRANCH  25  26
ENDBRANCH  24  25
ENDBRANCH  20  24
ENDBRANCH   1  17
TORSDOF 6
