REMARK  16 active torsions:
REMARK  status: ('A' for Active; 'I' for Inactive)
REMARK    1  A    between atoms: C3_3  and  C4_4 
REMARK    2  A    between atoms: C4_4  and  C7_7 
REMARK    3  A    between atoms: C9_9  and  O1_10 
REMARK    4  A    between atoms: C10_12  and  N1_13 
REMARK    5  A    between atoms: C17_24  and  O4_25 
REMARK    6  A    between atoms: C18_27  and  C19_28 
REMARK    7  A    between atoms: C19_28  and  C20_29 
REMARK    8  A    between atoms: C20_29  and  C21_30 
REMARK       I    between atoms: C21_30  and  N3_32 
REMARK    9  A    between atoms: N3_32  and  C22_34 
REMARK   10  A    between atoms: C22_34  and  C23_35 
REMARK   11  A    between atoms: C23_35  and  N4_36 
REMARK   12  A    between atoms: N4_36  and  C24_37 
REMARK   13  A    between atoms: N4_36  and  C27_40 
REMARK   14  A    between atoms: C24_37  and  C25_38 
REMARK   15  A    between atoms: C27_40  and  C28_41 
REMARK   16  A    between atoms: C28_41  and  C29_42 
ROOT
HETATM    1  C1  UNL     1      -4.233  -3.598  -2.562  1.00  0.00     0.112 C 
HETATM    2  C2  UNL     1      -3.804  -2.219  -2.318  1.00  0.00    -0.110 C 
HETATM    3  C3  UNL     1      -3.444  -1.075  -2.133  1.00  0.00    -0.097 C 
ENDROOT
BRANCH   3   4
HETATM    4  C4  UNL     1      -2.965   0.328  -1.939  1.00  0.00     0.026 C 
HETATM    5  C5  UNL     1      -1.709   0.404  -2.778  1.00  0.00     0.029 C 
HETATM    6  C6  UNL     1      -3.989   1.136  -2.709  1.00  0.00     0.029 C 
BRANCH   4   7
HETATM    7  C7  UNL     1      -2.802   0.712  -0.523  1.00  0.00     0.008 C 
HETATM    8  C8  UNL     1      -2.239   2.162  -0.570  1.00  0.00     0.020 C 
HETATM    9  C9  UNL     1      -4.078   0.990   0.254  1.00  0.00     0.151 C 
HETATM   10  C10 UNL     1      -4.593  -0.223   0.971  1.00  0.00     0.126 C 
HETATM   11  C16 UNL     1      -3.664  -0.428   2.121  1.00  0.00     0.060 C 
HETATM   12  C17 UNL     1      -2.283  -0.579   1.622  1.00  0.00     0.125 C 
HETATM   13  C18 UNL     1      -1.903  -0.171   0.260  1.00  0.00     0.027 C 
BRANCH   9  14
HETATM   14  O1  UNL     1      -5.007   1.750  -0.389  1.00  0.00    -0.393 OA
ATOM     15  H1  UNL     1      -5.805   1.924   0.097  1.00  0.00     0.210 HD
ENDBRANCH   9  14
BRANCH  10  16
HETATM   16  N1  UNL     1      -5.999  -0.133   1.281  1.00  0.00    -0.302 N 
HETATM   17  C11 UNL     1      -6.814  -0.138   0.188  1.00  0.00     0.108 A 
HETATM   18  C12 UNL     1      -8.180  -0.068   0.297  1.00  0.00     0.022 A 
HETATM   19  C13 UNL     1      -9.090  -0.077  -0.901  1.00  0.00     0.056 C 
HETATM   20  C14 UNL     1      -8.740   0.009   1.545  1.00  0.00     0.256 A 
HETATM   21  O2  UNL     1      -9.994   0.074   1.706  1.00  0.00    -0.267 OA
HETATM   22  N2  UNL     1      -7.897   0.012   2.607  1.00  0.00    -0.275 N 
HETATM   23  C15 UNL     1      -6.562  -0.057   2.471  1.00  0.00     0.329 A 
ATOM     24  H2  UNL     1      -8.292   0.069   3.546  1.00  0.00     0.173 HD
HETATM   25  O3  UNL     1      -5.876  -0.049   3.487  1.00  0.00    -0.246 OA
ENDBRANCH  10  16
BRANCH  12  26
HETATM   26  O4  UNL     1      -1.877  -1.910   1.915  1.00  0.00    -0.395 OA
ATOM     27  H4  UNL     1      -0.988  -2.007   1.594  1.00  0.00     0.210 HD
ENDBRANCH  12  26
BRANCH  13  28
HETATM   28  C19 UNL     1      -0.484   0.360   0.220  1.00  0.00     0.017 C 
BRANCH  28  29
HETATM   29  C20 UNL     1       0.496  -0.498   1.019  1.00  0.00     0.103 C 
BRANCH  29  30
HETATM   30  C21 UNL     1       1.857   0.066   0.879  1.00  0.00     0.217 C 
HETATM   31  O5  UNL     1       2.043   0.980   0.052  1.00  0.00    -0.274 OA
HETATM   32  N3  UNL     1       2.899  -0.435   1.672  1.00  0.00    -0.359 N 
ATOM     33  H3  UNL     1       2.665  -1.171   2.339  1.00  0.00     0.162 HD
BRANCH  32  34
HETATM   34  C22 UNL     1       4.285   0.004   1.626  1.00  0.00     0.152 C 
BRANCH  34  35
HETATM   35  C23 UNL     1       4.825  -0.345   0.299  1.00  0.00     0.292 C 
BRANCH  35  36
HETATM   36  N4  UNL     1       6.220   0.073   0.045  1.00  0.00     0.090 N 
BRANCH  36  37
HETATM   37  C24 UNL     1       6.579  -0.650  -1.135  1.00  0.00     0.272 C 
BRANCH  37  38
HETATM   38  C25 UNL     1       5.868  -0.206  -2.395  1.00  0.00     0.026 C 
HETATM   39  C26 UNL     1       6.203   1.249  -2.648  1.00  0.00     0.007 C 
ENDBRANCH  37  38
ENDBRANCH  36  37
BRANCH  36  40
HETATM   40  C27 UNL     1       7.064  -0.168   1.130  1.00  0.00     0.272 C 
BRANCH  40  41
HETATM   41  C28 UNL     1       8.411   0.455   1.225  1.00  0.00     0.030 C 
BRANCH  41  42
HETATM   42  C29 UNL     1       9.434   0.196   0.193  1.00  0.00    -0.003 C 
HETATM   43  C30 UNL     1      10.768   0.858   0.537  1.00  0.00     0.005 C 
ENDBRANCH  41  42
ENDBRANCH  40  41
ENDBRANCH  36  40
ENDBRANCH  35  36
ENDBRANCH  34  35
ENDBRANCH  32  34
ENDBRANCH  29  30
ENDBRANCH  28  29
ENDBRANCH  13  28
ENDBRANCH   4   7
ENDBRANCH   3   4
TORSDOF 16
