REMARK  1 active torsions:
REMARK  status: ('A' for Active; 'I' for Inactive)
REMARK    1  A    between atoms: C2_4  and  C3_6 
ROOT
HETATM    1  C3  UNL     1       0.012   0.135  -0.756  1.00  0.00     0.046 C 
HETATM    2  C4  UNL     1      -0.777   1.281  -0.250  1.00  0.00     0.039 C 
HETATM    3  C5  UNL     1      -2.149   1.016   0.224  1.00  0.00     0.233 C 
HETATM    4  N2  UNL     1      -2.712  -0.245  -0.148  1.00  0.00    -0.075 N 
ATOM      5  H21 UNL     1      -2.937  -0.302  -1.141  1.00  0.00     0.277 HD
ATOM      6  H22 UNL     1      -3.657  -0.379   0.211  1.00  0.00     0.277 HD
HETATM    7  C6  UNL     1      -1.793  -1.280   0.282  1.00  0.00     0.233 C 
HETATM    8  C7  UNL     1      -0.589  -1.211  -0.601  1.00  0.00     0.039 C 
ENDROOT
BRANCH   1   9
HETATM    9  C2  UNL     1       1.385   0.084  -0.133  1.00  0.00     0.057 C 
HETATM   10  N1  UNL     1       2.454   0.151  -0.831  1.00  0.00    -0.391 N 
HETATM   11  C1  UNL     1       3.736   0.097  -0.176  1.00  0.00     0.146 C 
ATOM     12  H1  UNL     1       2.400   0.242  -1.845  1.00  0.00     0.159 HD
HETATM   13  S1  UNL     1       1.536  -0.077   1.648  1.00  0.00    -0.038 SA
ENDBRANCH   1   9
TORSDOF 1
