REMARK  6 active torsions:
REMARK  status: ('A' for Active; 'I' for Inactive)
REMARK    1  A    between atoms: C2_5  and  C3_6 
REMARK       I    between atoms: C3_6  and  N3_8 
REMARK    2  A    between atoms: N3_8  and  C4_10 
REMARK    3  A    between atoms: C7_16  and  C8_17 
REMARK    4  A    between atoms: C8_17  and  C9_18 
REMARK    5  A    between atoms: C14_23  and  C15_24 
REMARK    6  A    between atoms: C18_30  and  C19_31 
ROOT
HETATM    1  C4  UNL     1      -0.761  -0.148  -2.027  1.00  0.00     0.111 C 
HETATM    2  C5  UNL     1      -0.980  -1.240  -3.003  1.00  0.00     0.257 C 
HETATM    3  N4  UNL     1      -2.272  -1.893  -2.823  1.00  0.00    -0.073 N 
ATOM      4  H41 UNL     1      -2.433  -2.660  -3.476  1.00  0.00     0.277 HD
ATOM      5  H42 UNL     1      -3.062  -1.316  -3.111  1.00  0.00     0.277 HD
HETATM    6  C6  UNL     1      -2.330  -2.291  -1.454  1.00  0.00     0.237 C 
HETATM    7  C7  UNL     1      -2.556  -1.078  -0.528  1.00  0.00     0.014 C 
HETATM    8  C16 UNL     1      -1.926   0.127  -1.090  1.00  0.00     0.033 C 
ENDROOT
BRANCH   1   9
HETATM    9  N3  UNL     1       0.427  -0.421  -1.267  1.00  0.00    -0.349 N 
HETATM   10  C3  UNL     1       1.549   0.417  -1.341  1.00  0.00     0.270 C 
HETATM   11  O1  UNL     1       1.482   1.430  -2.105  1.00  0.00    -0.266 OA
ATOM     12  H3  UNL     1       0.455  -1.241  -0.661  1.00  0.00     0.163 HD
BRANCH  10  13
HETATM   13  C2  UNL     1       2.781   0.158  -0.571  1.00  0.00     0.117 A 
HETATM   14  N2  UNL     1       3.059  -0.832   0.279  1.00  0.00    -0.294 N 
HETATM   15  N1  UNL     1       4.307  -0.696   0.768  1.00  0.00    -0.300 N 
ATOM     16  H2  UNL     1       2.417  -1.586   0.524  1.00  0.00     0.187 HD
HETATM   17  C1  UNL     1       4.867  -1.639   1.711  1.00  0.00     0.177 C 
HETATM   18  C18 UNL     1       4.862   0.383   0.245  1.00  0.00     0.034 A 
HETATM   19  C17 UNL     1       3.913   0.942  -0.609  1.00  0.00     0.063 A 
BRANCH  18  20
HETATM   20  C19 UNL     1       6.217   0.927   0.493  1.00  0.00     0.041 C 
HETATM   21  C20 UNL     1       6.389   1.460   1.892  1.00  0.00     0.037 C 
HETATM   22  C21 UNL     1       7.736   1.017   2.452  1.00  0.00     0.168 C 
HETATM   23  O2  UNL     1       8.751   1.249   1.557  1.00  0.00    -0.391 OA
HETATM   24  C22 UNL     1       8.627   0.629   0.340  1.00  0.00     0.168 C 
HETATM   25  C23 UNL     1       7.293  -0.077   0.240  1.00  0.00     0.037 C 
ENDBRANCH  18  20
ENDBRANCH  10  13
ENDBRANCH   1   9
BRANCH   7  26
HETATM   26  C8  UNL     1      -4.010  -1.049  -0.239  1.00  0.00     0.011 C 
BRANCH  26  27
HETATM   27  C9  UNL     1      -4.608  -0.047   0.662  1.00  0.00    -0.002 C 
HETATM   28  C10 UNL     1      -4.517   1.379   0.319  1.00  0.00     0.005 C 
HETATM   29  C11 UNL     1      -5.454   1.736  -0.835  1.00  0.00     0.000 C 
HETATM   30  C12 UNL     1      -6.852   1.563  -0.269  1.00  0.00     0.001 C 
HETATM   31  C13 UNL     1      -7.082   0.163   0.176  1.00  0.00     0.014 C 
HETATM   32  C14 UNL     1      -6.041  -0.449   1.035  1.00  0.00     0.097 C 
BRANCH  32  33
HETATM   33  C15 UNL     1      -6.327  -0.288   2.500  1.00  0.00     0.391 C 
HETATM   34  F1  UNL     1      -6.195   0.971   2.991  1.00  0.00    -0.171 F 
HETATM   35  F2  UNL     1      -5.444  -1.122   3.173  1.00  0.00    -0.171 F 
HETATM   36  F3  UNL     1      -7.623  -0.736   2.730  1.00  0.00    -0.171 F 
ENDBRANCH  32  33
ENDBRANCH  26  27
ENDBRANCH   7  26
TORSDOF 6
