REMARK  6 active torsions:
REMARK  status: ('A' for Active; 'I' for Inactive)
REMARK    1  A    between atoms: C3_3  and  N1_4 
REMARK    2  A    between atoms: N1_4  and  C6_7 
REMARK    3  A    between atoms: C6_7  and  C7_8 
REMARK    4  A    between atoms: C7_8  and  O1_9 
REMARK    5  A    between atoms: C7_8  and  C8_11 
REMARK    6  A    between atoms: N2_14  and  C12_16 
ROOT
HETATM    1  C1  UNL     1      -5.483   1.748  -0.881  1.00  0.00     0.013 C 
HETATM    2  C2  UNL     1      -4.926   1.215   0.047  1.00  0.00    -0.089 C 
HETATM    3  C3  UNL     1      -4.268   0.550   1.174  1.00  0.00     0.329 C 
ENDROOT
BRANCH   3   4
HETATM    4  N1  UNL     1      -3.061  -0.150   0.670  1.00  0.00    -0.062 N 
HETATM    5  C4  UNL     1      -3.464  -0.713  -0.608  1.00  0.00     0.273 C 
HETATM    6  C5  UNL     1      -2.822  -1.208   1.598  1.00  0.00     0.273 C 
BRANCH   4   7
HETATM    7  C6  UNL     1      -2.050   0.842   0.557  1.00  0.00     0.269 C 
BRANCH   7   8
HETATM    8  C7  UNL     1      -1.021   0.645  -0.504  1.00  0.00     0.148 C 
BRANCH   8   9
HETATM    9  O1  UNL     1      -0.149   1.776  -0.464  1.00  0.00    -0.394 OA
ATOM     10  H1  UNL     1       0.507   1.650  -1.140  1.00  0.00     0.210 HD
ENDBRANCH   8   9
BRANCH   8  11
HETATM   11  C8  UNL     1      -0.075  -0.522  -0.246  1.00  0.00     0.019 C 
HETATM   12  C9  UNL     1       0.879  -0.585  -1.419  1.00  0.00     0.035 C 
HETATM   13  C10 UNL     1       2.146   0.173  -1.242  1.00  0.00     0.237 C 
HETATM   14  N2  UNL     1       2.880  -0.162  -0.043  1.00  0.00    -0.071 N 
HETATM   15  C11 UNL     1       3.201   1.003   0.760  1.00  0.00     0.272 C 
HETATM   16  C14 UNL     1       2.071  -1.057   0.767  1.00  0.00     0.237 C 
HETATM   17  C15 UNL     1       0.727  -0.355   1.016  1.00  0.00     0.035 C 
BRANCH  14  18
HETATM   18  C12 UNL     1       4.127  -0.850  -0.314  1.00  0.00     0.232 C 
HETATM   19  C13 UNL     1       5.090  -0.026  -1.113  1.00  0.00     0.035 C 
ENDBRANCH  14  18
ENDBRANCH   8  11
ENDBRANCH   7   8
ENDBRANCH   4   7
ENDBRANCH   3   4
TORSDOF 6
