REMARK  6 active torsions:
REMARK  status: ('A' for Active; 'I' for Inactive)
REMARK    1  A    between atoms: C5_9  and  C6_10 
REMARK       I    between atoms: C6_10  and  N4_12 
REMARK    2  A    between atoms: N4_12  and  C7_14 
REMARK    3  A    between atoms: C7_14  and  C8_15 
REMARK    4  A    between atoms: N5_19  and  N6_20 
REMARK    5  A    between atoms: C10_23  and  C11_24 
REMARK    6  A    between atoms: C13_30  and  N10_31 
ROOT
HETATM    1  N1  UNL     1       4.498  -3.861   0.323  1.00  0.00    -0.191 NA
HETATM    2  C1  UNL     1       3.387  -3.477   0.243  1.00  0.00     0.103 C 
HETATM    3  C2  UNL     1       2.021  -3.035   0.142  1.00  0.00     0.093 A 
HETATM    4  C3  UNL     1       0.906  -3.856   0.233  1.00  0.00     0.134 A 
HETATM    5  N2  UNL     1      -0.163  -3.081   0.088  1.00  0.00    -0.287 N 
ATOM      6  H2  UNL     1      -1.132  -3.397   0.108  1.00  0.00     0.188 HD
HETATM    7  N3  UNL     1       0.242  -1.810  -0.090  1.00  0.00    -0.172 N 
HETATM    8  C4  UNL     1       1.584  -1.739  -0.063  1.00  0.00     0.116 A 
HETATM    9  C5  UNL     1       1.966  -0.430  -0.247  1.00  0.00     0.083 A 
HETATM   10  C9  UNL     1       0.789   0.269  -0.384  1.00  0.00     0.160 A 
HETATM   11  N5  UNL     1      -0.230  -0.595  -0.284  1.00  0.00    -0.163 N 
ENDROOT
BRANCH   9  12
HETATM   12  C6  UNL     1       3.336   0.083  -0.280  1.00  0.00     0.256 C 
HETATM   13  O1  UNL     1       4.154  -0.362   0.582  1.00  0.00    -0.268 OA
HETATM   14  N4  UNL     1       3.768   1.035  -1.218  1.00  0.00    -0.347 N 
ATOM     15  H4  UNL     1       3.105   1.385  -1.910  1.00  0.00     0.163 HD
BRANCH  14  16
HETATM   16  C7  UNL     1       5.110   1.527  -1.230  1.00  0.00     0.236 C 
BRANCH  16  17
HETATM   17  C8  UNL     1       5.492   2.223   0.007  1.00  0.00     0.191 C 
HETATM   18  O2  UNL     1       4.711   2.394   0.965  1.00  0.00    -0.647 OA
HETATM   19  O3  UNL     1       6.808   2.709   0.085  1.00  0.00    -0.647 OA
ENDBRANCH  16  17
ENDBRANCH  14  16
ENDBRANCH   9  12
BRANCH  11  20
HETATM   20  N6  UNL     1      -1.589  -0.219  -0.378  1.00  0.00    -0.166 N 
HETATM   21  N7  UNL     1      -2.323  -0.040  -1.459  1.00  0.00    -0.270 N 
HETATM   22  C10 UNL     1      -3.575   0.317  -1.120  1.00  0.00     0.145 A 
ATOM     23  H7  UNL     1      -1.989  -0.156  -2.416  1.00  0.00     0.189 HD
HETATM   24  C12 UNL     1      -3.623   0.363   0.252  1.00  0.00     0.118 A 
HETATM   25  N9  UNL     1      -4.551   0.644   1.175  1.00  0.00    -0.187 N 
HETATM   26  C15 UNL     1      -2.349   0.020   0.720  1.00  0.00     0.174 A 
HETATM   27  C13 UNL     1      -4.268   0.597   2.504  1.00  0.00     0.679 A 
ATOM     28  H9  UNL     1      -5.492   0.899   0.874  1.00  0.00     0.184 HD
HETATM   29  N11 UNL     1      -3.055   0.271   2.982  1.00  0.00    -0.154 N 
HETATM   30  C14 UNL     1      -2.106  -0.016   2.076  1.00  0.00     0.292 A 
ATOM     31  H11 UNL     1      -2.864   0.243   3.984  1.00  0.00     0.187 HD
HETATM   32  O5  UNL     1      -0.952  -0.328   2.444  1.00  0.00    -0.265 OA
BRANCH  22  33
HETATM   33  C11 UNL     1      -4.694   0.607  -2.029  1.00  0.00     0.285 C 
HETATM   34  N8  UNL     1      -4.560   0.535  -3.430  1.00  0.00    -0.056 NA
HETATM   35  O4  UNL     1      -5.826   0.934  -1.584  1.00  0.00    -0.269 OA
ENDBRANCH  22  33
BRANCH  27  36
HETATM   36  N10 UNL     1      -5.226   0.883   3.312  1.00  0.00    -0.234 N 
ATOM     37 2H10 UNL     1      -6.147   1.130   2.949  1.00  0.00     0.174 HD
ATOM     38 1H10 UNL     1      -5.014   0.848   4.309  1.00  0.00     0.174 HD
ENDBRANCH  27  36
ENDBRANCH  11  20
TORSDOF 6
