REMARK  12 active torsions:
REMARK  status: ('A' for Active; 'I' for Inactive)
REMARK    1  A    between atoms: C2_3  and  C10_19 
REMARK    2  A    between atoms: C3_4  and  O1_5 
REMARK    3  A    between atoms: O1_5  and  C4_6 
REMARK    4  A    between atoms: C9_16  and  O5_17 
REMARK    5  A    between atoms: C10_19  and  N3_20 
REMARK    6  A    between atoms: N3_20  and  S1_22 
REMARK    7  A    between atoms: S1_22  and  N4_25 
REMARK    8  A    between atoms: C12_27  and  N5_28 
REMARK       I    between atoms: N5_28  and  C13_30 
REMARK    9  A    between atoms: C13_30  and  C14_32 
REMARK   10  A    between atoms: C14_32  and  O9_33 
REMARK   11  A    between atoms: C14_32  and  C15_35 
REMARK   12  A    between atoms: C18_42  and  N8_43 
ROOT
HETATM    1  N1  UNL     1      -3.007   0.439  -4.021  1.00  0.00    -0.192 NA
HETATM    2  C1  UNL     1      -3.363   0.216  -2.936  1.00  0.00     0.098 C 
HETATM    3  C2  UNL     1      -3.830  -0.058  -1.595  1.00  0.00     0.062 C 
HETATM    4  C3  UNL     1      -5.109  -0.094  -1.293  1.00  0.00     0.158 C 
ENDROOT
BRANCH   3   5
HETATM    5  C10 UNL     1      -2.845  -0.313  -0.503  1.00  0.00     0.185 C 
BRANCH   5   6
HETATM    6  N3  UNL     1      -1.995   0.830  -0.343  1.00  0.00    -0.296 N 
ATOM      7  H3  UNL     1      -2.039   1.695  -0.882  1.00  0.00     0.174 HD
BRANCH   6   8
HETATM    8  S1  UNL     1      -0.879   0.476   0.933  1.00  0.00     0.339 S 
HETATM    9  O6  UNL     1      -1.550  -0.485   1.872  1.00  0.00    -0.181 OA
HETATM   10  O7  UNL     1      -0.531   1.765   1.624  1.00  0.00    -0.181 OA
BRANCH   8  11
HETATM   11  N4  UNL     1       0.514  -0.250   0.242  1.00  0.00    -0.170 N 
HETATM   12  C11 UNL     1       1.590   0.467  -0.183  1.00  0.00     0.166 A 
HETATM   13  C12 UNL     1       2.486  -0.453  -0.665  1.00  0.00     0.123 A 
HETATM   14  C21 UNL     1       1.924  -1.726  -0.519  1.00  0.00     0.289 A 
HETATM   15  O11 UNL     1       2.425  -2.846  -0.840  1.00  0.00    -0.264 OA
HETATM   16  N11 UNL     1       0.723  -1.534   0.039  1.00  0.00    -0.247 N 
ATOM     17  H11 UNL     1       0.064  -2.276   0.274  1.00  0.00     0.191 HD
BRANCH  13  18
HETATM   18  N5  UNL     1       3.778  -0.255  -1.232  1.00  0.00    -0.319 N 
HETATM   19  C13 UNL     1       4.418   0.994  -1.408  1.00  0.00     0.257 C 
HETATM   20  O8  UNL     1       3.827   2.046  -1.043  1.00  0.00    -0.270 OA
ATOM     21  H5  UNL     1       4.285  -1.086  -1.537  1.00  0.00     0.169 HD
BRANCH  19  22
HETATM   22  C14 UNL     1       5.744   1.078  -2.007  1.00  0.00     0.261 C 
BRANCH  22  23
HETATM   23  O9  UNL     1       6.089   2.421  -2.285  1.00  0.00    -0.380 OA
ATOM     24  H9  UNL     1       6.953   2.476  -2.675  1.00  0.00     0.211 HD
ENDBRANCH  22  23
BRANCH  22  25
HETATM   25  C15 UNL     1       6.804   0.596  -1.085  1.00  0.00     0.064 A 
HETATM   26  C16 UNL     1       6.576  -0.033   0.111  1.00  0.00     0.118 A 
HETATM   27  N6  UNL     1       7.620  -0.450   0.892  1.00  0.00    -0.348 N 
HETATM   28  C17 UNL     1       8.901  -0.272   0.542  1.00  0.00     0.153 A 
ATOM     29  H6  UNL     1       7.414  -0.915   1.776  1.00  0.00     0.167 HD
HETATM   30  N7  UNL     1       9.931  -0.679   1.303  1.00  0.00    -0.174 N 
HETATM   31  C20 UNL     1       9.138   0.359  -0.658  1.00  0.00     0.147 A 
HETATM   32  C18 UNL     1      11.226  -0.493   0.940  1.00  0.00     0.680 A 
ATOM     33  H7  UNL     1       9.732  -1.146   2.188  1.00  0.00     0.186 HD
HETATM   34  N9  UNL     1      11.476   0.123  -0.231  1.00  0.00    -0.154 N 
HETATM   35  C19 UNL     1      10.463   0.539  -1.011  1.00  0.00     0.290 A 
ATOM     36  H9  UNL     1      12.440   0.275  -0.528  1.00  0.00     0.187 HD
HETATM   37  O10 UNL     1      10.690   1.115  -2.106  1.00  0.00    -0.265 OA
HETATM   38  N10 UNL     1       8.122   0.770  -1.427  1.00  0.00    -0.348 N 
ATOM     39  H10 UNL     1       8.338   1.235  -2.309  1.00  0.00     0.166 HD
BRANCH  32  40
HETATM   40  N8  UNL     1      12.193  -0.900   1.703  1.00  0.00    -0.234 N 
ATOM     41  H82 UNL     1      12.004  -1.367   2.590  1.00  0.00     0.174 HD
ATOM     42  H81 UNL     1      13.166  -0.760   1.430  1.00  0.00     0.174 HD
ENDBRANCH  32  40
ENDBRANCH  22  25
ENDBRANCH  19  22
ENDBRANCH  13  18
ENDBRANCH   8  11
ENDBRANCH   6   8
ENDBRANCH   5   6
ENDBRANCH   3   5
BRANCH   4  43
HETATM   43  O1  UNL     1      -5.543  -0.355  -0.020  1.00  0.00    -0.328 OA
BRANCH  43  44
HETATM   44  C4  UNL     1      -6.863  -0.517   0.395  1.00  0.00     0.295 C 
HETATM   45  O2  UNL     1      -7.441  -1.572  -0.270  1.00  0.00    -0.356 OA
HETATM   46  C5  UNL     1      -8.808  -1.641  -0.195  1.00  0.00     0.205 C 
HETATM   47  C6  UNL     1      -9.429  -0.860   0.918  1.00  0.00     0.183 C 
HETATM   48  O3  UNL     1      -9.101  -1.326   2.207  1.00  0.00    -0.294 OA
HETATM   49  C8  UNL     1      -9.033   0.579   0.865  1.00  0.00     0.152 C 
HETATM   50  C7  UNL     1      -9.051  -0.216   3.058  1.00  0.00     0.361 C 
HETATM   51  O4  UNL     1      -9.023  -0.319   4.308  1.00  0.00    -0.238 OA
HETATM   52  N2  UNL     1      -9.039   0.981   2.279  1.00  0.00    -0.327 N 
ATOM     53  H2  UNL     1      -9.035   1.936   2.637  1.00  0.00     0.165 HD
HETATM   54  C9  UNL     1      -7.660   0.763   0.282  1.00  0.00     0.199 C 
BRANCH  54  55
HETATM   55  O5  UNL     1      -7.673   1.301  -0.983  1.00  0.00    -0.388 OA
ATOM     56  H5  UNL     1      -8.174   2.105  -1.054  1.00  0.00     0.210 HD
ENDBRANCH  54  55
ENDBRANCH  43  44
ENDBRANCH   4  43
TORSDOF 12
