REMARK  10 active torsions:
REMARK  status: ('A' for Active; 'I' for Inactive)
REMARK    1  A    between atoms: N1_1  and  C1_4 
REMARK       I    between atoms: N4_10  and  C3_12 
REMARK    2  A    between atoms: C3_12  and  C4_14 
REMARK    3  A    between atoms: C4_14  and  C8_27 
REMARK    4  A    between atoms: N5_15  and  O2_17 
REMARK    5  A    between atoms: O2_17  and  C5_18 
REMARK    6  A    between atoms: C5_18  and  C6_19 
REMARK    7  A    between atoms: C5_18  and  C7_22 
REMARK    8  A    between atoms: C7_22  and  O4_23 
REMARK    9  A    between atoms: C7_22  and  O5_25 
REMARK   10  A    between atoms: N7_31  and  O6_32 
ROOT
HETATM    1  C4  UNL     1      -0.043  -1.222  -0.148  1.00  0.00     0.158 C 
HETATM    2  N5  UNL     1      -1.278  -0.892  -0.209  1.00  0.00    -0.258 N 
ATOM      3  H5  UNL     1      -1.972  -1.509  -0.632  1.00  0.00     0.194 HD
ENDROOT
BRANCH   1   4
HETATM    4  C3  UNL     1       0.993  -0.389   0.444  1.00  0.00     0.279 C 
HETATM    5  N4  UNL     1       2.350  -0.796   0.490  1.00  0.00    -0.300 N 
HETATM    6  C2  UNL     1       3.256   0.149   0.353  1.00  0.00     0.169 A 
ATOM      7  H4  UNL     1       2.612  -1.773   0.623  1.00  0.00     0.171 HD
HETATM    8  N3  UNL     1       4.582   0.010   0.362  1.00  0.00    -0.277 N 
HETATM    9  S2  UNL     1       3.068   1.826   0.121  1.00  0.00    -0.015 SA
HETATM   10  N2  UNL     1       5.316   1.045   0.213  1.00  0.00    -0.278 N 
ATOM     11  H3  UNL     1       5.005  -0.910   0.486  1.00  0.00     0.189 HD
HETATM   12  C1  UNL     1       4.734   2.235   0.052  1.00  0.00     0.160 A 
ATOM     13  H2  UNL     1       6.333   0.963   0.217  1.00  0.00     0.189 HD
HETATM   14  O1  UNL     1       0.687   0.724   0.929  1.00  0.00    -0.265 OA
BRANCH  12  15
HETATM   15  N1  UNL     1       5.282   3.420  -0.117  1.00  0.00    -0.379 N 
ATOM     16  H12 UNL     1       6.272   3.663  -0.158  1.00  0.00     0.158 HD
ATOM     17  H11 UNL     1       4.837   4.330  -0.240  1.00  0.00     0.158 HD
ENDBRANCH  12  15
ENDBRANCH   1   4
BRANCH   1  18
HETATM   18  C8  UNL     1       0.333  -2.536  -0.718  1.00  0.00     0.136 A 
HETATM   19  S1  UNL     1       1.893  -3.258  -0.788  1.00  0.00    -0.078 SA
HETATM   20  C9  UNL     1       1.458  -4.710  -1.571  1.00  0.00     0.071 A 
HETATM   21  C10 UNL     1       0.109  -4.546  -1.734  1.00  0.00     0.131 A 
HETATM   22  N7  UNL     1      -0.436  -3.450  -1.300  1.00  0.00    -0.226 N 
BRANCH  22  23
HETATM   23  O6  UNL     1      -1.821  -3.193  -1.425  1.00  0.00    -0.282 OA
ATOM     24  H6  UNL     1      -2.371  -3.846  -1.841  1.00  0.00     0.245 HD
ENDBRANCH  22  23
ENDBRANCH   1  18
BRANCH   2  25
HETATM   25  O2  UNL     1      -1.633   0.329   0.320  1.00  0.00    -0.260 OA
BRANCH  25  26
HETATM   26  C5  UNL     1      -2.928   0.842   0.310  1.00  0.00     0.295 C 
BRANCH  26  27
HETATM   27  C6  UNL     1      -3.039   2.099  -0.461  1.00  0.00     0.267 C 
HETATM   28  N6  UNL     1      -4.256   2.801  -0.611  1.00  0.00    -0.059 NA
HETATM   29  O3  UNL     1      -2.015   2.597  -1.027  1.00  0.00    -0.274 OA
ENDBRANCH  26  27
BRANCH  26  30
HETATM   30  C7  UNL     1      -3.487   0.997   1.712  1.00  0.00     0.294 C 
BRANCH  30  31
HETATM   31  O4  UNL     1      -2.717   1.854   2.481  1.00  0.00    -0.368 OA
ATOM     32  H4  UNL     1      -3.067   1.951   3.359  1.00  0.00     0.212 HD
ENDBRANCH  30  31
BRANCH  30  33
HETATM   33  O5  UNL     1      -4.778   1.521   1.682  1.00  0.00    -0.368 OA
ATOM     34  H5  UNL     1      -5.128   1.618   2.560  1.00  0.00     0.212 HD
ENDBRANCH  30  33
ENDBRANCH  26  30
ENDBRANCH  25  26
ENDBRANCH   2  25
TORSDOF 10
