REMARK  8 active torsions:
REMARK  status: ('A' for Active; 'I' for Inactive)
REMARK    1  A    between atoms: N1_1  and  C1_4 
REMARK    2  A    between atoms: N4_12  and  C5_13 
REMARK    3  A    between atoms: C5_13  and  C6_14 
REMARK    4  A    between atoms: C8_16  and  N5_17 
REMARK    5  A    between atoms: C8_16  and  C9_21 
REMARK    6  A    between atoms: C9_21  and  C10_22 
REMARK    7  A    between atoms: C10_22  and  N6_23 
REMARK       I    between atoms: N6_23  and  C11_25 
REMARK    8  A    between atoms: C11_25  and  C12_27 
ROOT
HETATM    1  C6  UNL     1      -1.798  -0.297   1.271  1.00  0.00     0.142 C 
HETATM    2  C7  UNL     1      -1.384  -0.695  -0.087  1.00  0.00     0.074 C 
HETATM    3  C8  UNL     1      -0.156   0.132  -0.420  1.00  0.00     0.148 C 
HETATM    4  C16 UNL     1      -0.154   1.099   0.724  1.00  0.00     0.207 C 
HETATM    5  O2  UNL     1      -0.671   0.367   1.791  1.00  0.00    -0.382 OA
ENDROOT
BRANCH   1   6
HETATM    6  C5  UNL     1      -3.031   0.617   1.391  1.00  0.00     0.164 C 
BRANCH   6   7
HETATM    7  N4  UNL     1      -4.160  -0.030   0.853  1.00  0.00    -0.314 N 
HETATM    8  C4  UNL     1      -4.797   0.380  -0.359  1.00  0.00     0.105 A 
HETATM    9  C1  UNL     1      -4.445   1.474  -1.099  1.00  0.00     0.129 A 
HETATM   10  C3  UNL     1      -5.890  -0.398  -0.785  1.00  0.00     0.059 A 
HETATM   11  N2  UNL     1      -5.166   1.766  -2.224  1.00  0.00    -0.337 N 
HETATM   12  C2  UNL     1      -6.207   1.014  -2.621  1.00  0.00     0.182 A 
ATOM     13  H2  UNL     1      -4.905   2.581  -2.780  1.00  0.00     0.168 HD
HETATM   14  N3  UNL     1      -6.568  -0.062  -1.906  1.00  0.00    -0.352 N 
ATOM     15  H3  UNL     1      -7.359  -0.630  -2.210  1.00  0.00     0.166 HD
HETATM   16  C18 UNL     1      -6.388  -1.591  -0.065  1.00  0.00     0.181 A 
HETATM   17  N9  UNL     1      -5.663  -1.867   1.126  1.00  0.00    -0.359 N 
HETATM   18  C17 UNL     1      -4.671  -1.194   1.558  1.00  0.00     0.191 A 
ATOM     19  H9  UNL     1      -5.961  -2.670   1.680  1.00  0.00     0.162 HD
HETATM   20  N8  UNL     1      -4.074  -1.540   2.786  1.00  0.00    -0.063 NA
BRANCH   9  21
HETATM   21  N1  UNL     1      -3.494   2.228  -0.743  1.00  0.00    -0.384 N 
ATOM     22  H12 UNL     1      -3.231   3.044  -1.295  1.00  0.00     0.157 HD
ATOM     23  H11 UNL     1      -2.956   2.010   0.096  1.00  0.00     0.157 HD
ENDBRANCH   9  21
ENDBRANCH   6   7
ENDBRANCH   1   6
BRANCH   3  24
HETATM   24  N5  UNL     1      -0.239   0.825  -1.669  1.00  0.00    -0.068 N 
ATOM     25  H53 UNL     1      -0.447   0.174  -2.426  1.00  0.00     0.275 HD
ATOM     26  H52 UNL     1      -1.079   1.403  -1.702  1.00  0.00     0.275 HD
ATOM     27  H51 UNL     1       0.586   1.381  -1.893  1.00  0.00     0.275 HD
ENDBRANCH   3  24
BRANCH   3  28
HETATM   28  C9  UNL     1       1.095  -0.706  -0.373  1.00  0.00     0.060 C 
BRANCH  28  29
HETATM   29  C10 UNL     1       2.281   0.120  -0.722  1.00  0.00     0.125 C 
BRANCH  29  30
HETATM   30  N6  UNL     1       3.521  -0.634  -0.699  1.00  0.00    -0.359 N 
HETATM   31  C11 UNL     1       4.751  -0.021  -1.002  1.00  0.00     0.248 C 
HETATM   32  O1  UNL     1       4.767   1.199  -1.297  1.00  0.00    -0.271 OA
ATOM     33  H6  UNL     1       3.501  -1.625  -0.459  1.00  0.00     0.162 HD
BRANCH  31  34
HETATM   34  C12 UNL     1       6.047  -0.730  -0.997  1.00  0.00     0.277 C 
HETATM   35  C13 UNL     1       6.349  -1.250   0.392  1.00  0.00     0.044 C 
HETATM   36  C14 UNL     1       7.151  -0.152   1.026  1.00  0.00     0.030 C 
HETATM   37  C15 UNL     1       7.730   0.598  -0.124  1.00  0.00     0.233 C 
HETATM   38  N7  UNL     1       7.149   0.135  -1.344  1.00  0.00    -0.062 N 
ATOM     39  H72 UNL     1       7.826  -0.311  -1.963  1.00  0.00     0.278 HD
ATOM     40  H71 UNL     1       6.878   0.894  -1.969  1.00  0.00     0.278 HD
ENDBRANCH  31  34
ENDBRANCH  29  30
ENDBRANCH  28  29
ENDBRANCH   3  28
TORSDOF 8
