REMARK  7 active torsions:
REMARK  status: ('A' for Active; 'I' for Inactive)
REMARK    1  A    between atoms: S1_2  and  N1_4 
REMARK    2  A    between atoms: S1_2  and  C13_21 
REMARK    3  A    between atoms: N1_4  and  C1_6 
REMARK    4  A    between atoms: C1_6  and  C2_7 
REMARK    5  A    between atoms: C1_6  and  C9_14 
REMARK    6  A    between atoms: C2_7  and  C3_8 
REMARK    7  A    between atoms: C9_14  and  N2_15 
ROOT
HETATM    1  C1  UNL     1      -0.363  -0.154  -0.828  1.00  0.00     0.115 C 
ENDROOT
BRANCH   1   2
HETATM    2  N1  UNL     1       0.565   0.426  -1.731  1.00  0.00    -0.308 N 
ATOM      3  H1  UNL     1       0.233   1.107  -2.415  1.00  0.00     0.172 HD
BRANCH   2   4
HETATM    4  S1  UNL     1       2.158   0.031  -1.705  1.00  0.00     0.274 S 
HETATM    5  O1  UNL     1       2.894   0.863  -2.760  1.00  0.00    -0.199 OA
HETATM    6  O2  UNL     1       2.528  -1.383  -2.020  1.00  0.00    -0.199 OA
BRANCH   4   7
HETATM    7  C13 UNL     1       2.913   0.430  -0.192  1.00  0.00     0.148 A 
HETATM    8  C14 UNL     1       3.453  -0.544   0.638  1.00  0.00     0.043 A 
HETATM    9  C15 UNL     1       4.052  -0.219   1.830  1.00  0.00     0.004 A 
HETATM   10  C16 UNL     1       4.122   1.097   2.218  1.00  0.00     0.017 A 
HETATM   11  C17 UNL     1       3.586   2.049   1.391  1.00  0.00     0.089 A 
HETATM   12  N4  UNL     1       3.020   1.684   0.253  1.00  0.00    -0.355 N 
ATOM     13  H4  UNL     1       2.633   2.423  -0.334  1.00  0.00     0.166 HD
ENDBRANCH   4   7
ENDBRANCH   2   4
ENDBRANCH   1   2
BRANCH   1  14
HETATM   14  C2  UNL     1      -1.164  -1.264  -1.544  1.00  0.00     0.066 C 
BRANCH  14  15
HETATM   15  C3  UNL     1      -2.125  -1.873  -0.616  1.00  0.00    -0.056 A 
HETATM   16  C4  UNL     1      -1.722  -2.901   0.246  1.00  0.00     0.007 A 
HETATM   17  C5  UNL     1      -2.581  -3.535   1.111  1.00  0.00     0.001 A 
HETATM   18  C6  UNL     1      -3.908  -3.177   1.168  1.00  0.00     0.000 A 
HETATM   19  C7  UNL     1      -4.345  -2.171   0.337  1.00  0.00     0.001 A 
HETATM   20  C8  UNL     1      -3.473  -1.544  -0.525  1.00  0.00     0.007 A 
ENDBRANCH  14  15
ENDBRANCH   1  14
BRANCH   1  21
HETATM   21  C9  UNL     1      -1.287   0.831  -0.238  1.00  0.00     0.155 C 
BRANCH  21  22
HETATM   22  N2  UNL     1      -0.726   1.931   0.501  1.00  0.00    -0.350 N 
HETATM   23  C10 UNL     1      -0.396   3.152   0.009  1.00  0.00     0.108 A 
HETATM   24  C11 UNL     1       0.096   3.941   1.030  1.00  0.00     0.106 A 
HETATM   25  N3  UNL     1       0.058   3.170   2.153  1.00  0.00    -0.361 N 
HETATM   26  C12 UNL     1      -0.437   1.970   1.813  1.00  0.00     0.182 A 
ATOM     27  H3  UNL     1       0.354   3.455   3.087  1.00  0.00     0.166 HD
ENDBRANCH  21  22
ENDBRANCH   1  21
TORSDOF 7
