REMARK  11 active torsions:
REMARK  status: ('A' for Active; 'I' for Inactive)
REMARK    1  A    between atoms: N1_1  and  C1_5 
REMARK    2  A    between atoms: C1_5  and  C2_6 
REMARK    3  A    between atoms: C3_8  and  O1_9 
REMARK    4  A    between atoms: O1_9  and  C4_10 
REMARK    5  A    between atoms: C5_12  and  N2_13 
REMARK    6  A    between atoms: N2_13  and  C6_16 
REMARK    7  A    between atoms: C8_20  and  C9_21 
REMARK    8  A    between atoms: C10_24  and  N4_25 
REMARK    9  A    between atoms: C12_30  and  N5_31 
REMARK   10  A    between atoms: C13_35  and  N6_36 
REMARK   11  A    between atoms: C14_40  and  O6_41 
ROOT
HETATM    1  C4  UNL     1      -0.558  -1.142  -0.348  1.00  0.00     0.294 C 
HETATM    2  O2  UNL     1       0.548  -0.885  -1.141  1.00  0.00    -0.324 OA
HETATM    3  C5  UNL     1       1.732  -0.821  -0.408  1.00  0.00     0.357 C 
HETATM    4  C10 UNL     1       2.152  -2.188   0.091  1.00  0.00     0.241 C 
HETATM    5  C11 UNL     1       0.869  -3.036   0.148  1.00  0.00     0.075 C 
HETATM    6  C12 UNL     1      -0.179  -2.105   0.772  1.00  0.00     0.240 C 
ENDROOT
BRANCH   1   7
HETATM    7  O1  UNL     1      -1.176   0.002   0.120  1.00  0.00    -0.341 OA
BRANCH   7   8
HETATM    8  C3  UNL     1      -2.481   0.114  -0.287  1.00  0.00     0.219 C 
HETATM    9  S1  UNL     1      -2.826   1.741  -1.075  1.00  0.00    -0.126 SA
HETATM   10  C2  UNL     1      -4.358   2.145  -0.189  1.00  0.00     0.106 C 
HETATM   11  C14 UNL     1      -4.679   0.823   0.465  1.00  0.00     0.167 C 
HETATM   12  C13 UNL     1      -3.370   0.247   0.927  1.00  0.00     0.252 C 
BRANCH  10  13
HETATM   13  C1  UNL     1      -5.445   2.593  -1.132  1.00  0.00     0.247 C 
BRANCH  13  14
HETATM   14  N1  UNL     1      -6.628   2.893  -0.361  1.00  0.00    -0.078 N 
ATOM     15  H13 UNL     1      -6.919   2.113   0.228  1.00  0.00     0.274 HD
ATOM     16  H12 UNL     1      -6.450   3.570   0.381  1.00  0.00     0.274 HD
ATOM     17  H11 UNL     1      -7.364   3.196  -0.999  1.00  0.00     0.274 HD
ENDBRANCH  13  14
ENDBRANCH  10  13
BRANCH  11  18
HETATM   18  O6  UNL     1      -5.374  -0.050  -0.369  1.00  0.00    -0.392 OA
ATOM     19  H6  UNL     1      -5.576  -0.882   0.043  1.00  0.00     0.210 HD
ENDBRANCH  11  18
BRANCH  12  20
HETATM   20  N6  UNL     1      -2.800   1.168   1.894  1.00  0.00    -0.069 N 
ATOM     21  H63 UNL     1      -1.850   0.901   2.152  1.00  0.00     0.275 HD
ATOM     22  H62 UNL     1      -2.599   2.076   1.475  1.00  0.00     0.275 HD
ATOM     23  H61 UNL     1      -3.400   1.258   2.714  1.00  0.00     0.275 HD
ENDBRANCH  12  20
ENDBRANCH   7   8
ENDBRANCH   1   7
BRANCH   6  24
HETATM   24  N5  UNL     1      -1.301  -2.837   1.284  1.00  0.00    -0.070 N 
ATOM     25  H53 UNL     1      -2.043  -2.204   1.583  1.00  0.00     0.274 HD
ATOM     26  H52 UNL     1      -1.791  -3.325   0.534  1.00  0.00     0.274 HD
ATOM     27  H51 UNL     1      -1.047  -3.481   2.033  1.00  0.00     0.274 HD
ENDBRANCH   6  24
BRANCH   3  28
HETATM   28  N2  UNL     1       2.780  -0.298  -1.235  1.00  0.00    -0.017 N 
ATOM     29  H22 UNL     1       2.927  -0.888  -2.054  1.00  0.00     0.283 HD
ATOM     30  H21 UNL     1       2.484   0.560  -1.700  1.00  0.00     0.283 HD
BRANCH  28  31
HETATM   31  C6  UNL     1       4.006  -0.098  -0.519  1.00  0.00     0.364 C 
HETATM   32  O3  UNL     1       4.840  -1.208  -0.487  1.00  0.00    -0.332 OA
HETATM   33  C7  UNL     1       6.056  -0.606  -0.101  1.00  0.00     0.342 C 
HETATM   34  O4  UNL     1       6.177   0.348  -1.115  1.00  0.00    -0.348 OA
HETATM   35  C8  UNL     1       4.909   0.930  -1.171  1.00  0.00     0.269 C 
BRANCH  35  36
HETATM   36  C9  UNL     1       4.971   2.168  -0.352  1.00  0.00     0.264 C 
HETATM   37  N3  UNL     1       3.824   3.005  -0.237  1.00  0.00    -0.060 NA
HETATM   38  O5  UNL     1       6.008   2.519   0.257  1.00  0.00    -0.274 OA
ENDBRANCH  35  36
ENDBRANCH  28  31
ENDBRANCH   3  28
BRANCH   4  39
HETATM   39  N4  UNL     1       2.606  -2.137   1.468  1.00  0.00    -0.071 N 
ATOM     40  H43 UNL     1       3.351  -1.451   1.590  1.00  0.00     0.274 HD
ATOM     41  H42 UNL     1       1.903  -1.718   2.077  1.00  0.00     0.274 HD
ATOM     42  H41 UNL     1       2.889  -3.058   1.804  1.00  0.00     0.274 HD
ENDBRANCH   4  39
TORSDOF 11
