REMARK  10 active torsions:
REMARK  status: ('A' for Active; 'I' for Inactive)
REMARK    1  A    between atoms: C2_3  and  C3_4 
REMARK    2  A    between atoms: C3_4  and  O1_5 
REMARK    3  A    between atoms: C3_4  and  N2_7 
REMARK    4  A    between atoms: N2_7  and  C4_9 
REMARK    5  A    between atoms: C4_9  and  C5_10 
REMARK    6  A    between atoms: C4_9  and  C6_13 
REMARK       I    between atoms: C6_13  and  N3_15 
REMARK       I    between atoms: N3_15  and  C7_17 
REMARK       I    between atoms: C7_17  and  N4_19 
REMARK    7  A    between atoms: N5_21  and  N6_23 
REMARK    8  A    between atoms: C10_33  and  N9_34 
REMARK    9  A    between atoms: N9_34  and  O7_36 
REMARK   10  A    between atoms: O7_36  and  N10_37 
ROOT
HETATM    1  C3  UNL     1      -0.315  -0.104  -1.503  1.00  0.00     0.284 C 
ENDROOT
BRANCH   1   2
HETATM    2  C2  UNL     1       1.141   0.308  -1.338  1.00  0.00     0.137 A 
HETATM    3  N1  UNL     1       1.974  -0.491  -0.659  1.00  0.00    -0.321 N 
HETATM    4  C1  UNL     1       1.677  -1.805  -0.157  1.00  0.00     0.159 C 
HETATM    5  C11 UNL     1       3.237  -0.006  -0.459  1.00  0.00     0.157 A 
HETATM    6  C9  UNL     1       3.633   1.213  -0.923  1.00  0.00     0.161 A 
HETATM    7  N11 UNL     1       4.304  -0.499   0.211  1.00  0.00    -0.172 N 
HETATM    8  C8  UNL     1       2.725   2.009  -1.631  1.00  0.00     0.278 A 
HETATM    9  N8  UNL     1       4.915   1.476  -0.553  1.00  0.00    -0.181 N 
HETATM   10  N7  UNL     1       1.502   1.532  -1.816  1.00  0.00    -0.307 N 
HETATM   11  O6  UNL     1       3.122   3.135  -2.060  1.00  0.00    -0.265 OA
ATOM     12  H7  UNL     1       0.818   2.092  -2.326  1.00  0.00     0.170 HD
HETATM   13  C10 UNL     1       5.301   0.397   0.148  1.00  0.00     0.706 A 
ATOM     14  H8  UNL     1       5.464   2.310  -0.762  1.00  0.00     0.184 HD
ATOM     15  H11 UNL     1       4.344  -1.401   0.685  1.00  0.00     0.186 HD
BRANCH  13  16
HETATM   16  N9  UNL     1       6.460   0.275   0.689  1.00  0.00    -0.072 N 
ATOM     17  H9  UNL     1       7.107   1.053   0.562  1.00  0.00     0.215 HD
BRANCH  16  18
HETATM   18  O7  UNL     1       6.913  -0.782   1.412  1.00  0.00    -0.149 OA
BRANCH  18  19
HETATM   19  N10 UNL     1       6.931  -0.766   2.800  1.00  0.00    -0.286 N 
ATOM     20 2H10 UNL     1       6.591   0.070   3.275  1.00  0.00     0.186 HD
ATOM     21 1H10 UNL     1       7.271  -1.560   3.343  1.00  0.00     0.186 HD
ENDBRANCH  18  19
ENDBRANCH  16  18
ENDBRANCH  13  16
ENDBRANCH   1   2
BRANCH   1  22
HETATM   22  O1  UNL     1      -0.284  -1.413  -2.020  1.00  0.00    -0.370 OA
ATOM     23  H1  UNL     1      -1.193  -1.670  -2.123  1.00  0.00     0.212 HD
ENDBRANCH   1  22
BRANCH   1  24
HETATM   24  N2  UNL     1      -0.954  -0.013  -0.279  1.00  0.00    -0.370 N 
ATOM     25  H2  UNL     1      -0.597  -0.638   0.444  1.00  0.00     0.157 HD
BRANCH  24  26
HETATM   26  C4  UNL     1      -1.992   0.788   0.108  1.00  0.00     0.274 C 
BRANCH  26  27
HETATM   27  C5  UNL     1      -2.276   0.609   1.585  1.00  0.00     0.206 C 
HETATM   28  O2  UNL     1      -1.706  -0.248   2.259  1.00  0.00    -0.646 OA
HETATM   29  O3  UNL     1      -3.212   1.445   2.206  1.00  0.00    -0.646 OA
ENDBRANCH  26  27
BRANCH  26  30
HETATM   30  C6  UNL     1      -3.301   0.679  -0.608  1.00  0.00     0.258 C 
HETATM   31  O4  UNL     1      -3.799   1.662  -1.169  1.00  0.00    -0.270 OA
HETATM   32  N3  UNL     1      -3.906  -0.598  -0.586  1.00  0.00    -0.276 N 
HETATM   33  C7  UNL     1      -5.226  -0.934  -0.876  1.00  0.00     0.342 C 
ATOM     34  H3  UNL     1      -3.297  -1.373  -0.324  1.00  0.00     0.173 HD
HETATM   35  O5  UNL     1      -5.581  -2.114  -1.072  1.00  0.00    -0.245 OA
HETATM   36  N4  UNL     1      -6.287   0.092  -0.937  1.00  0.00    -0.237 N 
HETATM   37  N5  UNL     1      -6.973   0.170   0.087  1.00  0.00    -0.245 N 
ATOM     38  H4  UNL     1      -6.440   0.684  -1.753  1.00  0.00     0.193 HD
ATOM     39  H5  UNL     1      -6.583  -0.538   0.710  1.00  0.00     0.208 HD
BRANCH  37  40
HETATM   40  N6  UNL     1      -7.935   0.699   0.761  1.00  0.00    -0.331 N 
ATOM     41  H62 UNL     1      -8.298   1.396   0.111  1.00  0.00     0.178 HD
ATOM     42  H61 UNL     1      -8.502   0.763   1.607  1.00  0.00     0.178 HD
ENDBRANCH  37  40
ENDBRANCH  26  30
ENDBRANCH  24  26
ENDBRANCH   1  24
TORSDOF 10
