REMARK  19 active torsions:
REMARK  status: ('A' for Active; 'I' for Inactive)
REMARK    1  A    between atoms: C2_2  and  O1_3 
REMARK    2  A    between atoms: C2_2  and  C3_5 
REMARK    3  A    between atoms: C3_5  and  N1_6 
REMARK    4  A    between atoms: C3_5  and  C23_59 
REMARK    5  A    between atoms: N1_6  and  C4_8 
REMARK    6  A    between atoms: C5_10  and  C6_11 
REMARK    7  A    between atoms: C9_14  and  O3_15 
REMARK    8  A    between atoms: C11_18  and  N2_19 
REMARK    9  A    between atoms: N2_19  and  C12_21 
REMARK   10  A    between atoms: C12_21  and  O4_22 
REMARK   11  A    between atoms: C12_21  and  O5_24 
REMARK   12  A    between atoms: C13_28  and  C14_29 
REMARK   13  A    between atoms: C15_30  and  N4_31 
REMARK   14  A    between atoms: N4_31  and  O6_32 
REMARK   15  A    between atoms: N4_31  and  C16_34 
REMARK   16  A    between atoms: C17_36  and  O8_37 
REMARK   17  A    between atoms: C17_36  and  C18_39 
REMARK   18  A    between atoms: C18_39  and  O9_40 
REMARK   19  A    between atoms: C22_55  and  N10_56 
ROOT
HETATM    1  C4  UNL     1      -0.799   1.076   0.036  1.00  0.00     0.174 A 
HETATM    2  O2  UNL     1      -1.779   0.502   0.665  1.00  0.00    -0.274 OA
HETATM    3  C5  UNL     1      -2.044  -0.698   0.170  1.00  0.00     0.163 A 
HETATM    4  N3  UNL     1      -1.177  -0.869  -0.817  1.00  0.00    -0.331 N 
ATOM      5  H3  UNL     1      -1.129  -1.707  -1.397  1.00  0.00     0.168 HD
HETATM    6  C13 UNL     1      -0.370   0.192  -0.961  1.00  0.00     0.104 A 
ENDROOT
BRANCH   6   7
HETATM    7  C14 UNL     1       0.649   0.454  -1.925  1.00  0.00     0.088 C 
HETATM    8  C15 UNL     1       1.873  -0.092  -1.791  1.00  0.00     0.162 C 
HETATM    9  N5  UNL     1       2.876  -0.149  -2.758  1.00  0.00    -0.269 N 
HETATM   10  N6  UNL     1       3.060   0.642  -3.798  1.00  0.00    -0.128 N 
ATOM     11  H5  UNL     1       3.557  -0.901  -2.647  1.00  0.00     0.189 HD
HETATM   12  C20 UNL     1       2.300   1.662  -4.240  1.00  0.00     0.720 A 
ATOM     13  H6  UNL     1       3.899   0.454  -4.346  1.00  0.00     0.205 HD
HETATM   14  N7  UNL     1       2.658   2.596  -5.149  1.00  0.00    -0.183 N 
HETATM   15  N9  UNL     1       1.029   1.952  -3.858  1.00  0.00    -0.067 N 
HETATM   16  C21 UNL     1       1.635   3.456  -5.338  1.00  0.00     0.216 A 
ATOM     17  H7  UNL     1       3.562   2.644  -5.620  1.00  0.00     0.185 HD
HETATM   18  N8  UNL     1       0.641   3.043  -4.533  1.00  0.00    -0.273 N 
ATOM     19  H8  UNL     1      -0.271   3.492  -4.449  1.00  0.00     0.189 HD
HETATM   20  C22 UNL     1       0.254   1.303  -2.973  1.00  0.00     0.155 C 
BRANCH   8  21
HETATM   21  N4  UNL     1       2.252  -0.691  -0.572  1.00  0.00    -0.205 N 
BRANCH  21  22
HETATM   22  O6  UNL     1       1.497  -0.713   0.532  1.00  0.00    -0.283 OA
ATOM     23  H6  UNL     1       1.752  -1.117   1.353  1.00  0.00     0.245 HD
ENDBRANCH  21  22
BRANCH  21  24
HETATM   24  C16 UNL     1       3.555  -1.347  -0.433  1.00  0.00     0.332 A 
HETATM   25  O7  UNL     1       3.787  -1.891   0.823  1.00  0.00    -0.312 OA
HETATM   26  C17 UNL     1       4.940  -1.122   1.078  1.00  0.00     0.253 A 
HETATM   27  C19 UNL     1       4.691  -0.449  -0.219  1.00  0.00     0.241 A 
HETATM   28  O10 UNL     1       5.236   0.464  -0.810  1.00  0.00    -0.287 OA
BRANCH  26  29
HETATM   29  O8  UNL     1       4.829  -0.312   2.205  1.00  0.00    -0.358 OA
ATOM     30  H8  UNL     1       5.606   0.206   2.377  1.00  0.00     0.213 HD
ENDBRANCH  26  29
BRANCH  26  31
HETATM   31  C18 UNL     1       6.205  -1.942   1.149  1.00  0.00     0.241 C 
BRANCH  31  32
HETATM   32  O9  UNL     1       6.019  -2.865   2.204  1.00  0.00    -0.395 OA
ATOM     33  H9  UNL     1       6.815  -3.381   2.249  1.00  0.00     0.209 HD
ENDBRANCH  31  32
ENDBRANCH  26  31
ENDBRANCH  21  24
ENDBRANCH   8  21
BRANCH  20  34
HETATM   34  N10 UNL     1      -1.003   1.512  -3.140  1.00  0.00    -0.383 N 
ATOM     35 2H10 UNL     1      -1.591   1.019  -2.468  1.00  0.00     0.157 HD
ATOM     36 1H10 UNL     1      -1.290   2.128  -3.901  1.00  0.00     0.157 HD
ENDBRANCH  20  34
ENDBRANCH   6   7
BRANCH   1  37
HETATM   37  N1  UNL     1      -0.232   2.364   0.281  1.00  0.00    -0.352 N 
ATOM     38  H1  UNL     1       0.538   2.705  -0.295  1.00  0.00     0.162 HD
BRANCH  37  39
HETATM   39  C3  UNL     1      -0.758   3.181   1.351  1.00  0.00     0.213 C 
BRANCH  39  40
HETATM   40  C2  UNL     1      -0.077   4.537   1.394  1.00  0.00     0.147 C 
HETATM   41  C1  UNL     1      -0.660   5.417   2.467  1.00  0.00     0.042 C 
BRANCH  40  42
HETATM   42  O1  UNL     1      -0.295   5.197   0.163  1.00  0.00    -0.393 OA
ATOM     43  H1  UNL     1       0.073   4.642  -0.514  1.00  0.00     0.210 HD
ENDBRANCH  40  42
ENDBRANCH  39  40
BRANCH  39  44
HETATM   44  C23 UNL     1      -0.584   2.535   2.678  1.00  0.00     0.199 C 
HETATM   45  O11 UNL     1      -0.012   1.418   2.723  1.00  0.00    -0.646 OA
HETATM   46  O12 UNL     1      -1.009   3.085   3.855  1.00  0.00    -0.646 OA
ENDBRANCH  39  44
ENDBRANCH  37  39
ENDBRANCH   1  37
BRANCH   3  47
HETATM   47  C6  UNL     1      -3.112  -1.545   0.713  1.00  0.00     0.042 A 
HETATM   48  C7  UNL     1      -3.846  -1.018   1.771  1.00  0.00     0.021 A 
HETATM   49  C8  UNL     1      -4.864  -1.742   2.332  1.00  0.00     0.037 A 
HETATM   50  C9  UNL     1      -5.193  -2.993   1.883  1.00  0.00     0.067 A 
HETATM   51  C10 UNL     1      -4.456  -3.512   0.828  1.00  0.00     0.066 A 
HETATM   52  C11 UNL     1      -3.433  -2.787   0.262  1.00  0.00     0.049 A 
BRANCH  50  53
HETATM   53  O3  UNL     1      -6.213  -3.722   2.443  1.00  0.00    -0.361 OA
ATOM     54  H3  UNL     1      -6.441  -4.590   2.131  1.00  0.00     0.217 HD
ENDBRANCH  50  53
BRANCH  52  55
HETATM   55  N2  UNL     1      -2.728  -3.395  -0.795  1.00  0.00    -0.341 N 
ATOM     56  H2  UNL     1      -1.936  -2.896  -1.200  1.00  0.00     0.164 HD
BRANCH  55  57
HETATM   57  C12 UNL     1      -3.075  -4.704  -1.339  1.00  0.00     0.365 C 
BRANCH  57  58
HETATM   58  O4  UNL     1      -4.347  -4.736  -1.879  1.00  0.00    -0.355 OA
ATOM     59  H4  UNL     1      -4.573  -5.588  -2.233  1.00  0.00     0.214 HD
ENDBRANCH  57  58
BRANCH  57  60
HETATM   60  O5  UNL     1      -2.856  -5.740  -0.447  1.00  0.00    -0.355 OA
ATOM     61  H5  UNL     1      -3.082  -6.592  -0.801  1.00  0.00     0.214 HD
ENDBRANCH  57  60
ENDBRANCH  55  57
ENDBRANCH  52  55
ENDBRANCH   3  47
TORSDOF 19
