REMARK  3 active torsions:
REMARK  status: ('A' for Active; 'I' for Inactive)
REMARK    1  A    between atoms: C4_8  and  S1_9 
REMARK    2  A    between atoms: S1_9  and  N4_10 
REMARK    3  A    between atoms: C5_17  and  N6_18 
ROOT
HETATM    1  N1  UNL     1      -3.690   1.283  -2.039  1.00  0.00    -0.191 NA
HETATM    2  C1  UNL     1      -2.719   0.985  -1.456  1.00  0.00     0.106 C 
HETATM    3  C2  UNL     1      -1.538   0.628  -0.719  1.00  0.00     0.129 A 
HETATM    4  C3  UNL     1      -1.169  -0.698  -0.525  1.00  0.00     0.143 A 
HETATM    5  N2  UNL     1      -2.019  -1.694  -1.092  1.00  0.00    -0.081 NA
HETATM    6  N3  UNL     1      -0.069  -1.047   0.161  1.00  0.00    -0.319 N 
ATOM      7  H3  UNL     1       0.168  -2.032   0.283  1.00  0.00     0.169 HD
HETATM    8  C4  UNL     1       0.710  -0.104   0.681  1.00  0.00     0.226 A 
HETATM    9  N5  UNL     1       0.382   1.186   0.512  1.00  0.00    -0.317 N 
ATOM     10  H5  UNL     1       0.988   1.900   0.917  1.00  0.00     0.169 HD
HETATM   11  C5  UNL     1      -0.703   1.577  -0.163  1.00  0.00     0.125 A 
ENDROOT
BRANCH  11  12
HETATM   12  N6  UNL     1      -0.972   2.838  -0.296  1.00  0.00    -0.384 N 
ATOM     13  H62 UNL     1      -1.800   3.136  -0.811  1.00  0.00     0.157 HD
ATOM     14  H61 UNL     1      -0.355   3.539   0.115  1.00  0.00     0.157 HD
ENDBRANCH  11  12
BRANCH   8  15
HETATM   15  S1  UNL     1       2.164  -0.440   1.590  1.00  0.00     0.289 S 
HETATM   16  O1  UNL     1       2.045   0.161   2.964  1.00  0.00    -0.198 OA
HETATM   17  O2  UNL     1       2.407  -1.924   1.647  1.00  0.00    -0.198 OA
BRANCH  15  18
HETATM   18  N4  UNL     1       3.504   0.282   0.796  1.00  0.00    -0.322 N 
ATOM     19  H42 UNL     1       3.445   0.819  -0.069  1.00  0.00     0.169 HD
ATOM     20  H41 UNL     1       4.353   0.086   1.327  1.00  0.00     0.169 HD
ENDBRANCH  15  18
ENDBRANCH   8  15
TORSDOF 3
