REMARK  0 active torsions:
REMARK  status: ('A' for Active; 'I' for Inactive)
ROOT
HETATM    1  O1  UNL     1      -1.391  -2.648   0.412  1.00  0.00    -0.264 OA
HETATM    2  C1  UNL     1      -1.270  -1.400   0.213  1.00  0.00     0.287 A 
HETATM    3  N1  UNL     1      -2.319  -0.583   0.073  1.00  0.00    -0.262 N 
ATOM      4  H1  UNL     1      -3.251  -0.993   0.130  1.00  0.00     0.190 HD
HETATM    5  N2  UNL     1      -2.232   0.716  -0.134  1.00  0.00    -0.263 N 
ATOM      6  H2  UNL     1      -3.073   1.285  -0.232  1.00  0.00     0.190 HD
HETATM    7  C2  UNL     1      -1.011   1.274  -0.213  1.00  0.00     0.278 A 
HETATM    8  O2  UNL     1      -0.881   2.516  -0.411  1.00  0.00    -0.266 OA
HETATM    9  C3  UNL     1       0.115   0.495  -0.078  1.00  0.00     0.133 A 
HETATM   10  C4  UNL     1       1.365   1.073  -0.160  1.00  0.00     0.264 A 
HETATM   11  O3  UNL     1       1.468   2.312  -0.358  1.00  0.00    -0.267 OA
HETATM   12  N3  UNL     1       2.459   0.300  -0.027  1.00  0.00    -0.319 N 
ATOM     13  H3  UNL     1       3.392   0.709  -0.085  1.00  0.00     0.169 HD
HETATM   14  C5  UNL     1       2.305  -1.021   0.184  1.00  0.00     0.184 A 
HETATM   15  N4  UNL     1       1.100  -1.620   0.269  1.00  0.00    -0.347 N 
ATOM     16  H4  UNL     1       1.031  -2.625   0.429  1.00  0.00     0.167 HD
HETATM   17  C6  UNL     1      -0.009  -0.870   0.139  1.00  0.00     0.124 A 
ENDROOT
TORSDOF 0
