REMARK  4 active torsions:
REMARK  status: ('A' for Active; 'I' for Inactive)
REMARK    1  A    between atoms: C7_7  and  N1_8 
REMARK    2  A    between atoms: N1_8  and  C8_10 
REMARK    3  A    between atoms: C10_12  and  C11_13 
REMARK       I    between atoms: N2_17  and  C15_19 
REMARK    4  A    between atoms: C15_19  and  C16_21 
ROOT
HETATM    1  C11 UNL     1       1.007  -0.698  -0.110  1.00  0.00     0.006 A 
HETATM    2  C12 UNL     1       1.220  -1.857   0.597  1.00  0.00     0.019 A 
HETATM    3  C13 UNL     1       2.478  -2.450   0.674  1.00  0.00     0.049 A 
HETATM    4  C14 UNL     1       3.532  -1.852   0.020  1.00  0.00     0.107 A 
HETATM    5  N2  UNL     1       4.694  -2.422   0.106  1.00  0.00    -0.308 N 
ATOM      6  H2  UNL     1       4.786  -3.281   0.648  1.00  0.00     0.170 HD
HETATM    7  C15 UNL     1       5.834  -1.887  -0.528  1.00  0.00     0.275 C 
HETATM    8  O1  UNL     1       6.245  -2.357  -1.607  1.00  0.00    -0.266 OA
HETATM    9  N5  UNL     1       3.328  -0.717  -0.673  1.00  0.00    -0.351 N 
ATOM     10  H5  UNL     1       4.114  -0.279  -1.154  1.00  0.00     0.166 HD
HETATM   11  C20 UNL     1       2.113  -0.146  -0.746  1.00  0.00     0.103 A 
ENDROOT
BRANCH   1  12
HETATM   12  C10 UNL     1      -0.283  -0.051  -0.214  1.00  0.00     0.048 A 
HETATM   13  C9  UNL     1      -1.413  -0.543   0.389  1.00  0.00     0.079 A 
HETATM   14  C8  UNL     1      -2.632   0.132   0.249  1.00  0.00     0.108 A 
HETATM   15  N7  UNL     1      -2.710   1.260  -0.471  1.00  0.00    -0.339 N 
HETATM   16  C21 UNL     1      -1.592   1.734  -1.059  1.00  0.00     0.182 A 
ATOM     17  H7  UNL     1      -3.598   1.751  -0.572  1.00  0.00     0.168 HD
HETATM   18  N6  UNL     1      -0.422   1.085  -0.924  1.00  0.00    -0.351 N 
ATOM     19  H6  UNL     1       0.402   1.473  -1.383  1.00  0.00     0.166 HD
BRANCH  14  20
HETATM   20  N1  UNL     1      -3.699  -0.317   0.808  1.00  0.00    -0.342 N 
ATOM     21  H1  UNL     1      -3.653  -1.174   1.359  1.00  0.00     0.167 HD
BRANCH  20  22
HETATM   22  C7  UNL     1      -4.941   0.359   0.673  1.00  0.00     0.039 A 
HETATM   23  C2  UNL     1      -5.771   0.104  -0.402  1.00  0.00    -0.035 A 
HETATM   24  C1  UNL     1      -5.407  -0.876  -1.451  1.00  0.00     0.050 C 
HETATM   25  C3  UNL     1      -6.991   0.754  -0.554  1.00  0.00     0.009 A 
HETATM   26  C4  UNL     1      -7.413   1.676   0.366  1.00  0.00     0.001 A 
HETATM   27  C5  UNL     1      -6.586   1.941   1.452  1.00  0.00     0.002 A 
HETATM   28  C6  UNL     1      -5.377   1.293   1.597  1.00  0.00     0.030 A 
ENDBRANCH  20  22
ENDBRANCH  14  20
ENDBRANCH   1  12
BRANCH   7  29
HETATM   29  C16 UNL     1       6.536  -0.778   0.082  1.00  0.00     0.116 A 
HETATM   30  C17 UNL     1       7.664  -0.216  -0.505  1.00  0.00     0.122 A 
HETATM   31  N3  UNL     1       8.290   0.811   0.087  1.00  0.00    -0.372 N 
HETATM   32  C18 UNL     1       7.873   1.343   1.253  1.00  0.00     0.104 A 
ATOM     33  H3  UNL     1       9.116   1.206  -0.363  1.00  0.00     0.164 HD
HETATM   34  C19 UNL     1       6.756   0.792   1.841  1.00  0.00     0.105 A 
HETATM   35  N4  UNL     1       6.125  -0.238   1.249  1.00  0.00    -0.359 N 
ATOM     36  H4  UNL     1       5.299  -0.629   1.702  1.00  0.00     0.165 HD
ENDBRANCH   7  29
TORSDOF 4
