REMARK  8 active torsions:
REMARK  status: ('A' for Active; 'I' for Inactive)
REMARK    1  A    between atoms: O1_2  and  C2_3 
REMARK    2  A    between atoms: C6_9  and  C7_10 
REMARK       I    between atoms: C7_10  and  N1_12 
REMARK    3  A    between atoms: N1_12  and  C8_14 
REMARK    4  A    between atoms: C8_14  and  C9_15 
REMARK    5  A    between atoms: C8_14  and  C12_18 
REMARK    6  A    between atoms: C12_18  and  C13_21 
REMARK    7  A    between atoms: C13_21  and  O3_22 
REMARK    8  A    between atoms: C13_21  and  C14_24 
ROOT
HETATM    1  C2  UNL     1       4.257  -0.161  -0.057  1.00  0.00     0.108 A 
HETATM    2  C3  UNL     1       4.616  -0.992   0.965  1.00  0.00     0.063 A 
HETATM    3 BR1  UNL     1       6.414  -1.028   1.588  1.00  0.00    -0.047 Br
HETATM    4  C4  UNL     1       3.670  -1.796   1.532  1.00  0.00     0.032 A 
HETATM    5 BR2  UNL     1       4.216  -2.943   2.969  1.00  0.00    -0.050 Br
HETATM    6  C5  UNL     1       2.357  -1.766   1.072  1.00  0.00     0.039 A 
HETATM    7  C6  UNL     1       1.965  -0.937   0.041  1.00  0.00     0.056 A 
HETATM    8  C15 UNL     1       2.944  -0.137  -0.511  1.00  0.00     0.095 A 
HETATM    9  C16 UNL     1       2.647   0.751  -1.584  1.00  0.00     0.103 C 
HETATM   10  N3  UNL     1       2.399   1.458  -2.469  1.00  0.00    -0.191 NA
ENDROOT
BRANCH   1  11
HETATM   11  O1  UNL     1       5.249   0.647  -0.614  1.00  0.00    -0.353 OA
HETATM   12  C1  UNL     1       5.469   1.923  -0.078  1.00  0.00     0.210 C 
ENDBRANCH   1  11
BRANCH   7  13
HETATM   13  C7  UNL     1       0.614  -0.883  -0.437  1.00  0.00     0.253 C 
HETATM   14  O2  UNL     1       0.417  -1.145  -1.671  1.00  0.00    -0.268 OA
HETATM   15  N1  UNL     1      -0.530  -0.560   0.366  1.00  0.00    -0.346 N 
ATOM     16  H1  UNL     1      -0.402  -0.350   1.356  1.00  0.00     0.163 HD
BRANCH  15  17
HETATM   17  C8  UNL     1      -1.838  -0.526  -0.189  1.00  0.00     0.163 C 
BRANCH  17  18
HETATM   18  C9  UNL     1      -2.668  -1.750   0.178  1.00  0.00     0.006 C 
HETATM   19  C10 UNL     1      -1.985  -3.019  -0.336  1.00  0.00     0.012 C 
HETATM   20  C11 UNL     1      -3.023  -1.841   1.616  1.00  0.00     0.012 C 
ENDBRANCH  17  18
BRANCH  17  21
HETATM   21  C12 UNL     1      -2.667   0.664   0.099  1.00  0.00     0.297 C 
HETATM   22  F1  UNL     1      -2.892   0.854   1.458  1.00  0.00    -0.201 F 
HETATM   23  F2  UNL     1      -3.917   0.458  -0.487  1.00  0.00    -0.201 F 
BRANCH  21  24
HETATM   24  C13 UNL     1      -2.155   1.974  -0.438  1.00  0.00     0.281 C 
BRANCH  24  25
HETATM   25  O3  UNL     1      -2.034   1.950  -1.828  1.00  0.00    -0.381 OA
ATOM     26  H3  UNL     1      -1.711   2.777  -2.167  1.00  0.00     0.210 HD
ENDBRANCH  24  25
BRANCH  24  27
HETATM   27  C14 UNL     1      -3.144   3.002  -0.019  1.00  0.00     0.266 C 
HETATM   28  N2  UNL     1      -3.867   3.780  -0.951  1.00  0.00    -0.060 NA
HETATM   29  O4  UNL     1      -3.346   3.185   1.200  1.00  0.00    -0.274 OA
ENDBRANCH  24  27
ENDBRANCH  21  24
ENDBRANCH  17  21
ENDBRANCH  15  17
ENDBRANCH   7  13
TORSDOF 8
