REMARK  8 active torsions:
REMARK  status: ('A' for Active; 'I' for Inactive)
REMARK    1  A    between atoms: C2_2  and  N1_3 
REMARK    2  A    between atoms: N1_3  and  C3_5 
REMARK    3  A    between atoms: C4_8  and  C5_9 
REMARK    4  A    between atoms: N3_12  and  C8_13 
REMARK       I    between atoms: N4_16  and  C11_17 
REMARK    5  A    between atoms: C11_17  and  C12_19 
REMARK    6  A    between atoms: C12_19  and  C13_20 
REMARK    7  A    between atoms: C20_31  and  N7_32 
REMARK    8  A    between atoms: C23_37  and  C24_38 
ROOT
HETATM    1  C3  UNL     1      -3.639  -2.080   0.263  1.00  0.00     0.128 A 
HETATM    2  N2  UNL     1      -2.379  -1.560   0.268  1.00  0.00    -0.330 N 
ATOM      3  H2  UNL     1      -1.642  -2.148   0.657  1.00  0.00     0.168 HD
HETATM    4  C4  UNL     1      -2.020  -0.380  -0.177  1.00  0.00     0.091 A 
HETATM    5  N6  UNL     1      -3.010   0.398  -0.696  1.00  0.00    -0.330 N 
ATOM      6  H6  UNL     1      -2.779   1.324  -1.057  1.00  0.00     0.168 HD
HETATM    7  C20 UNL     1      -4.281  -0.026  -0.743  1.00  0.00     0.132 A 
HETATM    8  C26 UNL     1      -4.624  -1.277  -0.264  1.00  0.00     0.121 A 
HETATM    9 CL1  UNL     1      -6.302  -1.804  -0.350  1.00  0.00    -0.076 Cl
ENDROOT
BRANCH   4  10
HETATM   10  C5  UNL     1      -0.712   0.257  -0.151  1.00  0.00     0.093 C 
HETATM   11  C6  UNL     1      -0.513   1.148   1.068  1.00  0.00     0.045 C 
HETATM   12  C7  UNL     1       0.992   1.272   1.086  1.00  0.00     0.275 C 
HETATM   13  N3  UNL     1       1.505   0.421  -0.002  1.00  0.00     0.103 N 
HETATM   14  C17 UNL     1       0.504  -0.619  -0.031  1.00  0.00     0.163 C 
HETATM   15  C18 UNL     1       0.530  -1.474  -1.266  1.00  0.00     0.049 C 
HETATM   16  C19 UNL     1       0.472  -1.435   1.241  1.00  0.00     0.049 C 
BRANCH  13  17
HETATM   17  C8  UNL     1       2.831   0.064   0.303  1.00  0.00     0.227 C 
HETATM   18  C9  UNL     1       3.620   1.382   0.356  1.00  0.00     0.056 C 
HETATM   19  C10 UNL     1       5.049   1.147   0.787  1.00  0.00     0.128 C 
HETATM   20  N4  UNL     1       5.647   0.305  -0.218  1.00  0.00    -0.347 N 
HETATM   21  C11 UNL     1       6.817   0.660  -0.923  1.00  0.00     0.228 C 
HETATM   22  C14 UNL     1       4.984  -0.943  -0.473  1.00  0.00     0.085 C 
HETATM   23  O1  UNL     1       7.278  -0.132  -1.787  1.00  0.00    -0.273 OA
HETATM   24  C15 UNL     1       5.125  -1.923   0.656  1.00  0.00     0.032 C 
HETATM   25  C16 UNL     1       3.491  -0.768  -0.764  1.00  0.00     0.061 C 
BRANCH  21  26
HETATM   26  C12 UNL     1       7.558   1.921  -0.715  1.00  0.00     0.202 C 
BRANCH  26  27
HETATM   27  C13 UNL     1       8.706   1.631   0.216  1.00  0.00     0.239 C 
HETATM   28  N5  UNL     1       8.913   0.328   0.740  1.00  0.00    -0.062 NA
HETATM   29  O2  UNL     1       9.455   2.598   0.497  1.00  0.00    -0.276 OA
ENDBRANCH  26  27
ENDBRANCH  21  26
ENDBRANCH  13  17
ENDBRANCH   4  10
BRANCH   1  30
HETATM   30  N1  UNL     1      -3.784  -3.216   0.723  1.00  0.00    -0.375 N 
ATOM     31  H1  UNL     1      -2.875  -3.558   1.035  1.00  0.00     0.161 HD
BRANCH  30  32
HETATM   32  C2  UNL     1      -4.728  -4.190   0.968  1.00  0.00     0.116 C 
HETATM   33  C1  UNL     1      -4.439  -5.035   2.214  1.00  0.00     0.026 C 
ENDBRANCH  30  32
ENDBRANCH   1  30
BRANCH   7  34
HETATM   34  N7  UNL     1      -5.304   0.805  -1.289  1.00  0.00    -0.334 N 
HETATM   35  C21 UNL     1      -5.943   0.568  -2.572  1.00  0.00     0.193 C 
HETATM   36  C22 UNL     1      -6.344   1.981  -2.949  1.00  0.00     0.327 C 
HETATM   37  F1  UNL     1      -7.726   2.088  -3.155  1.00  0.00    -0.218 F 
HETATM   38  O3  UNL     1      -6.042   2.813  -1.899  1.00  0.00    -0.331 OA
HETATM   39  C23 UNL     1      -5.913   2.005  -0.774  1.00  0.00     0.227 C 
BRANCH  39  40
HETATM   40  C24 UNL     1      -5.081   2.692   0.295  1.00  0.00     0.049 C 
HETATM   41  C25 UNL     1      -5.830   3.952   0.756  1.00  0.00     0.009 C 
ENDBRANCH  39  40
ENDBRANCH   7  34
TORSDOF 8
