REMARK  11 active torsions:
REMARK  status: ('A' for Active; 'I' for Inactive)
REMARK    1  A    between atoms: C2_3  and  N2_4 
REMARK    2  A    between atoms: N2_4  and  C3_6 
REMARK    3  A    between atoms: C3_6  and  O1_7 
REMARK    4  A    between atoms: C3_6  and  C4_9 
REMARK       I    between atoms: C4_9  and  N3_11 
REMARK    5  A    between atoms: N3_11  and  C5_13 
REMARK    6  A    between atoms: C5_13  and  C6_14 
REMARK    7  A    between atoms: C6_14  and  N4_15 
REMARK    8  A    between atoms: C15_30  and  N7_31 
REMARK    9  A    between atoms: N7_31  and  C16_33 
REMARK   10  A    between atoms: C19_36  and  C20_37 
REMARK   11  A    between atoms: C20_37  and  C23_40 
ROOT
HETATM    1  C1  UNL     1      -2.436  -2.397  -1.715  1.00  0.00     0.175 C 
HETATM    2  N1  UNL     1      -2.108  -1.169  -1.088  1.00  0.00    -0.185 N 
HETATM    3  C2  UNL     1      -0.867  -0.555  -1.262  1.00  0.00     0.683 A 
HETATM    4  N5  UNL     1      -0.890   0.657  -0.738  1.00  0.00    -0.188 N 
ATOM      5  H5  UNL     1      -0.113   1.318  -0.732  1.00  0.00     0.184 HD
HETATM    6  C13 UNL     1      -2.107   0.873  -0.215  1.00  0.00     0.092 A 
HETATM    7  C14 UNL     1      -2.651   2.014   0.334  1.00  0.00     0.122 A 
HETATM    8  N6  UNL     1      -3.931   2.010   0.668  1.00  0.00    -0.350 N 
ATOM      9  H6  UNL     1      -4.343   2.853   1.069  1.00  0.00     0.166 HD
HETATM   10  C15 UNL     1      -4.716   0.902   0.489  1.00  0.00     0.111 A 
HETATM   11  C19 UNL     1      -4.259  -0.283  -0.039  1.00  0.00     0.032 A 
HETATM   12  C24 UNL     1      -2.874  -0.292  -0.430  1.00  0.00     0.091 A 
ENDROOT
BRANCH   3  13
HETATM   13  N2  UNL     1       0.071  -1.192  -1.851  1.00  0.00    -0.190 N 
ATOM     14  H2  UNL     1      -0.136  -2.138  -2.173  1.00  0.00     0.181 HD
BRANCH  13  15
HETATM   15  C3  UNL     1       1.387  -0.690  -2.097  1.00  0.00     0.327 C 
BRANCH  15  16
HETATM   16  O1  UNL     1       1.422   0.568  -2.644  1.00  0.00    -0.368 OA
ATOM     17  H1  UNL     1       2.296   0.902  -2.807  1.00  0.00     0.212 HD
ENDBRANCH  15  16
BRANCH  15  18
HETATM   18  C4  UNL     1       2.158  -0.792  -0.832  1.00  0.00     0.267 C 
HETATM   19  O2  UNL     1       2.225  -1.871  -0.213  1.00  0.00    -0.269 OA
HETATM   20  N3  UNL     1       2.815   0.349  -0.339  1.00  0.00    -0.356 N 
ATOM     21  H3  UNL     1       2.743   1.226  -0.854  1.00  0.00     0.162 HD
BRANCH  20  22
HETATM   22  C5  UNL     1       3.580   0.309   0.866  1.00  0.00     0.150 C 
BRANCH  22  23
HETATM   23  C6  UNL     1       4.750  -0.606   0.763  1.00  0.00     0.256 C 
BRANCH  23  24
HETATM   24  N4  UNL     1       5.738  -0.297  -0.208  1.00  0.00    -0.069 N 
HETATM   25  C7  UNL     1       5.551  -1.105  -1.394  1.00  0.00     0.272 C 
HETATM   26  C8  UNL     1       5.777   1.099  -0.518  1.00  0.00     0.243 C 
HETATM   27  C9  UNL     1       7.133   1.438  -1.173  1.00  0.00     0.107 C 
HETATM   28  C10 UNL     1       8.242   1.305  -0.156  1.00  0.00     0.246 C 
HETATM   29  F1  UNL     1       8.629   2.522   0.345  1.00  0.00    -0.206 F 
HETATM   30  F2  UNL     1       9.313   0.604  -0.695  1.00  0.00    -0.206 F 
HETATM   31  C11 UNL     1       7.708   0.461   0.983  1.00  0.00     0.107 C 
HETATM   32  C12 UNL     1       7.023  -0.734   0.372  1.00  0.00     0.243 C 
ENDBRANCH  23  24
ENDBRANCH  22  23
ENDBRANCH  20  22
ENDBRANCH  15  18
ENDBRANCH  13  15
ENDBRANCH   3  13
BRANCH  11  33
HETATM   33  C20 UNL     1      -5.002  -1.531  -0.215  1.00  0.00     0.083 C 
HETATM   34  C21 UNL     1      -6.067  -1.667  -1.217  1.00  0.00     0.029 C 
HETATM   35  C22 UNL     1      -4.404  -2.762   0.447  1.00  0.00     0.029 C 
BRANCH  33  36
HETATM   36  C23 UNL     1      -6.114  -1.413   1.000  1.00  0.00     0.399 C 
HETATM   37  F3  UNL     1      -5.563  -1.311   2.168  1.00  0.00    -0.170 F 
HETATM   38  F4  UNL     1      -6.594  -2.840   1.042  1.00  0.00    -0.170 F 
HETATM   39  F5  UNL     1      -7.310  -1.010   0.587  1.00  0.00    -0.170 F 
ENDBRANCH  33  36
ENDBRANCH  11  33
BRANCH  10  40
HETATM   40  N7  UNL     1      -5.950   1.026   0.754  1.00  0.00    -0.371 N 
ATOM     41  H7  UNL     1      -6.589   0.239   0.642  1.00  0.00     0.161 HD
BRANCH  40  42
HETATM   42  C16 UNL     1      -6.438   2.324   1.225  1.00  0.00     0.083 A 
HETATM   43  C17 UNL     1      -7.896   2.591   0.954  1.00  0.00     0.027 A 
HETATM   44  C18 UNL     1      -6.823   3.312   0.192  1.00  0.00     0.027 A 
ENDBRANCH  40  42
ENDBRANCH  10  40
TORSDOF 11
