REMARK  5 active torsions:
REMARK  status: ('A' for Active; 'I' for Inactive)
REMARK    1  A    between atoms: S1_2  and  N1_5 
REMARK    2  A    between atoms: N1_5  and  C2_7 
REMARK    3  A    between atoms: C5_10  and  S2_11 
REMARK    4  A    between atoms: S2_11  and  C6_12 
REMARK    5  A    between atoms: C9_17  and  N3_18 
ROOT
HETATM    1  C2  UNL     1       2.042   0.387  -0.313  1.00  0.00     0.042 A 
HETATM    2  C3  UNL     1       1.611  -0.857   0.071  1.00  0.00     0.031 A 
HETATM    3  C4  UNL     1       0.423  -1.049   0.766  1.00  0.00     0.021 A 
HETATM    4  C5  UNL     1      -0.354   0.040   1.085  1.00  0.00     0.007 A 
HETATM    5  C10 UNL     1       0.057   1.293   0.711  1.00  0.00     0.021 A 
HETATM    6  C11 UNL     1       1.240   1.459   0.021  1.00  0.00     0.031 A 
ENDROOT
BRANCH   4   7
HETATM    7  S2  UNL     1      -1.895  -0.107   1.975  1.00  0.00    -0.072 SA
BRANCH   7   8
HETATM    8  C6  UNL     1      -3.269  -0.322   0.852  1.00  0.00     0.092 A 
HETATM    9  C7  UNL     1      -3.642  -1.599   0.481  1.00  0.00     0.055 A 
HETATM   10  C8  UNL     1      -4.716  -1.724  -0.394  1.00  0.00     0.109 A 
HETATM   11  N2  UNL     1      -5.357  -0.638  -0.854  1.00  0.00    -0.202 N 
HETATM   12  C9  UNL     1      -4.990   0.604  -0.490  1.00  0.00     0.676 A 
ATOM     13  H2  UNL     1      -6.141  -0.757  -1.495  1.00  0.00     0.183 HD
HETATM   14  N4  UNL     1      -3.943   0.734   0.363  1.00  0.00    -0.186 N 
ATOM     15  H4  UNL     1      -3.655   1.671   0.645  1.00  0.00     0.185 HD
BRANCH  12  16
HETATM   16  N3  UNL     1      -5.629   1.598  -0.953  1.00  0.00    -0.234 N 
ATOM     17  H32 UNL     1      -6.416   1.500  -1.594  1.00  0.00     0.174 HD
ATOM     18  H31 UNL     1      -5.351   2.540  -0.677  1.00  0.00     0.174 HD
ENDBRANCH  12  16
ENDBRANCH   7   8
ENDBRANCH   4   7
BRANCH   1  19
HETATM   19  N1  UNL     1       3.240   0.548  -1.013  1.00  0.00    -0.285 N 
ATOM     20  H1  UNL     1       3.222   1.169  -1.822  1.00  0.00     0.178 HD
BRANCH  19  21
HETATM   21  S1  UNL     1       4.728  -0.193  -0.645  1.00  0.00     0.227 S 
HETATM   22  C1  UNL     1       5.338   0.258   0.954  1.00  0.00     0.186 C 
HETATM   23  O1  UNL     1       4.560  -1.686  -0.688  1.00  0.00    -0.206 OA
HETATM   24  O2  UNL     1       5.774   0.187  -1.661  1.00  0.00    -0.206 OA
ENDBRANCH  19  21
ENDBRANCH   1  19
TORSDOF 5
