REMARK  4 active torsions:
REMARK  status: ('A' for Active; 'I' for Inactive)
REMARK    1  A    between atoms: N1_1  and  N2_4 
REMARK       I    between atoms: N2_4  and  C1_6 
REMARK    2  A    between atoms: N4_8  and  C2_10 
REMARK    3  A    between atoms: C2_10  and  C3_11 
REMARK    4  A    between atoms: C3_11  and  N5_12 
ROOT
HETATM    1  N5  UNL     1      -0.038  -0.411   0.508  1.00  0.00    -0.254 N 
HETATM    2  N6  UNL     1       0.429  -1.664   0.915  1.00  0.00    -0.262 N 
ATOM      3  H6  UNL     1      -0.124  -2.360   1.415  1.00  0.00     0.190 HD
HETATM    4  C4  UNL     1       1.768  -1.823   0.535  1.00  0.00     0.287 C 
HETATM    5  O1  UNL     1       2.480  -2.859   0.421  1.00  0.00    -0.267 OA
HETATM    6  C5  UNL     1       2.269  -0.430   0.261  1.00  0.00     0.267 C 
HETATM    7  N7  UNL     1       3.261  -0.498  -0.755  1.00  0.00    -0.329 N 
ATOM      8  H7  UNL     1       3.017  -1.151  -1.499  1.00  0.00     0.164 HD
HETATM    9  C6  UNL     1       4.501   0.128  -0.970  1.00  0.00     0.192 C 
HETATM   10  N8  UNL     1       5.388  -0.476  -1.894  1.00  0.00    -0.063 NA
HETATM   11  N9  UNL     1       4.933   1.209  -0.414  1.00  0.00    -0.304 N 
ATOM     12  H9  UNL     1       5.866   1.476  -0.727  1.00  0.00     0.171 HD
HETATM   13  C7  UNL     1       4.387   2.104   0.539  1.00  0.00     0.200 C 
HETATM   14  N10 UNL     1       4.797   3.460   0.457  1.00  0.00    -0.063 NA
HETATM   15  N11 UNL     1       3.553   1.825   1.480  1.00  0.00    -0.301 N 
ATOM     16  H11 UNL     1       3.262   2.597   2.080  1.00  0.00     0.176 HD
HETATM   17  S1  UNL     1       2.859   0.226   1.836  1.00  0.00    -0.000 SA
HETATM   18  C8  UNL     1       1.030   0.249  -0.149  1.00  0.00     0.289 C 
HETATM   19  O2  UNL     1       0.951   1.220  -0.927  1.00  0.00    -0.267 OA
ENDROOT
BRANCH   1  20
HETATM   20  C3  UNL     1      -1.384   0.045   0.753  1.00  0.00     0.172 C 
BRANCH  20  21
HETATM   21  C2  UNL     1      -2.346  -0.307  -0.338  1.00  0.00     0.144 C 
BRANCH  21  22
HETATM   22  N4  UNL     1      -3.645   0.200   0.022  1.00  0.00    -0.362 N 
HETATM   23  C1  UNL     1      -4.681  -0.503   0.232  1.00  0.00     0.202 C 
HETATM   24  N2  UNL     1      -5.895   0.122   0.580  1.00  0.00    -0.280 N 
HETATM   25  N3  UNL     1      -4.674  -1.922   0.131  1.00  0.00    -0.062 NA
ATOM     26  H2  UNL     1      -6.136   0.258   1.562  1.00  0.00     0.189 HD
ATOM     27  H4  UNL     1      -3.741   1.211   0.116  1.00  0.00     0.162 HD
BRANCH  24  28
HETATM   28  N1  UNL     1      -6.760   0.551  -0.410  1.00  0.00    -0.343 N 
ATOM     29  H12 UNL     1      -6.504   0.407  -1.387  1.00  0.00     0.176 HD
ATOM     30  H11 UNL     1      -7.639   1.003  -0.158  1.00  0.00     0.176 HD
ENDBRANCH  24  28
ENDBRANCH  21  22
ENDBRANCH  20  21
ENDBRANCH   1  20
TORSDOF 4
