REMARK  10 active torsions:
REMARK  status: ('A' for Active; 'I' for Inactive)
REMARK    1  A    between atoms: N1_1  and  N2_4 
REMARK    2  A    between atoms: N2_4  and  N3_6 
REMARK       I    between atoms: C1_8  and  N5_10 
REMARK    3  A    between atoms: N5_10  and  C2_12 
REMARK    4  A    between atoms: C2_12  and  O1_13 
REMARK    5  A    between atoms: C2_12  and  C3_15 
REMARK    6  A    between atoms: C3_15  and  N6_16 
REMARK    7  A    between atoms: C3_15  and  C8_31 
REMARK       I    between atoms: N6_16  and  C4_18 
REMARK    8  A    between atoms: C4_18  and  C5_20 
REMARK    9  A    between atoms: C8_31  and  O5_32 
REMARK   10  A    between atoms: C8_31  and  O6_34 
ROOT
HETATM    1  C3  UNL     1       0.561  -0.241  -0.021  1.00  0.00     0.118 C 
ENDROOT
BRANCH   1   2
HETATM    2  C2  UNL     1       1.894  -0.485  -0.277  1.00  0.00     0.170 C 
BRANCH   2   3
HETATM    3  N5  UNL     1       3.063   0.079   0.358  1.00  0.00    -0.308 N 
HETATM    4  C1  UNL     1       4.380  -0.289  -0.001  1.00  0.00     0.210 C 
HETATM    5  N3  UNL     1       5.429   0.202   0.489  1.00  0.00    -0.259 N 
HETATM    6  N4  UNL     1       4.619  -1.397  -0.948  1.00  0.00    -0.062 NA
ATOM      7  H3  UNL     1       6.268  -0.264   0.145  1.00  0.00     0.191 HD
ATOM      8  H5  UNL     1       2.933   0.771   1.096  1.00  0.00     0.170 HD
BRANCH   5   9
HETATM    9  N2  UNL     1       5.718   1.192   1.356  1.00  0.00    -0.247 N 
ATOM     10  H2  UNL     1       5.665   1.032   2.362  1.00  0.00     0.207 HD
BRANCH   9  11
HETATM   11  N1  UNL     1       6.065   2.354   0.890  1.00  0.00    -0.331 N 
ATOM     12  H12 UNL     1       6.113   2.498  -0.119  1.00  0.00     0.178 HD
ATOM     13  H11 UNL     1       6.284   3.103   1.546  1.00  0.00     0.178 HD
ENDBRANCH   9  11
ENDBRANCH   5   9
ENDBRANCH   2   3
BRANCH   2  14
HETATM   14  O1  UNL     1       2.289  -1.329  -1.220  1.00  0.00    -0.344 OA
ATOM     15  H1  UNL     1       1.520  -1.700  -1.637  1.00  0.00     0.219 HD
ENDBRANCH   2  14
ENDBRANCH   1   2
BRANCH   1  16
HETATM   16  N6  UNL     1      -0.747  -0.005   0.227  1.00  0.00    -0.316 N 
HETATM   17  C4  UNL     1      -1.553   1.031  -0.399  1.00  0.00     0.290 C 
HETATM   18  O2  UNL     1      -0.961   1.816  -1.164  1.00  0.00    -0.264 OA
ATOM     19  H6  UNL     1      -1.208  -0.605   0.911  1.00  0.00     0.169 HD
BRANCH  17  20
HETATM   20  C5  UNL     1      -2.979   1.101  -0.123  1.00  0.00     0.182 A 
HETATM   21  N7  UNL     1      -3.650   2.227  -0.410  1.00  0.00    -0.290 N 
HETATM   22  C6  UNL     1      -4.987   2.318  -0.322  1.00  0.00     0.329 A 
ATOM     23  H7  UNL     1      -3.123   3.048  -0.707  1.00  0.00     0.172 HD
HETATM   24  O3  UNL     1      -5.621   3.384  -0.597  1.00  0.00    -0.246 OA
HETATM   25  N8  UNL     1      -5.655   1.205   0.084  1.00  0.00    -0.260 N 
HETATM   26  C7  UNL     1      -5.019   0.075   0.376  1.00  0.00     0.329 A 
ATOM     27  H8  UNL     1      -6.671   1.238   0.167  1.00  0.00     0.175 HD
HETATM   28  O4  UNL     1      -5.726  -0.909   0.737  1.00  0.00    -0.246 OA
HETATM   29  N9  UNL     1      -3.686   0.015   0.278  1.00  0.00    -0.290 N 
ATOM     30  H9  UNL     1      -3.199  -0.852   0.506  1.00  0.00     0.172 HD
ENDBRANCH  17  20
ENDBRANCH   1  16
BRANCH   1  31
HETATM   31  C8  UNL     1       0.165  -1.920  -0.339  1.00  0.00     0.309 C 
BRANCH  31  32
HETATM   32  O5  UNL     1      -0.431  -2.280   0.858  1.00  0.00    -0.366 OA
ATOM     33  H5  UNL     1      -0.645  -3.189   0.686  1.00  0.00     0.213 HD
ENDBRANCH  31  32
BRANCH  31  34
HETATM   34  O6  UNL     1      -0.628  -1.763  -1.401  1.00  0.00    -0.366 OA
ATOM     35  H6  UNL     1      -0.842  -2.672  -1.573  1.00  0.00     0.213 HD
ENDBRANCH  31  34
ENDBRANCH   1  31
TORSDOF 10
