REMARK  15 active torsions:
REMARK  status: ('A' for Active; 'I' for Inactive)
REMARK    1  A    between atoms: C2_2  and  N1_5 
REMARK    2  A    between atoms: N1_5  and  C5_6 
REMARK    3  A    between atoms: C5_6  and  C6_7 
REMARK    4  A    between atoms: C5_6  and  N5_18 
REMARK    5  A    between atoms: C6_7  and  C7_8 
REMARK    6  A    between atoms: C7_8  and  C8_9 
REMARK    7  A    between atoms: C8_9  and  C9_10 
REMARK       I    between atoms: N2_11  and  C10_13 
REMARK    8  A    between atoms: C12_25  and  C13_26 
REMARK    9  A    between atoms: C13_26  and  C14_27 
REMARK   10  A    between atoms: C15_30  and  C16_31 
REMARK       I    between atoms: C16_31  and  N9_33 
REMARK   11  A    between atoms: N9_33  and  C17_35 
REMARK   12  A    between atoms: C17_35  and  C18_36 
REMARK   13  A    between atoms: C18_36  and  C19_37 
REMARK   14  A    between atoms: C19_37  and  C20_38 
REMARK   15  A    between atoms: C20_38  and  N10_39 
REMARK       I    between atoms: N10_39  and  C21_41 
ROOT
HETATM    1  N5  UNL     1      -3.194  -0.023   0.365  1.00  0.00    -0.314 N 
ATOM      2  H5  UNL     1      -3.031   0.384   1.286  1.00  0.00     0.170 HD
HETATM    3  C11 UNL     1      -2.457   0.389  -0.614  1.00  0.00     0.167 A 
HETATM    4  N6  UNL     1      -2.445   0.043  -1.904  1.00  0.00    -0.279 N 
ATOM      5  H6  UNL     1      -3.099  -0.655  -2.257  1.00  0.00     0.189 HD
HETATM    6  N7  UNL     1      -1.611   0.593  -2.683  1.00  0.00    -0.295 N 
ATOM      7  H7  UNL     1      -1.597   0.334  -3.670  1.00  0.00     0.187 HD
HETATM    8  C12 UNL     1      -0.759   1.498  -2.233  1.00  0.00     0.076 A 
HETATM    9  S1  UNL     1      -1.183   1.565  -0.582  1.00  0.00    -0.037 SA
ENDROOT
BRANCH   8  10
HETATM   10  C13 UNL     1       0.295   2.263  -2.997  1.00  0.00     0.144 C 
BRANCH  10  11
HETATM   11  C14 UNL     1       1.501   1.374  -3.123  1.00  0.00     0.103 A 
HETATM   12  N8  UNL     1       2.518   1.180  -2.278  1.00  0.00    -0.325 N 
HETATM   13  C15 UNL     1       3.368   0.292  -2.823  1.00  0.00     0.190 A 
ATOM     14  H8  UNL     1       2.631   1.631  -1.370  1.00  0.00     0.169 HD
HETATM   15  N13 UNL     1       2.866  -0.071  -4.033  1.00  0.00    -0.280 N 
HETATM   16  N14 UNL     1       1.746   0.590  -4.194  1.00  0.00    -0.287 N 
ATOM     17  H13 UNL     1       3.282  -0.731  -4.690  1.00  0.00     0.189 HD
ATOM     18  H14 UNL     1       1.143   0.522  -5.014  1.00  0.00     0.188 HD
BRANCH  13  19
HETATM   19  C16 UNL     1       4.603  -0.201  -2.221  1.00  0.00     0.287 C 
HETATM   20  O1  UNL     1       5.292  -1.017  -2.877  1.00  0.00    -0.264 OA
HETATM   21  N9  UNL     1       4.982   0.243  -0.943  1.00  0.00    -0.354 N 
ATOM     22  H9  UNL     1       4.415   0.908  -0.417  1.00  0.00     0.162 HD
BRANCH  21  23
HETATM   23  C17 UNL     1       6.242  -0.301  -0.399  1.00  0.00     0.123 C 
BRANCH  23  24
HETATM   24  C18 UNL     1       6.522   0.259   0.974  1.00  0.00     0.021 C 
BRANCH  24  25
HETATM   25  C19 UNL     1       7.789  -0.337   1.507  1.00  0.00     0.021 C 
BRANCH  25  26
HETATM   26  C20 UNL     1       8.960  -0.014   0.637  1.00  0.00     0.122 C 
BRANCH  26  27
HETATM   27  N10 UNL     1      10.195  -0.584   1.170  1.00  0.00    -0.365 N 
HETATM   28  C21 UNL     1      10.783  -0.125   2.374  1.00  0.00     0.181 C 
HETATM   29  N11 UNL     1      10.800   1.122   2.650  1.00  0.00    -0.374 N 
HETATM   30  N12 UNL     1      11.350  -1.083   3.259  1.00  0.00    -0.064 NA
ATOM     31 2H11 UNL     1      10.393   1.809   2.015  1.00  0.00     0.158 HD
ATOM     32 1H11 UNL     1      11.223   1.453   3.517  1.00  0.00     0.158 HD
ATOM     33  H10 UNL     1      10.650  -1.339   0.657  1.00  0.00     0.162 HD
ENDBRANCH  26  27
ENDBRANCH  25  26
ENDBRANCH  24  25
ENDBRANCH  23  24
ENDBRANCH  21  23
ENDBRANCH  13  19
ENDBRANCH  10  11
ENDBRANCH   8  10
BRANCH   1  34
HETATM   34  C5  UNL     1      -4.224  -1.011   0.246  1.00  0.00     0.151 C 
BRANCH  34  35
HETATM   35  N1  UNL     1      -5.161  -0.886  -0.479  1.00  0.00    -0.424 NA
BRANCH  35  36
HETATM   36  C2  UNL     1      -6.212  -0.742  -1.294  1.00  0.00     0.084 C 
HETATM   37  C1  UNL     1      -6.399   0.646  -1.921  1.00  0.00     0.053 C 
HETATM   38  C3  UNL     1      -6.080  -1.710  -2.492  1.00  0.00     0.053 C 
HETATM   39  C4  UNL     1      -7.587  -1.073  -0.707  1.00  0.00     0.053 C 
ENDBRANCH  35  36
ENDBRANCH  34  35
BRANCH  34  40
HETATM   40  C6  UNL     1      -4.092  -2.276   1.066  1.00  0.00     0.092 C 
BRANCH  40  41
HETATM   41  C7  UNL     1      -3.986  -2.086   2.519  1.00  0.00     0.013 C 
BRANCH  41  42
HETATM   42  C8  UNL     1      -5.100  -1.442   3.253  1.00  0.00     0.045 C 
BRANCH  42  43
HETATM   43  C9  UNL     1      -5.423  -0.072   2.891  1.00  0.00     0.063 C 
HETATM   44  N2  UNL     1      -6.657   0.232   2.682  1.00  0.00    -0.344 N 
HETATM   45  C10 UNL     1      -7.014   1.537   2.331  1.00  0.00     0.185 C 
ATOM     46  H2  UNL     1      -7.378  -0.484   2.773  1.00  0.00     0.167 HD
HETATM   47  N3  UNL     1      -8.279   1.768   2.117  1.00  0.00    -0.374 N 
HETATM   48  N4  UNL     1      -6.113   2.614   2.188  1.00  0.00    -0.064 NA
ATOM     49  H32 UNL     1      -8.930   0.990   2.220  1.00  0.00     0.158 HD
ATOM     50  H31 UNL     1      -8.540   2.720   1.861  1.00  0.00     0.158 HD
ENDBRANCH  42  43
ENDBRANCH  41  42
ENDBRANCH  40  41
ENDBRANCH  34  40
ENDBRANCH   1  34
TORSDOF 15
