REMARK  4 active torsions:
REMARK  status: ('A' for Active; 'I' for Inactive)
REMARK    1  A    between atoms: N1_1  and  C1_5 
REMARK    2  A    between atoms: C1_5  and  N2_6 
REMARK    3  A    between atoms: C1_5  and  C12_26 
REMARK       I    between atoms: N2_6  and  C2_8 
REMARK       I    between atoms: C2_8  and  N3_10 
REMARK       I    between atoms: C12_26  and  N6_28 
REMARK    4  A    between atoms: C16_32  and  C17_33 
ROOT
HETATM    1  N2  UNL     1       1.250  -0.306   0.456  1.00  0.00    -0.307 N 
ATOM      2  H2  UNL     1       0.843   0.231   1.221  1.00  0.00     0.166 HD
HETATM    3  C2  UNL     1       0.415  -0.699  -0.621  1.00  0.00     0.320 C 
HETATM    4  O1  UNL     1       0.938  -1.360  -1.551  1.00  0.00    -0.247 OA
HETATM    5  N3  UNL     1      -0.965  -0.392  -0.710  1.00  0.00    -0.334 N 
HETATM    6  C3  UNL     1      -1.749  -0.815  -1.820  1.00  0.00     0.132 C 
HETATM    7  C4  UNL     1      -3.221  -0.979  -1.546  1.00  0.00     0.089 C 
HETATM    8  C5  UNL     1      -3.798   0.053  -0.648  1.00  0.00     0.289 C 
HETATM    9  C6  UNL     1      -2.769   1.101  -0.307  1.00  0.00     0.089 C 
HETATM   10  C7  UNL     1      -1.605   0.379   0.364  1.00  0.00     0.132 C 
HETATM   11  N4  UNL     1      -4.853   0.757  -1.395  1.00  0.00    -0.040 N 
ATOM     12  H41 UNL     1      -4.489   1.145  -2.265  1.00  0.00     0.280 HD
ATOM     13  H42 UNL     1      -5.118   1.624  -0.927  1.00  0.00     0.280 HD
HETATM   14  C8  UNL     1      -5.994  -0.064  -1.637  1.00  0.00     0.235 C 
HETATM   15  C9  UNL     1      -6.963  -0.080  -0.473  1.00  0.00     0.029 C 
HETATM   16  C10 UNL     1      -6.504   0.835   0.644  1.00  0.00     0.029 C 
HETATM   17  C11 UNL     1      -5.207   0.432   1.256  1.00  0.00     0.235 C 
HETATM   18  N5  UNL     1      -4.439  -0.509   0.509  1.00  0.00    -0.040 N 
ATOM     19  H51 UNL     1      -3.756  -0.972   1.109  1.00  0.00     0.280 HD
ATOM     20  H52 UNL     1      -5.010  -1.313   0.248  1.00  0.00     0.280 HD
ENDROOT
BRANCH   1  21
HETATM   21  C1  UNL     1       2.657  -0.638   0.511  1.00  0.00     0.378 C 
BRANCH  21  22
HETATM   22  N1  UNL     1       3.032  -1.415   1.648  1.00  0.00    -0.049 N 
ATOM     23  H13 UNL     1       2.741  -0.951   2.509  1.00  0.00     0.277 HD
ATOM     24  H12 UNL     1       2.464  -2.260   1.706  1.00  0.00     0.277 HD
ATOM     25  H11 UNL     1       4.024  -1.649   1.687  1.00  0.00     0.277 HD
ENDBRANCH  21  22
BRANCH  21  26
HETATM   26  C12 UNL     1       3.502   0.591   0.398  1.00  0.00     0.271 C 
HETATM   27  O2  UNL     1       2.925   1.694   0.282  1.00  0.00    -0.269 OA
HETATM   28  N6  UNL     1       4.911   0.538   0.418  1.00  0.00    -0.334 N 
HETATM   29  C13 UNL     1       5.814   1.657   0.316  1.00  0.00     0.127 C 
HETATM   30  C16 UNL     1       5.723  -0.649   0.542  1.00  0.00     0.188 C 
HETATM   31  C14 UNL     1       7.011   1.092  -0.403  1.00  0.00     0.022 C 
HETATM   32  C15 UNL     1       6.809  -0.393  -0.499  1.00  0.00     0.038 C 
BRANCH  30  33
HETATM   33  C17 UNL     1       6.300  -0.805   1.888  1.00  0.00     0.196 C 
HETATM   34  O3  UNL     1       7.020  -1.801   2.110  1.00  0.00    -0.646 OA
HETATM   35  O4  UNL     1       6.066   0.105   2.883  1.00  0.00    -0.646 OA
ENDBRANCH  30  33
ENDBRANCH  21  26
ENDBRANCH   1  21
TORSDOF 4
