REMARK  4 active torsions:
REMARK  status: ('A' for Active; 'I' for Inactive)
REMARK    1  A    between atoms: C2_2  and  N1_4 
REMARK       I    between atoms: N1_4  and  C4_6 
REMARK       I    between atoms: C4_6  and  N2_8 
REMARK    2  A    between atoms: N2_8  and  C5_10 
REMARK    3  A    between atoms: C12_17  and  C13_18 
REMARK       I    between atoms: C13_18  and  N3_20 
REMARK    4  A    between atoms: N3_20  and  N4_22 
ROOT
HETATM    1  C5  UNL     1       1.075  -0.575   0.214  1.00  0.00     0.112 C 
HETATM    2  C6  UNL     1       0.758  -1.265   1.508  1.00  0.00     0.049 C 
HETATM    3  C7  UNL     1       0.861   0.913   0.281  1.00  0.00     0.041 C 
HETATM    4  C8  UNL     1      -0.401   1.414  -0.334  1.00  0.00     0.003 C 
HETATM    5  C9  UNL     1      -1.431   1.834   0.684  1.00  0.00     0.000 C 
HETATM    6  C10 UNL     1      -2.531   2.600  -0.019  1.00  0.00     0.002 C 
HETATM    7  C11 UNL     1      -3.148   1.803  -1.117  1.00  0.00     0.035 C 
HETATM    8  C12 UNL     1      -3.799   0.519  -0.712  1.00  0.00     0.178 C 
HETATM    9  N5  UNL     1      -3.438  -0.565  -1.649  1.00  0.00    -0.346 N 
ATOM     10  H5  UNL     1      -3.511  -0.373  -2.648  1.00  0.00     0.163 HD
HETATM   11  C14 UNL     1      -3.000  -1.844  -1.257  1.00  0.00     0.236 C 
HETATM   12  O3  UNL     1      -3.623  -2.848  -1.751  1.00  0.00    -0.272 OA
HETATM   13  C15 UNL     1      -1.855  -2.081  -0.304  1.00  0.00     0.228 C 
HETATM   14  N6  UNL     1      -0.600  -2.135  -1.031  1.00  0.00    -0.346 N 
HETATM   15  C16 UNL     1      -0.439  -3.294  -1.898  1.00  0.00     0.153 C 
HETATM   16  C17 UNL     1       0.438  -1.187  -0.976  1.00  0.00     0.247 C 
HETATM   17  O4  UNL     1       0.929  -0.770  -2.088  1.00  0.00    -0.271 OA
ENDROOT
BRANCH   1  18
HETATM   18  N2  UNL     1       2.528  -0.748   0.013  1.00  0.00    -0.325 N 
HETATM   19  C4  UNL     1       3.495  -0.261   0.920  1.00  0.00     0.317 C 
HETATM   20  N1  UNL     1       4.877  -0.451   0.690  1.00  0.00    -0.339 N 
HETATM   21  O1  UNL     1       3.113   0.348   1.943  1.00  0.00    -0.247 OA
ATOM     22  H1  UNL     1       5.165  -0.952  -0.151  1.00  0.00     0.164 HD
ATOM     23  H2  UNL     1       2.848  -1.242  -0.820  1.00  0.00     0.165 HD
BRANCH  20  24
HETATM   24  C2  UNL     1       5.903   0.031   1.591  1.00  0.00     0.078 C 
HETATM   25  C1  UNL     1       6.753   1.049   0.866  1.00  0.00     0.032 C 
HETATM   26  C3  UNL     1       6.720  -1.083   2.179  1.00  0.00     0.032 C 
ENDBRANCH  20  24
ENDBRANCH   1  18
BRANCH   8  27
HETATM   27  C13 UNL     1      -5.280   0.687  -0.864  1.00  0.00     0.258 C 
HETATM   28  O2  UNL     1      -5.952  -0.006  -1.675  1.00  0.00    -0.269 OA
HETATM   29  N3  UNL     1      -5.998   1.634  -0.101  1.00  0.00    -0.275 N 
ATOM     30  H3  UNL     1      -5.483   2.209   0.566  1.00  0.00     0.189 HD
BRANCH  29  31
HETATM   31  N4  UNL     1      -7.377   1.823  -0.213  1.00  0.00    -0.343 N 
ATOM     32  H42 UNL     1      -7.876   1.239  -0.885  1.00  0.00     0.176 HD
ATOM     33  H41 UNL     1      -7.896   2.507   0.338  1.00  0.00     0.176 HD
ENDBRANCH  29  31
ENDBRANCH   8  27
TORSDOF 4
