REMARK  6 active torsions:
REMARK  status: ('A' for Active; 'I' for Inactive)
REMARK    1  A    between atoms: C2_2  and  C3_3 
REMARK       I    between atoms: C3_3  and  N1_5 
REMARK    2  A    between atoms: N1_5  and  C4_7 
REMARK    3  A    between atoms: C7_12  and  N3_13 
REMARK    4  A    between atoms: N3_13  and  C8_15 
REMARK    5  A    between atoms: C8_15  and  C9_16 
REMARK    6  A    between atoms: C9_16  and  O2_17 
ROOT
HETATM    1  C4  UNL     1       1.911  -1.189   0.263  1.00  0.00     0.686 A 
HETATM    2  N2  UNL     1       0.900  -2.000  -0.028  1.00  0.00    -0.194 N 
ATOM      3  H2  UNL     1       1.035  -3.011  -0.013  1.00  0.00     0.184 HD
HETATM    4  C5  UNL     1      -0.310  -1.482  -0.344  1.00  0.00     0.041 A 
HETATM    5  C6  UNL     1      -0.526  -0.112  -0.371  1.00  0.00     0.042 A 
HETATM    6  C7  UNL     1       0.533   0.682  -0.067  1.00  0.00     0.127 A 
HETATM    7  N4  UNL     1       1.729   0.155   0.245  1.00  0.00    -0.176 N 
ATOM      8  H4  UNL     1       2.509   0.773   0.471  1.00  0.00     0.186 HD
HETATM    9  C11 UNL     1      -1.880   0.283  -0.724  1.00  0.00     0.258 C 
HETATM   10  C12 UNL     1      -2.208   1.709  -0.803  1.00  0.00     0.048 C 
HETATM   11  N5  UNL     1      -2.739  -0.469   0.184  1.00  0.00     0.102 N 
HETATM   12  C13 UNL     1      -4.000   0.145   0.400  1.00  0.00     0.311 C 
HETATM   13  C14 UNL     1      -2.791  -1.831  -0.237  1.00  0.00     0.158 C 
HETATM   14  C15 UNL     1      -3.770  -2.030  -1.399  1.00  0.00     0.049 C 
HETATM   15  C16 UNL     1      -3.298  -2.759   0.863  1.00  0.00     0.049 C 
HETATM   16  C17 UNL     1      -1.468  -2.349  -0.681  1.00  0.00     0.099 C 
ENDROOT
BRANCH   1  17
HETATM   17  N1  UNL     1       3.094  -1.598   0.574  1.00  0.00    -0.159 N 
HETATM   18  C3  UNL     1       3.494  -2.934   0.652  1.00  0.00     0.235 C 
HETATM   19  O1  UNL     1       2.940  -3.754   1.416  1.00  0.00    -0.273 OA
ATOM     20  H1  UNL     1       3.796  -0.887   0.780  1.00  0.00     0.187 HD
BRANCH  18  21
HETATM   21  C2  UNL     1       4.614  -3.397  -0.200  1.00  0.00     0.099 C 
HETATM   22  C1  UNL     1       5.156  -2.277  -1.052  1.00  0.00     0.014 C 
ENDBRANCH  18  21
ENDBRANCH   1  17
BRANCH   6  23
HETATM   23  N3  UNL     1       0.366   1.946  -0.083  1.00  0.00    -0.373 N 
ATOM     24  H3  UNL     1      -0.547   2.332  -0.321  1.00  0.00     0.161 HD
BRANCH  23  25
HETATM   25  C8  UNL     1       1.463   2.838   0.234  1.00  0.00     0.147 C 
BRANCH  25  26
HETATM   26  C9  UNL     1       1.050   4.284   0.089  1.00  0.00     0.186 C 
BRANCH  26  27
HETATM   27  O2  UNL     1       2.129   5.094   0.402  1.00  0.00    -0.394 OA
HETATM   28  C10 UNL     1       1.754   6.431   0.270  1.00  0.00     0.201 C 
ENDBRANCH  26  27
ENDBRANCH  25  26
ENDBRANCH  23  25
ENDBRANCH   6  23
TORSDOF 6
