REMARK  7 active torsions:
REMARK  status: ('A' for Active; 'I' for Inactive)
REMARK    1  A    between atoms: C2_2  and  C5_5 
REMARK    2  A    between atoms: C5_5  and  C6_6 
REMARK    3  A    between atoms: C6_6  and  N1_8 
REMARK    4  A    between atoms: N1_8  and  C7_10 
REMARK    5  A    between atoms: C10_13  and  O1_14 
REMARK    6  A    between atoms: O1_14  and  C11_15 
REMARK    7  A    between atoms: C11_15  and  C12_17 
ROOT
HETATM    1  C7  UNL     1       0.854   0.168  -0.373  1.00  0.00     0.082 C 
HETATM    2  C8  UNL     1       0.166   0.299  -1.708  1.00  0.00     0.028 C 
HETATM    3  C9  UNL     1      -1.287   0.589  -1.618  1.00  0.00     0.034 C 
HETATM    4  C10 UNL     1      -1.898  -0.031  -0.407  1.00  0.00     0.132 C 
HETATM    5  C16 UNL     1      -1.119  -1.287  -0.082  1.00  0.00     0.034 C 
HETATM    6  C17 UNL     1       0.195  -0.796   0.545  1.00  0.00     0.028 C 
ENDROOT
BRANCH   1   7
HETATM    7  N1  UNL     1       2.250  -0.217  -0.535  1.00  0.00    -0.380 N 
ATOM      8  H1  UNL     1       2.618  -0.376  -1.473  1.00  0.00     0.160 HD
BRANCH   7   9
HETATM    9  C6  UNL     1       3.105  -0.375   0.581  1.00  0.00     0.074 C 
HETATM   10  S1  UNL     1       2.518  -0.120   2.093  1.00  0.00    -0.066 SA
BRANCH   9  11
HETATM   11  C5  UNL     1       4.510  -0.760   0.408  1.00  0.00     0.077 C 
BRANCH  11  12
HETATM   12  C2  UNL     1       5.389   0.262  -0.238  1.00  0.00    -0.045 C 
HETATM   13  C1  UNL     1       5.429   1.564   0.552  1.00  0.00     0.015 C 
HETATM   14  C3  UNL     1       6.822  -0.301  -0.154  1.00  0.00     0.015 C 
HETATM   15  C4  UNL     1       5.121   0.496  -1.700  1.00  0.00     0.015 C 
ENDBRANCH  11  12
ENDBRANCH   9  11
ENDBRANCH   7   9
ENDBRANCH   1   7
BRANCH   4  16
HETATM   16  O1  UNL     1      -3.274  -0.313  -0.561  1.00  0.00    -0.315 OA
BRANCH  16  17
HETATM   17  C11 UNL     1      -4.243   0.238   0.263  1.00  0.00     0.267 C 
HETATM   18  O2  UNL     1      -3.850   1.010   1.167  1.00  0.00    -0.264 OA
BRANCH  17  19
HETATM   19  C12 UNL     1      -5.687  -0.040   0.125  1.00  0.00     0.037 C 
HETATM   20  C13 UNL     1      -6.204   0.383  -1.242  1.00  0.00     0.025 C 
HETATM   21  C14 UNL     1      -6.420   0.714   1.209  1.00  0.00     0.025 C 
HETATM   22  C15 UNL     1      -5.971  -1.519   0.355  1.00  0.00     0.025 C 
ENDBRANCH  17  19
ENDBRANCH  16  17
ENDBRANCH   4  16
TORSDOF 7
