REMARK  2 active torsions:
REMARK  status: ('A' for Active; 'I' for Inactive)
REMARK    1  A    between atoms: N1_2  and  C2_4 
REMARK    2  A    between atoms: C19_22  and  N2_23 
ROOT
HETATM    1  C2  UNL     1       3.592  -0.611   0.456  1.00  0.00     0.106 C 
HETATM    2  C3  UNL     1       2.983  -0.024   1.685  1.00  0.00     0.027 C 
HETATM    3  C4  UNL     1       1.518  -0.345   1.868  1.00  0.00     0.007 C 
HETATM    4  C5  UNL     1       0.841   0.026   0.578  1.00  0.00    -0.004 C 
HETATM    5  C6  UNL     1       1.288  -0.924  -0.476  1.00  0.00     0.022 C 
HETATM    6  C7  UNL     1       0.444  -0.824  -1.693  1.00  0.00     0.008 C 
HETATM    7  C8  UNL     1      -0.393   0.403  -1.794  1.00  0.00     0.010 C 
HETATM    8  C9  UNL     1      -1.142   0.778  -0.547  1.00  0.00    -0.034 C 
HETATM    9  C10 UNL     1      -0.866   2.285  -0.346  1.00  0.00     0.016 C 
HETATM   10  C11 UNL     1      -0.664   0.122   0.698  1.00  0.00    -0.001 C 
HETATM   11  C12 UNL     1      -1.245  -1.186   1.035  1.00  0.00     0.006 C 
HETATM   12  C13 UNL     1      -2.513  -1.550   0.350  1.00  0.00     0.012 C 
HETATM   13  C14 UNL     1      -3.327  -0.419  -0.133  1.00  0.00    -0.016 C 
HETATM   14  C15 UNL     1      -4.372  -0.968  -1.107  1.00  0.00     0.018 C 
HETATM   15  C16 UNL     1      -4.120   0.269   0.971  1.00  0.00     0.177 C 
HETATM   16  O1  UNL     1      -4.587   1.398   0.274  1.00  0.00    -0.390 OA
HETATM   17  C17 UNL     1      -3.365   1.917  -0.216  1.00  0.00     0.173 C 
HETATM   18  C18 UNL     1      -2.624   0.698  -0.776  1.00  0.00     0.028 C 
HETATM   19  C19 UNL     1       2.747  -0.630  -0.755  1.00  0.00     0.210 C 
ENDROOT
BRANCH  19  20
HETATM   20  N2  UNL     1       3.222  -1.717  -1.623  1.00  0.00    -0.073 N 
ATOM     21  H23 UNL     1       4.217  -1.645  -1.837  1.00  0.00     0.274 HD
ATOM     22  H22 UNL     1       3.250  -2.619  -1.147  1.00  0.00     0.274 HD
ATOM     23  H21 UNL     1       2.638  -1.730  -2.459  1.00  0.00     0.274 HD
ENDBRANCH  19  20
BRANCH   1  24
HETATM   24  N1  UNL     1       4.851   0.006   0.180  1.00  0.00    -0.419 N 
HETATM   25  C1  UNL     1       4.829   1.402  -0.096  1.00  0.00     0.140 C 
ATOM     26  H1  UNL     1       5.721  -0.527   0.181  1.00  0.00     0.153 HD
ENDBRANCH   1  24
TORSDOF 2
