REMARK  3 active torsions:
REMARK  status: ('A' for Active; 'I' for Inactive)
REMARK    1  A    between atoms: C1_4  and  C2_5 
REMARK    2  A    between atoms: C1_4  and  N5_15 
REMARK    3  A    between atoms: C3_8  and  N3_9 
ROOT
HETATM    1  N1  UNL     1       0.365  -1.663  -1.695  1.00  0.00    -0.381 N 
ATOM      2  H11 UNL     1      -0.451  -1.869  -2.271  1.00  0.00     0.157 HD
ATOM      3  H12 UNL     1       1.266  -2.126  -1.817  1.00  0.00     0.157 HD
HETATM    4  C1  UNL     1       0.275  -0.780  -0.765  1.00  0.00     0.169 C 
ENDROOT
BRANCH   4   5
HETATM    5  C2  UNL     1       1.424  -0.490   0.046  1.00  0.00     0.230 A 
HETATM    6  N2  UNL     1       2.636  -1.059  -0.057  1.00  0.00    -0.163 N 
HETATM    7  C3  UNL     1       3.440  -0.522   0.877  1.00  0.00     0.698 A 
ATOM      8  H2  UNL     1       2.902  -1.778  -0.730  1.00  0.00     0.186 HD
HETATM    9  N4  UNL     1       2.706   0.378   1.549  1.00  0.00    -0.089 N 
HETATM   10  O1  UNL     1       1.522   0.367   1.029  1.00  0.00    -0.201 OA
ATOM     11  H4  UNL     1       3.022   0.961   2.324  1.00  0.00     0.213 HD
BRANCH   7  12
HETATM   12  N3  UNL     1       4.682  -0.787   1.119  1.00  0.00    -0.233 N 
ATOM     13  H32 UNL     1       5.240  -1.471   0.608  1.00  0.00     0.174 HD
ATOM     14  H31 UNL     1       5.292  -0.380   1.828  1.00  0.00     0.174 HD
ENDBRANCH   7  12
ENDBRANCH   4   5
BRANCH   4  15
HETATM   15  N5  UNL     1      -0.983  -0.133  -0.595  1.00  0.00    -0.196 N 
HETATM   16  C4  UNL     1      -1.129   1.197  -0.593  1.00  0.00     0.340 A 
HETATM   17  O2  UNL     1      -0.135   1.935  -0.745  1.00  0.00    -0.246 OA
HETATM   18  N6  UNL     1      -2.339   1.774  -0.429  1.00  0.00    -0.260 N 
HETATM   19  C5  UNL     1      -3.448   1.036  -0.261  1.00  0.00     0.332 A 
ATOM     20  H6  UNL     1      -2.412   2.791  -0.433  1.00  0.00     0.175 HD
HETATM   21  O3  UNL     1      -4.565   1.617  -0.110  1.00  0.00    -0.246 OA
HETATM   22  N7  UNL     1      -3.319  -0.302  -0.260  1.00  0.00    -0.260 N 
HETATM   23  C6  UNL     1      -2.106  -0.869  -0.425  1.00  0.00     0.340 A 
ATOM     24  H7  UNL     1      -4.142  -0.891  -0.134  1.00  0.00     0.175 HD
HETATM   25  O4  UNL     1      -1.984  -2.139  -0.424  1.00  0.00    -0.246 OA
ENDBRANCH   4  15
TORSDOF 3
