REMARK  6 active torsions:
REMARK  status: ('A' for Active; 'I' for Inactive)
REMARK    1  A    between atoms: C3_3  and  C4_4 
REMARK    2  A    between atoms: C4_4  and  N1_5 
REMARK    3  A    between atoms: N4_10  and  O1_11 
REMARK    4  A    between atoms: C7_17  and  N6_18 
REMARK    5  A    between atoms: C8_23  and  N8_24 
REMARK    6  A    between atoms: N8_24  and  N9_26 
ROOT
HETATM    1  C1  UNL     1      -1.118  -0.291   2.257  1.00  0.00     0.054 C 
HETATM    2  C2  UNL     1      -1.162  -0.255   0.771  1.00  0.00     0.009 A 
HETATM    3  C3  UNL     1      -0.150  -0.780   0.020  1.00  0.00     0.056 A 
HETATM    4  N5  UNL     1      -0.261  -0.741  -1.337  1.00  0.00    -0.193 N 
ATOM      5  H5  UNL     1       0.497  -1.136  -1.894  1.00  0.00     0.184 HD
HETATM    6  C7  UNL     1      -1.309  -0.213  -1.981  1.00  0.00     0.677 A 
HETATM    7  N7  UNL     1      -2.297   0.301  -1.231  1.00  0.00    -0.175 N 
ATOM      8  H7  UNL     1      -3.107   0.709  -1.697  1.00  0.00     0.186 HD
HETATM    9  C8  UNL     1      -2.255   0.296   0.109  1.00  0.00     0.142 A 
ENDROOT
BRANCH   3  10
HETATM   10  C4  UNL     1       1.065  -1.374   0.584  1.00  0.00     0.210 C 
BRANCH  10  11
HETATM   11  N1  UNL     1       1.994  -0.347   1.006  1.00  0.00    -0.256 N 
HETATM   12  N2  UNL     1       2.081   0.253   2.167  1.00  0.00    -0.222 N 
HETATM   13  N3  UNL     1       3.065   1.126   2.142  1.00  0.00    -0.200 N 
ATOM     14  H2  UNL     1       1.477   0.071   2.969  1.00  0.00     0.210 HD
HETATM   15  N4  UNL     1       3.646   1.115   0.951  1.00  0.00    -0.134 N 
ATOM     16  H3  UNL     1       3.340   1.722   2.923  1.00  0.00     0.212 HD
HETATM   17  C5  UNL     1       2.964   0.180   0.236  1.00  0.00     0.144 A 
HETATM   18  C6  UNL     1       3.306  -0.160  -1.174  1.00  0.00     0.095 C 
BRANCH  15  19
HETATM   19  O1  UNL     1       4.708   1.874   0.512  1.00  0.00    -0.265 OA
ATOM     20  H1  UNL     1       5.125   1.866  -0.342  1.00  0.00     0.247 HD
ENDBRANCH  15  19
ENDBRANCH  10  11
ENDBRANCH   3  10
BRANCH   9  21
HETATM   21  N8  UNL     1      -3.199   0.788   0.841  1.00  0.00    -0.291 N 
ATOM     22  H8  UNL     1      -3.112   0.756   1.857  1.00  0.00     0.188 HD
BRANCH  21  23
HETATM   23  N9  UNL     1      -4.341   1.365   0.266  1.00  0.00    -0.344 N 
ATOM     24  H92 UNL     1      -4.412   1.389  -0.751  1.00  0.00     0.176 HD
ATOM     25  H91 UNL     1      -5.086   1.753   0.844  1.00  0.00     0.176 HD
ENDBRANCH  21  23
ENDBRANCH   9  21
BRANCH   6  26
HETATM   26  N6  UNL     1      -1.358  -0.205  -3.283  1.00  0.00    -0.234 N 
ATOM     27  H62 UNL     1      -0.607  -0.595  -3.853  1.00  0.00     0.174 HD
ATOM     28  H61 UNL     1      -2.157   0.197  -3.774  1.00  0.00     0.174 HD
ENDBRANCH   6  26
TORSDOF 6
