REMARK  11 active torsions:
REMARK  status: ('A' for Active; 'I' for Inactive)
REMARK    1  A    between atoms: N1_2  and  C3_4 
REMARK    2  A    between atoms: C3_4  and  C4_5 
REMARK    3  A    between atoms: C4_5  and  N2_6 
REMARK    4  A    between atoms: C6_8  and  C7_9 
REMARK    5  A    between atoms: C9_14  and  C10_15 
REMARK    6  A    between atoms: C10_15  and  O1_16 
REMARK    7  A    between atoms: O1_16  and  C11_17 
REMARK    8  A    between atoms: C11_17  and  C12_19 
REMARK    9  A    between atoms: C12_19  and  N5_20 
REMARK   10  A    between atoms: C13_21  and  O3_22 
REMARK   11  A    between atoms: C16_26  and  O4_27 
ROOT
HETATM    1  C7  UNL     1      -5.617  -2.134  -3.452  1.00  0.00     0.182 C 
HETATM    2  C8  UNL     1      -6.499  -3.092  -2.783  1.00  0.00     0.065 C 
HETATM    3  N3  UNL     1      -7.215  -3.842  -2.251  1.00  0.00    -0.197 NA
ENDROOT
BRANCH   1   4
HETATM    4  C6  UNL     1      -4.817  -1.464  -2.377  1.00  0.00     0.039 A 
HETATM    5  C5  UNL     1      -5.151  -0.297  -1.680  1.00  0.00     0.118 A 
HETATM    6  N2  UNL     1      -4.172  -0.041  -0.809  1.00  0.00    -0.341 N 
HETATM    7  C9  UNL     1      -3.228  -0.996  -0.922  1.00  0.00     0.108 A 
HETATM    8  N4  UNL     1      -3.631  -1.842  -1.868  1.00  0.00    -0.345 N 
ATOM      9  H4  UNL     1      -3.110  -2.666  -2.167  1.00  0.00     0.167 HD
BRANCH   6  10
HETATM   10  C4  UNL     1      -4.070   1.050   0.122  1.00  0.00     0.160 C 
BRANCH  10  11
HETATM   11  C3  UNL     1      -4.680   0.716   1.464  1.00  0.00     0.291 C 
BRANCH  11  12
HETATM   12  N1  UNL     1      -6.103   0.426   1.263  1.00  0.00     0.081 N 
HETATM   13  C1  UNL     1      -6.714   0.029   2.528  1.00  0.00     0.309 C 
HETATM   14  C2  UNL     1      -6.766   1.666   0.852  1.00  0.00     0.309 C 
ENDBRANCH  11  12
ENDBRANCH  10  11
ENDBRANCH   6  10
BRANCH   7  15
HETATM   15  C10 UNL     1      -1.963  -1.107  -0.150  1.00  0.00     0.255 C 
BRANCH  15  16
HETATM   16  O1  UNL     1      -0.966  -0.439  -0.917  1.00  0.00    -0.313 OA
BRANCH  16  17
HETATM   17  C11 UNL     1       0.332  -0.348  -0.500  1.00  0.00     0.277 C 
HETATM   18  O2  UNL     1       0.638  -0.878   0.600  1.00  0.00    -0.263 OA
BRANCH  17  19
HETATM   19  C12 UNL     1       1.402   0.342  -1.277  1.00  0.00     0.244 C 
BRANCH  19  20
HETATM   20  N5  UNL     1       2.673   0.267  -0.576  1.00  0.00    -0.298 N 
HETATM   21  C13 UNL     1       3.577  -0.712  -0.716  1.00  0.00     0.151 A 
HETATM   22  C14 UNL     1       4.646  -0.432   0.107  1.00  0.00     0.004 A 
HETATM   23  C15 UNL     1       4.362   0.734   0.742  1.00  0.00     0.008 A 
HETATM   24  C22 UNL     1       5.880  -1.215   0.297  1.00  0.00     0.049 C 
HETATM   25  C16 UNL     1       3.125   1.152   0.299  1.00  0.00     0.152 A 
HETATM   26  C17 UNL     1       5.324   1.304   1.700  1.00  0.00     0.033 A 
HETATM   27  C18 UNL     1       6.687   1.707   1.353  1.00  0.00    -0.000 A 
HETATM   28  C23 UNL     1       6.380   0.414   2.153  1.00  0.00     0.004 A 
HETATM   29  C19 UNL     1       7.405   1.264   0.122  1.00  0.00     0.006 C 
HETATM   30  C20 UNL     1       8.010  -0.067   0.538  1.00  0.00     0.006 C 
HETATM   31  C21 UNL     1       6.823  -0.676   1.286  1.00  0.00    -0.005 C 
BRANCH  21  32
HETATM   32  O3  UNL     1       3.401  -1.808  -1.572  1.00  0.00    -0.345 OA
ATOM     33  H3  UNL     1       4.042  -2.502  -1.671  1.00  0.00     0.219 HD
ENDBRANCH  21  32
BRANCH  25  34
HETATM   34  O4  UNL     1       2.460   2.304   0.698  1.00  0.00    -0.345 OA
ATOM     35  H4  UNL     1       2.784   2.939   1.326  1.00  0.00     0.219 HD
ENDBRANCH  25  34
ENDBRANCH  19  20
ENDBRANCH  17  19
ENDBRANCH  16  17
ENDBRANCH  15  16
ENDBRANCH   7  15
ENDBRANCH   1   4
TORSDOF 11
