REMARK  5 active torsions:
REMARK  status: ('A' for Active; 'I' for Inactive)
REMARK    1  A    between atoms: C2_2  and  C3_3 
REMARK    2  A    between atoms: C3_3  and  C4_4 
REMARK    3  A    between atoms: C4_4  and  C5_5 
REMARK    4  A    between atoms: C5_5  and  C6_6 
REMARK    5  A    between atoms: C7_7  and  O1_8 
ROOT
HETATM    1  C6  UNL     1       0.421  -0.461   0.482  1.00  0.00     0.103 C 
HETATM    2  C7  UNL     1       0.191  -1.065  -0.902  1.00  0.00     0.135 C 
HETATM    3  C8  UNL     1      -1.175  -1.762  -1.020  1.00  0.00     0.037 C 
HETATM    4  C9  UNL     1      -2.101  -0.749  -0.454  1.00  0.00    -0.010 C 
HETATM    5  C10 UNL     1      -3.532  -0.739  -0.673  1.00  0.00     0.008 C 
HETATM    6  C11 UNL     1      -3.926   0.749  -0.718  1.00  0.00     0.029 C 
HETATM    7  C12 UNL     1      -3.732   1.500   0.523  1.00  0.00    -0.010 C 
HETATM    8  C13 UNL     1      -2.430   1.839   1.068  1.00  0.00     0.079 C 
HETATM    9  N1  UNL     1      -1.212   1.380   0.526  1.00  0.00    -0.393 N 
ATOM     10  H1  UNL     1      -0.734   1.831  -0.254  1.00  0.00     0.159 HD
HETATM   11  C14 UNL     1      -0.705   0.175   1.211  1.00  0.00     0.098 C 
HETATM   12  C15 UNL     1      -1.828  -0.811   1.034  1.00  0.00     0.031 C 
ENDROOT
BRANCH   1  13
HETATM   13  C5  UNL     1       1.621  -0.541   0.923  1.00  0.00    -0.174 C 
BRANCH  13  14
HETATM   14  C4  UNL     1       2.940  -0.629   1.410  1.00  0.00     0.080 C 
BRANCH  14  15
HETATM   15  C3  UNL     1       3.965   0.161   0.607  1.00  0.00     0.011 C 
BRANCH  15  16
HETATM   16  C2  UNL     1       4.069  -0.309  -0.801  1.00  0.00    -0.004 C 
HETATM   17  C1  UNL     1       5.113   0.524  -1.528  1.00  0.00     0.005 C 
ENDBRANCH  15  16
ENDBRANCH  14  15
ENDBRANCH  13  14
ENDBRANCH   1  13
BRANCH   2  18
HETATM   18  O1  UNL     1       0.281  -0.028  -1.817  1.00  0.00    -0.394 OA
ATOM     19  H1  UNL     1       0.138  -0.404  -2.678  1.00  0.00     0.210 HD
ENDBRANCH   2  18
TORSDOF 5
