REMARK  2 active torsions:
REMARK  status: ('A' for Active; 'I' for Inactive)
REMARK    1  A    between atoms: C3_7  and  C4_8 
REMARK    2  A    between atoms: N2_9  and  C5_11 
ROOT
HETATM    1  C5  UNL     1      -1.014  -0.077   0.369  1.00  0.00     0.189 A 
HETATM    2  N3  UNL     1      -1.776   0.867  -0.230  1.00  0.00    -0.277 N 
ATOM      3  H3  UNL     1      -1.341   1.734  -0.547  1.00  0.00     0.189 HD
HETATM    4  N4  UNL     1      -3.068   0.689  -0.412  1.00  0.00    -0.250 N 
ATOM      5  H4  UNL     1      -3.602   1.429  -0.869  1.00  0.00     0.192 HD
HETATM    6  C6  UNL     1      -3.718  -0.427  -0.022  1.00  0.00     0.341 A 
HETATM    7  O3  UNL     1      -4.965  -0.584  -0.205  1.00  0.00    -0.245 OA
HETATM    8  N5  UNL     1      -2.992  -1.387   0.577  1.00  0.00    -0.271 N 
ATOM      9  H5  UNL     1      -3.448  -2.246   0.885  1.00  0.00     0.174 HD
HETATM   10  C7  UNL     1      -1.655  -1.227   0.777  1.00  0.00     0.294 A 
HETATM   11  O4  UNL     1      -0.988  -2.125   1.335  1.00  0.00    -0.264 OA
ENDROOT
BRANCH   1  12
HETATM   12  N2  UNL     1       0.380   0.097   0.575  1.00  0.00    -0.349 N 
HETATM   13  C4  UNL     1       1.041   0.947  -0.124  1.00  0.00     0.086 C 
ATOM     14  H2  UNL     1       0.860  -0.458   1.284  1.00  0.00     0.166 HD
BRANCH  13  15
HETATM   15  C3  UNL     1       2.497   1.174   0.044  1.00  0.00     0.208 C 
HETATM   16  C1  UNL     1       3.248   0.226  -0.822  1.00  0.00     0.242 C 
HETATM   17  O1  UNL     1       3.646   0.321  -2.003  1.00  0.00    -0.272 OA
HETATM   18  N1  UNL     1       3.252  -0.686   0.265  1.00  0.00    -0.296 N 
HETATM   19  C2  UNL     1       3.112   0.413   1.141  1.00  0.00     0.242 C 
ATOM     20  H1  UNL     1       3.325  -1.698   0.369  1.00  0.00     0.171 HD
HETATM   21  O2  UNL     1       3.400   0.615   2.333  1.00  0.00    -0.272 OA
ENDBRANCH  13  15
ENDBRANCH   1  12
TORSDOF 2
