REMARK  4 active torsions:
REMARK  status: ('A' for Active; 'I' for Inactive)
REMARK    1  A    between atoms: C4_9  and  C5_10 
REMARK    2  A    between atoms: C5_10  and  C6_11 
REMARK    3  A    between atoms: C6_11  and  C7_12 
REMARK    4  A    between atoms: C7_12  and  C8_13 
ROOT
HETATM    1  O1  UNL     1       3.902   2.283  -0.829  1.00  0.00    -0.266 OA
HETATM    2  C1  UNL     1       3.757   1.051  -0.626  1.00  0.00     0.272 A 
HETATM    3  N1  UNL     1       4.660   0.140  -1.027  1.00  0.00    -0.265 N 
ATOM      4  H1  UNL     1       5.532   0.331  -1.521  1.00  0.00     0.190 HD
HETATM    5  N2  UNL     1       4.212  -1.049  -0.664  1.00  0.00    -0.297 N 
ATOM      6  H2  UNL     1       4.695  -1.930  -0.838  1.00  0.00     0.187 HD
HETATM    7  C2  UNL     1       3.031  -0.934  -0.033  1.00  0.00     0.065 A 
HETATM    8  C3  UNL     1       2.712   0.406   0.007  1.00  0.00     0.068 A 
HETATM    9  C4  UNL     1       1.540   0.227   0.662  1.00  0.00    -0.038 A 
HETATM   10  C11 UNL     1       1.892  -1.161   0.610  1.00  0.00     0.040 A 
ENDROOT
BRANCH   9  11
HETATM   11  C5  UNL     1       0.517   1.184   1.121  1.00  0.00     0.040 C 
BRANCH  11  12
HETATM   12  C6  UNL     1      -0.774   0.954   0.432  1.00  0.00     0.011 C 
BRANCH  12  13
HETATM   13  C7  UNL     1      -1.330  -0.419   0.697  1.00  0.00     0.059 C 
BRANCH  13  14
HETATM   14  C8  UNL     1      -2.642  -0.477  -0.047  1.00  0.00     0.025 A 
HETATM   15  C9  UNL     1      -3.851  -0.117   0.473  1.00  0.00     0.113 A 
HETATM   16  N3  UNL     1      -4.762  -0.311  -0.492  1.00  0.00    -0.360 N 
HETATM   17  C10 UNL     1      -4.131  -0.779  -1.582  1.00  0.00     0.180 A 
ATOM     18  H3  UNL     1      -5.763  -0.134  -0.412  1.00  0.00     0.166 HD
HETATM   19  N4  UNL     1      -2.835  -0.881  -1.312  1.00  0.00    -0.355 N 
ATOM     20  H4  UNL     1      -2.113  -1.209  -1.953  1.00  0.00     0.166 HD
ENDBRANCH  13  14
ENDBRANCH  12  13
ENDBRANCH  11  12
ENDBRANCH   9  11
TORSDOF 4
