REMARK  2 active torsions:
REMARK  status: ('A' for Active; 'I' for Inactive)
REMARK    1  A    between atoms: C2_2  and  N1_4 
REMARK    2  A    between atoms: N1_4  and  N2_6 
ROOT
HETATM    1  N2  UNL     1       1.744   1.101   0.245  1.00  0.00    -0.308 N 
ATOM      2  H2  UNL     1       1.915   1.864  -0.410  1.00  0.00     0.186 HD
HETATM    3  C3  UNL     1       0.629   0.460   0.166  1.00  0.00     0.008 C 
HETATM    4  C4  UNL     1       0.517  -0.600   1.159  1.00  0.00     0.054 C 
HETATM    5  C5  UNL     1      -0.881  -0.909   1.624  1.00  0.00     0.006 C 
HETATM    6  C6  UNL     1      -1.811  -1.355   0.566  1.00  0.00     0.005 C 
HETATM    7  C7  UNL     1      -2.569  -0.335  -0.182  1.00  0.00    -0.014 C 
HETATM    8  C8  UNL     1      -2.135  -0.388  -1.658  1.00  0.00     0.005 C 
HETATM    9  C9  UNL     1      -0.652  -0.155  -1.777  1.00  0.00     0.011 C 
HETATM   10  C10 UNL     1      -0.209   1.007  -0.930  1.00  0.00     0.033 C 
HETATM   11  C11 UNL     1      -1.327   1.844  -0.399  1.00  0.00     0.011 C 
HETATM   12  C12 UNL     1      -2.450   1.079   0.238  1.00  0.00     0.005 C 
ENDROOT
BRANCH   1  13
HETATM   13  N1  UNL     1       2.726   0.798   1.186  1.00  0.00    -0.294 N 
ATOM     14  H1  UNL     1       2.650   1.154   2.139  1.00  0.00     0.187 HD
BRANCH  13  15
HETATM   15  C2  UNL     1       3.833  -0.008   0.812  1.00  0.00     0.088 C 
HETATM   16  C1  UNL     1       3.970  -0.541  -0.578  1.00  0.00     0.083 C 
HETATM   17  S1  UNL     1       5.000  -0.379   1.895  1.00  0.00    -0.064 SA
ENDBRANCH  13  15
ENDBRANCH   1  13
TORSDOF 2
