REMARK  2 active torsions:
REMARK  status: ('A' for Active; 'I' for Inactive)
REMARK    1  A    between atoms: C2_2  and  C4_4 
REMARK    2  A    between atoms: C8_9  and  O1_10 
ROOT
HETATM    1  C4  UNL     1      -1.270  -0.989   0.039  1.00  0.00     0.082 C 
HETATM    2  S1  UNL     1      -2.175   0.455   0.645  1.00  0.00    -0.155 SA
HETATM    3  C5  UNL     1      -1.151   1.903   0.845  1.00  0.00     0.046 C 
HETATM    4  C6  UNL     1      -1.452   2.974  -0.208  1.00  0.00     0.021 C 
HETATM    5  C7  UNL     1       0.316   1.648   0.829  1.00  0.00     0.053 C 
HETATM    6  C8  UNL     1       0.602   0.181   1.015  1.00  0.00     0.067 C 
HETATM    7  C9  UNL     1       2.062  -0.122   1.146  1.00  0.00     0.016 C 
HETATM    8  C10 UNL     1       2.904   1.137   1.202  1.00  0.00     0.013 C 
HETATM    9  C11 UNL     1       2.408  -1.003  -0.010  1.00  0.00     0.008 C 
HETATM   10  C12 UNL     1       1.101  -1.609  -0.514  1.00  0.00     0.009 C 
HETATM   11  C13 UNL     1       0.131  -0.515  -0.248  1.00  0.00     0.038 C 
ENDROOT
BRANCH   1  12
HETATM   12  C2  UNL     1      -1.916  -1.620  -1.127  1.00  0.00    -0.079 C 
HETATM   13  C1  UNL     1      -2.320  -2.877  -1.051  1.00  0.00     0.015 C 
HETATM   14  C3  UNL     1      -2.148  -0.915  -2.414  1.00  0.00     0.044 C 
ENDBRANCH   1  12
BRANCH   6  15
HETATM   15  O1  UNL     1      -0.061  -0.282   2.147  1.00  0.00    -0.389 OA
ATOM     16  H1  UNL     1       0.119  -1.207   2.264  1.00  0.00     0.210 HD
ENDBRANCH   6  15
TORSDOF 2
