REMARK  5 active torsions:
REMARK  status: ('A' for Active; 'I' for Inactive)
REMARK    1  A    between atoms: C6_6  and  C7_7 
REMARK    2  A    between atoms: C9_10  and  N1_11 
REMARK    3  A    between atoms: C9_10  and  C28_34 
REMARK       I    between atoms: N1_11  and  C10_13 
REMARK    4  A    between atoms: C10_13  and  C11_15 
REMARK       I    between atoms: N2_21  and  C17_22 
REMARK    5  A    between atoms: C17_22  and  C18_24 
ROOT
HETATM    1  C11 UNL     1       0.011   0.397  -2.466  1.00  0.00     0.180 C 
HETATM    2  C12 UNL     1       0.295  -0.615  -3.528  1.00  0.00     0.041 C 
HETATM    3  C13 UNL     1      -0.782  -1.625  -3.428  1.00  0.00     0.011 C 
HETATM    4  C14 UNL     1      -0.393  -3.001  -2.965  1.00  0.00     0.009 C 
HETATM    5  C15 UNL     1      -0.765  -2.580  -1.566  1.00  0.00     0.026 C 
HETATM    6  C16 UNL     1      -1.460  -1.379  -2.092  1.00  0.00     0.092 C 
HETATM    7  N2  UNL     1      -1.109  -0.075  -1.664  1.00  0.00    -0.333 N 
HETATM    8  C17 UNL     1      -1.675   0.759  -0.670  1.00  0.00     0.229 C 
HETATM    9  O2  UNL     1      -1.121   1.922  -0.537  1.00  0.00    -0.272 OA
ENDROOT
BRANCH   1  10
HETATM   10  C10 UNL     1       1.215   0.791  -1.723  1.00  0.00     0.241 C 
HETATM   11  N1  UNL     1       1.502   0.471  -0.386  1.00  0.00    -0.341 N 
ATOM     12  H1  UNL     1       0.856  -0.127   0.130  1.00  0.00     0.163 HD
HETATM   13  O1  UNL     1       2.034   1.489  -2.404  1.00  0.00    -0.271 OA
BRANCH  11  14
HETATM   14  C9  UNL     1       2.706   0.973   0.290  1.00  0.00     0.120 C 
HETATM   15  C4  UNL     1       3.080   0.359   1.617  1.00  0.00     0.032 C 
HETATM   16  C2  UNL     1       4.510   0.601   1.305  1.00  0.00    -0.034 C 
HETATM   17  C5  UNL     1       2.930  -1.124   1.232  1.00  0.00     0.015 C 
HETATM   18  C1  UNL     1       5.488  -0.471   1.774  1.00  0.00     0.016 C 
HETATM   19  C3  UNL     1       5.230   1.882   1.490  1.00  0.00     0.016 C 
HETATM   20  C8  UNL     1       3.977   0.383  -0.132  1.00  0.00     0.038 C 
HETATM   21  C6  UNL     1       3.787  -1.102  -0.014  1.00  0.00     0.022 C 
BRANCH  21  22
HETATM   22  C7  UNL     1       3.333  -1.891  -1.157  1.00  0.00     0.227 C 
HETATM   23  F1  UNL     1       4.211  -1.755  -2.246  1.00  0.00    -0.255 F 
ENDBRANCH  21  22
BRANCH  14  24
HETATM   24  C28 UNL     1       2.400   2.407   0.412  1.00  0.00     0.260 C 
HETATM   25  N3  UNL     1       2.492   3.050   1.678  1.00  0.00    -0.060 NA
HETATM   26  O3  UNL     1       2.030   3.198  -0.481  1.00  0.00    -0.274 OA
ENDBRANCH  14  24
ENDBRANCH  11  14
ENDBRANCH   1  10
BRANCH   8  27
HETATM   27  C18 UNL     1      -2.792   0.514   0.233  1.00  0.00     0.042 C 
HETATM   28  C19 UNL     1      -3.006   1.778   1.122  1.00  0.00     0.024 C 
HETATM   29  C20 UNL     1      -4.140   1.593   2.053  1.00  0.00    -0.013 C 
HETATM   30  C21 UNL     1      -5.431   1.436   1.310  1.00  0.00     0.009 C 
HETATM   31  C25 UNL     1      -3.993   0.399   2.970  1.00  0.00     0.009 C 
HETATM   32  C22 UNL     1      -5.270   0.214   0.425  1.00  0.00    -0.013 C 
HETATM   33  C23 UNL     1      -5.024  -1.045   1.217  1.00  0.00     0.009 C 
HETATM   34  C27 UNL     1      -4.110   0.420  -0.493  1.00  0.00     0.024 C 
HETATM   35  C24 UNL     1      -3.816  -0.805   2.072  1.00  0.00    -0.013 C 
HETATM   36  C26 UNL     1      -2.560  -0.552   1.258  1.00  0.00     0.024 C 
ENDBRANCH   8  27
TORSDOF 5
