REMARK  5 active torsions:
REMARK  status: ('A' for Active; 'I' for Inactive)
REMARK    1  A    between atoms: C2_3  and  C3_4 
REMARK       I    between atoms: C3_4  and  N2_6 
REMARK    2  A    between atoms: N2_6  and  C4_8 
REMARK    3  A    between atoms: N3_15  and  C11_16 
REMARK    4  A    between atoms: C11_16  and  C12_17 
REMARK       I    between atoms: C12_17  and  N4_19 
REMARK    5  A    between atoms: N4_19  and  C13_21 
ROOT
HETATM    1  C4  UNL     1       0.070  -1.296   0.902  1.00  0.00     0.329 C 
HETATM    2  C5  UNL     1       0.377  -1.513   2.384  1.00  0.00     0.039 C 
HETATM    3  C6  UNL     1       1.454  -0.583   2.854  1.00  0.00     0.010 C 
HETATM    4  C7  UNL     1       2.749  -1.060   2.202  1.00  0.00     0.036 C 
HETATM    5  C8  UNL     1       2.348  -1.713   0.898  1.00  0.00     0.226 C 
HETATM    6  C9  UNL     1       1.815  -3.098   1.255  1.00  0.00     0.036 C 
HETATM    7  C10 UNL     1       0.905  -2.954   2.449  1.00  0.00     0.010 C 
HETATM    8  N3  UNL     1       1.317  -0.891   0.271  1.00  0.00     0.125 N 
ENDROOT
BRANCH   1   9
HETATM    9  N2  UNL     1      -0.959  -0.295   0.730  1.00  0.00    -0.329 N 
HETATM   10  C3  UNL     1      -2.183  -0.621   0.137  1.00  0.00     0.253 C 
HETATM   11  O1  UNL     1      -2.418  -1.773  -0.254  1.00  0.00    -0.271 OA
ATOM     12  H2  UNL     1      -0.790   0.660   1.045  1.00  0.00     0.164 HD
BRANCH  10  13
HETATM   13  C2  UNL     1      -3.198   0.446  -0.013  1.00  0.00     0.320 C 
HETATM   14  N1  UNL     1      -4.457  -0.035  -0.551  1.00  0.00     0.119 N 
HETATM   15  C1  UNL     1      -4.693   0.432  -1.906  1.00  0.00     0.313 C 
HETATM   16  C21 UNL     1      -5.504   0.384   0.362  1.00  0.00     0.225 C 
HETATM   17  C20 UNL     1      -5.386  -0.526   1.592  1.00  0.00     0.055 C 
HETATM   18 BR1  UNL     1      -7.223   0.536  -0.349  1.00  0.00    -0.050 Br
HETATM   19  C22 UNL     1      -4.912   1.652   0.941  1.00  0.00     0.012 A 
HETATM   20  C19 UNL     1      -4.042  -0.105   2.184  1.00  0.00     0.011 C 
HETATM   21  C18 UNL     1      -3.580   1.048   1.324  1.00  0.00     0.040 C 
HETATM   22  C23 UNL     1      -5.639   2.578   1.785  1.00  0.00     0.014 A 
HETATM   23  C24 UNL     1      -5.102   2.963   0.365  1.00  0.00     0.014 A 
ENDBRANCH  10  13
ENDBRANCH   1   9
BRANCH   8  24
HETATM   24  C11 UNL     1       1.215  -1.134  -1.135  1.00  0.00     0.377 C 
BRANCH  24  25
HETATM   25  C12 UNL     1       2.301  -0.624  -1.965  1.00  0.00     0.246 C 
HETATM   26  O2  UNL     1       2.240  -0.869  -3.216  1.00  0.00    -0.272 OA
HETATM   27  N4  UNL     1       3.383   0.108  -1.467  1.00  0.00    -0.355 N 
ATOM     28  H4  UNL     1       3.450   0.318  -0.471  1.00  0.00     0.162 HD
BRANCH  27  29
HETATM   29  C13 UNL     1       4.412   0.566  -2.389  1.00  0.00     0.084 C 
HETATM   30  C14 UNL     1       5.773   0.041  -1.999  1.00  0.00     0.025 C 
HETATM   31  C15 UNL     1       6.768   1.139  -2.328  1.00  0.00     0.002 C 
HETATM   32  C16 UNL     1       5.955   2.261  -2.933  1.00  0.00     0.002 C 
HETATM   33  C17 UNL     1       4.587   2.057  -2.324  1.00  0.00     0.025 C 
ENDBRANCH  27  29
ENDBRANCH  24  25
ENDBRANCH   8  24
TORSDOF 5
