REMARK  5 active torsions:
REMARK  status: ('A' for Active; 'I' for Inactive)
REMARK    1  A    between atoms: C2_2  and  C3_3 
REMARK    2  A    between atoms: C5_5  and  C6_6 
REMARK    3  A    between atoms: C7_10  and  C8_11 
REMARK       I    between atoms: C8_11  and  N2_13 
REMARK       I    between atoms: C9_15  and  N4_17 
REMARK    4  A    between atoms: C10_19  and  C11_21 
REMARK    5  A    between atoms: C11_21  and  C12_22 
ROOT
HETATM    1  C8  UNL     1       0.050   0.636   0.833  1.00  0.00     0.256 C 
HETATM    2  O1  UNL     1       0.827   1.546   1.212  1.00  0.00    -0.271 OA
HETATM    3  N2  UNL     1       0.669  -0.617   0.428  1.00  0.00    -0.299 N 
ATOM      4  H2  UNL     1       0.221  -1.522   0.572  1.00  0.00     0.171 HD
HETATM    5  C9  UNL     1       1.820  -0.497  -0.123  1.00  0.00     0.195 C 
HETATM    6  N3  UNL     1       2.412   0.847  -0.288  1.00  0.00    -0.063 NA
HETATM    7  N4  UNL     1       2.673  -1.429  -0.743  1.00  0.00    -0.328 N 
ATOM      8  H4  UNL     1       2.411  -1.841  -1.638  1.00  0.00     0.169 HD
HETATM    9  C10 UNL     1       3.772  -1.759  -0.189  1.00  0.00     0.063 C 
HETATM   10 BR1  UNL     1       4.242  -1.015   1.501  1.00  0.00    -0.036 Br
ENDROOT
BRANCH   1  11
HETATM   11  C7  UNL     1      -1.408   0.894   0.779  1.00  0.00     0.301 C 
HETATM   12  N1  UNL     1      -1.973   0.044  -0.219  1.00  0.00    -0.043 N 
HETATM   13  C6  UNL     1      -3.214   0.520  -0.671  1.00  0.00     0.313 C 
ATOM     14  H12 UNL     1      -2.043  -0.919   0.110  1.00  0.00     0.279 HD
ATOM     15  H11 UNL     1      -1.326  -0.098  -0.994  1.00  0.00     0.279 HD
HETATM   16  S1  UNL     1      -3.016   2.259  -0.766  1.00  0.00     0.184 S 
HETATM   17  C18 UNL     1      -1.582   2.326   0.325  1.00  0.00     0.096 C 
HETATM   18  O2  UNL     1      -4.173   2.981  -0.226  1.00  0.00    -0.225 OA
HETATM   19  O3  UNL     1      -2.657   2.690  -2.161  1.00  0.00    -0.225 OA
HETATM   20  C19 UNL     1      -1.921   3.280   1.431  1.00  0.00     0.034 C 
HETATM   21  C20 UNL     1      -0.519   2.927  -0.516  1.00  0.00     0.034 C 
BRANCH  13  22
HETATM   22  C5  UNL     1      -4.469   0.131   0.010  1.00  0.00     0.036 A 
HETATM   23  C3  UNL     1      -5.000  -1.247   0.049  1.00  0.00    -0.007 A 
HETATM   24  C4  UNL     1      -5.590  -0.315  -0.976  1.00  0.00     0.013 A 
BRANCH  23  25
HETATM   25  C2  UNL     1      -6.009  -1.675   1.098  1.00  0.00     0.000 C 
HETATM   26  C1  UNL     1      -7.170  -2.368   0.383  1.00  0.00     0.005 C 
ENDBRANCH  23  25
ENDBRANCH  13  22
ENDBRANCH   1  11
BRANCH   9  27
HETATM   27  C11 UNL     1       4.842  -2.597  -0.864  1.00  0.00     0.103 C 
BRANCH  27  28
HETATM   28  C12 UNL     1       6.144  -1.870  -0.571  1.00  0.00    -0.052 A 
HETATM   29  C13 UNL     1       7.201  -2.555  -0.061  1.00  0.00     0.007 A 
HETATM   30  C14 UNL     1       8.353  -1.842   0.276  1.00  0.00     0.001 A 
HETATM   31  C15 UNL     1       8.438  -0.481   0.112  1.00  0.00     0.000 A 
HETATM   32  C16 UNL     1       7.358   0.203  -0.406  1.00  0.00     0.001 A 
HETATM   33  C17 UNL     1       6.238  -0.515  -0.737  1.00  0.00     0.007 A 
ENDBRANCH  27  28
ENDBRANCH   9  27
TORSDOF 5
