REMARK  6 active torsions:
REMARK  status: ('A' for Active; 'I' for Inactive)
REMARK    1  A    between atoms: C3_4  and  C4_5 
REMARK    2  A    between atoms: C5_7  and  C6_8 
REMARK    3  A    between atoms: C6_8  and  N2_9 
REMARK    4  A    between atoms: C6_8  and  C18_23 
REMARK       I    between atoms: N2_9  and  C7_11 
REMARK    5  A    between atoms: C7_11  and  C8_13 
REMARK       I    between atoms: C18_23  and  N3_25 
REMARK    6  A    between atoms: N3_25  and  C19_27 
ROOT
HETATM    1  C6  UNL     1       1.291   0.032  -0.619  1.00  0.00     0.183 C 
ENDROOT
BRANCH   1   2
HETATM    2  C5  UNL     1       1.686  -1.371  -0.884  1.00  0.00     0.052 C 
HETATM    3  C3  UNL     1       0.990  -2.419  -0.118  1.00  0.00     0.032 C 
HETATM    4  C2  UNL     1       1.876  -3.648  -0.366  1.00  0.00     0.277 C 
HETATM    5  N1  UNL     1       3.226  -3.122  -0.426  1.00  0.00     0.085 N 
HETATM    6  C1  UNL     1       4.071  -3.863  -1.308  1.00  0.00     0.309 C 
HETATM    7  C24 UNL     1       3.123  -1.707  -0.769  1.00  0.00     0.279 C 
BRANCH   3   8
HETATM    8  C4  UNL     1       0.803  -2.218   1.343  1.00  0.00     0.092 C 
HETATM    9 BR1  UNL     1       2.420  -1.929   2.337  1.00  0.00    -0.096 Br
ENDBRANCH   3   8
ENDBRANCH   1   2
BRANCH   1  10
HETATM   10  N2  UNL     1      -0.103   0.256  -0.920  1.00  0.00    -0.347 N 
HETATM   11  C7  UNL     1      -1.066   0.844  -0.102  1.00  0.00     0.223 C 
HETATM   12  O1  UNL     1      -0.721   1.240   1.042  1.00  0.00    -0.273 OA
ATOM     13  H2  UNL     1      -0.420  -0.052  -1.839  1.00  0.00     0.163 HD
BRANCH  11  14
HETATM   14  C8  UNL     1      -2.461   1.023  -0.510  1.00  0.00     0.086 C 
HETATM   15  C9  UNL     1      -3.322   1.674   0.518  1.00  0.00    -0.001 C 
HETATM   16  C10 UNL     1      -4.653   2.047  -0.129  1.00  0.00     0.010 C 
HETATM   17  C14 UNL     1      -3.641   0.775   1.683  1.00  0.00     0.010 C 
HETATM   18  C11 UNL     1      -5.312   0.782  -0.668  1.00  0.00    -0.013 C 
HETATM   19  C12 UNL     1      -5.624  -0.097   0.511  1.00  0.00     0.009 C 
HETATM   20  C17 UNL     1      -4.407   0.140  -1.674  1.00  0.00     0.010 C 
HETATM   21  C13 UNL     1      -4.326  -0.473   1.189  1.00  0.00    -0.013 C 
HETATM   22  C15 UNL     1      -3.475  -1.177   0.147  1.00  0.00     0.010 C 
HETATM   23  C16 UNL     1      -3.115  -0.252  -0.974  1.00  0.00    -0.001 C 
ENDBRANCH  11  14
ENDBRANCH   1  10
BRANCH   1  24
HETATM   24  C18 UNL     1       2.081   1.026  -1.359  1.00  0.00     0.246 C 
HETATM   25  O2  UNL     1       1.473   1.848  -2.079  1.00  0.00    -0.271 OA
HETATM   26  N3  UNL     1       3.496   1.139  -1.331  1.00  0.00    -0.311 N 
ATOM     27  H3  UNL     1       4.062   0.490  -1.878  1.00  0.00     0.170 HD
BRANCH  26  28
HETATM   28  C19 UNL     1       4.087   2.062  -0.615  1.00  0.00     0.107 A 
HETATM   29  C20 UNL     1       5.456   2.178  -0.583  1.00  0.00     0.048 A 
HETATM   30  C21 UNL     1       6.087   3.145   0.167  1.00  0.00     0.005 A 
HETATM   31  C22 UNL     1       5.308   4.014   0.901  1.00  0.00     0.017 A 
HETATM   32  C23 UNL     1       3.949   3.862   0.840  1.00  0.00     0.089 A 
HETATM   33  N4  UNL     1       3.331   2.911   0.102  1.00  0.00    -0.352 N 
ATOM     34  H4  UNL     1       2.314   2.840   0.090  1.00  0.00     0.166 HD
ENDBRANCH  26  28
ENDBRANCH   1  24
TORSDOF 6
