REMARK  7 active torsions:
REMARK  status: ('A' for Active; 'I' for Inactive)
REMARK    1  A    between atoms: N1_1  and  C1_5 
REMARK    2  A    between atoms: C1_5  and  C2_6 
REMARK    3  A    between atoms: C2_6  and  N2_7 
REMARK       I    between atoms: C3_9  and  N3_10 
REMARK       I    between atoms: C3_9  and  N5_15 
REMARK    4  A    between atoms: N3_10  and  N4_12 
REMARK    5  A    between atoms: N5_15  and  N6_17 
REMARK    6  A    between atoms: C7_25  and  C8_26 
REMARK    7  A    between atoms: C8_26  and  C9_27 
ROOT
HETATM    1  N6  UNL     1       1.120   0.889   0.918  1.00  0.00    -0.274 N 
ATOM      2  H6  UNL     1       1.379   1.859   0.739  1.00  0.00     0.189 HD
HETATM    3  C4  UNL     1      -0.138   0.646   1.028  1.00  0.00     0.110 C 
HETATM    4  C5  UNL     1      -0.567  -0.748   1.286  1.00  0.00     0.200 C 
HETATM    5  N7  UNL     1      -0.983  -1.457   0.104  1.00  0.00    -0.352 N 
ATOM      6  H7  UNL     1      -0.326  -2.140  -0.273  1.00  0.00     0.162 HD
HETATM    7  C6  UNL     1      -2.205  -1.307  -0.589  1.00  0.00     0.241 C 
HETATM    8  O1  UNL     1      -2.171  -1.288  -1.875  1.00  0.00    -0.271 OA
HETATM    9  C7  UNL     1      -3.531  -1.170   0.029  1.00  0.00     0.184 C 
HETATM   10  N9  UNL     1      -3.583  -0.307   1.179  1.00  0.00    -0.346 N 
ATOM     11  H9  UNL     1      -3.813  -0.730   2.078  1.00  0.00     0.163 HD
HETATM   12  C10 UNL     1      -3.339   1.079   1.153  1.00  0.00     0.235 C 
HETATM   13  O3  UNL     1      -4.085   1.799   1.910  1.00  0.00    -0.272 OA
HETATM   14  C11 UNL     1      -2.316   1.764   0.344  1.00  0.00     0.223 C 
HETATM   15  N10 UNL     1      -1.006   1.752   0.889  1.00  0.00    -0.368 N 
ATOM     16  H10 UNL     1      -0.649   2.648   1.220  1.00  0.00     0.161 HD
ENDROOT
BRANCH   1  17
HETATM   17  N5  UNL     1       2.156  -0.009   1.014  1.00  0.00    -0.130 N 
HETATM   18  C3  UNL     1       3.203   0.054   0.030  1.00  0.00     0.706 C 
HETATM   19  N2  UNL     1       3.822   1.165  -0.147  1.00  0.00    -0.222 N 
HETATM   20  N3  UNL     1       3.580  -1.063  -0.761  1.00  0.00    -0.138 N 
ATOM     21  H2  UNL     1       3.550   1.969   0.419  1.00  0.00     0.177 HD
ATOM     22  H3  UNL     1       3.753  -0.953  -1.760  1.00  0.00     0.205 HD
ATOM     23  H5  UNL     1       2.182  -0.701   1.763  1.00  0.00     0.205 HD
BRANCH  19  24
HETATM   24  C2  UNL     1       4.884   1.330  -1.108  1.00  0.00     0.165 C 
BRANCH  24  25
HETATM   25  C1  UNL     1       6.183   0.706  -0.660  1.00  0.00     0.249 C 
BRANCH  25  26
HETATM   26  N1  UNL     1       6.674   1.282   0.588  1.00  0.00    -0.078 N 
ATOM     27  H13 UNL     1       6.758   2.296   0.517  1.00  0.00     0.274 HD
ATOM     28  H12 UNL     1       5.967   1.228   1.322  1.00  0.00     0.274 HD
ATOM     29  H11 UNL     1       7.552   0.860   0.891  1.00  0.00     0.274 HD
ENDBRANCH  25  26
ENDBRANCH  24  25
ENDBRANCH  19  24
BRANCH  20  30
HETATM   30  N4  UNL     1       3.712  -2.319  -0.152  1.00  0.00    -0.331 N 
ATOM     31  H42 UNL     1       3.536  -2.412   0.848  1.00  0.00     0.177 HD
ATOM     32  H41 UNL     1       3.983  -3.122  -0.720  1.00  0.00     0.177 HD
ENDBRANCH  20  30
ENDBRANCH   1  17
BRANCH   9  33
HETATM   33  C8  UNL     1      -4.554  -0.678  -0.981  1.00  0.00     0.134 C 
BRANCH  33  34
HETATM   34  C9  UNL     1      -5.882  -0.544  -0.355  1.00  0.00     0.233 C 
HETATM   35  N8  UNL     1      -6.598   0.668  -0.445  1.00  0.00    -0.062 NA
HETATM   36  O2  UNL     1      -6.384  -1.508   0.267  1.00  0.00    -0.277 OA
ENDBRANCH  33  34
ENDBRANCH   9  33
TORSDOF 7
