REMARK  6 active torsions:
REMARK  status: ('A' for Active; 'I' for Inactive)
REMARK    1  A    between atoms: N2_3  and  C2_5 
REMARK    2  A    between atoms: C4_10  and  C5_11 
REMARK    3  A    between atoms: C5_11  and  C6_12 
REMARK    4  A    between atoms: C6_12  and  C7_13 
REMARK    5  A    between atoms: C7_13  and  N4_14 
REMARK    6  A    between atoms: C12_28  and  N9_29 
ROOT
HETATM    1  C2  UNL     1      -2.630   1.093  -0.576  1.00  0.00     0.214 C 
HETATM    2  C3  UNL     1      -1.614   0.517  -1.457  1.00  0.00     0.244 C 
HETATM    3  O1  UNL     1      -1.802   0.789  -2.702  1.00  0.00    -0.271 OA
HETATM    4  N3  UNL     1      -0.503  -0.263  -1.144  1.00  0.00    -0.338 N 
ATOM      5  H3  UNL     1      -0.153  -0.842  -1.907  1.00  0.00     0.164 HD
HETATM    6  C4  UNL     1       0.220  -0.376   0.079  1.00  0.00     0.186 C 
HETATM    7  N7  UNL     1      -0.156  -1.448   0.946  1.00  0.00    -0.339 N 
ATOM      8  H7  UNL     1       0.381  -1.494   1.812  1.00  0.00     0.164 HD
HETATM    9  C9  UNL     1      -1.126  -2.444   0.822  1.00  0.00     0.236 C 
HETATM   10  O2  UNL     1      -0.700  -3.661   0.844  1.00  0.00    -0.272 OA
HETATM   11  C10 UNL     1      -2.593  -2.291   0.668  1.00  0.00     0.225 C 
HETATM   12  N8  UNL     1      -3.014  -1.993  -0.686  1.00  0.00    -0.350 N 
ATOM     13  H8  UNL     1      -2.602  -2.573  -1.417  1.00  0.00     0.163 HD
HETATM   14  C11 UNL     1      -3.909  -1.016  -1.119  1.00  0.00     0.251 C 
HETATM   15  O3  UNL     1      -4.865  -1.420  -1.886  1.00  0.00    -0.271 OA
HETATM   16  C12 UNL     1      -3.933   0.425  -0.833  1.00  0.00     0.306 C 
ENDROOT
BRANCH   6  17
HETATM   17  C5  UNL     1       1.700  -0.563  -0.265  1.00  0.00     0.048 C 
BRANCH  17  18
HETATM   18  C6  UNL     1       2.588  -0.697   0.917  1.00  0.00     0.023 C 
BRANCH  18  19
HETATM   19  C7  UNL     1       4.015  -0.862   0.381  1.00  0.00     0.122 C 
BRANCH  19  20
HETATM   20  N4  UNL     1       4.337   0.314  -0.393  1.00  0.00    -0.367 N 
HETATM   21  C8  UNL     1       5.563   0.670  -0.501  1.00  0.00     0.196 C 
HETATM   22  N5  UNL     1       6.609  -0.063   0.121  1.00  0.00    -0.067 NA
HETATM   23  N6  UNL     1       5.913   1.811  -1.248  1.00  0.00    -0.067 NA
ATOM     24  H4  UNL     1       3.599   0.853  -0.847  1.00  0.00     0.161 HD
ENDBRANCH  19  20
ENDBRANCH  18  19
ENDBRANCH  17  18
ENDBRANCH   6  17
BRANCH   1  25
HETATM   25  N2  UNL     1      -2.281   1.217   0.807  1.00  0.00    -0.373 N 
HETATM   26  C1  UNL     1      -2.448   2.254   1.534  1.00  0.00     0.186 C 
HETATM   27  N1  UNL     1      -3.020   3.476   1.069  1.00  0.00    -0.097 NA
ATOM     28  H2  UNL     1      -1.860   0.402   1.253  1.00  0.00     0.160 HD
ENDBRANCH   1  25
BRANCH  16  29
HETATM   29  N9  UNL     1      -4.908   0.650   0.221  1.00  0.00    -0.064 N 
ATOM     30  H93 UNL     1      -4.532   0.375   1.128  1.00  0.00     0.275 HD
ATOM     31  H92 UNL     1      -5.038   1.648   0.389  1.00  0.00     0.275 HD
ATOM     32  H91 UNL     1      -5.802   0.192   0.045  1.00  0.00     0.275 HD
ENDBRANCH  16  29
TORSDOF 6
