REMARK  8 active torsions:
REMARK  status: ('A' for Active; 'I' for Inactive)
REMARK    1  A    between atoms: N1_2  and  C2_4 
REMARK    2  A    between atoms: C5_7  and  C6_8 
REMARK    3  A    between atoms: N2_9  and  O1_10 
REMARK    4  A    between atoms: N2_9  and  C7_12 
REMARK    5  A    between atoms: C7_12  and  C8_13 
REMARK    6  A    between atoms: C10_19  and  C11_20 
REMARK    7  A    between atoms: C11_20  and  C12_21 
REMARK    8  A    between atoms: C12_21  and  O2_22 
ROOT
HETATM    1  C6  UNL     1       0.945   0.386   0.677  1.00  0.00     0.130 C 
HETATM    2  N2  UNL     1       0.149  -0.241   1.435  1.00  0.00    -0.266 N 
ENDROOT
BRANCH   2   3
HETATM    3  O1  UNL     1       0.374  -1.227   2.325  1.00  0.00    -0.288 OA
ATOM      4  H1  UNL     1      -0.224  -1.698   2.894  1.00  0.00     0.244 HD
ENDBRANCH   2   3
BRANCH   2   5
HETATM    5  C7  UNL     1      -1.286   0.157   1.349  1.00  0.00     0.214 C 
BRANCH   5   6
HETATM    6  C8  UNL     1      -2.036  -1.026   0.933  1.00  0.00     0.053 A 
HETATM    7  N3  UNL     1      -1.517  -2.239   0.678  1.00  0.00    -0.353 N 
HETATM    8  C9  UNL     1      -2.514  -3.039   0.334  1.00  0.00     0.181 A 
ATOM      9  H3  UNL     1      -0.532  -2.497   0.739  1.00  0.00     0.166 HD
HETATM   10  N4  UNL     1      -3.670  -2.353   0.365  1.00  0.00    -0.354 N 
HETATM   11  C10 UNL     1      -3.417  -1.083   0.736  1.00  0.00     0.036 A 
ATOM     12  H4  UNL     1      -4.590  -2.733   0.143  1.00  0.00     0.166 HD
BRANCH  11  13
HETATM   13  C11 UNL     1      -4.364   0.018   0.903  1.00  0.00     0.085 C 
BRANCH  13  14
HETATM   14  C12 UNL     1      -4.392   1.021  -0.195  1.00  0.00     0.173 C 
BRANCH  14  15
HETATM   15  O2  UNL     1      -4.726   0.475  -1.433  1.00  0.00    -0.396 OA
HETATM   16  C13 UNL     1      -4.704   1.560  -2.339  1.00  0.00     0.201 C 
ENDBRANCH  14  15
ENDBRANCH  13  14
ENDBRANCH  11  13
ENDBRANCH   5   6
ENDBRANCH   2   5
BRANCH   1  17
HETATM   17  C5  UNL     1       2.370   0.181   0.581  1.00  0.00    -0.003 A 
HETATM   18  C4  UNL     1       3.116   0.959  -0.310  1.00  0.00     0.018 A 
HETATM   19  C3  UNL     1       4.465   0.812  -0.445  1.00  0.00     0.049 A 
HETATM   20  C2  UNL     1       5.098  -0.141   0.331  1.00  0.00     0.100 A 
HETATM   21  N5  UNL     1       4.388  -0.896   1.193  1.00  0.00    -0.352 N 
HETATM   22  C14 UNL     1       3.033  -0.737   1.318  1.00  0.00     0.102 A 
ATOM     23  H5  UNL     1       4.866  -1.596   1.760  1.00  0.00     0.166 HD
BRANCH  20  24
HETATM   24  N1  UNL     1       6.367  -0.323   0.247  1.00  0.00    -0.381 N 
HETATM   25  C1  UNL     1       7.112   0.498  -0.683  1.00  0.00     0.147 C 
ATOM     26  H1  UNL     1       6.836  -1.026   0.819  1.00  0.00     0.160 HD
ENDBRANCH  20  24
ENDBRANCH   1  17
TORSDOF 8
