REMARK  4 active torsions:
REMARK  status: ('A' for Active; 'I' for Inactive)
REMARK    1  A    between atoms: N1_1  and  N2_4 
REMARK    2  A    between atoms: N2_4  and  C1_5 
REMARK    3  A    between atoms: C1_5  and  C2_6 
REMARK    4  A    between atoms: C2_6  and  C3_7 
ROOT
HETATM    1  C3  UNL     1      -0.717  -0.430   0.572  1.00  0.00     0.014 C 
HETATM    2  C4  UNL     1      -1.184   1.019   0.498  1.00  0.00     0.034 C 
HETATM    3  C5  UNL     1      -1.872   1.003  -0.858  1.00  0.00     0.232 C 
HETATM    4  N3  UNL     1      -2.379  -0.329  -1.042  1.00  0.00    -0.075 N 
ATOM      5  H31 UNL     1      -2.077  -0.745  -1.923  1.00  0.00     0.277 HD
ATOM      6  H32 UNL     1      -3.384  -0.345  -1.217  1.00  0.00     0.277 HD
HETATM    7  C6  UNL     1      -2.006  -1.117   0.094  1.00  0.00     0.237 C 
ENDROOT
BRANCH   1   8
HETATM    8  C2  UNL     1       0.326  -0.724  -0.479  1.00  0.00     0.024 C 
BRANCH   8   9
HETATM    9  C1  UNL     1       1.550   0.145  -0.326  1.00  0.00     0.135 C 
BRANCH   9  10
HETATM   10  N2  UNL     1       2.156  -0.080   0.981  1.00  0.00    -0.148 NA
BRANCH  10  11
HETATM   11  N1  UNL     1       3.284   0.698   1.166  1.00  0.00    -0.348 N 
ATOM     12  H12 UNL     1       3.637   1.347   0.463  1.00  0.00     0.172 HD
ATOM     13  H11 UNL     1       3.708   0.541   2.080  1.00  0.00     0.172 HD
ENDBRANCH  10  11
ENDBRANCH   9  10
ENDBRANCH   8   9
ENDBRANCH   1   8
TORSDOF 4
