REMARK  9 active torsions:
REMARK  status: ('A' for Active; 'I' for Inactive)
REMARK    1  A    between atoms: C2_2  and  C3_3 
REMARK    2  A    between atoms: C3_3  and  C5_5 
REMARK    3  A    between atoms: C6_6  and  C7_7 
REMARK    4  A    between atoms: C12_13  and  O2_14 
REMARK    5  A    between atoms: C17_20  and  C18_21 
REMARK    6  A    between atoms: C18_21  and  C19_22 
REMARK    7  A    between atoms: C19_22  and  C20_23 
REMARK    8  A    between atoms: C20_23  and  C21_24 
REMARK    9  A    between atoms: C21_24  and  O3_25 
ROOT
HETATM    1  C7  UNL     1       0.890  -1.055   0.850  1.00  0.00     0.154 C 
HETATM    2  O1  UNL     1       0.966  -2.135   0.038  1.00  0.00    -0.371 OA
HETATM    3  C8  UNL     1      -0.215  -2.432  -0.584  1.00  0.00     0.061 C 
HETATM    4  C9  UNL     1      -0.008  -2.800  -2.065  1.00  0.00     0.046 C 
HETATM    5  C10 UNL     1      -0.819  -3.633   0.044  1.00  0.00     0.046 C 
HETATM    6  C11 UNL     1      -0.980  -1.169  -0.547  1.00  0.00     0.060 C 
HETATM    7  C12 UNL     1      -2.430  -1.242  -0.636  1.00  0.00     0.129 C 
HETATM    8  C13 UNL     1      -3.250  -1.422   0.572  1.00  0.00     0.011 C 
HETATM    9  C14 UNL     1      -4.629  -0.836   0.320  1.00  0.00     0.012 C 
HETATM   10  C15 UNL     1      -2.706  -0.815   1.832  1.00  0.00     0.007 C 
HETATM   11  C16 UNL     1      -1.245  -0.724   1.921  1.00  0.00     0.013 C 
HETATM   12  C17 UNL     1      -0.475  -0.444   0.645  1.00  0.00    -0.002 C 
ENDROOT
BRANCH   1  13
HETATM   13  C6  UNL     1       2.024  -0.175   0.507  1.00  0.00     0.002 C 
HETATM   14  C5  UNL     1       2.693  -0.147  -0.613  1.00  0.00    -0.024 C 
BRANCH  14  15
HETATM   15  C3  UNL     1       3.822   0.698  -1.010  1.00  0.00     0.003 C 
HETATM   16  C4  UNL     1       4.988  -0.253  -1.345  1.00  0.00     0.014 C 
BRANCH  15  17
HETATM   17  C2  UNL     1       4.269   1.741  -0.049  1.00  0.00     0.003 C 
HETATM   18  C1  UNL     1       4.796   1.260   1.255  1.00  0.00     0.006 C 
ENDBRANCH  15  17
ENDBRANCH  14  15
ENDBRANCH   1  13
BRANCH  12  19
HETATM   19  C18 UNL     1      -0.287   1.049   0.438  1.00  0.00     0.013 C 
BRANCH  19  20
HETATM   20  C19 UNL     1      -1.461   1.894   0.219  1.00  0.00     0.003 C 
BRANCH  20  21
HETATM   21  C20 UNL     1      -0.984   3.367   0.071  1.00  0.00     0.026 C 
BRANCH  21  22
HETATM   22  C21 UNL     1      -2.266   4.164  -0.153  1.00  0.00     0.164 C 
BRANCH  22  23
HETATM   23  O3  UNL     1      -2.000   5.506  -0.304  1.00  0.00    -0.401 OA
ATOM     24  H3  UNL     1      -2.798   6.002  -0.443  1.00  0.00     0.209 HD
ENDBRANCH  22  23
ENDBRANCH  21  22
ENDBRANCH  20  21
ENDBRANCH  19  20
ENDBRANCH  12  19
BRANCH   7  25
HETATM   25  O2  UNL     1      -2.806  -2.289  -1.548  1.00  0.00    -0.395 OA
ATOM     26  H2  UNL     1      -3.753  -2.337  -1.606  1.00  0.00     0.210 HD
ENDBRANCH   7  25
TORSDOF 9
