REMARK  5 active torsions:
REMARK  status: ('A' for Active; 'I' for Inactive)
REMARK    1  A    between atoms: C2_2  and  N1_11 
REMARK    2  A    between atoms: C3_3  and  C4_4 
REMARK    3  A    between atoms: N1_11  and  C10_13 
REMARK    4  A    between atoms: C11_14  and  S1_15 
REMARK    5  A    between atoms: S1_15  and  C12_16 
ROOT
HETATM    1  C10 UNL     1       1.355  -1.436  -0.347  1.00  0.00     0.092 A 
HETATM    2  C11 UNL     1       2.165  -0.444   0.118  1.00  0.00     0.121 A 
HETATM    3  N4  UNL     1       3.460  -0.907   0.096  1.00  0.00    -0.292 N 
ATOM      4  H4  UNL     1       4.289  -0.389   0.386  1.00  0.00     0.187 HD
HETATM    5  N5  UNL     1       3.436  -2.143  -0.369  1.00  0.00    -0.302 N 
ATOM      6  H5  UNL     1       4.255  -2.737  -0.496  1.00  0.00     0.186 HD
HETATM    7  C15 UNL     1       2.151  -2.508  -0.655  1.00  0.00     0.051 A 
HETATM    8  C16 UNL     1       1.796  -3.844  -1.197  1.00  0.00     0.072 C 
ENDROOT
BRANCH   1   9
HETATM    9  N1  UNL     1      -0.076  -1.403  -0.508  1.00  0.00    -0.356 N 
ATOM     10  H1  UNL     1      -0.474  -1.114  -1.402  1.00  0.00     0.166 HD
BRANCH   9  11
HETATM   11  C2  UNL     1      -0.929  -1.761   0.543  1.00  0.00     0.002 C 
HETATM   12  C1  UNL     1      -0.468  -2.946   1.383  1.00  0.00     0.068 C 
HETATM   13  C3  UNL     1      -2.042  -1.203   0.878  1.00  0.00     0.005 C 
BRANCH  13  14
HETATM   14  C4  UNL     1      -2.806  -0.083   0.350  1.00  0.00     0.044 C 
HETATM   15  C5  UNL     1      -2.219   0.702  -0.762  1.00  0.00     0.011 C 
HETATM   16  C6  UNL     1      -2.992   2.005  -0.984  1.00  0.00     0.001 C 
HETATM   17  C7  UNL     1      -4.431   1.821  -0.589  1.00  0.00     0.003 C 
HETATM   18  C8  UNL     1      -4.872   0.432  -0.934  1.00  0.00     0.038 C 
HETATM   19  C9  UNL     1      -4.193  -0.607  -0.048  1.00  0.00     0.177 C 
HETATM   20  F1  UNL     1      -4.932  -0.737   1.097  1.00  0.00    -0.249 F 
ENDBRANCH  13  14
ENDBRANCH   9  11
ENDBRANCH   1   9
BRANCH   2  21
HETATM   21  S1  UNL     1       1.703   1.185   0.680  1.00  0.00    -0.023 SA
BRANCH  21  22
HETATM   22  C12 UNL     1       3.154   2.083   1.183  1.00  0.00     0.209 A 
HETATM   23  N2  UNL     1       3.714   2.119   2.402  1.00  0.00    -0.272 N 
HETATM   24  N3  UNL     1       4.766   2.911   2.299  1.00  0.00    -0.281 N 
ATOM     25  H2  UNL     1       3.392   1.633   3.239  1.00  0.00     0.189 HD
HETATM   26  C13 UNL     1       4.869   3.367   1.042  1.00  0.00     0.137 A 
ATOM     27  H3  UNL     1       5.404   3.141   3.061  1.00  0.00     0.189 HD
HETATM   28  C14 UNL     1       5.907   4.284   0.495  1.00  0.00     0.099 C 
HETATM   29  O1  UNL     1       3.863   2.838   0.381  1.00  0.00    -0.272 OA
ENDBRANCH  21  22
ENDBRANCH   2  21
TORSDOF 5
