REMARK  4 active torsions:
REMARK  status: ('A' for Active; 'I' for Inactive)
REMARK    1  A    between atoms: S1_2  and  C3_4 
REMARK    2  A    between atoms: C3_4  and  C4_5 
REMARK    3  A    between atoms: C5_6  and  C6_7 
REMARK    4  A    between atoms: C6_7  and  O1_10 
ROOT
HETATM    1  C4  UNL     1      -0.123  -0.522   0.657  1.00  0.00    -0.094 C 
HETATM    2  C5  UNL     1      -1.216  -0.086   0.321  1.00  0.00    -0.068 C 
ENDROOT
BRANCH   2   3
HETATM    3  C6  UNL     1      -2.534   0.417  -0.070  1.00  0.00     0.114 C 
HETATM    4  C7  UNL     1      -2.332   1.486  -1.092  1.00  0.00     0.060 C 
HETATM    5  C8  UNL     1      -3.364  -0.688  -0.738  1.00  0.00     0.060 C 
BRANCH   3   6
HETATM    6  O1  UNL     1      -3.266   0.850   1.035  1.00  0.00    -0.378 OA
ATOM      7  H1  UNL     1      -4.121   1.176   0.781  1.00  0.00     0.211 HD
ENDBRANCH   3   6
ENDBRANCH   2   3
BRANCH   1   8
HETATM    8  C3  UNL     1       1.174  -1.058   1.077  1.00  0.00     0.156 C 
BRANCH   8   9
HETATM    9  S1  UNL     1       2.362  -0.675  -0.169  1.00  0.00    -0.217 SA
HETATM   10  C1  UNL     1       3.967  -1.319   0.312  1.00  0.00     0.079 C 
HETATM   11  C2  UNL     1       2.499   1.067  -0.449  1.00  0.00     0.079 C 
ENDBRANCH   8   9
ENDBRANCH   1   8
TORSDOF 4
