REMARK  4 active torsions:
REMARK  status: ('A' for Active; 'I' for Inactive)
REMARK    1  A    between atoms: C2_2  and  C4_4 
REMARK    2  A    between atoms: C5_5  and  C6_6 
REMARK    3  A    between atoms: C7_7  and  C8_8 
REMARK    4  A    between atoms: C8_8  and  C10_10 
ROOT
HETATM    1  C6  UNL     1       0.379   0.489   0.062  1.00  0.00    -0.014 C 
HETATM    2  C7  UNL     1       1.586   0.521   0.003  1.00  0.00    -0.079 C 
ENDROOT
BRANCH   1   3
HETATM    3  C5  UNL     1      -1.034   0.455   0.156  1.00  0.00    -0.015 C 
HETATM    4  C4  UNL     1      -2.240   0.422   0.245  1.00  0.00    -0.088 C 
BRANCH   4   5
HETATM    5  C2  UNL     1      -3.699   0.375   0.363  1.00  0.00     0.058 C 
HETATM    6  C1  UNL     1      -4.021  -0.754   1.326  1.00  0.00     0.023 C 
HETATM    7  C3  UNL     1      -4.282   0.148  -0.993  1.00  0.00     0.023 C 
ENDBRANCH   4   5
ENDBRANCH   1   3
BRANCH   2   8
HETATM    8  C8  UNL     1       3.049   0.554  -0.045  1.00  0.00     0.151 C 
HETATM    9  C9  UNL     1       3.512   0.804  -1.470  1.00  0.00     0.033 C 
BRANCH   8  10
HETATM   10  C10 UNL     1       3.558  -0.759   0.449  1.00  0.00     0.246 C 
HETATM   11  N1  UNL     1       4.955  -0.941   0.485  1.00  0.00    -0.061 NA
HETATM   12  O1  UNL     1       2.764  -1.672   0.819  1.00  0.00    -0.275 OA
ENDBRANCH   8  10
ENDBRANCH   2   8
TORSDOF 4
