REMARK  6 active torsions:
REMARK  status: ('A' for Active; 'I' for Inactive)
REMARK    1  A    between atoms: C2_2  and  C4_4 
REMARK    2  A    between atoms: C7_7  and  O1_8 
REMARK    3  A    between atoms: C10_12  and  O2_13 
REMARK    4  A    between atoms: C10_12  and  C11_15 
REMARK    5  A    between atoms: C11_15  and  C14_18 
REMARK    6  A    between atoms: C19_24  and  O4_25 
ROOT
HETATM    1  C4  UNL     1       4.002  -0.970  -0.302  1.00  0.00    -0.000 C 
HETATM    2  C5  UNL     1       3.411  -2.309  -0.783  1.00  0.00     0.009 C 
HETATM    3  C6  UNL     1       2.143  -1.877  -1.544  1.00  0.00     0.039 C 
HETATM    4  C7  UNL     1       1.674  -0.816  -0.532  1.00  0.00     0.070 C 
HETATM    5  C8  UNL     1       0.456  -0.084  -0.958  1.00  0.00     0.028 C 
HETATM    6  C9  UNL     1      -0.827  -0.833  -0.761  1.00  0.00     0.047 C 
HETATM    7  C10 UNL     1      -1.732  -0.337   0.326  1.00  0.00     0.072 C 
HETATM    8  C17 UNL     1      -1.903   1.135   0.341  1.00  0.00     0.032 C 
HETATM    9  C18 UNL     1      -3.190   1.773   0.020  1.00  0.00     0.040 C 
HETATM   10  C19 UNL     1      -3.193   3.172   0.684  1.00  0.00     0.118 C 
HETATM   11  C20 UNL     1      -2.081   4.020   0.164  1.00  0.00     0.032 C 
HETATM   12  C21 UNL     1      -0.775   3.296   0.160  1.00  0.00     0.012 C 
HETATM   13  C22 UNL     1      -0.891   1.900  -0.486  1.00  0.00    -0.033 C 
HETATM   14  C23 UNL     1      -1.320   2.126  -1.921  1.00  0.00     0.016 C 
HETATM   15  C24 UNL     1       0.491   1.329  -0.531  1.00  0.00     0.001 C 
HETATM   16  C25 UNL     1       1.351   1.680   0.632  1.00  0.00     0.007 C 
HETATM   17  C26 UNL     1       2.697   1.010   0.630  1.00  0.00     0.013 C 
HETATM   18  C27 UNL     1       2.928   0.025  -0.465  1.00  0.00    -0.009 C 
HETATM   19  C28 UNL     1       3.232   0.773  -1.747  1.00  0.00     0.019 C 
ENDROOT
BRANCH   7  20
HETATM   20  O2  UNL     1      -0.926  -0.639   1.489  1.00  0.00    -0.389 OA
ATOM     21  H2  UNL     1      -1.500  -0.325   2.178  1.00  0.00     0.210 HD
ENDBRANCH   7  20
BRANCH   7  22
HETATM   22  C11 UNL     1      -2.872  -1.209   0.608  1.00  0.00     0.017 C 
HETATM   23  C12 UNL     1      -2.276  -2.584   1.040  1.00  0.00     0.021 C 
HETATM   24  C13 UNL     1      -3.473  -0.766   1.964  1.00  0.00     0.021 C 
BRANCH  22  25
HETATM   25  C14 UNL     1      -3.925  -1.578  -0.341  1.00  0.00     0.088 A 
HETATM   26  C15 UNL     1      -4.977  -2.485   0.354  1.00  0.00     0.049 C 
HETATM   27  C16 UNL     1      -3.731  -2.165  -1.707  1.00  0.00     0.207 A 
HETATM   28  O3  UNL     1      -4.208  -0.909  -1.485  1.00  0.00    -0.374 OA
ENDBRANCH  22  25
ENDBRANCH   7  22
BRANCH   4  29
HETATM   29  O1  UNL     1       1.613  -1.491   0.666  1.00  0.00    -0.389 OA
ATOM     30  H1  UNL     1       1.324  -0.836   1.291  1.00  0.00     0.210 HD
ENDBRANCH   4  29
BRANCH  10  31
HETATM   31  O4  UNL     1      -4.397   3.764   0.334  1.00  0.00    -0.396 OA
ATOM     32  H4  UNL     1      -4.399   4.622   0.741  1.00  0.00     0.210 HD
ENDBRANCH  10  31
BRANCH   1  33
HETATM   33  C2  UNL     1       4.610  -1.180   1.041  1.00  0.00    -0.018 C 
HETATM   34  C1  UNL     1       5.677  -2.280   0.806  1.00  0.00     0.010 C 
HETATM   35  C3  UNL     1       5.422   0.040   1.446  1.00  0.00     0.010 C 
ENDBRANCH   1  33
TORSDOF 6
