REMARK  6 active torsions:
REMARK  status: ('A' for Active; 'I' for Inactive)
REMARK    1  A    between atoms: C2_2  and  C3_3 
REMARK    2  A    between atoms: C10_10  and  O1_11 
REMARK    3  A    between atoms: C13_15  and  C14_16 
REMARK    4  A    between atoms: C14_16  and  C16_18 
REMARK    5  A    between atoms: C20_23  and  O3_24 
REMARK    6  A    between atoms: C21_26  and  O4_27 
ROOT
HETATM    1  C14 UNL     1       0.096   0.688   0.320  1.00  0.00     0.018 C 
HETATM    2  C15 UNL     1      -0.417   2.069   0.094  1.00  0.00     0.013 C 
ENDROOT
BRANCH   1   3
HETATM    3  C13 UNL     1      -0.805  -0.402  -0.041  1.00  0.00     0.003 C 
HETATM    4  C12 UNL     1      -0.180  -1.778   0.167  1.00  0.00     0.009 C 
HETATM    5  C11 UNL     1      -1.321  -2.656  -0.279  1.00  0.00     0.039 C 
HETATM    6  C10 UNL     1      -2.578  -1.933   0.195  1.00  0.00     0.066 C 
HETATM    7  C9  UNL     1      -3.451  -1.802  -1.023  1.00  0.00     0.039 C 
HETATM    8  C27 UNL     1      -2.095  -0.567   0.722  1.00  0.00    -0.004 C 
HETATM    9  C8  UNL     1      -4.703  -1.033  -0.822  1.00  0.00     0.013 C 
HETATM   10  C6  UNL     1      -4.576  -0.147   0.349  1.00  0.00    -0.033 C 
HETATM   11  C3  UNL     1      -4.914   1.312   0.198  1.00  0.00     0.016 C 
HETATM   12  C5  UNL     1      -3.136   0.377   0.313  1.00  0.00     0.006 C 
HETATM   13  C7  UNL     1      -5.169  -0.583   1.636  1.00  0.00     0.016 C 
HETATM   14  C4  UNL     1      -3.671   1.479   1.107  1.00  0.00     0.015 C 
HETATM   15  C28 UNL     1      -1.886  -0.692   2.206  1.00  0.00     0.019 C 
BRANCH   6  16
HETATM   16  O1  UNL     1      -3.089  -2.740   1.187  1.00  0.00    -0.389 OA
ATOM     17  H1  UNL     1      -2.538  -2.823   1.956  1.00  0.00     0.210 HD
ENDBRANCH   6  16
BRANCH  11  18
HETATM   18  C2  UNL     1      -4.851   1.942  -1.104  1.00  0.00    -0.031 C 
HETATM   19  C1  UNL     1      -5.955   2.475  -1.607  1.00  0.00     0.007 C 
ENDBRANCH  11  18
ENDBRANCH   1   3
BRANCH   1  20
HETATM   20  C16 UNL     1       1.549   0.602  -0.088  1.00  0.00     0.154 C 
HETATM   21  O2  UNL     1       2.122  -0.474   0.470  1.00  0.00    -0.376 OA
HETATM   22  C17 UNL     1       3.462  -0.701   0.187  1.00  0.00     0.136 C 
HETATM   23  C18 UNL     1       3.805  -0.705  -1.247  1.00  0.00     0.046 C 
HETATM   24  C24 UNL     1       4.375   0.097   1.085  1.00  0.00    -0.021 C 
HETATM   25  C19 UNL     1       2.751  -0.153  -2.169  1.00  0.00     0.044 C 
HETATM   26  C21 UNL     1       5.169  -0.104  -1.575  1.00  0.00     0.124 C 
HETATM   27  C20 UNL     1       1.780   0.784  -1.556  1.00  0.00     0.148 C 
HETATM   28  C22 UNL     1       5.455   1.176  -0.908  1.00  0.00     0.033 C 
HETATM   29  C23 UNL     1       4.964   1.315   0.484  1.00  0.00     0.014 C 
HETATM   30  C25 UNL     1       5.533  -0.754   1.618  1.00  0.00     0.017 C 
HETATM   31  C26 UNL     1       3.564   0.524   2.307  1.00  0.00     0.017 C 
BRANCH  27  32
HETATM   32  O3  UNL     1       2.191   2.083  -1.899  1.00  0.00    -0.393 OA
ATOM     33  H3  UNL     1       2.338   2.198  -2.830  1.00  0.00     0.210 HD
ENDBRANCH  27  32
BRANCH  26  34
HETATM   34  O4  UNL     1       6.192  -1.057  -1.437  1.00  0.00    -0.395 OA
ATOM     35  H4  UNL     1       7.041  -0.683  -1.641  1.00  0.00     0.210 HD
ENDBRANCH  26  34
ENDBRANCH   1  20
TORSDOF 6
