REMARK  3 active torsions:
REMARK  status: ('A' for Active; 'I' for Inactive)
REMARK    1  A    between atoms: C2_2  and  N1_3 
REMARK    2  A    between atoms: C5_7  and  C6_8 
REMARK    3  A    between atoms: C7_9  and  C8_10 
ROOT
HETATM    1  C6  UNL     1      -1.198   0.498  -1.494  1.00  0.00     0.060 A 
HETATM    2  C7  UNL     1      -2.338  -0.121  -0.972  1.00  0.00     0.049 A 
HETATM    3  N2  UNL     1      -3.116  -0.496  -1.996  1.00  0.00    -0.300 N 
ATOM      4  H2  UNL     1      -4.013  -0.973  -1.905  1.00  0.00     0.186 HD
HETATM    5  N3  UNL     1      -2.551  -0.158  -3.138  1.00  0.00    -0.266 N 
ATOM      6  H3  UNL     1      -2.932  -0.327  -4.069  1.00  0.00     0.190 HD
HETATM    7  C12 UNL     1      -1.363   0.459  -2.855  1.00  0.00     0.272 A 
HETATM    8  O2  UNL     1      -0.564   0.915  -3.715  1.00  0.00    -0.266 OA
ENDROOT
BRANCH   1   9
HETATM    9  C5  UNL     1      -0.173   1.088  -0.687  1.00  0.00     0.054 C 
HETATM   10  C4  UNL     1       1.081   0.713  -0.505  1.00  0.00     0.106 A 
HETATM   11  C3  UNL     1       2.054   1.421   0.357  1.00  0.00     0.276 A 
HETATM   12  N4  UNL     1       1.788  -0.416  -0.996  1.00  0.00    -0.323 N 
HETATM   13  N1  UNL     1       3.277   0.710   0.350  1.00  0.00    -0.289 N 
HETATM   14  O1  UNL     1       1.808   2.480   0.983  1.00  0.00    -0.265 OA
HETATM   15  C14 UNL     1       3.138  -0.425  -0.478  1.00  0.00     0.183 A 
HETATM   16  S1  UNL     1       4.254  -1.579  -0.830  1.00  0.00    -0.040 SA
HETATM   17  C13 UNL     1       1.272  -1.472  -1.869  1.00  0.00     0.159 C 
BRANCH  13  18
HETATM   18  C2  UNL     1       4.449   1.105   1.083  1.00  0.00     0.130 C 
HETATM   19  C1  UNL     1       4.523   0.524   2.457  1.00  0.00     0.027 C 
ENDBRANCH  13  18
ENDBRANCH   1   9
BRANCH   2  20
HETATM   20  C8  UNL     1      -2.605  -0.305   0.474  1.00  0.00    -0.006 C 
HETATM   21  C9  UNL     1      -3.952  -1.026   0.630  1.00  0.00     0.021 C 
HETATM   22  C10 UNL     1      -2.783   1.040   1.164  1.00  0.00     0.021 C 
HETATM   23  C11 UNL     1      -1.566  -1.150   1.154  1.00  0.00     0.021 C 
ENDBRANCH   2  20
TORSDOF 3
