REMARK  4 active torsions:
REMARK  status: ('A' for Active; 'I' for Inactive)
REMARK    1  A    between atoms: C2_2  and  N1_3 
REMARK    2  A    between atoms: C2_2  and  C3_7 
REMARK    3  A    between atoms: C3_7  and  N2_8 
REMARK    4  A    between atoms: C3_7  and  C4_12 
ROOT
HETATM    1  C3  UNL     1      -0.403  -0.609   0.077  1.00  0.00     0.266 C 
ENDROOT
BRANCH   1   2
HETATM    2  C2  UNL     1      -1.691   0.237   0.011  1.00  0.00     0.215 C 
HETATM    3  C1  UNL     1      -2.891  -0.644   0.315  1.00  0.00     0.042 C 
BRANCH   2   4
HETATM    4  N1  UNL     1      -1.648   1.294   0.990  1.00  0.00    -0.073 N 
ATOM      5  H13 UNL     1      -2.520   1.821   1.038  1.00  0.00     0.274 HD
ATOM      6  H12 UNL     1      -1.645   0.943   1.948  1.00  0.00     0.274 HD
ATOM      7  H11 UNL     1      -0.842   1.885   0.786  1.00  0.00     0.274 HD
ENDBRANCH   2   4
ENDBRANCH   1   2
BRANCH   1   8
HETATM    8  N2  UNL     1      -0.614  -1.639  -0.920  1.00  0.00    -0.068 N 
ATOM      9  H23 UNL     1      -1.474  -2.173  -0.798  1.00  0.00     0.275 HD
ATOM     10  H22 UNL     1      -0.837  -1.285  -1.850  1.00  0.00     0.275 HD
ATOM     11  H21 UNL     1       0.238  -2.198  -0.876  1.00  0.00     0.275 HD
ENDBRANCH   1   8
BRANCH   1  12
HETATM   12  C4  UNL     1       0.732   0.282  -0.205  1.00  0.00     0.084 A 
HETATM   13  N3  UNL     1       0.746   1.486  -0.786  1.00  0.00    -0.351 N 
HETATM   14  C5  UNL     1       2.012   1.942  -0.873  1.00  0.00     0.182 A 
ATOM     15  H3  UNL     1      -0.080   1.986  -1.115  1.00  0.00     0.166 HD
HETATM   16  N4  UNL     1       2.851   1.040  -0.347  1.00  0.00    -0.339 N 
HETATM   17  C6  UNL     1       2.068   0.002   0.071  1.00  0.00     0.142 A 
ATOM     18  H4  UNL     1       3.866   1.113  -0.274  1.00  0.00     0.167 HD
HETATM   19  N5  UNL     1       2.563  -1.164   0.707  1.00  0.00    -0.081 NA
ENDBRANCH   1  12
TORSDOF 4
