REMARK  12 active torsions:
REMARK  status: ('A' for Active; 'I' for Inactive)
REMARK    1  A    between atoms: C8_8  and  C9_9 
REMARK    2  A    between atoms: C9_9  and  C10_10 
REMARK       I    between atoms: C10_10  and  N1_12 
REMARK    3  A    between atoms: N2_15  and  C13_16 
REMARK    4  A    between atoms: C13_16  and  C14_17 
REMARK    5  A    between atoms: C14_17  and  O2_18 
REMARK    6  A    between atoms: C23_30  and  S1_31 
REMARK    7  A    between atoms: S1_31  and  S2_32 
REMARK    8  A    between atoms: S2_32  and  C24_33 
REMARK    9  A    between atoms: C24_33  and  C25_34 
REMARK   10  A    between atoms: C25_34  and  N3_35 
REMARK   11  A    between atoms: N3_35  and  C26_37 
REMARK   12  A    between atoms: C26_37  and  C27_38 
ROOT
HETATM    1  C1  UNL     1      -1.888   0.879   0.624  1.00  0.00     0.017 C 
HETATM    2  C2  UNL     1      -2.146  -0.274  -0.355  1.00  0.00    -0.019 C 
HETATM    3  C3  UNL     1      -2.809  -1.367   0.413  1.00  0.00     0.011 C 
HETATM    4  C4  UNL     1      -1.916  -2.276   1.169  1.00  0.00     0.007 C 
HETATM    5  C5  UNL     1      -0.584  -2.530   0.566  1.00  0.00     0.002 C 
HETATM    6  C6  UNL     1       0.482  -2.085   1.519  1.00  0.00     0.006 C 
HETATM    7  C7  UNL     1       1.866  -2.550   1.127  1.00  0.00     0.013 C 
HETATM    8  C8  UNL     1       2.180  -2.249  -0.307  1.00  0.00     0.065 C 
HETATM    9  C17 UNL     1       1.018  -2.199  -1.211  1.00  0.00     0.141 C 
HETATM   10  O3  UNL     1       1.322  -2.323  -2.415  1.00  0.00    -0.297 OA
HETATM   11  C18 UNL     1      -0.401  -2.026  -0.841  1.00  0.00     0.032 C 
HETATM   12  C19 UNL     1      -1.231  -2.967  -1.730  1.00  0.00     0.025 C 
HETATM   13  C20 UNL     1      -0.897  -0.646  -1.079  1.00  0.00     0.080 C 
HETATM   14  C21 UNL     1      -1.175  -0.328  -2.481  1.00  0.00     0.134 C 
HETATM   15  O4  UNL     1      -0.679  -0.694  -3.543  1.00  0.00    -0.297 OA
HETATM   16  C22 UNL     1      -2.320   0.656  -2.538  1.00  0.00     0.095 C 
HETATM   17  C23 UNL     1      -3.168   0.198  -1.377  1.00  0.00     0.074 C 
ENDROOT
BRANCH   8  18
HETATM   18  C9  UNL     1       3.074  -1.041  -0.483  1.00  0.00     0.115 C 
BRANCH  18  19
HETATM   19  C10 UNL     1       4.382  -1.216   0.167  1.00  0.00     0.220 C 
HETATM   20  O1  UNL     1       4.638  -2.373   0.641  1.00  0.00    -0.273 OA
HETATM   21  N1  UNL     1       5.376  -0.220   0.312  1.00  0.00    -0.349 N 
HETATM   22  C11 UNL     1       6.623  -0.588   0.972  1.00  0.00     0.156 C 
HETATM   23  C16 UNL     1       5.105   1.108  -0.193  1.00  0.00     0.156 C 
HETATM   24  C12 UNL     1       7.524   0.596   1.226  1.00  0.00     0.292 C 
HETATM   25  N2  UNL     1       7.488   1.419   0.013  1.00  0.00     0.093 N 
HETATM   26  C15 UNL     1       6.204   2.095   0.056  1.00  0.00     0.292 C 
BRANCH  25  27
HETATM   27  C13 UNL     1       8.605   2.307   0.088  1.00  0.00     0.298 C 
BRANCH  27  28
HETATM   28  C14 UNL     1       8.737   3.225  -1.099  1.00  0.00     0.194 C 
BRANCH  28  29
HETATM   29  O2  UNL     1       8.894   2.499  -2.284  1.00  0.00    -0.399 OA
ATOM     30  H2  UNL     1       8.977   3.078  -3.033  1.00  0.00     0.209 HD
ENDBRANCH  28  29
ENDBRANCH  27  28
ENDBRANCH  25  27
ENDBRANCH  18  19
ENDBRANCH   8  18
BRANCH  17  31
HETATM   31  S1  UNL     1      -4.105   1.632  -0.804  1.00  0.00    -0.091 SA
BRANCH  31  32
HETATM   32  S2  UNL     1      -5.295   1.229   0.871  1.00  0.00    -0.096 SA
BRANCH  32  33
HETATM   33  C24 UNL     1      -6.930   0.673   0.421  1.00  0.00     0.105 C 
BRANCH  33  34
HETATM   34  C25 UNL     1      -7.769   1.722  -0.278  1.00  0.00     0.125 C 
BRANCH  34  35
HETATM   35  N3  UNL     1      -9.061   1.201  -0.585  1.00  0.00    -0.413 N 
ATOM     36  H3  UNL     1      -9.362   1.022  -1.543  1.00  0.00     0.153 HD
BRANCH  35  37
HETATM   37  C26 UNL     1      -9.909   0.945   0.546  1.00  0.00     0.206 C 
BRANCH  37  38
HETATM   38  C27 UNL     1     -10.376   2.145   1.261  1.00  0.00     0.213 C 
HETATM   39  O5  UNL     1     -10.074   3.250   0.881  1.00  0.00    -0.283 OA
HETATM   40  S3  UNL     1     -11.404   1.983   2.708  1.00  0.00    -0.010 SA
ENDBRANCH  37  38
ENDBRANCH  35  37
ENDBRANCH  34  35
ENDBRANCH  33  34
ENDBRANCH  32  33
ENDBRANCH  31  32
ENDBRANCH  17  31
TORSDOF 12
