REMARK  12 active torsions:
REMARK  status: ('A' for Active; 'I' for Inactive)
REMARK    1  A    between atoms: O1_2  and  C2_3 
REMARK    2  A    between atoms: C2_3  and  C3_5 
REMARK    3  A    between atoms: C3_5  and  C4_6 
REMARK    4  A    between atoms: C4_6  and  C5_7 
REMARK       I    between atoms: N1_8  and  C6_10 
REMARK    5  A    between atoms: C6_10  and  C7_12 
REMARK    6  A    between atoms: C8_13  and  C9_14 
REMARK       I    between atoms: C9_14  and  N2_16 
REMARK    7  A    between atoms: N2_16  and  C10_18 
REMARK    8  A    between atoms: C10_18  and  C11_19 
REMARK    9  A    between atoms: C11_19  and  C12_20 
REMARK   10  A    between atoms: C12_20  and  N3_21 
REMARK       I    between atoms: N3_21  and  C13_23 
REMARK   11  A    between atoms: C13_23  and  C14_25 
REMARK   12  A    between atoms: N4_27  and  C16_28 
ROOT
HETATM    1  C7  UNL     1      -2.772   0.354  -0.165  1.00  0.00     0.121 C 
HETATM    2  C8  UNL     1      -1.618   1.250  -0.075  1.00  0.00     0.094 C 
HETATM    3  C21 UNL     1      -1.488   2.264  -1.137  1.00  0.00     0.020 C 
HETATM    4  C22 UNL     1      -2.447   2.196  -2.288  1.00  0.00    -0.000 C 
HETATM    5  C23 UNL     1      -2.119   1.197  -3.335  1.00  0.00     0.037 C 
HETATM    6  C24 UNL     1      -2.752  -0.142  -3.167  1.00  0.00     0.118 C 
HETATM    7  C25 UNL     1      -3.326  -0.591  -4.526  1.00  0.00     0.039 C 
HETATM    8  O6  UNL     1      -3.768  -0.237  -2.291  1.00  0.00    -0.379 OA
HETATM    9  C26 UNL     1      -3.821   0.576  -1.196  1.00  0.00     0.144 C 
HETATM   10  C27 UNL     1      -3.813   2.007  -1.681  1.00  0.00    -0.009 A 
HETATM   11  C28 UNL     1      -4.478   3.107  -0.993  1.00  0.00     0.013 A 
HETATM   12  C29 UNL     1      -5.000   2.594  -2.347  1.00  0.00     0.013 A 
ENDROOT
BRANCH   2  13
HETATM   13  C9  UNL     1      -0.346   0.364  -0.149  1.00  0.00     0.226 C 
HETATM   14  O4  UNL     1       0.497   0.680  -0.991  1.00  0.00    -0.273 OA
HETATM   15  N2  UNL     1      -0.287  -0.701   0.745  1.00  0.00    -0.337 N 
ATOM     16  H2  UNL     1      -1.109  -0.754   1.347  1.00  0.00     0.168 HD
BRANCH  15  17
HETATM   17  C10 UNL     1       0.647  -1.725   1.012  1.00  0.00     0.092 C 
BRANCH  17  18
HETATM   18  C11 UNL     1       1.067  -2.692   0.015  1.00  0.00     0.034 C 
BRANCH  18  19
HETATM   19  C12 UNL     1       1.878  -2.363  -1.146  1.00  0.00     0.092 C 
BRANCH  19  20
HETATM   20  N3  UNL     1       3.222  -1.980  -1.079  1.00  0.00    -0.332 N 
HETATM   21  C13 UNL     1       3.873  -0.925  -0.457  1.00  0.00     0.274 C 
HETATM   22  O5  UNL     1       3.323  -0.054   0.217  1.00  0.00    -0.266 OA
ATOM     23  H3  UNL     1       3.849  -2.601  -1.590  1.00  0.00     0.168 HD
BRANCH  21  24
HETATM   24  C14 UNL     1       5.357  -0.781  -0.573  1.00  0.00     0.131 A 
HETATM   25  C15 UNL     1       6.101   0.190   0.040  1.00  0.00     0.144 A 
HETATM   26  N4  UNL     1       7.406   0.019  -0.297  1.00  0.00    -0.280 N 
HETATM   27  N5  UNL     1       7.439  -1.037  -1.096  1.00  0.00    -0.020 NA
HETATM   28  N6  UNL     1       6.211  -1.526  -1.268  1.00  0.00    -0.278 N 
ATOM     29  H6  UNL     1       5.967  -2.336  -1.838  1.00  0.00     0.184 HD
BRANCH  26  30
HETATM   30  C16 UNL     1       8.521   0.827   0.131  1.00  0.00     0.105 C 
HETATM   31  C17 UNL     1       9.443   1.218  -0.985  1.00  0.00     0.027 C 
HETATM   32  C18 UNL     1      10.826   0.809  -0.517  1.00  0.00     0.002 C 
HETATM   33  C19 UNL     1      10.519  -0.417   0.306  1.00  0.00     0.002 C 
HETATM   34  C20 UNL     1       9.367   0.076   1.155  1.00  0.00     0.027 C 
ENDBRANCH  26  30
ENDBRANCH  21  24
ENDBRANCH  19  20
ENDBRANCH  18  19
ENDBRANCH  17  18
ENDBRANCH  15  17
ENDBRANCH   2  13
BRANCH   1  35
HETATM   35  C6  UNL     1      -3.521   0.309   1.161  1.00  0.00     0.228 C 
HETATM   36  N1  UNL     1      -4.498  -0.667   1.369  1.00  0.00    -0.340 N 
HETATM   37  C5  UNL     1      -4.628  -1.313   2.485  1.00  0.00     0.064 C 
ATOM     38  H1  UNL     1      -5.140  -0.882   0.606  1.00  0.00     0.167 HD
HETATM   39  O3  UNL     1      -3.229   1.154   2.011  1.00  0.00    -0.273 OA
BRANCH  37  40
HETATM   40  C4  UNL     1      -5.622  -2.340   2.766  1.00  0.00     0.054 C 
BRANCH  40  41
HETATM   41  C3  UNL     1      -6.388  -2.101   4.045  1.00  0.00     0.116 C 
BRANCH  41  42
HETATM   42  C2  UNL     1      -7.136  -0.835   4.029  1.00  0.00     0.258 C 
HETATM   43  O2  UNL     1      -7.091  -0.099   3.033  1.00  0.00    -0.265 OA
BRANCH  42  44
HETATM   44  O1  UNL     1      -7.883  -0.478   5.125  1.00  0.00    -0.326 OA
HETATM   45  C1  UNL     1      -8.637   0.701   5.222  1.00  0.00     0.213 C 
ENDBRANCH  42  44
ENDBRANCH  41  42
ENDBRANCH  40  41
ENDBRANCH  37  40
ENDBRANCH   1  35
TORSDOF 12
