REMARK  3 active torsions:
REMARK  status: ('A' for Active; 'I' for Inactive)
REMARK    1  A    between atoms: C4_4  and  N1_5 
REMARK       I    between atoms: N1_5  and  C5_7 
REMARK    2  A    between atoms: C5_7  and  C6_9 
REMARK    3  A    between atoms: C9_15  and  C10_16 
REMARK       I    between atoms: C10_16  and  N4_18 
ROOT
HETATM    1  C6  UNL     1      -0.913   1.127  -0.519  1.00  0.00     0.101 A 
HETATM    2  C7  UNL     1      -0.175  -0.043  -0.707  1.00  0.00     0.068 A 
HETATM    3  C8  UNL     1      -0.784  -1.314  -1.158  1.00  0.00     0.072 C 
HETATM    4  N2  UNL     1       1.160   0.015  -0.461  1.00  0.00    -0.088 N 
HETATM    5  N3  UNL     1       2.076  -0.927  -0.556  1.00  0.00    -0.259 N 
ATOM      6  H3  UNL     1       1.885  -1.886  -0.847  1.00  0.00     0.190 HD
HETATM    7  C9  UNL     1       3.306  -0.461  -0.218  1.00  0.00     0.205 A 
HETATM    8  N5  UNL     1       3.109   0.821   0.093  1.00  0.00    -0.168 N 
ATOM      9  H5  UNL     1       3.829   1.478   0.394  1.00  0.00     0.186 HD
HETATM   10  C13 UNL     1       1.779   1.109  -0.059  1.00  0.00     0.707 A 
HETATM   11  N6  UNL     1       1.093   2.235   0.126  1.00  0.00    -0.174 N 
ATOM     12  H6  UNL     1       1.577   3.078   0.437  1.00  0.00     0.186 HD
HETATM   13  C14 UNL     1      -0.271   2.270  -0.100  1.00  0.00     0.132 A 
HETATM   14  N7  UNL     1      -0.859   3.364   0.094  1.00  0.00    -0.384 N 
ATOM     15  H71 UNL     1      -0.383   4.211   0.405  1.00  0.00     0.157 HD
ATOM     16  H72 UNL     1      -1.865   3.390  -0.073  1.00  0.00     0.157 HD
ENDROOT
BRANCH   1  17
HETATM   17  C5  UNL     1      -2.331   1.084  -0.770  1.00  0.00     0.263 C 
HETATM   18  N1  UNL     1      -3.069  -0.060  -1.194  1.00  0.00    -0.307 N 
ATOM     19  H1  UNL     1      -2.651  -0.644  -1.918  1.00  0.00     0.170 HD
HETATM   20  O1  UNL     1      -3.066   2.098  -0.630  1.00  0.00    -0.267 OA
BRANCH  18  21
HETATM   21  C4  UNL     1      -4.210  -0.414  -0.743  1.00  0.00     0.130 A 
HETATM   22  C3  UNL     1      -4.969   0.202   0.224  1.00  0.00     0.084 A 
HETATM   23  C2  UNL     1      -6.113  -0.544   0.367  1.00  0.00     0.076 A 
HETATM   24  C1  UNL     1      -7.242  -0.249   1.318  1.00  0.00     0.079 C 
HETATM   25  O3  UNL     1      -6.034  -1.534  -0.459  1.00  0.00    -0.241 OA
HETATM   26  N8  UNL     1      -4.924  -1.492  -1.133  1.00  0.00    -0.245 N 
ATOM     27  H8  UNL     1      -4.638  -2.166  -1.843  1.00  0.00     0.196 HD
ENDBRANCH  18  21
ENDBRANCH   1  17
BRANCH   7  28
HETATM   28  C10 UNL     1       4.530  -1.273  -0.225  1.00  0.00     0.288 C 
HETATM   29  O2  UNL     1       4.442  -2.509  -0.573  1.00  0.00    -0.264 OA
HETATM   30  N4  UNL     1       5.764  -0.714   0.139  1.00  0.00    -0.354 N 
HETATM   31  C11 UNL     1       5.875   0.659   0.528  1.00  0.00     0.152 C 
HETATM   32  C12 UNL     1       6.953  -1.550   0.119  1.00  0.00     0.152 C 
ENDBRANCH   7  28
TORSDOF 3
