REMARK  7 active torsions:
REMARK  status: ('A' for Active; 'I' for Inactive)
REMARK    1  A    between atoms: C5_5  and  N1_6 
REMARK    2  A    between atoms: N1_6  and  C6_8 
REMARK    3  A    between atoms: C6_8  and  S2_10 
REMARK    4  A    between atoms: S2_10  and  C7_11 
REMARK    5  A    between atoms: C7_11  and  C8_12 
REMARK    6  A    between atoms: C8_12  and  C9_13 
REMARK    7  A    between atoms: C9_13  and  N2_14 
ROOT
HETATM    1  N1  UNL     1       0.084   0.463  -0.924  1.00  0.00    -0.366 N 
ATOM      2  H1  UNL     1       0.734   0.667  -0.165  1.00  0.00     0.161 HD
ENDROOT
BRANCH   1   3
HETATM    3  C5  UNL     1      -1.271   0.133  -0.554  1.00  0.00     0.032 C 
HETATM    4  C4  UNL     1      -1.599  -1.289  -0.952  1.00  0.00     0.032 C 
HETATM    5  C3  UNL     1      -3.033  -1.627  -0.626  1.00  0.00     0.012 C 
HETATM    6  C2  UNL     1      -3.850  -0.534  -0.063  1.00  0.00    -0.040 C 
HETATM    7  C1  UNL     1      -5.321  -0.859  -0.355  1.00  0.00     0.015 C 
HETATM    8  C16 UNL     1      -3.600   0.845  -0.530  1.00  0.00    -0.004 C 
HETATM    9  C18 UNL     1      -3.626  -0.538   1.454  1.00  0.00     0.014 C 
HETATM   10  C15 UNL     1      -3.408   1.665   0.746  1.00  0.00     0.010 C 
HETATM   11  C17 UNL     1      -2.252   0.999  -1.265  1.00  0.00     0.036 C 
HETATM   12  C14 UNL     1      -2.625   0.622   1.553  1.00  0.00    -0.011 C 
HETATM   13  C13 UNL     1      -1.329   0.279   0.960  1.00  0.00     0.035 C 
ENDBRANCH   1   3
BRANCH   1  14
HETATM   14  C6  UNL     1       0.585   0.529  -2.218  1.00  0.00     0.135 C 
HETATM   15  S1  UNL     1      -0.255   0.275  -3.586  1.00  0.00    -0.053 SA
BRANCH  14  16
HETATM   16  S2  UNL     1       2.334   0.944  -2.487  1.00  0.00    -0.101 SA
BRANCH  16  17
HETATM   17  C7  UNL     1       3.168   0.944  -0.883  1.00  0.00     0.083 C 
BRANCH  17  18
HETATM   18  C8  UNL     1       3.254  -0.466  -0.381  1.00  0.00     0.031 C 
BRANCH  18  19
HETATM   19  C9  UNL     1       3.905  -0.576   0.963  1.00  0.00     0.130 C 
BRANCH  19  20
HETATM   20  N2  UNL     1       5.255  -0.065   0.895  1.00  0.00    -0.352 N 
HETATM   21  C10 UNL     1       6.307  -0.866   0.571  1.00  0.00     0.108 A 
HETATM   22  C11 UNL     1       7.421  -0.080   0.611  1.00  0.00     0.106 A 
HETATM   23  N3  UNL     1       7.028   1.157   0.952  1.00  0.00    -0.361 N 
HETATM   24  C12 UNL     1       5.706   1.180   1.128  1.00  0.00     0.182 A 
ATOM     25  H3  UNL     1       7.648   1.960   1.060  1.00  0.00     0.166 HD
ENDBRANCH  19  20
ENDBRANCH  18  19
ENDBRANCH  17  18
ENDBRANCH  16  17
ENDBRANCH  14  16
ENDBRANCH   1  14
TORSDOF 7
