REMARK  15 active torsions:
REMARK  status: ('A' for Active; 'I' for Inactive)
REMARK    1  A    between atoms: C2_2  and  C5_5 
REMARK    2  A    between atoms: C6_6  and  O1_7 
REMARK    3  A    between atoms: C7_9  and  O2_10 
REMARK    4  A    between atoms: C8_12  and  C9_13 
REMARK    5  A    between atoms: C10_14  and  C11_15 
REMARK    6  A    between atoms: C11_15  and  C12_16 
REMARK    7  A    between atoms: C12_16  and  C13_17 
REMARK    8  A    between atoms: C13_17  and  C14_18 
REMARK    9  A    between atoms: C14_18  and  C15_19 
REMARK   10  A    between atoms: C15_19  and  C16_20 
REMARK   11  A    between atoms: C16_20  and  O3_26 
REMARK   12  A    between atoms: N1_21  and  N2_23 
REMARK   13  A    between atoms: O3_26  and  C17_27 
REMARK   14  A    between atoms: C20_31  and  O4_32 
REMARK   15  A    between atoms: C21_34  and  O5_35 
ROOT
HETATM    1  C17 UNL     1       6.127   0.852   1.423  1.00  0.00     0.154 C 
HETATM    2  C18 UNL     1       6.903   0.102   2.187  1.00  0.00     0.118 C 
HETATM    3  C19 UNL     1       6.962  -1.305   1.928  1.00  0.00     0.089 C 
HETATM    4  N3  UNL     1       7.004  -2.465   1.730  1.00  0.00    -0.192 NA
ENDROOT
BRANCH   1   5
HETATM    5  O3  UNL     1       5.385   0.334   0.402  1.00  0.00    -0.308 OA
BRANCH   5   6
HETATM    6  C16 UNL     1       5.574   0.560  -0.918  1.00  0.00     0.137 C 
HETATM    7  N1  UNL     1       6.654   1.192  -1.303  1.00  0.00    -0.290 N 
ATOM      8  H1  UNL     1       6.765   1.345  -2.305  1.00  0.00     0.188 HD
BRANCH   6   9
HETATM    9  C15 UNL     1       4.608   0.125  -1.995  1.00  0.00     0.086 C 
BRANCH   9  10
HETATM   10  C14 UNL     1       4.374  -1.331  -1.953  1.00  0.00     0.008 C 
BRANCH  10  11
HETATM   11  C13 UNL     1       3.757  -1.972  -0.781  1.00  0.00     0.001 C 
BRANCH  11  12
HETATM   12  C12 UNL     1       2.359  -1.707  -0.390  1.00  0.00     0.004 C 
BRANCH  12  13
HETATM   13  C11 UNL     1       1.921  -0.340  -0.043  1.00  0.00     0.027 C 
BRANCH  13  14
HETATM   14  C10 UNL     1       0.438  -0.498   0.367  1.00  0.00    -0.026 C 
HETATM   15  C9  UNL     1      -0.428   0.131  -0.331  1.00  0.00     0.013 C 
BRANCH  15  16
HETATM   16  C8  UNL     1      -1.858   0.150  -0.156  1.00  0.00     0.035 A 
HETATM   17  C7  UNL     1      -2.634   0.916  -1.073  1.00  0.00     0.112 A 
HETATM   18  C6  UNL     1      -3.995   0.977  -0.942  1.00  0.00     0.109 A 
HETATM   19  C5  UNL     1      -4.665   0.309   0.071  1.00  0.00     0.021 A 
HETATM   20  C21 UNL     1      -3.906  -0.424   0.946  1.00  0.00     0.109 A 
HETATM   21  C20 UNL     1      -2.525  -0.513   0.849  1.00  0.00     0.112 A 
BRANCH  17  22
HETATM   22  O2  UNL     1      -1.960   1.568  -2.065  1.00  0.00    -0.357 OA
ATOM     23  H2  UNL     1      -1.015   1.526  -2.156  1.00  0.00     0.217 HD
ENDBRANCH  17  22
BRANCH  18  24
HETATM   24  O1  UNL     1      -4.719   1.741  -1.867  1.00  0.00    -0.357 OA
ATOM     25  H1  UNL     1      -4.260   2.199  -2.561  1.00  0.00     0.217 HD
ENDBRANCH  18  24
BRANCH  19  26
HETATM   26  C2  UNL     1      -6.100   0.436   0.146  1.00  0.00    -0.018 C 
HETATM   27  C1  UNL     1      -6.507   1.912   0.346  1.00  0.00     0.019 C 
HETATM   28  C3  UNL     1      -6.683   0.035  -1.218  1.00  0.00     0.019 C 
HETATM   29  C4  UNL     1      -6.840  -0.338   1.166  1.00  0.00     0.019 C 
ENDBRANCH  19  26
BRANCH  20  30
HETATM   30  O5  UNL     1      -4.584  -1.073   1.934  1.00  0.00    -0.357 OA
ATOM     31  H5  UNL     1      -4.058  -1.581   2.540  1.00  0.00     0.217 HD
ENDBRANCH  20  30
BRANCH  21  32
HETATM   32  O4  UNL     1      -1.829  -1.265   1.762  1.00  0.00    -0.357 OA
ATOM     33  H4  UNL     1      -2.289  -1.723   2.456  1.00  0.00     0.217 HD
ENDBRANCH  21  32
ENDBRANCH  15  16
ENDBRANCH  13  14
ENDBRANCH  12  13
ENDBRANCH  11  12
ENDBRANCH  10  11
ENDBRANCH   9  10
ENDBRANCH   6   9
BRANCH   7  34
HETATM   34  N2  UNL     1       7.652   1.669  -0.490  1.00  0.00    -0.343 N 
ATOM     35  H22 UNL     1       7.524   1.507   0.509  1.00  0.00     0.176 HD
ATOM     36  H21 UNL     1       8.493   2.161  -0.790  1.00  0.00     0.176 HD
ENDBRANCH   7  34
ENDBRANCH   5   6
ENDBRANCH   1   5
TORSDOF 15
