REMARK  12 active torsions:
REMARK  status: ('A' for Active; 'I' for Inactive)
REMARK    1  A    between atoms: C3_3  and  O1_4 
REMARK    2  A    between atoms: C6_8  and  O2_9 
REMARK    3  A    between atoms: C7_11  and  S1_12 
REMARK    4  A    between atoms: S1_12  and  C8_13 
REMARK    5  A    between atoms: C8_13  and  C9_14 
REMARK    6  A    between atoms: C10_15  and  C11_16 
REMARK    7  A    between atoms: C11_16  and  C12_17 
REMARK    8  A    between atoms: C12_17  and  C13_18 
REMARK    9  A    between atoms: C13_18  and  C14_19 
REMARK   10  A    between atoms: C14_19  and  C15_20 
REMARK   11  A    between atoms: C15_20  and  N2_24 
REMARK   12  A    between atoms: N2_24  and  N3_26 
ROOT
HETATM    1  C1  UNL     1      -0.351  -0.639   2.134  1.00  0.00     0.052 C 
HETATM    2  C2  UNL     1      -1.597  -0.457   1.305  1.00  0.00    -0.009 A 
HETATM    3  C3  UNL     1      -2.598   0.374   1.761  1.00  0.00     0.081 A 
HETATM    4  C4  UNL     1      -3.779   0.586   1.066  1.00  0.00     0.005 A 
HETATM    5  C5  UNL     1      -3.979  -0.056  -0.139  1.00  0.00     0.072 A 
HETATM    6  C6  UNL     1      -2.989  -0.879  -0.592  1.00  0.00     0.110 A 
HETATM    7  C7  UNL     1      -1.791  -1.099   0.103  1.00  0.00     0.045 A 
HETATM    8  N4  UNL     1      -5.199   0.159  -0.857  1.00  0.00    -0.379 N 
ATOM      9  H4  UNL     1      -5.243   0.079  -1.873  1.00  0.00     0.160 HD
HETATM   10  C16 UNL     1      -6.384   0.501  -0.060  1.00  0.00     0.023 C 
HETATM   11  C17 UNL     1      -7.532   0.882  -0.946  1.00  0.00     0.038 C 
HETATM   12  C18 UNL     1      -6.825  -0.703   0.757  1.00  0.00     0.038 C 
HETATM   13  C19 UNL     1      -6.015   1.655   0.805  1.00  0.00     0.035 C 
HETATM   14  C20 UNL     1      -4.794   1.493   1.636  1.00  0.00     0.046 C 
ENDROOT
BRANCH   7  15
HETATM   15  S1  UNL     1      -0.550  -2.169  -0.543  1.00  0.00    -0.123 SA
BRANCH  15  16
HETATM   16  C8  UNL     1       0.574  -1.272  -1.604  1.00  0.00     0.106 C 
BRANCH  16  17
HETATM   17  C9  UNL     1       1.393  -0.259  -0.924  1.00  0.00    -0.020 C 
HETATM   18  C10 UNL     1       2.706  -0.362  -0.932  1.00  0.00    -0.030 C 
BRANCH  18  19
HETATM   19  C11 UNL     1       3.629   0.598  -0.282  1.00  0.00     0.027 C 
BRANCH  19  20
HETATM   20  C12 UNL     1       4.480  -0.066   0.775  1.00  0.00     0.004 C 
BRANCH  20  21
HETATM   21  C13 UNL     1       5.331  -1.170   0.248  1.00  0.00     0.008 C 
BRANCH  21  22
HETATM   22  C14 UNL     1       6.309  -0.763  -0.810  1.00  0.00     0.077 C 
BRANCH  22  23
HETATM   23  C15 UNL     1       7.265   0.258  -0.339  1.00  0.00     0.088 C 
HETATM   24  N1  UNL     1       7.333   1.393  -0.936  1.00  0.00    -0.388 N 
ATOM     25  H12 UNL     1       6.721   1.574  -1.732  1.00  0.00     0.157 HD
ATOM     26  H11 UNL     1       7.994   2.099  -0.610  1.00  0.00     0.157 HD
BRANCH  23  27
HETATM   27  N2  UNL     1       8.115   0.007   0.766  1.00  0.00    -0.296 N 
ATOM     28  H2  UNL     1       8.141  -0.926   1.178  1.00  0.00     0.187 HD
BRANCH  27  29
HETATM   29  N3  UNL     1       8.918   1.016   1.300  1.00  0.00    -0.344 N 
ATOM     30  H32 UNL     1       8.880   1.943   0.876  1.00  0.00     0.176 HD
ATOM     31  H31 UNL     1       9.530   0.835   2.096  1.00  0.00     0.176 HD
ENDBRANCH  27  29
ENDBRANCH  23  27
ENDBRANCH  22  23
ENDBRANCH  21  22
ENDBRANCH  20  21
ENDBRANCH  19  20
ENDBRANCH  18  19
ENDBRANCH  16  17
ENDBRANCH  15  16
ENDBRANCH   7  15
BRANCH   6  32
HETATM   32  O2  UNL     1      -3.212  -1.521  -1.819  1.00  0.00    -0.357 OA
ATOM     33  H2  UNL     1      -2.523  -2.094  -2.134  1.00  0.00     0.217 HD
ENDBRANCH   6  32
BRANCH   3  34
HETATM   34  O1  UNL     1      -2.399   1.030   2.988  1.00  0.00    -0.359 OA
ATOM     35  H1  UNL     1      -3.089   1.603   3.302  1.00  0.00     0.217 HD
ENDBRANCH   3  34
TORSDOF 12
