REMARK  15 active torsions:
REMARK  status: ('A' for Active; 'I' for Inactive)
REMARK    1  A    between atoms: O1_2  and  C2_3 
REMARK    2  A    between atoms: C3_4  and  O2_5 
REMARK    3  A    between atoms: C4_7  and  O3_8 
REMARK    4  A    between atoms: N1_10  and  C5_11 
REMARK    5  A    between atoms: C5_11  and  C6_12 
REMARK    6  A    between atoms: C7_13  and  C8_14 
REMARK    7  A    between atoms: C9_15  and  C10_16 
REMARK    8  A    between atoms: C11_17  and  C12_18 
REMARK    9  A    between atoms: C13_19  and  C14_20 
REMARK   10  A    between atoms: C15_21  and  C16_22 
REMARK   11  A    between atoms: C17_23  and  C18_24 
REMARK   12  A    between atoms: C18_24  and  C19_25 
REMARK   13  A    between atoms: C20_26  and  O4_27 
REMARK   14  A    between atoms: C23_33  and  O5_34 
REMARK   15  A    between atoms: C24_36  and  O6_37 
ROOT
HETATM    1  C10 UNL     1      -1.561  -0.725   1.181  1.00  0.00     0.000 C 
HETATM    2  C11 UNL     1      -0.254  -0.872   1.166  1.00  0.00     0.000 C 
ENDROOT
BRANCH   1   3
HETATM    3  C9  UNL     1      -2.149   0.584   1.326  1.00  0.00     0.000 C 
HETATM    4  C8  UNL     1      -3.451   0.754   1.343  1.00  0.00    -0.000 C 
BRANCH   4   5
HETATM    5  C7  UNL     1      -4.381  -0.341   1.218  1.00  0.00    -0.002 C 
HETATM    6  C6  UNL     1      -5.700  -0.111   1.240  1.00  0.00    -0.007 C 
BRANCH   6   7
HETATM    7  C5  UNL     1      -6.665  -1.219   1.114  1.00  0.00     0.160 C 
BRANCH   7   8
HETATM    8  N1  UNL     1      -7.476  -0.972  -0.070  1.00  0.00    -0.300 N 
HETATM    9  C4  UNL     1      -7.159  -1.416  -1.294  1.00  0.00     0.181 A 
HETATM   10  C3  UNL     1      -8.149  -0.999  -2.184  1.00  0.00     0.155 A 
HETATM   11  C2  UNL     1      -9.084  -0.284  -1.464  1.00  0.00     0.157 A 
HETATM   12  C24 UNL     1      -8.633  -0.290  -0.161  1.00  0.00     0.181 A 
BRANCH   9  13
HETATM   13  O3  UNL     1      -6.064  -2.165  -1.710  1.00  0.00    -0.344 OA
ATOM     14  H3  UNL     1      -5.390  -2.449  -1.104  1.00  0.00     0.219 HD
ENDBRANCH   9  13
BRANCH  10  15
HETATM   15  O2  UNL     1      -8.225  -1.232  -3.541  1.00  0.00    -0.354 OA
ATOM     16  H2  UNL     1      -7.581  -1.724  -4.037  1.00  0.00     0.218 HD
ENDBRANCH  10  15
BRANCH  11  17
HETATM   17  O1  UNL     1     -10.251   0.320  -1.966  1.00  0.00    -0.349 OA
HETATM   18  C1  UNL     1     -10.144   1.674  -2.422  1.00  0.00     0.210 C 
ENDBRANCH  11  17
BRANCH  12  19
HETATM   19  O6  UNL     1      -9.287   0.325   0.900  1.00  0.00    -0.344 OA
ATOM     20  H6  UNL     1      -8.976   0.321   1.798  1.00  0.00     0.219 HD
ENDBRANCH  12  19
ENDBRANCH   7   8
ENDBRANCH   6   7
ENDBRANCH   4   5
ENDBRANCH   1   3
BRANCH   2  21
HETATM   21  C12 UNL     1       0.653   0.242   1.293  1.00  0.00     0.000 C 
HETATM   22  C13 UNL     1       1.981  -0.044   1.261  1.00  0.00     0.000 C 
BRANCH  22  23
HETATM   23  C14 UNL     1       2.893   1.060   1.386  1.00  0.00     0.000 C 
HETATM   24  C15 UNL     1       4.186   0.907   1.369  1.00  0.00    -0.000 C 
BRANCH  24  25
HETATM   25  C16 UNL     1       4.799  -0.387   1.223  1.00  0.00    -0.004 C 
HETATM   26  C17 UNL     1       6.095  -0.540   1.205  1.00  0.00    -0.022 C 
BRANCH  26  27
HETATM   27  C18 UNL     1       7.055   0.554   1.327  1.00  0.00     0.073 C 
BRANCH  27  28
HETATM   28  C19 UNL     1       7.902   0.533   0.087  1.00  0.00     0.031 A 
HETATM   29  C20 UNL     1       7.555   0.975  -1.167  1.00  0.00     0.149 A 
HETATM   30  N2  UNL     1       8.620   0.756  -1.951  1.00  0.00    -0.338 N 
HETATM   31  C21 UNL     1       9.614   0.200  -1.252  1.00  0.00     0.041 A 
ATOM     32  H2  UNL     1       8.665   0.983  -2.944  1.00  0.00     0.168 HD
HETATM   33  C22 UNL     1      10.973  -0.209  -1.727  1.00  0.00     0.071 C 
HETATM   34  C23 UNL     1       9.192   0.041   0.062  1.00  0.00     0.098 A 
BRANCH  29  35
HETATM   35  O4  UNL     1       6.332   1.530  -1.498  1.00  0.00    -0.346 OA
ATOM     36  H4  UNL     1       6.092   1.836  -2.365  1.00  0.00     0.219 HD
ENDBRANCH  29  35
BRANCH  34  37
HETATM   37  O5  UNL     1       9.937  -0.501   1.096  1.00  0.00    -0.358 OA
ATOM     38  H5  UNL     1      10.824  -0.839   1.079  1.00  0.00     0.217 HD
ENDBRANCH  34  37
ENDBRANCH  27  28
ENDBRANCH  26  27
ENDBRANCH  24  25
ENDBRANCH  22  23
ENDBRANCH   2  21
TORSDOF 15
