REMARK  15 active torsions:
REMARK  status: ('A' for Active; 'I' for Inactive)
REMARK    1  A    between atoms: C3_3  and  C4_4 
REMARK    2  A    between atoms: C4_4  and  C5_5 
REMARK    3  A    between atoms: C6_6  and  C7_7 
REMARK    4  A    between atoms: C7_7  and  C8_8 
REMARK    5  A    between atoms: C9_9  and  C10_10 
REMARK    6  A    between atoms: C11_11  and  C12_12 
REMARK    7  A    between atoms: C13_13  and  C14_14 
REMARK    8  A    between atoms: C14_14  and  C21_28 
REMARK    9  A    between atoms: C15_15  and  C16_16 
REMARK   10  A    between atoms: N1_18  and  C18_20 
REMARK   11  A    between atoms: C18_20  and  C19_21 
REMARK   12  A    between atoms: C19_21  and  N3_25 
REMARK   13  A    between atoms: C23_30  and  O1_31 
REMARK   14  A    between atoms: C25_34  and  O2_35 
REMARK   15  A    between atoms: C26_37  and  O3_38 
ROOT
HETATM    1  C14 UNL     1      -2.160   0.059  -0.518  1.00  0.00    -0.021 C 
HETATM    2  C15 UNL     1      -3.254  -0.624  -0.863  1.00  0.00     0.036 C 
ENDROOT
BRANCH   1   3
HETATM    3  C13 UNL     1      -0.972  -0.245  -1.276  1.00  0.00     0.012 C 
HETATM    4  C12 UNL     1       0.232   0.169  -1.181  1.00  0.00     0.001 C 
BRANCH   4   5
HETATM    5  C11 UNL     1       0.933   1.074  -0.316  1.00  0.00     0.000 C 
HETATM    6  C10 UNL     1       2.202   1.349  -0.445  1.00  0.00    -0.000 C 
BRANCH   6   7
HETATM    7  C9  UNL     1       3.056   0.802  -1.442  1.00  0.00    -0.004 C 
HETATM    8  C8  UNL     1       4.329   1.109  -1.529  1.00  0.00    -0.023 C 
BRANCH   8   9
HETATM    9  C7  UNL     1       5.043   2.021  -0.656  1.00  0.00     0.054 C 
BRANCH   9  10
HETATM   10  C6  UNL     1       6.154   1.205  -0.016  1.00  0.00    -0.027 C 
HETATM   11  C5  UNL     1       7.393   1.569  -0.209  1.00  0.00    -0.027 C 
BRANCH  11  12
HETATM   12  C4  UNL     1       8.548   0.830   0.378  1.00  0.00     0.053 C 
BRANCH  12  13
HETATM   13  C3  UNL     1       8.102  -0.328   1.177  1.00  0.00    -0.027 C 
HETATM   14  C2  UNL     1       8.492  -1.541   0.843  1.00  0.00    -0.035 C 
HETATM   15  C1  UNL     1       9.387  -1.768  -0.342  1.00  0.00     0.036 C 
ENDBRANCH  12  13
ENDBRANCH  11  12
ENDBRANCH   9  10
ENDBRANCH   8   9
ENDBRANCH   6   7
ENDBRANCH   4   5
ENDBRANCH   1   3
BRANCH   1  16
HETATM   16  C21 UNL     1      -2.153   1.027   0.548  1.00  0.00     0.013 A 
HETATM   17  C22 UNL     1      -2.202   0.671   1.893  1.00  0.00     0.051 A 
HETATM   18  C23 UNL     1      -2.282   1.601   2.887  1.00  0.00     0.069 A 
HETATM   19  C24 UNL     1      -2.316   2.930   2.552  1.00  0.00     0.076 A 
HETATM   20  C25 UNL     1      -2.270   3.319   1.214  1.00  0.00     0.102 A 
HETATM   21  C26 UNL     1      -2.189   2.384   0.204  1.00  0.00     0.110 A 
BRANCH  18  22
HETATM   22  O1  UNL     1      -2.326   1.155   4.203  1.00  0.00    -0.361 OA
ATOM     23  H1  UNL     1      -2.382   1.803   4.896  1.00  0.00     0.217 HD
ENDBRANCH  18  22
BRANCH  20  24
HETATM   24  O2  UNL     1      -2.308   4.679   0.940  1.00  0.00    -0.358 OA
ATOM     25  H2  UNL     1      -2.277   4.944   0.028  1.00  0.00     0.217 HD
ENDBRANCH  20  24
BRANCH  21  26
HETATM   26  O3  UNL     1      -2.144   2.775  -1.122  1.00  0.00    -0.357 OA
ATOM     27  H3  UNL     1      -2.168   3.696  -1.355  1.00  0.00     0.217 HD
ENDBRANCH  21  26
ENDBRANCH   1  16
BRANCH   2  28
HETATM   28  C16 UNL     1      -4.582  -0.612  -0.375  1.00  0.00     0.002 C 
HETATM   29  C17 UNL     1      -5.233   0.180   0.669  1.00  0.00     0.068 C 
HETATM   30  N1  UNL     1      -5.399  -1.472  -0.986  1.00  0.00    -0.386 N 
ATOM     31  H1  UNL     1      -5.024  -2.055  -1.734  1.00  0.00     0.159 HD
BRANCH  30  32
HETATM   32  C18 UNL     1      -6.764  -1.608  -0.639  1.00  0.00     0.195 C 
BRANCH  32  33
HETATM   33  C19 UNL     1      -7.365  -2.815  -1.257  1.00  0.00     0.088 C 
HETATM   34  N2  UNL     1      -8.360  -2.691  -2.052  1.00  0.00    -0.388 N 
ATOM     35  H22 UNL     1      -8.727  -1.760  -2.251  1.00  0.00     0.157 HD
ATOM     36  H21 UNL     1      -8.773  -3.521  -2.477  1.00  0.00     0.157 HD
BRANCH  33  37
HETATM   37  N3  UNL     1      -6.856  -4.107  -0.981  1.00  0.00    -0.383 N 
HETATM   38  C20 UNL     1      -7.263  -5.235  -1.794  1.00  0.00     0.147 C 
ATOM     39  H3  UNL     1      -6.203  -4.244  -0.210  1.00  0.00     0.160 HD
ENDBRANCH  33  37
ENDBRANCH  32  33
ENDBRANCH  30  32
ENDBRANCH   2  28
TORSDOF 15
