REMARK  10 active torsions:
REMARK  status: ('A' for Active; 'I' for Inactive)
REMARK    1  A    between atoms: C2_2  and  C3_3 
REMARK    2  A    between atoms: C3_3  and  C4_4 
REMARK    3  A    between atoms: C4_4  and  C5_5 
REMARK    4  A    between atoms: C5_5  and  C6_6 
REMARK    5  A    between atoms: C6_6  and  N1_7 
REMARK    6  A    between atoms: C7_8  and  C8_9 
REMARK    7  A    between atoms: C8_9  and  O1_10 
REMARK    8  A    between atoms: C11_14  and  C12_15 
REMARK    9  A    between atoms: C12_15  and  N2_16 
REMARK   10  A    between atoms: N4_23  and  O3_25 
ROOT
HETATM    1  N1  UNL     1       1.074  -0.189  -0.257  1.00  0.00    -0.351 N 
HETATM    2  C7  UNL     1       0.833  -1.109  -1.203  1.00  0.00     0.035 A 
HETATM    3  C9  UNL     1      -0.478  -1.286  -1.657  1.00  0.00     0.028 A 
HETATM    4  C10 UNL     1      -1.523  -0.544  -1.161  1.00  0.00     0.013 A 
HETATM    5  C11 UNL     1      -1.244   0.390  -0.192  1.00  0.00    -0.016 A 
HETATM    6  C16 UNL     1       0.064   0.553   0.247  1.00  0.00     0.016 A 
HETATM    7  C17 UNL     1       0.271   1.582   1.285  1.00  0.00     0.069 C 
ENDROOT
BRANCH   5   8
HETATM    8  C12 UNL     1      -2.362   1.196   0.352  1.00  0.00     0.189 C 
BRANCH   8   9
HETATM    9  N2  UNL     1      -3.615   0.874  -0.290  1.00  0.00    -0.280 N 
HETATM   10  C13 UNL     1      -4.044   1.517  -1.391  1.00  0.00     0.185 A 
HETATM   11  C14 UNL     1      -5.245   1.174  -1.962  1.00  0.00     0.276 A 
HETATM   12  O2  UNL     1      -5.662   1.763  -2.991  1.00  0.00    -0.266 OA
HETATM   13  N3  UNL     1      -5.973   0.191  -1.402  1.00  0.00    -0.152 N 
HETATM   14  C15 UNL     1      -5.534  -0.444  -0.302  1.00  0.00     0.719 A 
ATOM     15  H3  UNL     1      -6.866  -0.075  -1.816  1.00  0.00     0.188 HD
HETATM   16  N4  UNL     1      -6.223  -1.382   0.239  1.00  0.00    -0.097 N 
HETATM   17  N5  UNL     1      -4.359  -0.083   0.227  1.00  0.00    -0.128 N 
ATOM     18  H4  UNL     1      -7.118  -1.653  -0.169  1.00  0.00     0.213 HD
ATOM     19  H5  UNL     1      -4.027  -0.567   1.061  1.00  0.00     0.206 HD
BRANCH  16  20
HETATM   20  O3  UNL     1      -5.764  -2.022   1.361  1.00  0.00    -0.276 OA
ATOM     21  H3  UNL     1      -6.274  -2.716   1.761  1.00  0.00     0.245 HD
ENDBRANCH  16  20
ENDBRANCH   8   9
ENDBRANCH   5   8
BRANCH   1  22
HETATM   22  C6  UNL     1       2.405   0.008   0.214  1.00  0.00     0.132 C 
BRANCH  22  23
HETATM   23  C5  UNL     1       2.797  -0.840   1.376  1.00  0.00     0.047 C 
BRANCH  23  24
HETATM   24  C4  UNL     1       4.190  -0.528   1.767  1.00  0.00    -0.025 C 
BRANCH  24  25
HETATM   25  C3  UNL     1       4.946   0.372   1.167  1.00  0.00    -0.005 C 
BRANCH  25  26
HETATM   26  C2  UNL     1       6.321   0.633   1.604  1.00  0.00    -0.011 C 
HETATM   27  C1  UNL     1       7.089   1.524   1.020  1.00  0.00     0.011 C 
ENDBRANCH  25  26
ENDBRANCH  24  25
ENDBRANCH  23  24
ENDBRANCH  22  23
ENDBRANCH   1  22
BRANCH   2  28
HETATM   28  C8  UNL     1       1.831  -1.978  -1.824  1.00  0.00     0.221 C 
BRANCH  28  29
HETATM   29  O1  UNL     1       1.764  -3.237  -1.187  1.00  0.00    -0.395 OA
ATOM     30  H1  UNL     1       2.413  -3.802  -1.591  1.00  0.00     0.209 HD
ENDBRANCH  28  29
ENDBRANCH   2  28
TORSDOF 10
