REMARK  2 active torsions:
REMARK  status: ('A' for Active; 'I' for Inactive)
REMARK    1  A    between atoms: C2_2  and  C3_3 
REMARK    2  A    between atoms: C10_10  and  C11_11 
ROOT
HETATM    1  C3  UNL     1      -1.057  -0.161   0.531  1.00  0.00    -0.039 C 
HETATM    2  C4  UNL     1      -1.957   0.060  -0.650  1.00  0.00     0.010 C 
HETATM    3  C5  UNL     1      -1.899   1.551  -0.971  1.00  0.00     0.005 C 
HETATM    4  C6  UNL     1      -0.939   2.147   0.056  1.00  0.00    -0.013 C 
HETATM    5  C7  UNL     1       0.352   2.560  -0.436  1.00  0.00     0.009 C 
HETATM    6  C8  UNL     1       1.447   1.681  -0.789  1.00  0.00    -0.012 C 
HETATM    7  C9  UNL     1       2.051   0.836   0.279  1.00  0.00     0.021 C 
HETATM    8  C10 UNL     1       1.368  -0.349  -0.343  1.00  0.00     0.017 C 
HETATM    9  C12 UNL     1       1.204   0.462  -1.583  1.00  0.00     0.021 C 
HETATM   10  C13 UNL     1       0.185  -0.860   0.329  1.00  0.00     0.026 C 
HETATM   11  C14 UNL     1      -1.048   1.183   1.170  1.00  0.00     0.014 C 
ENDROOT
BRANCH   8  12
HETATM   12  C11 UNL     1       2.352  -1.476  -0.487  1.00  0.00     0.095 C 
HETATM   13  N1  UNL     1       2.609  -1.946  -1.655  1.00  0.00    -0.390 N 
ATOM     14  H12 UNL     1       2.137  -1.543  -2.464  1.00  0.00     0.157 HD
ATOM     15  H11 UNL     1       3.277  -2.711  -1.753  1.00  0.00     0.157 HD
HETATM   16  N2  UNL     1       3.003  -2.032   0.628  1.00  0.00    -0.087 NA
ENDBRANCH   8  12
BRANCH   1  17
HETATM   17  C2  UNL     1      -1.864  -1.070   1.497  1.00  0.00     0.005 C 
HETATM   18  C1  UNL     1      -2.211  -2.373   0.834  1.00  0.00     0.006 C 
ENDBRANCH   1  17
TORSDOF 2
