REMARK  3 active torsions:
REMARK  status: ('A' for Active; 'I' for Inactive)
REMARK    1  A    between atoms: C2_2  and  C3_3 
REMARK    2  A    between atoms: C5_5  and  C6_6 
REMARK    3  A    between atoms: C6_6  and  O1_9 
ROOT
HETATM    1  C3  UNL     1      -1.093   0.106  -0.739  1.00  0.00    -0.033 C 
HETATM    2  C4  UNL     1       0.314   0.614  -0.644  1.00  0.00     0.018 C 
HETATM    3  C5  UNL     1       1.320  -0.497  -0.464  1.00  0.00     0.020 C 
HETATM    4  C9  UNL     1       0.720  -1.670   0.277  1.00  0.00     0.013 C 
HETATM    5  C10 UNL     1      -0.739  -1.824  -0.065  1.00  0.00    -0.005 C 
HETATM    6  C11 UNL     1      -1.040  -1.230  -1.448  1.00  0.00     0.015 C 
HETATM    7  C12 UNL     1      -1.565  -0.641   0.465  1.00  0.00    -0.036 C 
HETATM    8  C13 UNL     1      -1.218  -0.150   1.814  1.00  0.00     0.016 C 
HETATM    9  C14 UNL     1      -3.022  -1.031   0.388  1.00  0.00     0.016 C 
ENDROOT
BRANCH   3  10
HETATM   10  C6  UNL     1       2.622  -0.073   0.125  1.00  0.00     0.054 C 
HETATM   11  C7  UNL     1       3.321   0.976  -0.751  1.00  0.00     0.045 C 
HETATM   12  C8  UNL     1       2.572   0.494   1.501  1.00  0.00     0.045 C 
BRANCH  10  13
HETATM   13  O1  UNL     1       3.502  -1.172   0.140  1.00  0.00    -0.390 OA
ATOM     14  H1  UNL     1       4.332  -0.902   0.515  1.00  0.00     0.210 HD
ENDBRANCH  10  13
ENDBRANCH   3  10
BRANCH   1  15
HETATM   15  C2  UNL     1      -2.023   1.112  -1.339  1.00  0.00     0.005 C 
HETATM   16  C1  UNL     1      -2.101   2.388  -0.560  1.00  0.00     0.006 C 
ENDBRANCH   1  15
TORSDOF 3
