REMARK  3 active torsions:
REMARK  status: ('A' for Active; 'I' for Inactive)
REMARK    1  A    between atoms: N1_1  and  C1_5 
REMARK    2  A    between atoms: C6_13  and  C7_14 
REMARK    3  A    between atoms: C13_26  and  O1_27 
ROOT
HETATM    1  C1  UNL     1      -2.549  -1.399   0.578  1.00  0.00     0.383 C 
HETATM    2  N2  UNL     1      -3.048  -0.155   1.005  1.00  0.00    -0.346 N 
ATOM      3  H2  UNL     1      -3.762  -0.136   1.733  1.00  0.00     0.163 HD
HETATM    4  C2  UNL     1      -2.584   1.105   0.448  1.00  0.00     0.047 A 
HETATM    5  C3  UNL     1      -3.033   2.358   0.721  1.00  0.00     0.037 A 
HETATM    6  C4  UNL     1      -2.423   3.384   0.062  1.00  0.00     0.052 A 
HETATM    7  S1  UNL     1      -1.259   2.601  -0.905  1.00  0.00    -0.102 SA
HETATM    8  C5  UNL     1      -1.572   0.985  -0.451  1.00  0.00     0.037 A 
HETATM    9  C6  UNL     1      -0.938  -0.294  -0.880  1.00  0.00     0.177 C 
HETATM   10  N6  UNL     1      -1.563  -1.440  -0.400  1.00  0.00    -0.366 N 
ATOM     11  H6  UNL     1      -1.287  -2.345  -0.781  1.00  0.00     0.158 HD
ENDROOT
BRANCH   9  12
HETATM   12  C7  UNL     1       0.552  -0.277  -0.651  1.00  0.00     0.090 A 
HETATM   13  N3  UNL     1       1.077   0.210   0.472  1.00  0.00    -0.338 N 
HETATM   14  C8  UNL     1       2.435   0.194   0.598  1.00  0.00     0.132 A 
ATOM     15  H3  UNL     1       0.483   0.582   1.213  1.00  0.00     0.167 HD
HETATM   16  N4  UNL     1       3.021   0.675   1.714  1.00  0.00    -0.350 N 
HETATM   17  C12 UNL     1       3.268  -0.302  -0.381  1.00  0.00     0.078 A 
HETATM   18  C9  UNL     1       4.344   0.690   1.905  1.00  0.00     0.090 A 
ATOM     19  H4  UNL     1       2.423   1.047   2.451  1.00  0.00     0.166 HD
HETATM   20  C10 UNL     1       5.172   0.196   0.927  1.00  0.00     0.019 A 
HETATM   21  C11 UNL     1       4.645  -0.308  -0.233  1.00  0.00     0.035 A 
HETATM   22  N5  UNL     1       2.725  -0.800  -1.530  1.00  0.00    -0.332 N 
HETATM   23  C13 UNL     1       1.389  -0.775  -1.636  1.00  0.00     0.166 A 
ATOM     24  H5  UNL     1       3.311  -1.175  -2.276  1.00  0.00     0.168 HD
BRANCH  23  25
HETATM   25  O1  UNL     1       0.826  -1.288  -2.818  1.00  0.00    -0.345 OA
ATOM     26  H1  UNL     1       1.400  -1.630  -3.494  1.00  0.00     0.219 HD
ENDBRANCH  23  25
ENDBRANCH   9  12
BRANCH   1  27
HETATM   27  N1  UNL     1      -3.697  -2.187   0.085  1.00  0.00    -0.041 N 
ATOM     28  H13 UNL     1      -4.447  -2.272   0.772  1.00  0.00     0.279 HD
ATOM     29  H12 UNL     1      -4.233  -1.703  -0.636  1.00  0.00     0.279 HD
ATOM     30  H11 UNL     1      -3.335  -3.089  -0.225  1.00  0.00     0.279 HD
ENDBRANCH   1  27
TORSDOF 3
