REMARK  9 active torsions:
REMARK  status: ('A' for Active; 'I' for Inactive)
REMARK    1  A    between atoms: C4_4  and  C5_5 
REMARK    2  A    between atoms: C5_5  and  N1_6 
REMARK    3  A    between atoms: N1_6  and  C6_8 
REMARK    4  A    between atoms: C7_11  and  C8_12 
REMARK    5  A    between atoms: C8_12  and  C9_13 
REMARK    6  A    between atoms: C8_12  and  C15_19 
REMARK    7  A    between atoms: C16_20  and  O1_21 
REMARK    8  A    between atoms: N5_35  and  C24_36 
REMARK    9  A    between atoms: C24_36  and  C25_37 
ROOT
HETATM    1  C6  UNL     1      -1.075  -0.184  -0.867  1.00  0.00     0.681 A 
HETATM    2  N2  UNL     1      -0.009  -0.726  -0.301  1.00  0.00    -0.190 N 
ATOM      3  H2  UNL     1      -0.108  -1.665   0.084  1.00  0.00     0.184 HD
HETATM    4  C7  UNL     1       1.221  -0.122  -0.191  1.00  0.00     0.074 A 
HETATM    5  C18 UNL     1       1.253   1.144  -0.741  1.00  0.00     0.019 A 
HETATM    6  C19 UNL     1       2.439   1.845  -0.692  1.00  0.00     0.016 A 
HETATM    7  C20 UNL     1       2.517   3.117  -1.233  1.00  0.00     0.001 A 
HETATM    8  C21 UNL     1       1.401   3.657  -1.813  1.00  0.00     0.002 A 
HETATM    9  C22 UNL     1       0.197   2.992  -1.885  1.00  0.00     0.031 A 
HETATM   10  C23 UNL     1       0.120   1.726  -1.345  1.00  0.00     0.064 A 
HETATM   11  N5  UNL     1      -1.047   1.068  -1.410  1.00  0.00    -0.178 N 
ENDROOT
BRANCH   4  12
HETATM   12  C8  UNL     1       2.339  -0.816   0.469  1.00  0.00     0.022 C 
BRANCH  12  13
HETATM   13  C9  UNL     1       3.286  -1.533  -0.359  1.00  0.00    -0.022 A 
HETATM   14  C10 UNL     1       3.397  -1.351  -1.692  1.00  0.00     0.012 A 
HETATM   15  C11 UNL     1       4.310  -2.074  -2.433  1.00  0.00     0.001 A 
HETATM   16  C12 UNL     1       5.137  -3.003  -1.850  1.00  0.00     0.000 A 
HETATM   17  C13 UNL     1       5.023  -3.190  -0.492  1.00  0.00     0.001 A 
HETATM   18  C14 UNL     1       4.111  -2.464   0.235  1.00  0.00     0.012 A 
ENDBRANCH  12  13
BRANCH  12  19
HETATM   19  C15 UNL     1       2.808  -0.221   1.734  1.00  0.00     0.099 A 
HETATM   20  C16 UNL     1       4.026   0.110   2.244  1.00  0.00     0.172 A 
HETATM   21  N3  UNL     1       3.841   0.622   3.470  1.00  0.00    -0.276 N 
HETATM   22  N4  UNL     1       2.553   0.632   3.762  1.00  0.00    -0.264 N 
ATOM     23  H3  UNL     1       4.584   0.954   4.085  1.00  0.00     0.189 HD
HETATM   24  C17 UNL     1       1.886   0.127   2.731  1.00  0.00     0.275 A 
ATOM     25  H4  UNL     1       2.141   0.970   4.632  1.00  0.00     0.190 HD
HETATM   26  O2  UNL     1       0.637  -0.003   2.692  1.00  0.00    -0.266 OA
BRANCH  20  27
HETATM   27  O1  UNL     1       5.229  -0.055   1.603  1.00  0.00    -0.344 OA
ATOM     28  H1  UNL     1       6.079   0.176   1.959  1.00  0.00     0.219 HD
ENDBRANCH  20  27
ENDBRANCH  12  19
ENDBRANCH   4  12
BRANCH   1  29
HETATM   29  N1  UNL     1      -2.206  -0.821  -0.983  1.00  0.00    -0.225 N 
ATOM     30  H1  UNL     1      -2.975  -0.326  -1.435  1.00  0.00     0.177 HD
BRANCH  29  31
HETATM   31  C5  UNL     1      -2.461  -2.150  -0.533  1.00  0.00     0.143 C 
BRANCH  31  32
HETATM   32  C4  UNL     1      -3.660  -2.060   0.419  1.00  0.00     0.008 A 
HETATM   33  C2  UNL     1      -4.123  -3.368   1.031  1.00  0.00    -0.013 A 
HETATM   34  C1  UNL     1      -3.376  -4.621   0.711  1.00  0.00     0.010 C 
HETATM   35  C3  UNL     1      -3.395  -2.336   1.856  1.00  0.00     0.011 A 
ENDBRANCH  31  32
ENDBRANCH  29  31
ENDBRANCH   1  29
BRANCH  11  36
HETATM   36  C24 UNL     1      -2.245   1.615  -1.965  1.00  0.00     0.186 C 
BRANCH  36  37
HETATM   37  C25 UNL     1      -3.043   2.478  -1.059  1.00  0.00    -0.039 A 
HETATM   38  C26 UNL     1      -3.302   2.250   0.252  1.00  0.00     0.012 A 
HETATM   39  C27 UNL     1      -4.110   3.114   0.995  1.00  0.00     0.043 A 
HETATM   40  C28 UNL     1      -4.637   4.207   0.358  1.00  0.00     0.116 A 
HETATM   41  F1  UNL     1      -5.426   5.077   1.031  1.00  0.00    -0.206 F 
HETATM   42  C29 UNL     1      -4.388   4.463  -0.977  1.00  0.00     0.043 A 
HETATM   43  C30 UNL     1      -3.601   3.608  -1.674  1.00  0.00     0.012 A 
ENDBRANCH  36  37
ENDBRANCH  11  36
TORSDOF 9
