REMARK  8 active torsions:
REMARK  status: ('A' for Active; 'I' for Inactive)
REMARK    1  A    between atoms: C6_7  and  C8_9 
REMARK    2  A    between atoms: C9_12  and  N1_13 
REMARK    3  A    between atoms: N1_13  and  C10_15 
REMARK    4  A    between atoms: C10_15  and  C11_16 
REMARK    5  A    between atoms: C11_16  and  C12_17 
REMARK    6  A    between atoms: C18_24  and  O4_25 
REMARK    7  A    between atoms: C27_35  and  C28_36 
REMARK    8  A    between atoms: C28_36  and  C29_37 
ROOT
HETATM    1  C1  UNL     1      -1.773  -0.838  -2.630  1.00  0.00     0.016 C 
HETATM    2  C2  UNL     1      -1.206  -0.416  -1.467  1.00  0.00    -0.069 C 
HETATM    3  C3  UNL     1       0.234  -0.329  -1.690  1.00  0.00     0.052 C 
HETATM    4  C4  UNL     1       0.710  -1.706  -2.029  1.00  0.00     0.004 C 
HETATM    5  C5  UNL     1       2.006  -1.985  -2.127  1.00  0.00     0.029 C 
HETATM    6 CL1  UNL     1       2.541  -3.622  -2.525  1.00  0.00    -0.088 Cl
HETATM    7  C6  UNL     1       2.952  -0.855  -1.923  1.00  0.00     0.103 C 
HETATM    8  C7  UNL     1       2.866  -0.003  -3.189  1.00  0.00     0.035 C 
HETATM    9  C9  UNL     1       2.580  -0.077  -0.730  1.00  0.00     0.113 C 
HETATM   10  C14 UNL     1       1.102   0.233  -0.640  1.00  0.00     0.092 C 
HETATM   11  C15 UNL     1       0.470  -0.216   0.647  1.00  0.00     0.144 C 
HETATM   12  O3  UNL     1       0.817  -1.235   1.174  1.00  0.00    -0.297 OA
HETATM   13  C16 UNL     1      -0.595   0.520   1.357  1.00  0.00     0.119 C 
HETATM   14  C17 UNL     1      -0.069   1.931   1.509  1.00  0.00     0.052 C 
HETATM   15  C18 UNL     1      -0.689   2.737   0.672  1.00  0.00     0.177 C 
HETATM   16  O5  UNL     1      -1.604   2.004  -0.049  1.00  0.00    -0.317 OA
HETATM   17  C20 UNL     1      -1.855   0.762   0.632  1.00  0.00     0.099 C 
HETATM   18  C21 UNL     1      -2.974   1.002   1.579  1.00  0.00     0.023 C 
HETATM   19  C22 UNL     1      -2.578   1.822   2.808  1.00  0.00     0.013 C 
HETATM   20  C23 UNL     1      -3.991   1.847   0.859  1.00  0.00    -0.012 C 
HETATM   21  C24 UNL     1      -5.299   1.815   1.669  1.00  0.00     0.010 C 
HETATM   22  C25 UNL     1      -4.204   1.500  -0.550  1.00  0.00     0.006 C 
HETATM   23  C26 UNL     1      -3.410   0.463  -1.185  1.00  0.00     0.018 C 
HETATM   24  C27 UNL     1      -2.270  -0.200  -0.447  1.00  0.00     0.019 C 
ENDROOT
BRANCH   9  25
HETATM   25  N1  UNL     1       3.019  -0.416   0.549  1.00  0.00    -0.415 N 
ATOM     26  H1  UNL     1       2.300  -0.682   1.222  1.00  0.00     0.153 HD
BRANCH  25  27
HETATM   27  C10 UNL     1       4.337  -0.430   1.005  1.00  0.00     0.114 C 
BRANCH  27  28
HETATM   28  C11 UNL     1       4.852   1.018   1.108  1.00  0.00     0.019 C 
BRANCH  28  29
HETATM   29  C12 UNL     1       6.294   1.010   1.601  1.00  0.00    -0.003 C 
HETATM   30  C13 UNL     1       6.375   0.352   2.962  1.00  0.00     0.005 C 
ENDBRANCH  28  29
ENDBRANCH  27  28
ENDBRANCH  25  27
ENDBRANCH   9  25
BRANCH   7  31
HETATM   31  C8  UNL     1       4.362  -1.335  -1.939  1.00  0.00     0.189 C 
HETATM   32  O1  UNL     1       4.706  -2.531  -1.818  1.00  0.00    -0.647 OA
HETATM   33  O2  UNL     1       5.348  -0.379  -2.103  1.00  0.00    -0.647 OA
ENDBRANCH   7  31
BRANCH  24  34
HETATM   34  C28 UNL     1      -2.654  -1.547   0.113  1.00  0.00     0.044 C 
BRANCH  34  35
HETATM   35  C29 UNL     1      -3.167  -2.571  -0.796  1.00  0.00    -0.024 C 
HETATM   36  C30 UNL     1      -2.677  -3.802  -0.952  1.00  0.00    -0.091 C 
HETATM   37  C31 UNL     1      -1.528  -4.374  -0.239  1.00  0.00     0.042 C 
HETATM   38  C32 UNL     1      -3.343  -4.725  -1.956  1.00  0.00     0.042 C 
ENDBRANCH  34  35
ENDBRANCH  24  34
BRANCH  15  39
HETATM   39  O4  UNL     1      -0.452   4.081   0.550  1.00  0.00    -0.336 OA
HETATM   40  C19 UNL     1      -1.446   5.045   0.453  1.00  0.00     0.212 C 
ENDBRANCH  15  39
TORSDOF 8
