REMARK  7 active torsions:
REMARK  status: ('A' for Active; 'I' for Inactive)
REMARK    1  A    between atoms: C4_10  and  C5_11 
REMARK    2  A    between atoms: N4_14  and  C8_15 
REMARK    3  A    between atoms: C8_15  and  C9_16 
REMARK    4  A    between atoms: N6_21  and  C13_22 
REMARK    5  A    between atoms: C13_22  and  C14_23 
REMARK    6  A    between atoms: C14_23  and  C15_24 
REMARK    7  A    between atoms: C20_33  and  C21_34 
ROOT
HETATM    1  C5  UNL     1      -3.637   0.166  -0.316  1.00  0.00    -0.017 A 
HETATM    2  C6  UNL     1      -2.940   1.338  -0.154  1.00  0.00     0.029 A 
HETATM    3  C7  UNL     1      -1.620   1.423  -0.512  1.00  0.00     0.092 A 
HETATM    4  N4  UNL     1      -0.947   0.362  -1.037  1.00  0.00    -0.351 N 
HETATM    5  C20 UNL     1      -1.633  -0.776  -1.192  1.00  0.00     0.050 A 
HETATM    6  C22 UNL     1      -2.966  -0.897  -0.842  1.00  0.00     0.043 A 
ENDROOT
BRANCH   4   7
HETATM    7  C8  UNL     1       0.427   0.592  -1.326  1.00  0.00     0.170 C 
BRANCH   7   8
HETATM    8  C9  UNL     1       1.382   0.419  -0.244  1.00  0.00    -0.008 A 
HETATM    9  C10 UNL     1       1.597   1.451   0.645  1.00  0.00     0.101 A 
HETATM   10  N5  UNL     1       2.498   1.248   1.625  1.00  0.00    -0.356 N 
HETATM   11  C11 UNL     1       2.731   2.340   2.573  1.00  0.00     0.156 C 
HETATM   12  C12 UNL     1       3.182   0.100   1.765  1.00  0.00     0.189 A 
HETATM   13  N6  UNL     1       3.007  -0.916   0.934  1.00  0.00    -0.328 N 
HETATM   14  C19 UNL     1       2.093  -0.731  -0.072  1.00  0.00     0.107 A 
BRANCH  13  15
HETATM   15  C13 UNL     1       3.674  -2.142   1.006  1.00  0.00     0.097 C 
BRANCH  15  16
HETATM   16  C14 UNL     1       4.859  -2.384   0.195  1.00  0.00     0.020 C 
BRANCH  16  17
HETATM   17  C15 UNL     1       6.114  -1.664   0.281  1.00  0.00     0.032 C 
HETATM   18  C16 UNL     1       6.263  -0.252  -0.001  1.00  0.00     0.048 A 
HETATM   19  C17 UNL     1       6.383   0.259  -1.292  1.00  0.00     0.118 A 
HETATM   20  N8  UNL     1       6.411   0.817   0.794  1.00  0.00    -0.351 N 
HETATM   21  N7  UNL     1       6.591   1.575  -1.198  1.00  0.00    -0.360 N 
HETATM   22  C18 UNL     1       6.612   1.940   0.095  1.00  0.00     0.180 A 
ATOM     23  H7  UNL     1       6.715   2.208  -1.989  1.00  0.00     0.166 HD
ATOM     24  H8  UNL     1       6.375   0.779   1.813  1.00  0.00     0.166 HD
ENDBRANCH  16  17
ENDBRANCH  15  16
ENDBRANCH  13  15
ENDBRANCH   7   8
ENDBRANCH   4   7
BRANCH   5  25
HETATM   25  C21 UNL     1      -0.969  -1.906  -1.779  1.00  0.00     0.110 C 
HETATM   26  N9  UNL     1      -1.510  -3.032  -1.937  1.00  0.00    -0.406 N 
ATOM     27  H92 UNL     1      -2.476  -3.130  -1.625  1.00  0.00     0.155 HD
ATOM     28  H91 UNL     1      -1.038  -3.835  -2.354  1.00  0.00     0.155 HD
ENDBRANCH   5  25
BRANCH   1  29
HETATM   29  C4  UNL     1      -5.051   0.043   0.049  1.00  0.00     0.033 A 
HETATM   30  C3  UNL     1      -5.489  -1.019   0.803  1.00  0.00     0.112 A 
HETATM   31  N2  UNL     1      -6.820  -1.077   1.102  1.00  0.00    -0.338 N 
HETATM   32  N3  UNL     1      -4.730  -1.945   1.243  1.00  0.00    -0.385 N 
HETATM   33  C2  UNL     1      -7.693  -0.143   0.688  1.00  0.00     0.183 A 
ATOM     34  H2  UNL     1      -7.164  -1.858   1.660  1.00  0.00     0.168 HD
HETATM   35  N1  UNL     1      -7.279   0.902  -0.050  1.00  0.00    -0.356 N 
HETATM   36  C1  UNL     1      -8.256   1.897  -0.483  1.00  0.00     0.156 C 
HETATM   37  C23 UNL     1      -5.976   0.981  -0.358  1.00  0.00     0.107 A 
ATOM     38  H32 UNL     1      -5.055  -2.733   1.803  1.00  0.00     0.157 HD
ATOM     39  H31 UNL     1      -3.736  -1.902   1.020  1.00  0.00     0.157 HD
ENDBRANCH   1  29
TORSDOF 7
