REMARK  4 active torsions:
REMARK  status: ('A' for Active; 'I' for Inactive)
REMARK    1  A    between atoms: N5_24  and  C12_25 
REMARK    2  A    between atoms: C12_25  and  C13_26 
REMARK    3  A    between atoms: C13_26  and  C14_27 
REMARK    4  A    between atoms: C14_27  and  N6_28 
ROOT
HETATM    1  N1  UNL     1       1.008  -0.312   2.131  1.00  0.00    -0.387 N 
ATOM      2  H11 UNL     1       1.703   0.434   2.139  1.00  0.00     0.157 HD
ATOM      3  H12 UNL     1       0.619  -0.731   2.976  1.00  0.00     0.157 HD
HETATM    4  C1  UNL     1       0.598  -0.752   1.015  1.00  0.00     0.102 C 
HETATM    5  C2  UNL     1      -0.415  -1.840   1.003  1.00  0.00     0.307 C 
HETATM    6  N2  UNL     1      -1.520  -1.507   1.882  1.00  0.00    -0.067 N 
ATOM      7  H21 UNL     1      -1.655  -0.498   1.944  1.00  0.00     0.277 HD
ATOM      8  H22 UNL     1      -1.289  -1.697   2.857  1.00  0.00     0.277 HD
HETATM    9  C3  UNL     1      -2.743  -2.180   1.487  1.00  0.00     0.260 C 
HETATM   10  C4  UNL     1      -3.904  -1.312   1.808  1.00  0.00     0.260 C 
HETATM   11  N3  UNL     1      -4.911  -1.265   0.782  1.00  0.00    -0.065 N 
ATOM     12  H31 UNL     1      -5.706  -0.699   1.079  1.00  0.00     0.277 HD
ATOM     13  H32 UNL     1      -5.375  -2.168   0.687  1.00  0.00     0.277 HD
HETATM   14  C5  UNL     1      -4.404  -0.811  -0.492  1.00  0.00     0.334 C 
HETATM   15  C6  UNL     1      -5.147   0.365  -1.019  1.00  0.00     0.243 C 
HETATM   16  O1  UNL     1      -6.035   0.115  -1.894  1.00  0.00    -0.272 OA
HETATM   17  N4  UNL     1      -4.954   1.693  -0.640  1.00  0.00    -0.360 N 
ATOM     18  H4  UNL     1      -5.796   2.250  -0.495  1.00  0.00     0.162 HD
HETATM   19  C7  UNL     1      -3.697   2.366  -0.430  1.00  0.00     0.122 C 
HETATM   20  C8  UNL     1      -2.625   1.989  -1.407  1.00  0.00     0.020 C 
HETATM   21  C9  UNL     1      -1.334   1.836  -0.586  1.00  0.00     0.003 C 
HETATM   22  C10 UNL     1      -0.161   1.488  -1.433  1.00  0.00     0.020 C 
HETATM   23  C11 UNL     1       0.276   0.056  -1.335  1.00  0.00     0.129 C 
HETATM   24  N5  UNL     1       1.137  -0.171  -0.156  1.00  0.00    -0.349 N 
ENDROOT
BRANCH  24  25
HETATM   25  C12 UNL     1       2.477   0.218  -0.300  1.00  0.00     0.067 C 
BRANCH  25  26
HETATM   26  C13 UNL     1       3.442   0.063   0.794  1.00  0.00     0.064 C 
BRANCH  26  27
HETATM   27  C14 UNL     1       4.791   0.584   0.242  1.00  0.00     0.127 C 
BRANCH  27  28
HETATM   28  N6  UNL     1       5.111  -0.242  -0.904  1.00  0.00    -0.367 N 
HETATM   29  C15 UNL     1       6.325  -0.557  -1.212  1.00  0.00     0.196 C 
HETATM   30  N7  UNL     1       7.361  -0.071  -0.393  1.00  0.00    -0.067 NA
HETATM   31  N8  UNL     1       6.590  -1.364  -2.338  1.00  0.00    -0.067 NA
ATOM     32  H6  UNL     1       4.350  -0.587  -1.489  1.00  0.00     0.161 HD
ENDBRANCH  27  28
ENDBRANCH  26  27
ENDBRANCH  25  26
ENDBRANCH  24  25
TORSDOF 4
