REMARK  4 active torsions:
REMARK  status: ('A' for Active; 'I' for Inactive)
REMARK       I    between atoms: C2_2  and  N1_4 
REMARK    1  A    between atoms: N1_4  and  C3_6 
REMARK    2  A    between atoms: C8_11  and  C9_12 
REMARK       I    between atoms: C9_12  and  N2_14 
REMARK    3  A    between atoms: C10_16  and  C11_17 
REMARK       I    between atoms: C11_17  and  N3_19 
REMARK    4  A    between atoms: N3_19  and  N4_21 
REMARK       I    between atoms: N4_21  and  C12_23 
REMARK       I    between atoms: N6_25  and  C13_27 
ROOT
HETATM    1  C9  UNL     1       0.774  -0.820  -0.367  1.00  0.00     0.227 C 
HETATM    2  O2  UNL     1       0.524  -1.956   0.168  1.00  0.00    -0.273 OA
HETATM    3  N2  UNL     1       0.256  -0.501  -1.597  1.00  0.00    -0.331 N 
ATOM      4  H2  UNL     1       0.903  -0.712  -2.357  1.00  0.00     0.168 HD
HETATM    5  C10 UNL     1      -0.820  -0.013  -2.011  1.00  0.00     0.166 C 
ENDROOT
BRANCH   5   6
HETATM    6  C11 UNL     1      -1.986   0.420  -1.291  1.00  0.00     0.275 C 
HETATM    7  O3  UNL     1      -2.968   0.892  -1.967  1.00  0.00    -0.265 OA
HETATM    8  N3  UNL     1      -2.156   0.374   0.122  1.00  0.00    -0.263 N 
ATOM      9  H3  UNL     1      -1.412   0.011   0.718  1.00  0.00     0.190 HD
BRANCH   8  10
HETATM   10  N4  UNL     1      -3.366   0.837   0.692  1.00  0.00    -0.271 N 
HETATM   11  C12 UNL     1      -4.606   0.206   0.449  1.00  0.00     0.209 C 
HETATM   12  N5  UNL     1      -4.890  -1.022   1.100  1.00  0.00    -0.062 NA
HETATM   13  N6  UNL     1      -5.484   0.709  -0.341  1.00  0.00    -0.304 N 
HETATM   14  C13 UNL     1      -6.731   0.094  -0.599  1.00  0.00     0.188 C 
ATOM     15  H6  UNL     1      -5.272   1.593  -0.804  1.00  0.00     0.171 HD
HETATM   16  N7  UNL     1      -7.682   0.193   0.251  1.00  0.00    -0.373 N 
HETATM   17  N8  UNL     1      -6.931  -0.635  -1.806  1.00  0.00    -0.064 NA
ATOM     18  H72 UNL     1      -7.539   0.715   1.115  1.00  0.00     0.158 HD
ATOM     19  H71 UNL     1      -8.581  -0.251   0.065  1.00  0.00     0.158 HD
ATOM     20  H4  UNL     1      -3.342   1.656   1.300  1.00  0.00     0.189 HD
ENDBRANCH   8  10
ENDBRANCH   5   6
BRANCH   1  21
HETATM   21  C8  UNL     1       1.639   0.088   0.422  1.00  0.00     0.101 C 
HETATM   22  C3  UNL     1       2.872   0.503  -0.311  1.00  0.00     0.097 C 
HETATM   23  C4  UNL     1       3.370   1.782   0.374  1.00  0.00     0.026 C 
HETATM   24  C5  UNL     1       2.988   1.854   1.810  1.00  0.00     0.002 C 
HETATM   25  C6  UNL     1       2.809   0.558   2.516  1.00  0.00     0.001 C 
HETATM   26  C7  UNL     1       2.026  -0.466   1.748  1.00  0.00     0.016 C 
BRANCH  22  27
HETATM   27  N1  UNL     1       3.968  -0.430  -0.235  1.00  0.00    -0.356 N 
HETATM   28  C2  UNL     1       4.581  -0.925  -1.409  1.00  0.00     0.213 C 
HETATM   29  C1  UNL     1       5.704  -1.876  -1.423  1.00  0.00     0.117 C 
HETATM   30  O1  UNL     1       4.142  -0.531  -2.518  1.00  0.00    -0.274 OA
ATOM     31  H1  UNL     1       4.306  -0.737   0.677  1.00  0.00     0.162 HD
ENDBRANCH  22  27
ENDBRANCH   1  21
TORSDOF 4
