REMARK  5 active torsions:
REMARK  status: ('A' for Active; 'I' for Inactive)
REMARK    1  A    between atoms: N2_3  and  C2_5 
REMARK    2  A    between atoms: C2_5  and  N3_7 
REMARK    3  A    between atoms: N3_7  and  C3_9 
REMARK    4  A    between atoms: C3_9  and  N4_11 
REMARK    5  A    between atoms: N4_11  and  N5_13 
ROOT
HETATM    1  N3  UNL     1      -0.435   0.083  -0.505  1.00  0.00    -0.309 N 
ATOM      2  H3  UNL     1      -0.283   0.913  -1.079  1.00  0.00     0.170 HD
ENDROOT
BRANCH   1   3
HETATM    3  C2  UNL     1       0.653  -0.750  -0.223  1.00  0.00     0.178 C 
HETATM    4  S1  UNL     1       0.610  -2.111   0.670  1.00  0.00    -0.040 SA
BRANCH   3   5
HETATM    5  N2  UNL     1       1.939  -0.375  -0.771  1.00  0.00    -0.331 N 
HETATM    6  C1  UNL     1       2.968  -0.227  -0.017  1.00  0.00     0.191 C 
HETATM    7  N1  UNL     1       4.189   0.143  -0.642  1.00  0.00    -0.097 NA
ATOM      8  H2  UNL     1       2.030  -0.225  -1.776  1.00  0.00     0.168 HD
ENDBRANCH   3   5
ENDBRANCH   1   3
BRANCH   1   9
HETATM    9  C3  UNL     1      -1.731  -0.181  -0.027  1.00  0.00     0.192 C 
HETATM   10  S2  UNL     1      -2.008  -1.496   0.891  1.00  0.00    -0.039 SA
BRANCH   9  11
HETATM   11  N4  UNL     1      -2.810   0.714  -0.351  1.00  0.00    -0.283 N 
ATOM     12  H4  UNL     1      -2.644   1.541  -0.925  1.00  0.00     0.188 HD
BRANCH  11  13
HETATM   13  N5  UNL     1      -4.078   0.432   0.131  1.00  0.00    -0.343 N 
ATOM     14  H52 UNL     1      -4.227  -0.399   0.704  1.00  0.00     0.176 HD
ATOM     15  H51 UNL     1      -4.843   1.066  -0.099  1.00  0.00     0.176 HD
ENDBRANCH  11  13
ENDBRANCH   9  11
ENDBRANCH   1   9
TORSDOF 5
